MODEL 1
REMARK VINA RESULT:    -6.595      0.000      0.000
REMARK INTER + INTRA:         -13.795
REMARK INTER:                 -12.764
REMARK INTRA:                  -1.031
REMARK UNBOUND:                -1.031
REMARK SMILES CCCCCCCCCCCCCCCCCC(=O)[O-]
REMARK SMILES IDX 10 1 11 2 12 3 13 4 14 5 15 6 16 7 17 8 18 9 19 10 20 11
REMARK SMILES IDX 9 12 8 13 7 14 6 15 5 16 4 17 3 18 2 19 1 20
REMARK H PARENT
REMARK Flexibility Score: inf
ROOT
ATOM      1  C   UNL     1      32.985  -8.030  20.935  1.00  0.00     0.000 C 
ENDROOT
BRANCH   1   2
ATOM      2  C   UNL     1      33.169  -9.186  19.939  1.00  0.00     0.000 C 
BRANCH   2   3
ATOM      3  C   UNL     1      34.543  -9.861  20.060  1.00  0.00     0.000 C 
BRANCH   3   4
ATOM      4  C   UNL     1      35.264  -9.508  21.371  1.00  0.00     0.000 C 
BRANCH   4   5
ATOM      5  C   UNL     1      36.485 -10.411  21.586  1.00  0.00     0.000 C 
BRANCH   5   6
ATOM      6  C   UNL     1      37.481  -9.768  22.563  1.00  0.00     0.000 C 
BRANCH   6   7
ATOM      7  C   UNL     1      37.280  -8.251  22.699  1.00  0.00     0.006 C 
BRANCH   7   8
ATOM      8  C   UNL     1      36.933  -7.827  24.132  1.00  0.00     0.053 C 
BRANCH   8   9
ATOM      9  C   UNL     1      37.889  -8.441  25.104  1.00  0.00     0.041 C 
ATOM     10  O   UNL     1      37.479  -9.268  25.960  1.00  0.00    -0.550 OA
ATOM     11  O   UNL     1      39.244  -8.141  25.030  1.00  0.00    -0.550 OA
ENDBRANCH   8   9
ENDBRANCH   7   8
ENDBRANCH   6   7
ENDBRANCH   5   6
ENDBRANCH   4   5
ENDBRANCH   3   4
ENDBRANCH   2   3
ENDBRANCH   1   2
BRANCH   1  12
ATOM     12  C   UNL     1      31.683  -8.193  21.730  1.00  0.00     0.000 C 
BRANCH  12  13
ATOM     13  C   UNL     1      30.802  -9.293  21.125  1.00  0.00    -0.000 C 
BRANCH  13  14
ATOM     14  C   UNL     1      29.375  -8.781  20.881  1.00  0.00    -0.000 C 
BRANCH  14  15
ATOM     15  C   UNL     1      28.371  -9.266  21.942  1.00  0.00    -0.000 C 
BRANCH  15  16
ATOM     16  C   UNL     1      28.012 -10.762  21.872  1.00  0.00    -0.000 C 
BRANCH  16  17
ATOM     17  C   UNL     1      27.666 -11.229  20.448  1.00  0.00    -0.000 C 
BRANCH  17  18
ATOM     18  C   UNL     1      28.121 -12.674  20.165  1.00  0.00    -0.000 C 
BRANCH  18  19
ATOM     19  C   UNL     1      27.371 -13.381  19.022  1.00  0.00    -0.003 C 
ATOM     20  C   UNL     1      26.258 -12.526  18.415  1.00  0.00     0.004 C 
ENDBRANCH  18  19
ENDBRANCH  17  18
ENDBRANCH  16  17
ENDBRANCH  15  16
ENDBRANCH  14  15
ENDBRANCH  13  14
ENDBRANCH  12  13
ENDBRANCH   1  12
TORSDOF 16
ENDMDL
MODEL 2
REMARK VINA RESULT:    -6.511      2.140      2.464
REMARK INTER + INTRA:         -13.634
REMARK INTER:                 -12.598
REMARK INTRA:                  -1.035
REMARK UNBOUND:                -1.031
REMARK SMILES CCCCCCCCCCCCCCCCCC(=O)[O-]
REMARK SMILES IDX 10 1 11 2 12 3 13 4 14 5 15 6 16 7 17 8 18 9 19 10 20 11
REMARK SMILES IDX 9 12 8 13 7 14 6 15 5 16 4 17 3 18 2 19 1 20
REMARK H PARENT
REMARK Flexibility Score: inf
ROOT
ATOM      1  C   UNL     1      32.899  -9.321  20.274  1.00  0.00     0.000 C 
ENDROOT
BRANCH   1   2
ATOM      2  C   UNL     1      34.214  -9.098  21.038  1.00  0.00     0.000 C 
BRANCH   2   3
ATOM      3  C   UNL     1      35.352 -10.001  20.537  1.00  0.00     0.000 C 
BRANCH   3   4
ATOM      4  C   UNL     1      36.371 -10.336  21.636  1.00  0.00     0.000 C 
BRANCH   4   5
ATOM      5  C   UNL     1      37.152  -9.086  22.061  1.00  0.00     0.000 C 
BRANCH   5   6
ATOM      6  C   UNL     1      37.127  -8.913  23.587  1.00  0.00     0.000 C 
BRANCH   6   7
ATOM      7  C   UNL     1      36.041  -7.930  24.053  1.00  0.00     0.006 C 
BRANCH   7   8
ATOM      8  C   UNL     1      36.144  -6.564  23.364  1.00  0.00     0.053 C 
BRANCH   8   9
ATOM      9  C   UNL     1      34.781  -6.018  23.081  1.00  0.00     0.041 C 
ATOM     10  O   UNL     1      33.980  -5.792  24.026  1.00  0.00    -0.550 OA
ATOM     11  O   UNL     1      34.412  -5.709  21.777  1.00  0.00    -0.550 OA
ENDBRANCH   8   9
ENDBRANCH   7   8
ENDBRANCH   6   7
ENDBRANCH   5   6
ENDBRANCH   4   5
ENDBRANCH   3   4
ENDBRANCH   2   3
ENDBRANCH   1   2
BRANCH   1  12
ATOM     12  C   UNL     1      31.719  -8.682  21.015  1.00  0.00     0.000 C 
BRANCH  12  13
ATOM     13  C   UNL     1      30.460  -9.551  20.903  1.00  0.00    -0.000 C 
BRANCH  13  14
ATOM     14  C   UNL     1      29.556  -9.370  22.131  1.00  0.00    -0.000 C 
BRANCH  14  15
ATOM     15  C   UNL     1      28.302 -10.262  22.092  1.00  0.00    -0.000 C 
BRANCH  15  16
ATOM     16  C   UNL     1      28.172 -11.160  20.848  1.00  0.00    -0.000 C 
BRANCH  16  17
ATOM     17  C   UNL     1      26.962 -10.796  19.971  1.00  0.00    -0.000 C 
BRANCH  17  18
ATOM     18  C   UNL     1      26.087 -12.016  19.624  1.00  0.00    -0.000 C 
BRANCH  18  19
ATOM     19  C   UNL     1      26.304 -12.594  18.214  1.00  0.00    -0.003 C 
ATOM     20  C   UNL     1      27.363 -13.696  18.173  1.00  0.00     0.004 C 
ENDBRANCH  18  19
ENDBRANCH  17  18
ENDBRANCH  16  17
ENDBRANCH  15  16
ENDBRANCH  14  15
ENDBRANCH  13  14
ENDBRANCH  12  13
ENDBRANCH   1  12
TORSDOF 16
ENDMDL
MODEL 3
REMARK VINA RESULT:    -6.509      2.364      2.892
REMARK INTER + INTRA:         -13.629
REMARK INTER:                 -12.668
REMARK INTRA:                  -0.961
REMARK UNBOUND:                -1.031
REMARK SMILES CCCCCCCCCCCCCCCCCC(=O)[O-]
REMARK SMILES IDX 10 1 11 2 12 3 13 4 14 5 15 6 16 7 17 8 18 9 19 10 20 11
REMARK SMILES IDX 9 12 8 13 7 14 6 15 5 16 4 17 3 18 2 19 1 20
REMARK H PARENT
REMARK Flexibility Score: inf
ROOT
ATOM      1  C   UNL     1      32.578  -8.284  21.629  1.00  0.00     0.000 C 
ENDROOT
BRANCH   1   2
ATOM      2  C   UNL     1      33.556  -8.560  20.477  1.00  0.00     0.000 C 
BRANCH   2   3
ATOM      3  C   UNL     1      34.771  -9.392  20.916  1.00  0.00     0.000 C 
BRANCH   3   4
ATOM      4  C   UNL     1      35.202 -10.418  19.856  1.00  0.00     0.000 C 
BRANCH   4   5
ATOM      5  C   UNL     1      36.486 -11.142  20.283  1.00  0.00     0.000 C 
BRANCH   5   6
ATOM      6  C   UNL     1      37.013 -10.589  21.615  1.00  0.00     0.000 C 
BRANCH   6   7
ATOM      7  C   UNL     1      38.523 -10.302  21.580  1.00  0.00     0.006 C 
BRANCH   7   8
ATOM      8  C   UNL     1      39.271 -11.196  20.583  1.00  0.00     0.053 C 
BRANCH   8   9
ATOM      9  C   UNL     1      39.784 -12.424  21.266  1.00  0.00     0.041 C 
ATOM     10  O   UNL     1      39.371 -13.561  20.918  1.00  0.00    -0.550 OA
ATOM     11  O   UNL     1      40.757 -12.316  22.252  1.00  0.00    -0.550 OA
ENDBRANCH   8   9
ENDBRANCH   7   8
ENDBRANCH   6   7
ENDBRANCH   5   6
ENDBRANCH   4   5
ENDBRANCH   3   4
ENDBRANCH   2   3
ENDBRANCH   1   2
BRANCH   1  12
ATOM     12  C   UNL     1      31.409  -9.277  21.607  1.00  0.00     0.000 C 
BRANCH  12  13
ATOM     13  C   UNL     1      30.243  -8.737  20.770  1.00  0.00    -0.000 C 
BRANCH  13  14
ATOM     14  C   UNL     1      28.938  -8.740  21.580  1.00  0.00    -0.000 C 
BRANCH  14  15
ATOM     15  C   UNL     1      28.656 -10.091  22.261  1.00  0.00    -0.000 C 
BRANCH  15  16
ATOM     16  C   UNL     1      28.108 -11.193  21.335  1.00  0.00    -0.000 C 
BRANCH  16  17
ATOM     17  C   UNL     1      26.992 -10.692  20.403  1.00  0.00    -0.000 C 
BRANCH  17  18
ATOM     18  C   UNL     1      26.521 -11.766  19.404  1.00  0.00    -0.000 C 
BRANCH  18  19
ATOM     19  C   UNL     1      27.446 -12.990  19.279  1.00  0.00    -0.003 C 
ATOM     20  C   UNL     1      26.750 -14.209  18.673  1.00  0.00     0.004 C 
ENDBRANCH  18  19
ENDBRANCH  17  18
ENDBRANCH  16  17
ENDBRANCH  15  16
ENDBRANCH  14  15
ENDBRANCH  13  14
ENDBRANCH  12  13
ENDBRANCH   1  12
TORSDOF 16
ENDMDL
MODEL 4
REMARK VINA RESULT:    -6.495      1.732      2.346
REMARK INTER + INTRA:         -13.602
REMARK INTER:                 -12.788
REMARK INTRA:                  -0.814
REMARK UNBOUND:                -1.031
REMARK SMILES CCCCCCCCCCCCCCCCCC(=O)[O-]
REMARK SMILES IDX 10 1 11 2 12 3 13 4 14 5 15 6 16 7 17 8 18 9 19 10 20 11
REMARK SMILES IDX 9 12 8 13 7 14 6 15 5 16 4 17 3 18 2 19 1 20
REMARK H PARENT
REMARK Flexibility Score: inf
ROOT
ATOM      1  C   UNL     1      33.242  -8.616  21.629  1.00  0.00     0.000 C 
ENDROOT
BRANCH   1   2
ATOM      2  C   UNL     1      34.433  -9.187  20.844  1.00  0.00     0.000 C 
BRANCH   2   3
ATOM      3  C   UNL     1      35.775  -8.972  21.561  1.00  0.00     0.000 C 
BRANCH   3   4
ATOM      4  C   UNL     1      36.495 -10.292  21.881  1.00  0.00     0.000 C 
BRANCH   4   5
ATOM      5  C   UNL     1      37.029 -10.950  20.601  1.00  0.00     0.000 C 
BRANCH   5   6
ATOM      6  C   UNL     1      38.297 -11.765  20.890  1.00  0.00     0.000 C 
BRANCH   6   7
ATOM      7  C   UNL     1      38.691 -11.742  22.375  1.00  0.00     0.006 C 
BRANCH   7   8
ATOM      8  C   UNL     1      40.186 -11.469  22.586  1.00  0.00     0.053 C 
BRANCH   8   9
ATOM      9  C   UNL     1      40.388 -10.116  23.190  1.00  0.00     0.041 C 
ATOM     10  O   UNL     1      40.035  -9.082  22.563  1.00  0.00    -0.550 OA
ATOM     11  O   UNL     1      40.920  -9.997  24.469  1.00  0.00    -0.550 OA
ENDBRANCH   8   9
ENDBRANCH   7   8
ENDBRANCH   6   7
ENDBRANCH   5   6
ENDBRANCH   4   5
ENDBRANCH   3   4
ENDBRANCH   2   3
ENDBRANCH   1   2
BRANCH   1  12
ATOM     12  C   UNL     1      31.913  -9.005  20.970  1.00  0.00     0.000 C 
BRANCH  12  13
ATOM     13  C   UNL     1      30.828  -9.260  22.024  1.00  0.00    -0.000 C 
BRANCH  13  14
ATOM     14  C   UNL     1      29.526  -8.532  21.658  1.00  0.00    -0.000 C 
BRANCH  14  15
ATOM     15  C   UNL     1      28.534  -9.423  20.890  1.00  0.00    -0.000 C 
BRANCH  15  16
ATOM     16  C   UNL     1      28.328 -10.834  21.473  1.00  0.00    -0.000 C 
BRANCH  16  17
ATOM     17  C   UNL     1      27.969 -11.878  20.402  1.00  0.00    -0.000 C 
BRANCH  17  18
ATOM     18  C   UNL     1      26.630 -11.579  19.701  1.00  0.00    -0.000 C 
BRANCH  18  19
ATOM     19  C   UNL     1      26.308 -12.483  18.498  1.00  0.00    -0.003 C 
ATOM     20  C   UNL     1      27.288 -13.646  18.341  1.00  0.00     0.004 C 
ENDBRANCH  18  19
ENDBRANCH  17  18
ENDBRANCH  16  17
ENDBRANCH  15  16
ENDBRANCH  14  15
ENDBRANCH  13  14
ENDBRANCH  12  13
ENDBRANCH   1  12
TORSDOF 16
ENDMDL
MODEL 5
REMARK VINA RESULT:    -6.430      2.242      2.958
REMARK INTER + INTRA:         -13.476
REMARK INTER:                 -12.268
REMARK INTRA:                  -1.208
REMARK UNBOUND:                -1.031
REMARK SMILES CCCCCCCCCCCCCCCCCC(=O)[O-]
REMARK SMILES IDX 10 1 11 2 12 3 13 4 14 5 15 6 16 7 17 8 18 9 19 10 20 11
REMARK SMILES IDX 9 12 8 13 7 14 6 15 5 16 4 17 3 18 2 19 1 20
REMARK H PARENT
REMARK Flexibility Score: inf
ROOT
ATOM      1  C   UNL     1      30.457  -8.896  22.229  1.00  0.00     0.000 C 
ENDROOT
BRANCH   1   2
ATOM      2  C   UNL     1      31.660  -8.295  21.484  1.00  0.00     0.000 C 
BRANCH   2   3
ATOM      3  C   UNL     1      32.339  -9.303  20.544  1.00  0.00     0.000 C 
BRANCH   3   4
ATOM      4  C   UNL     1      33.810  -8.957  20.266  1.00  0.00     0.000 C 
BRANCH   4   5
ATOM      5  C   UNL     1      34.413  -8.150  21.423  1.00  0.00     0.000 C 
BRANCH   5   6
ATOM      6  C   UNL     1      35.789  -8.703  21.821  1.00  0.00     0.000 C 
BRANCH   6   7
ATOM      7  C   UNL     1      36.146  -9.998  21.075  1.00  0.00     0.006 C 
BRANCH   7   8
ATOM      8  C   UNL     1      36.848 -11.023  21.974  1.00  0.00     0.053 C 
BRANCH   8   9
ATOM      9  C   UNL     1      38.150 -11.442  21.368  1.00  0.00     0.041 C 
ATOM     10  O   UNL     1      38.718 -10.708  20.517  1.00  0.00    -0.550 OA
ATOM     11  O   UNL     1      38.764 -12.619  21.782  1.00  0.00    -0.550 OA
ENDBRANCH   8   9
ENDBRANCH   7   8
ENDBRANCH   6   7
ENDBRANCH   5   6
ENDBRANCH   4   5
ENDBRANCH   3   4
ENDBRANCH   2   3
ENDBRANCH   1   2
BRANCH   1  12
ATOM     12  C   UNL     1      29.457  -7.803  22.628  1.00  0.00     0.000 C 
BRANCH  12  13
ATOM     13  C   UNL     1      28.074  -8.076  22.024  1.00  0.00    -0.000 C 
BRANCH  13  14
ATOM     14  C   UNL     1      28.132  -8.066  20.490  1.00  0.00    -0.000 C 
BRANCH  14  15
ATOM     15  C   UNL     1      27.327  -9.210  19.849  1.00  0.00    -0.000 C 
BRANCH  15  16
ATOM     16  C   UNL     1      27.081 -10.430  20.756  1.00  0.00    -0.000 C 
BRANCH  16  17
ATOM     17  C   UNL     1      28.303 -11.360  20.855  1.00  0.00    -0.000 C 
BRANCH  17  18
ATOM     18  C   UNL     1      28.110 -12.683  20.090  1.00  0.00    -0.000 C 
BRANCH  18  19
ATOM     19  C   UNL     1      26.833 -12.762  19.236  1.00  0.00    -0.003 C 
ATOM     20  C   UNL     1      27.031 -13.526  17.926  1.00  0.00     0.004 C 
ENDBRANCH  18  19
ENDBRANCH  17  18
ENDBRANCH  16  17
ENDBRANCH  15  16
ENDBRANCH  14  15
ENDBRANCH  13  14
ENDBRANCH  12  13
ENDBRANCH   1  12
TORSDOF 16
ENDMDL
MODEL 6
REMARK VINA RESULT:    -6.423      2.142      3.189
REMARK INTER + INTRA:         -13.462
REMARK INTER:                 -12.313
REMARK INTRA:                  -1.149
REMARK UNBOUND:                -1.031
REMARK SMILES CCCCCCCCCCCCCCCCCC(=O)[O-]
REMARK SMILES IDX 10 1 11 2 12 3 13 4 14 5 15 6 16 7 17 8 18 9 19 10 20 11
REMARK SMILES IDX 9 12 8 13 7 14 6 15 5 16 4 17 3 18 2 19 1 20
REMARK H PARENT
REMARK Flexibility Score: inf
ROOT
ATOM      1  C   UNL     1      33.821  -6.990  21.366  1.00  0.00     0.000 C 
ENDROOT
BRANCH   1   2
ATOM      2  C   UNL     1      34.484  -6.541  22.678  1.00  0.00     0.000 C 
BRANCH   2   3
ATOM      3  C   UNL     1      35.908  -7.094  22.842  1.00  0.00     0.000 C 
BRANCH   3   4
ATOM      4  C   UNL     1      36.060  -7.982  24.087  1.00  0.00     0.000 C 
BRANCH   4   5
ATOM      5  C   UNL     1      37.198  -8.994  23.904  1.00  0.00     0.000 C 
BRANCH   5   6
ATOM      6  C   UNL     1      37.459  -9.266  22.415  1.00  0.00     0.000 C 
BRANCH   6   7
ATOM      7  C   UNL     1      36.836 -10.586  21.936  1.00  0.00     0.006 C 
BRANCH   7   8
ATOM      8  C   UNL     1      37.512 -11.135  20.674  1.00  0.00     0.053 C 
BRANCH   8   9
ATOM      9  C   UNL     1      38.856 -11.701  21.006  1.00  0.00     0.041 C 
ATOM     10  O   UNL     1      39.032 -12.324  22.085  1.00  0.00    -0.550 OA
ATOM     11  O   UNL     1      39.902 -11.586  20.098  1.00  0.00    -0.550 OA
ENDBRANCH   8   9
ENDBRANCH   7   8
ENDBRANCH   6   7
ENDBRANCH   5   6
ENDBRANCH   4   5
ENDBRANCH   3   4
ENDBRANCH   2   3
ENDBRANCH   1   2
BRANCH   1  12
ATOM     12  C   UNL     1      33.828  -8.519  21.243  1.00  0.00     0.000 C 
BRANCH  12  13
ATOM     13  C   UNL     1      32.534  -9.026  20.594  1.00  0.00    -0.000 C 
BRANCH  13  14
ATOM     14  C   UNL     1      31.313  -8.676  21.457  1.00  0.00    -0.000 C 
BRANCH  14  15
ATOM     15  C   UNL     1      30.022  -9.366  20.981  1.00  0.00    -0.000 C 
BRANCH  15  16
ATOM     16  C   UNL     1      28.896  -9.451  22.030  1.00  0.00    -0.000 C 
BRANCH  16  17
ATOM     17  C   UNL     1      28.145 -10.792  21.994  1.00  0.00    -0.000 C 
BRANCH  17  18
ATOM     18  C   UNL     1      27.776 -11.233  20.564  1.00  0.00    -0.000 C 
BRANCH  18  19
ATOM     19  C   UNL     1      28.112 -12.696  20.227  1.00  0.00    -0.003 C 
ATOM     20  C   UNL     1      27.318 -13.236  19.037  1.00  0.00     0.004 C 
ENDBRANCH  18  19
ENDBRANCH  17  18
ENDBRANCH  16  17
ENDBRANCH  15  16
ENDBRANCH  14  15
ENDBRANCH  13  14
ENDBRANCH  12  13
ENDBRANCH   1  12
TORSDOF 16
ENDMDL
MODEL 7
REMARK VINA RESULT:    -6.389      4.547      9.279
REMARK INTER + INTRA:         -13.397
REMARK INTER:                 -12.146
REMARK INTRA:                  -1.251
REMARK UNBOUND:                -1.031
REMARK SMILES CCCCCCCCCCCCCCCCCC(=O)[O-]
REMARK SMILES IDX 10 1 11 2 12 3 13 4 14 5 15 6 16 7 17 8 18 9 19 10 20 11
REMARK SMILES IDX 9 12 8 13 7 14 6 15 5 16 4 17 3 18 2 19 1 20
REMARK H PARENT
REMARK Flexibility Score: inf
ROOT
ATOM      1  C   UNL     1      29.991  -9.290  21.050  1.00  0.00     0.000 C 
ENDROOT
BRANCH   1   2
ATOM      2  C   UNL     1      29.240  -9.628  22.347  1.00  0.00     0.000 C 
BRANCH   2   3
ATOM      3  C   UNL     1      28.083 -10.614  22.123  1.00  0.00     0.000 C 
BRANCH   3   4
ATOM      4  C   UNL     1      28.093 -11.232  20.716  1.00  0.00     0.000 C 
BRANCH   4   5
ATOM      5  C   UNL     1      26.683 -11.247  20.112  1.00  0.00     0.000 C 
BRANCH   5   6
ATOM      6  C   UNL     1      26.031  -9.860  20.200  1.00  0.00     0.000 C 
BRANCH   6   7
ATOM      7  C   UNL     1      26.324  -8.989  18.968  1.00  0.00     0.006 C 
BRANCH   7   8
ATOM      8  C   UNL     1      25.590  -7.642  19.008  1.00  0.00     0.053 C 
BRANCH   8   9
ATOM      9  C   UNL     1      26.559  -6.516  18.837  1.00  0.00     0.041 C 
ATOM     10  O   UNL     1      26.244  -5.350  19.192  1.00  0.00    -0.550 OA
ATOM     11  O   UNL     1      27.830  -6.762  18.332  1.00  0.00    -0.550 OA
ENDBRANCH   8   9
ENDBRANCH   7   8
ENDBRANCH   6   7
ENDBRANCH   5   6
ENDBRANCH   4   5
ENDBRANCH   3   4
ENDBRANCH   2   3
ENDBRANCH   1   2
BRANCH   1  12
ATOM     12  C   UNL     1      31.433  -8.859  21.347  1.00  0.00     0.000 C 
BRANCH  12  13
ATOM     13  C   UNL     1      32.391  -9.350  20.255  1.00  0.00    -0.000 C 
BRANCH  13  14
ATOM     14  C   UNL     1      33.672  -8.503  20.228  1.00  0.00    -0.000 C 
BRANCH  14  15
ATOM     15  C   UNL     1      33.686  -7.397  21.299  1.00  0.00    -0.000 C 
BRANCH  15  16
ATOM     16  C   UNL     1      35.012  -7.241  22.067  1.00  0.00    -0.000 C 
BRANCH  16  17
ATOM     17  C   UNL     1      35.534  -8.570  22.637  1.00  0.00    -0.000 C 
BRANCH  17  18
ATOM     18  C   UNL     1      36.831  -9.046  21.954  1.00  0.00    -0.000 C 
BRANCH  18  19
ATOM     19  C   UNL     1      36.711 -10.372  21.182  1.00  0.00    -0.003 C 
ATOM     20  C   UNL     1      37.797 -11.383  21.553  1.00  0.00     0.004 C 
ENDBRANCH  18  19
ENDBRANCH  17  18
ENDBRANCH  16  17
ENDBRANCH  15  16
ENDBRANCH  14  15
ENDBRANCH  13  14
ENDBRANCH  12  13
ENDBRANCH   1  12
TORSDOF 16
ENDMDL
MODEL 8
REMARK VINA RESULT:    -6.384      2.702      3.531
REMARK INTER + INTRA:         -13.387
REMARK INTER:                 -12.260
REMARK INTRA:                  -1.127
REMARK UNBOUND:                -1.031
REMARK SMILES CCCCCCCCCCCCCCCCCC(=O)[O-]
REMARK SMILES IDX 10 1 11 2 12 3 13 4 14 5 15 6 16 7 17 8 18 9 19 10 20 11
REMARK SMILES IDX 9 12 8 13 7 14 6 15 5 16 4 17 3 18 2 19 1 20
REMARK H PARENT
REMARK Flexibility Score: inf
ROOT
ATOM      1  C   UNL     1      31.583  -8.995  21.779  1.00  0.00     0.000 C 
ENDROOT
BRANCH   1   2
ATOM      2  C   UNL     1      32.809  -8.355  21.108  1.00  0.00     0.000 C 
BRANCH   2   3
ATOM      3  C   UNL     1      33.475  -9.284  20.082  1.00  0.00     0.000 C 
BRANCH   3   4
ATOM      4  C   UNL     1      34.870  -9.753  20.525  1.00  0.00     0.000 C 
BRANCH   4   5
ATOM      5  C   UNL     1      35.397  -8.893  21.681  1.00  0.00     0.000 C 
BRANCH   5   6
ATOM      6  C   UNL     1      36.868  -9.217  21.982  1.00  0.00     0.000 C 
BRANCH   6   7
ATOM      7  C   UNL     1      37.335 -10.522  21.319  1.00  0.00     0.006 C 
BRANCH   7   8
ATOM      8  C   UNL     1      38.660 -11.037  21.895  1.00  0.00     0.053 C 
BRANCH   8   9
ATOM      9  C   UNL     1      39.281 -12.031  20.966  1.00  0.00     0.041 C 
ATOM     10  O   UNL     1      38.963 -13.247  21.034  1.00  0.00    -0.550 OA
ATOM     11  O   UNL     1      40.174 -11.606  19.988  1.00  0.00    -0.550 OA
ENDBRANCH   8   9
ENDBRANCH   7   8
ENDBRANCH   6   7
ENDBRANCH   5   6
ENDBRANCH   4   5
ENDBRANCH   3   4
ENDBRANCH   2   3
ENDBRANCH   1   2
BRANCH   1  12
ATOM     12  C   UNL     1      30.386  -9.027  20.820  1.00  0.00     0.000 C 
BRANCH  12  13
ATOM     13  C   UNL     1      29.081  -8.700  21.556  1.00  0.00    -0.000 C 
BRANCH  13  14
ATOM     14  C   UNL     1      28.383  -9.983  22.031  1.00  0.00    -0.000 C 
BRANCH  14  15
ATOM     15  C   UNL     1      28.479 -11.133  21.013  1.00  0.00    -0.000 C 
BRANCH  15  16
ATOM     16  C   UNL     1      27.191 -11.420  20.219  1.00  0.00    -0.000 C 
BRANCH  16  17
ATOM     17  C   UNL     1      26.198 -10.245  20.244  1.00  0.00    -0.000 C 
BRANCH  17  18
ATOM     18  C   UNL     1      26.337  -9.319  19.021  1.00  0.00    -0.000 C 
BRANCH  18  19
ATOM     19  C   UNL     1      25.901  -7.861  19.254  1.00  0.00    -0.003 C 
ATOM     20  C   UNL     1      24.677  -7.738  20.162  1.00  0.00     0.004 C 
ENDBRANCH  18  19
ENDBRANCH  17  18
ENDBRANCH  16  17
ENDBRANCH  15  16
ENDBRANCH  14  15
ENDBRANCH  13  14
ENDBRANCH  12  13
ENDBRANCH   1  12
TORSDOF 16
ENDMDL
MODEL 9
REMARK VINA RESULT:    -6.284      5.982      8.461
REMARK INTER + INTRA:         -13.193
REMARK INTER:                 -11.262
REMARK INTRA:                  -1.931
REMARK UNBOUND:                -1.031
REMARK SMILES CCCCCCCCCCCCCCCCCC(=O)[O-]
REMARK SMILES IDX 10 1 11 2 12 3 13 4 14 5 15 6 16 7 17 8 18 9 19 10 20 11
REMARK SMILES IDX 9 12 8 13 7 14 6 15 5 16 4 17 3 18 2 19 1 20
REMARK H PARENT
REMARK Flexibility Score: inf
ROOT
ATOM      1  C   UNL     1      29.288  -5.756  23.319  1.00  0.00     0.000 C 
ENDROOT
BRANCH   1   2
ATOM      2  C   UNL     1      28.178  -6.486  24.092  1.00  0.00     0.000 C 
BRANCH   2   3
ATOM      3  C   UNL     1      27.071  -5.538  24.576  1.00  0.00     0.000 C 
BRANCH   3   4
ATOM      4  C   UNL     1      25.682  -5.925  24.044  1.00  0.00     0.000 C 
BRANCH   4   5
ATOM      5  C   UNL     1      25.439  -5.323  22.655  1.00  0.00     0.000 C 
BRANCH   5   6
ATOM      6  C   UNL     1      25.559  -6.394  21.561  1.00  0.00     0.000 C 
BRANCH   6   7
ATOM      7  C   UNL     1      26.512  -5.980  20.429  1.00  0.00     0.006 C 
BRANCH   7   8
ATOM      8  C   UNL     1      26.681  -4.459  20.324  1.00  0.00     0.053 C 
BRANCH   8   9
ATOM      9  C   UNL     1      27.055  -4.071  18.930  1.00  0.00     0.041 C 
ATOM     10  O   UNL     1      26.698  -2.956  18.465  1.00  0.00    -0.550 OA
ATOM     11  O   UNL     1      27.844  -4.918  18.160  1.00  0.00    -0.550 OA
ENDBRANCH   8   9
ENDBRANCH   7   8
ENDBRANCH   6   7
ENDBRANCH   5   6
ENDBRANCH   4   5
ENDBRANCH   3   4
ENDBRANCH   2   3
ENDBRANCH   1   2
BRANCH   1  12
ATOM     12  C   UNL     1      29.722  -6.564  22.089  1.00  0.00     0.000 C 
BRANCH  12  13
ATOM     13  C   UNL     1      30.140  -7.986  22.483  1.00  0.00    -0.000 C 
BRANCH  13  14
ATOM     14  C   UNL     1      29.857  -8.977  21.344  1.00  0.00    -0.000 C 
BRANCH  14  15
ATOM     15  C   UNL     1      28.696  -9.938  21.656  1.00  0.00    -0.000 C 
BRANCH  15  16
ATOM     16  C   UNL     1      27.374  -9.631  20.927  1.00  0.00    -0.000 C 
BRANCH  16  17
ATOM     17  C   UNL     1      26.886 -10.801  20.056  1.00  0.00    -0.000 C 
BRANCH  17  18
ATOM     18  C   UNL     1      27.734 -12.074  20.234  1.00  0.00    -0.000 C 
BRANCH  18  19
ATOM     19  C   UNL     1      27.454 -13.192  19.214  1.00  0.00    -0.003 C 
ATOM     20  C   UNL     1      26.304 -12.861  18.261  1.00  0.00     0.004 C 
ENDBRANCH  18  19
ENDBRANCH  17  18
ENDBRANCH  16  17
ENDBRANCH  15  16
ENDBRANCH  14  15
ENDBRANCH  13  14
ENDBRANCH  12  13
ENDBRANCH   1  12
TORSDOF 16
ENDMDL
