MODEL 1
REMARK VINA RESULT:     8.219      0.000      0.000
REMARK INTER + INTRA:          12.493
REMARK INTER:                  13.024
REMARK INTRA:                  -0.532
REMARK UNBOUND:                -0.532
REMARK SMILES CCCCCCCCCCCC(=O)[O-]
REMARK SMILES IDX 7 1 8 2 9 3 10 4 11 5 12 6 13 7 14 8 6 9 5 10 4 11 3 12 2 13
REMARK SMILES IDX 1 14
REMARK H PARENT
REMARK Flexibility Score: inf
ROOT
ATOM      1  C   UNL     1     -17.582  60.429  -3.377  1.00  0.00     0.000 C 
ENDROOT
BRANCH   1   2
ATOM      2  C   UNL     1     -18.428  59.183  -3.072  1.00  0.00     0.000 C 
BRANCH   2   3
ATOM      3  C   UNL     1     -17.949  58.430  -1.821  1.00  0.00     0.000 C 
BRANCH   3   4
ATOM      4  C   UNL     1     -17.777  56.922  -2.069  1.00  0.00     0.006 C 
BRANCH   4   5
ATOM      5  C   UNL     1     -16.721  56.630  -3.144  1.00  0.00     0.053 C 
BRANCH   5   6
ATOM      6  C   UNL     1     -17.065  55.412  -3.945  1.00  0.00     0.041 C 
ATOM      7  O   UNL     1     -17.324  54.324  -3.368  1.00  0.00    -0.550 OA
ATOM      8  O   UNL     1     -17.071  55.473  -5.333  1.00  0.00    -0.550 OA
ENDBRANCH   5   6
ENDBRANCH   4   5
ENDBRANCH   3   4
ENDBRANCH   2   3
ENDBRANCH   1   2
BRANCH   1   9
ATOM      9  C   UNL     1     -16.130  60.231  -2.918  1.00  0.00     0.000 C 
BRANCH   9  10
ATOM     10  C   UNL     1     -15.154  60.023  -4.090  1.00  0.00    -0.000 C 
BRANCH  10  11
ATOM     11  C   UNL     1     -14.532  58.614  -4.180  1.00  0.00    -0.000 C 
BRANCH  11  12
ATOM     12  C   UNL     1     -13.008  58.586  -4.386  1.00  0.00    -0.000 C 
BRANCH  12  13
ATOM     13  C   UNL     1     -12.303  57.567  -3.479  1.00  0.00    -0.003 C 
ATOM     14  C   UNL     1     -10.899  58.038  -3.110  1.00  0.00     0.004 C 
ENDBRANCH  12  13
ENDBRANCH  11  12
ENDBRANCH  10  11
ENDBRANCH   9  10
ENDBRANCH   1   9
TORSDOF 10
ENDMDL
MODEL 2
REMARK VINA RESULT:     8.650      2.592      4.819
REMARK INTER + INTRA:          13.175
REMARK INTER:                  14.128
REMARK INTRA:                  -0.953
REMARK UNBOUND:                -0.532
REMARK SMILES CCCCCCCCCCCC(=O)[O-]
REMARK SMILES IDX 7 1 8 2 9 3 10 4 11 5 12 6 13 7 14 8 6 9 5 10 4 11 3 12 2 13
REMARK SMILES IDX 1 14
REMARK H PARENT
REMARK Flexibility Score: inf
ROOT
ATOM      1  C   UNL     1     -17.564  60.370  -3.325  1.00  0.00     0.000 C 
ENDROOT
BRANCH   1   2
ATOM      2  C   UNL     1     -16.075  60.202  -2.984  1.00  0.00     0.000 C 
BRANCH   2   3
ATOM      3  C   UNL     1     -15.255  59.648  -4.160  1.00  0.00     0.000 C 
BRANCH   3   4
ATOM      4  C   UNL     1     -13.764  59.488  -3.817  1.00  0.00     0.006 C 
BRANCH   4   5
ATOM      5  C   UNL     1     -13.251  58.072  -4.112  1.00  0.00     0.053 C 
BRANCH   5   6
ATOM      6  C   UNL     1     -11.854  57.871  -3.612  1.00  0.00     0.041 C 
ATOM      7  O   UNL     1     -11.270  56.768  -3.782  1.00  0.00    -0.550 OA
ATOM      8  O   UNL     1     -11.205  58.893  -2.931  1.00  0.00    -0.550 OA
ENDBRANCH   5   6
ENDBRANCH   4   5
ENDBRANCH   3   4
ENDBRANCH   2   3
ENDBRANCH   1   2
BRANCH   1   9
ATOM      9  C   UNL     1     -18.335  59.066  -3.075  1.00  0.00     0.000 C 
BRANCH   9  10
ATOM     10  C   UNL     1     -17.831  58.300  -1.839  1.00  0.00    -0.000 C 
BRANCH  10  11
ATOM     11  C   UNL     1     -17.671  56.778  -2.033  1.00  0.00    -0.000 C 
BRANCH  11  12
ATOM     12  C   UNL     1     -16.518  56.356  -2.961  1.00  0.00    -0.000 C 
BRANCH  12  13
ATOM     13  C   UNL     1     -16.849  55.109  -3.792  1.00  0.00    -0.003 C 
ATOM     14  C   UNL     1     -17.148  55.478  -5.242  1.00  0.00     0.004 C 
ENDBRANCH  12  13
ENDBRANCH  11  12
ENDBRANCH  10  11
ENDBRANCH   9  10
ENDBRANCH   1   9
TORSDOF 10
ENDMDL
MODEL 3
REMARK VINA RESULT:     9.373      1.556      2.486
REMARK INTER + INTRA:          14.322
REMARK INTER:                  14.757
REMARK INTRA:                  -0.436
REMARK UNBOUND:                -0.532
REMARK SMILES CCCCCCCCCCCC(=O)[O-]
REMARK SMILES IDX 7 1 8 2 9 3 10 4 11 5 12 6 13 7 14 8 6 9 5 10 4 11 3 12 2 13
REMARK SMILES IDX 1 14
REMARK H PARENT
REMARK Flexibility Score: inf
ROOT
ATOM      1  C   UNL     1     -16.280  60.179  -2.920  1.00  0.00     0.000 C 
ENDROOT
BRANCH   1   2
ATOM      2  C   UNL     1     -17.453  61.003  -3.471  1.00  0.00     0.000 C 
BRANCH   2   3
ATOM      3  C   UNL     1     -18.811  60.311  -3.274  1.00  0.00     0.000 C 
BRANCH   3   4
ATOM      4  C   UNL     1     -18.705  58.777  -3.327  1.00  0.00     0.006 C 
BRANCH   4   5
ATOM      5  C   UNL     1     -18.856  58.138  -1.940  1.00  0.00     0.053 C 
BRANCH   5   6
ATOM      6  C   UNL     1     -17.614  57.410  -1.525  1.00  0.00     0.041 C 
ATOM      7  O   UNL     1     -16.965  56.732  -2.363  1.00  0.00    -0.550 OA
ATOM      8  O   UNL     1     -17.191  57.458  -0.203  1.00  0.00    -0.550 OA
ENDBRANCH   5   6
ENDBRANCH   4   5
ENDBRANCH   3   4
ENDBRANCH   2   3
ENDBRANCH   1   2
BRANCH   1   9
ATOM      9  C   UNL     1     -15.161  60.052  -3.964  1.00  0.00     0.000 C 
BRANCH   9  10
ATOM     10  C   UNL     1     -14.638  58.612  -4.110  1.00  0.00    -0.000 C 
BRANCH  10  11
ATOM     11  C   UNL     1     -13.122  58.490  -4.364  1.00  0.00    -0.000 C 
BRANCH  11  12
ATOM     12  C   UNL     1     -12.407  57.404  -3.541  1.00  0.00    -0.000 C 
BRANCH  12  13
ATOM     13  C   UNL     1     -10.941  57.750  -3.244  1.00  0.00    -0.003 C 
ATOM     14  C   UNL     1     -10.818  59.145  -2.637  1.00  0.00     0.004 C 
ENDBRANCH  12  13
ENDBRANCH  11  12
ENDBRANCH  10  11
ENDBRANCH   9  10
ENDBRANCH   1   9
TORSDOF 10
ENDMDL
MODEL 4
REMARK VINA RESULT:     9.756      2.630      4.920
REMARK INTER + INTRA:          14.928
REMARK INTER:                  15.327
REMARK INTRA:                  -0.399
REMARK UNBOUND:                -0.532
REMARK SMILES CCCCCCCCCCCC(=O)[O-]
REMARK SMILES IDX 7 1 8 2 9 3 10 4 11 5 12 6 13 7 14 8 6 9 5 10 4 11 3 12 2 13
REMARK SMILES IDX 1 14
REMARK H PARENT
REMARK Flexibility Score: inf
ROOT
ATOM      1  C   UNL     1     -17.162  61.102  -3.545  1.00  0.00     0.000 C 
ENDROOT
BRANCH   1   2
ATOM      2  C   UNL     1     -16.175  60.034  -3.050  1.00  0.00     0.000 C 
BRANCH   2   3
ATOM      3  C   UNL     1     -15.024  59.785  -4.037  1.00  0.00     0.000 C 
BRANCH   3   4
ATOM      4  C   UNL     1     -14.277  58.470  -3.755  1.00  0.00     0.006 C 
BRANCH   4   5
ATOM      5  C   UNL     1     -12.873  58.459  -4.374  1.00  0.00     0.053 C 
BRANCH   5   6
ATOM      6  C   UNL     1     -11.853  57.902  -3.429  1.00  0.00     0.041 C 
ATOM      7  O   UNL     1     -10.857  58.594  -3.089  1.00  0.00    -0.550 OA
ATOM      8  O   UNL     1     -11.988  56.607  -2.945  1.00  0.00    -0.550 OA
ENDBRANCH   5   6
ENDBRANCH   4   5
ENDBRANCH   3   4
ENDBRANCH   2   3
ENDBRANCH   1   2
BRANCH   1   9
ATOM      9  C   UNL     1     -18.613  60.662  -3.305  1.00  0.00     0.000 C 
BRANCH   9  10
ATOM     10  C   UNL     1     -18.811  59.143  -3.451  1.00  0.00    -0.000 C 
BRANCH  10  11
ATOM     11  C   UNL     1     -18.653  58.335  -2.147  1.00  0.00    -0.000 C 
BRANCH  11  12
ATOM     12  C   UNL     1     -17.650  57.170  -2.218  1.00  0.00    -0.000 C 
BRANCH  12  13
ATOM     13  C   UNL     1     -16.865  56.980  -0.912  1.00  0.00    -0.003 C 
ATOM     14  C   UNL     1     -17.520  57.737   0.239  1.00  0.00     0.004 C 
ENDBRANCH  12  13
ENDBRANCH  11  12
ENDBRANCH  10  11
ENDBRANCH   9  10
ENDBRANCH   1   9
TORSDOF 10
ENDMDL
MODEL 5
REMARK VINA RESULT:    10.930     11.352     14.031
REMARK INTER + INTRA:          16.788
REMARK INTER:                  17.311
REMARK INTRA:                  -0.523
REMARK UNBOUND:                -0.532
REMARK SMILES CCCCCCCCCCCC(=O)[O-]
REMARK SMILES IDX 7 1 8 2 9 3 10 4 11 5 12 6 13 7 14 8 6 9 5 10 4 11 3 12 2 13
REMARK SMILES IDX 1 14
REMARK H PARENT
REMARK Flexibility Score: inf
ROOT
ATOM      1  C   UNL     1      -4.916  49.908  -2.181  1.00  0.00     0.000 C 
ENDROOT
BRANCH   1   2
ATOM      2  C   UNL     1      -4.510  48.813  -1.184  1.00  0.00     0.000 C 
BRANCH   2   3
ATOM      3  C   UNL     1      -5.011  47.419  -1.594  1.00  0.00     0.000 C 
BRANCH   3   4
ATOM      4  C   UNL     1      -6.340  47.045  -0.915  1.00  0.00     0.006 C 
BRANCH   4   5
ATOM      5  C   UNL     1      -6.628  45.540  -0.998  1.00  0.00     0.053 C 
BRANCH   5   6
ATOM      6  C   UNL     1      -6.009  44.921  -2.213  1.00  0.00     0.041 C 
ATOM      7  O   UNL     1      -6.455  45.189  -3.360  1.00  0.00    -0.550 OA
ATOM      8  O   UNL     1      -4.956  44.025  -2.077  1.00  0.00    -0.550 OA
ENDBRANCH   5   6
ENDBRANCH   4   5
ENDBRANCH   3   4
ENDBRANCH   2   3
ENDBRANCH   1   2
BRANCH   1   9
ATOM      9  C   UNL     1      -6.235  50.572  -1.760  1.00  0.00     0.000 C 
BRANCH   9  10
ATOM     10  C   UNL     1      -7.249  50.675  -2.913  1.00  0.00    -0.000 C 
BRANCH  10  11
ATOM     11  C   UNL     1      -8.719  50.835  -2.477  1.00  0.00    -0.000 C 
BRANCH  11  12
ATOM     12  C   UNL     1      -9.380  49.558  -1.929  1.00  0.00    -0.000 C 
BRANCH  12  13
ATOM     13  C   UNL     1     -10.633  49.150  -2.717  1.00  0.00    -0.003 C 
ATOM     14  C   UNL     1     -10.265  48.637  -4.107  1.00  0.00     0.004 C 
ENDBRANCH  12  13
ENDBRANCH  11  12
ENDBRANCH  10  11
ENDBRANCH   9  10
ENDBRANCH   1   9
TORSDOF 10
ENDMDL
MODEL 6
REMARK VINA RESULT:    11.067     10.846     13.528
REMARK INTER + INTRA:          17.006
REMARK INTER:                  17.698
REMARK INTRA:                  -0.692
REMARK UNBOUND:                -0.532
REMARK SMILES CCCCCCCCCCCC(=O)[O-]
REMARK SMILES IDX 7 1 8 2 9 3 10 4 11 5 12 6 13 7 14 8 6 9 5 10 4 11 3 12 2 13
REMARK SMILES IDX 1 14
REMARK H PARENT
REMARK Flexibility Score: inf
ROOT
ATOM      1  C   UNL     1      -4.794  50.003  -2.065  1.00  0.00     0.000 C 
ENDROOT
BRANCH   1   2
ATOM      2  C   UNL     1      -6.167  50.585  -1.696  1.00  0.00     0.000 C 
BRANCH   2   3
ATOM      3  C   UNL     1      -7.132  50.635  -2.891  1.00  0.00     0.000 C 
BRANCH   3   4
ATOM      4  C   UNL     1      -8.595  50.840  -2.461  1.00  0.00     0.006 C 
BRANCH   4   5
ATOM      5  C   UNL     1      -9.228  49.546  -1.932  1.00  0.00     0.053 C 
BRANCH   5   6
ATOM      6  C   UNL     1     -10.394  49.115  -2.766  1.00  0.00     0.041 C 
ATOM      7  O   UNL     1     -11.557  49.116  -2.282  1.00  0.00    -0.550 OA
ATOM      8  O   UNL     1     -10.194  48.685  -4.071  1.00  0.00    -0.550 OA
ENDBRANCH   5   6
ENDBRANCH   4   5
ENDBRANCH   3   4
ENDBRANCH   2   3
ENDBRANCH   1   2
BRANCH   1   9
ATOM      9  C   UNL     1      -4.425  48.836  -1.138  1.00  0.00     0.000 C 
BRANCH   9  10
ATOM     10  C   UNL     1      -4.962  47.482  -1.635  1.00  0.00    -0.000 C 
BRANCH  10  11
ATOM     11  C   UNL     1      -6.213  46.964  -0.897  1.00  0.00    -0.000 C 
BRANCH  11  12
ATOM     12  C   UNL     1      -6.717  45.585  -1.356  1.00  0.00    -0.000 C 
BRANCH  12  13
ATOM     13  C   UNL     1      -5.803  44.934  -2.403  1.00  0.00    -0.003 C 
ATOM     14  C   UNL     1      -4.896  43.885  -1.766  1.00  0.00     0.004 C 
ENDBRANCH  12  13
ENDBRANCH  11  12
ENDBRANCH  10  11
ENDBRANCH   9  10
ENDBRANCH   1   9
TORSDOF 10
ENDMDL
