MODEL 1
REMARK VINA RESULT:    -4.168      0.000      0.000
REMARK INTER + INTRA:          -5.756
REMARK INTER:                  -5.386
REMARK INTRA:                  -0.370
REMARK UNBOUND:                -0.370
REMARK SMILES CCO[C@H]1O[C@@H](CO)[C@@H](O)[C@@H](O)[C@H]1O
REMARK SMILES IDX 4 1 13 2 11 3 9 4 6 5 5 6 3 7 2 8 1 9 14 10 12 12 7 14 8 15
REMARK SMILES IDX 10 17
REMARK H PARENT 14 11 12 13 8 16 10 18
REMARK Flexibility Score: inf
ROOT
ATOM      1  C   UNL     1      22.918  23.811  47.127  1.00  0.00     0.281 C 
ATOM      2  C   UNL     1      22.568  22.513  47.883  1.00  0.00     0.202 C 
ATOM      3  C   UNL     1      23.835  21.661  48.176  1.00  0.00     0.179 C 
ATOM      4  C   UNL     1      25.127  22.426  47.835  1.00  0.00     0.177 C 
ATOM      5  C   UNL     1      25.033  23.922  48.264  1.00  0.00     0.178 C 
ATOM      6  O   UNL     1      23.843  24.603  47.857  1.00  0.00    -0.341 OA
ENDROOT
BRANCH   1   7
ATOM      7  O   UNL     1      21.723  24.561  46.964  1.00  0.00    -0.350 OA
BRANCH   7   8
ATOM      8  C   UNL     1      21.675  25.214  45.709  1.00  0.00     0.160 C 
ATOM      9  C   UNL     1      21.809  26.727  45.883  1.00  0.00     0.035 C 
ENDBRANCH   7   8
ENDBRANCH   1   7
BRANCH   2  10
ATOM     10  O   UNL     1      21.887  22.840  49.071  1.00  0.00    -0.385 OA
ATOM     11  H   UNL     1      22.511  23.386  49.618  1.00  0.00     0.211 HD
ENDBRANCH   2  10
BRANCH   3  12
ATOM     12  O   UNL     1      23.868  21.239  49.517  1.00  0.00    -0.387 OA
ATOM     13  H   UNL     1      24.817  21.052  49.736  1.00  0.00     0.211 HD
ENDBRANCH   3  12
BRANCH   5  14
ATOM     14  C   UNL     1      25.202  24.112  49.786  1.00  0.00     0.191 C 
BRANCH  14  15
ATOM     15  O   UNL     1      26.563  24.130  50.125  1.00  0.00    -0.394 OA
ATOM     16  H   UNL     1      26.679  23.497  50.882  1.00  0.00     0.210 HD
ENDBRANCH  14  15
ENDBRANCH   5  14
BRANCH   4  17
ATOM     17  O   UNL     1      26.249  21.804  48.413  1.00  0.00    -0.387 OA
ATOM     18  H   UNL     1      26.357  20.928  47.957  1.00  0.00     0.211 HD
ENDBRANCH   4  17
TORSDOF 7
ENDMDL
MODEL 2
REMARK VINA RESULT:    -4.141     15.030     16.709
REMARK INTER + INTRA:          -5.722
REMARK INTER:                  -5.372
REMARK INTRA:                  -0.350
REMARK UNBOUND:                -0.370
REMARK SMILES CCO[C@H]1O[C@@H](CO)[C@@H](O)[C@@H](O)[C@H]1O
REMARK SMILES IDX 4 1 13 2 11 3 9 4 6 5 5 6 3 7 2 8 1 9 14 10 12 12 7 14 8 15
REMARK SMILES IDX 10 17
REMARK H PARENT 14 11 12 13 8 16 10 18
REMARK Flexibility Score: inf
ROOT
ATOM      1  C   UNL     1      22.378  27.725  31.494  1.00  0.00     0.281 C 
ATOM      2  C   UNL     1      22.393  28.214  32.957  1.00  0.00     0.202 C 
ATOM      3  C   UNL     1      20.964  28.230  33.571  1.00  0.00     0.179 C 
ATOM      4  C   UNL     1      19.938  27.553  32.643  1.00  0.00     0.177 C 
ATOM      5  C   UNL     1      20.528  26.270  31.982  1.00  0.00     0.178 C 
ATOM      6  O   UNL     1      21.819  26.425  31.387  1.00  0.00    -0.341 OA
ENDROOT
BRANCH   1   7
ATOM      7  O   UNL     1      23.720  27.672  31.035  1.00  0.00    -0.350 OA
BRANCH   7   8
ATOM      8  C   UNL     1      23.915  28.462  29.876  1.00  0.00     0.160 C 
ATOM      9  C   UNL     1      24.385  29.867  30.253  1.00  0.00     0.035 C 
ENDBRANCH   7   8
ENDBRANCH   1   7
BRANCH   2  10
ATOM     10  O   UNL     1      23.261  27.398  33.707  1.00  0.00    -0.385 OA
ATOM     11  H   UNL     1      22.719  26.994  34.435  1.00  0.00     0.211 HD
ENDBRANCH   2  10
BRANCH   3  12
ATOM     12  O   UNL     1      20.945  27.615  34.835  1.00  0.00    -0.387 OA
ATOM     13  H   UNL     1      21.513  26.804  34.769  1.00  0.00     0.211 HD
ENDBRANCH   3  12
BRANCH   5  14
ATOM     14  C   UNL     1      20.585  25.076  32.956  1.00  0.00     0.191 C 
BRANCH  14  15
ATOM     15  O   UNL     1      19.289  24.620  33.243  1.00  0.00    -0.394 OA
ATOM     16  H   UNL     1      19.232  24.521  34.231  1.00  0.00     0.210 HD
ENDBRANCH  14  15
ENDBRANCH   5  14
BRANCH   4  17
ATOM     17  O   UNL     1      18.748  27.263  33.334  1.00  0.00    -0.387 OA
ATOM     18  H   UNL     1      18.728  26.279  33.470  1.00  0.00     0.211 HD
ENDBRANCH   4  17
TORSDOF 7
ENDMDL
MODEL 3
REMARK VINA RESULT:    -4.122      2.259      4.685
REMARK INTER + INTRA:          -5.697
REMARK INTER:                  -5.144
REMARK INTRA:                  -0.553
REMARK UNBOUND:                -0.370
REMARK SMILES CCO[C@H]1O[C@@H](CO)[C@@H](O)[C@@H](O)[C@H]1O
REMARK SMILES IDX 4 1 13 2 11 3 9 4 6 5 5 6 3 7 2 8 1 9 14 10 12 12 7 14 8 15
REMARK SMILES IDX 10 17
REMARK H PARENT 14 11 12 13 8 16 10 18
REMARK Flexibility Score: inf
ROOT
ATOM      1  C   UNL     1      25.618  21.545  49.342  1.00  0.00     0.281 C 
ATOM      2  C   UNL     1      25.129  21.724  47.890  1.00  0.00     0.202 C 
ATOM      3  C   UNL     1      23.606  22.033  47.833  1.00  0.00     0.179 C 
ATOM      4  C   UNL     1      23.025  22.296  49.236  1.00  0.00     0.177 C 
ATOM      5  C   UNL     1      23.999  23.148  50.104  1.00  0.00     0.178 C 
ATOM      6  O   UNL     1      25.356  22.699  50.125  1.00  0.00    -0.341 OA
ENDROOT
BRANCH   1   7
ATOM      7  O   UNL     1      27.023  21.339  49.310  1.00  0.00    -0.350 OA
BRANCH   7   8
ATOM      8  C   UNL     1      27.719  22.321  50.055  1.00  0.00     0.160 C 
ATOM      9  C   UNL     1      29.210  21.989  50.125  1.00  0.00     0.035 C 
ENDBRANCH   7   8
ENDBRANCH   1   7
BRANCH   2  10
ATOM     10  O   UNL     1      25.879  22.742  47.273  1.00  0.00    -0.385 OA
ATOM     11  H   UNL     1      26.136  22.405  46.374  1.00  0.00     0.211 HD
ENDBRANCH   2  10
BRANCH   3  12
ATOM     12  O   UNL     1      23.338  23.127  46.992  1.00  0.00    -0.387 OA
ATOM     13  H   UNL     1      23.566  23.946  47.504  1.00  0.00     0.211 HD
ENDBRANCH   3  12
BRANCH   5  14
ATOM     14  C   UNL     1      23.990  24.640  49.711  1.00  0.00     0.191 C 
BRANCH  14  15
ATOM     15  O   UNL     1      25.150  24.959  48.989  1.00  0.00    -0.394 OA
ATOM     16  H   UNL     1      24.892  24.992  48.030  1.00  0.00     0.210 HD
ENDBRANCH  14  15
ENDBRANCH   5  14
BRANCH   4  17
ATOM     17  O   UNL     1      21.759  22.903  49.151  1.00  0.00    -0.387 OA
ATOM     18  H   UNL     1      21.385  22.916  50.072  1.00  0.00     0.211 HD
ENDBRANCH   4  17
TORSDOF 7
ENDMDL
MODEL 4
REMARK VINA RESULT:    -4.094     15.136     16.810
REMARK INTER + INTRA:          -5.661
REMARK INTER:                  -5.114
REMARK INTRA:                  -0.547
REMARK UNBOUND:                -0.370
REMARK SMILES CCO[C@H]1O[C@@H](CO)[C@@H](O)[C@@H](O)[C@H]1O
REMARK SMILES IDX 4 1 13 2 11 3 9 4 6 5 5 6 3 7 2 8 1 9 14 10 12 12 7 14 8 15
REMARK SMILES IDX 10 17
REMARK H PARENT 14 11 12 13 8 16 10 18
REMARK Flexibility Score: inf
ROOT
ATOM      1  C   UNL     1      20.437  25.189  31.190  1.00  0.00     0.281 C 
ATOM      2  C   UNL     1      21.146  24.966  32.543  1.00  0.00     0.202 C 
ATOM      3  C   UNL     1      22.035  26.181  32.930  1.00  0.00     0.179 C 
ATOM      4  C   UNL     1      21.812  27.375  31.983  1.00  0.00     0.177 C 
ATOM      5  C   UNL     1      20.304  27.548  31.630  1.00  0.00     0.178 C 
ATOM      6  O   UNL     1      19.632  26.357  31.213  1.00  0.00    -0.341 OA
ENDROOT
BRANCH   1   7
ATOM      7  O   UNL     1      19.595  24.072  30.946  1.00  0.00    -0.350 OA
BRANCH   7   8
ATOM      8  C   UNL     1      18.318  24.465  30.477  1.00  0.00     0.160 C 
ATOM      9  C   UNL     1      17.574  23.272  29.876  1.00  0.00     0.035 C 
ENDBRANCH   7   8
ENDBRANCH   1   7
BRANCH   2  10
ATOM     10  O   UNL     1      20.180  24.704  33.531  1.00  0.00    -0.385 OA
ATOM     11  H   UNL     1      20.059  23.718  33.562  1.00  0.00     0.211 HD
ENDBRANCH   2  10
BRANCH   3  12
ATOM     12  O   UNL     1      21.808  26.576  34.260  1.00  0.00    -0.387 OA
ATOM     13  H   UNL     1      21.016  27.175  34.251  1.00  0.00     0.211 HD
ENDBRANCH   3  12
BRANCH   5  14
ATOM     14  C   UNL     1      19.496  28.181  32.782  1.00  0.00     0.191 C 
BRANCH  14  15
ATOM     15  O   UNL     1      18.911  27.180  33.572  1.00  0.00    -0.394 OA
ATOM     16  H   UNL     1      19.043  27.447  34.520  1.00  0.00     0.210 HD
ENDBRANCH  14  15
ENDBRANCH   5  14
BRANCH   4  17
ATOM     17  O   UNL     1      22.342  28.558  32.531  1.00  0.00    -0.387 OA
ATOM     18  H   UNL     1      22.478  29.188  31.774  1.00  0.00     0.211 HD
ENDBRANCH   4  17
TORSDOF 7
ENDMDL
MODEL 5
REMARK VINA RESULT:    -3.988     14.637     16.849
REMARK INTER + INTRA:          -5.523
REMARK INTER:                  -5.169
REMARK INTRA:                  -0.355
REMARK UNBOUND:                -0.370
REMARK SMILES CCO[C@H]1O[C@@H](CO)[C@@H](O)[C@@H](O)[C@H]1O
REMARK SMILES IDX 4 1 13 2 11 3 9 4 6 5 5 6 3 7 2 8 1 9 14 10 12 12 7 14 8 15
REMARK SMILES IDX 10 17
REMARK H PARENT 14 11 12 13 8 16 10 18
REMARK Flexibility Score: inf
ROOT
ATOM      1  C   UNL     1      22.286  26.904  30.708  1.00  0.00     0.281 C 
ATOM      2  C   UNL     1      20.759  27.120  30.661  1.00  0.00     0.202 C 
ATOM      3  C   UNL     1      20.013  26.138  31.608  1.00  0.00     0.179 C 
ATOM      4  C   UNL     1      20.992  25.358  32.507  1.00  0.00     0.177 C 
ATOM      5  C   UNL     1      22.143  26.274  33.023  1.00  0.00     0.178 C 
ATOM      6  O   UNL     1      22.793  27.065  32.024  1.00  0.00    -0.341 OA
ENDROOT
BRANCH   1   7
ATOM      7  O   UNL     1      22.894  27.881  29.876  1.00  0.00    -0.350 OA
BRANCH   7   8
ATOM      8  C   UNL     1      24.239  28.126  30.242  1.00  0.00     0.160 C 
ATOM      9  C   UNL     1      24.532  29.627  30.253  1.00  0.00     0.035 C 
ENDBRANCH   7   8
ENDBRANCH   1   7
BRANCH   2  10
ATOM     10  O   UNL     1      20.473  28.459  30.984  1.00  0.00    -0.385 OA
ATOM     11  H   UNL     1      20.757  28.594  31.927  1.00  0.00     0.211 HD
ENDBRANCH   2  10
BRANCH   3  12
ATOM     12  O   UNL     1      19.070  26.813  32.402  1.00  0.00    -0.387 OA
ATOM     13  H   UNL     1      19.536  27.591  32.804  1.00  0.00     0.211 HD
ENDBRANCH   3  12
BRANCH   5  14
ATOM     14  C   UNL     1      21.688  27.212  34.160  1.00  0.00     0.191 C 
BRANCH  14  15
ATOM     15  O   UNL     1      22.056  26.680  35.405  1.00  0.00    -0.394 OA
ATOM     16  H   UNL     1      21.570  25.819  35.506  1.00  0.00     0.210 HD
ENDBRANCH  14  15
ENDBRANCH   5  14
BRANCH   4  17
ATOM     17  O   UNL     1      20.315  24.746  33.576  1.00  0.00    -0.387 OA
ATOM     18  H   UNL     1      19.346  24.776  33.356  1.00  0.00     0.211 HD
ENDBRANCH   4  17
TORSDOF 7
ENDMDL
MODEL 6
REMARK VINA RESULT:    -3.978     14.755     17.189
REMARK INTER + INTRA:          -5.510
REMARK INTER:                  -4.943
REMARK INTRA:                  -0.568
REMARK UNBOUND:                -0.370
REMARK SMILES CCO[C@H]1O[C@@H](CO)[C@@H](O)[C@@H](O)[C@H]1O
REMARK SMILES IDX 4 1 13 2 11 3 9 4 6 5 5 6 3 7 2 8 1 9 14 10 12 12 7 14 8 15
REMARK SMILES IDX 10 17
REMARK H PARENT 14 11 12 13 8 16 10 18
REMARK Flexibility Score: inf
ROOT
ATOM      1  C   UNL     1      21.180  26.407  31.783  1.00  0.00     0.281 C 
ATOM      2  C   UNL     1      20.146  25.806  32.759  1.00  0.00     0.202 C 
ATOM      3  C   UNL     1      18.785  25.537  32.057  1.00  0.00     0.179 C 
ATOM      4  C   UNL     1      18.883  25.730  30.531  1.00  0.00     0.177 C 
ATOM      5  C   UNL     1      20.219  25.156  29.969  1.00  0.00     0.178 C 
ATOM      6  O   UNL     1      21.400  25.554  30.671  1.00  0.00    -0.341 OA
ENDROOT
BRANCH   1   7
ATOM      7  O   UNL     1      22.408  26.555  32.480  1.00  0.00    -0.350 OA
BRANCH   7   8
ATOM      8  C   UNL     1      22.385  27.661  33.364  1.00  0.00     0.160 C 
ATOM      9  C   UNL     1      22.876  27.253  34.753  1.00  0.00     0.035 C 
ENDBRANCH   7   8
ENDBRANCH   1   7
BRANCH   2  10
ATOM     10  O   UNL     1      20.673  24.629  33.321  1.00  0.00    -0.385 OA
ATOM     11  H   UNL     1      21.659  24.672  33.206  1.00  0.00     0.211 HD
ENDBRANCH   2  10
BRANCH   3  12
ATOM     12  O   UNL     1      18.309  24.246  32.346  1.00  0.00    -0.387 OA
ATOM     13  H   UNL     1      18.693  23.638  31.661  1.00  0.00     0.211 HD
ENDBRANCH   3  12
BRANCH   5  14
ATOM     14  C   UNL     1      20.208  23.616  29.875  1.00  0.00     0.191 C 
BRANCH  14  15
ATOM     15  O   UNL     1      20.884  23.058  30.971  1.00  0.00    -0.394 OA
ATOM     16  H   UNL     1      21.045  22.102  30.752  1.00  0.00     0.210 HD
ENDBRANCH  14  15
ENDBRANCH   5  14
BRANCH   4  17
ATOM     17  O   UNL     1      17.774  25.160  29.880  1.00  0.00    -0.387 OA
ATOM     18  H   UNL     1      17.083  25.872  29.815  1.00  0.00     0.211 HD
ENDBRANCH   4  17
TORSDOF 7
ENDMDL
MODEL 7
REMARK VINA RESULT:    -3.885     13.420     15.977
REMARK INTER + INTRA:          -5.391
REMARK INTER:                  -4.860
REMARK INTRA:                  -0.531
REMARK UNBOUND:                -0.370
REMARK SMILES CCO[C@H]1O[C@@H](CO)[C@@H](O)[C@@H](O)[C@H]1O
REMARK SMILES IDX 4 1 13 2 11 3 9 4 6 5 5 6 3 7 2 8 1 9 14 10 12 12 7 14 8 15
REMARK SMILES IDX 10 17
REMARK H PARENT 14 11 12 13 8 16 10 18
REMARK Flexibility Score: inf
ROOT
ATOM      1  C   UNL     1      21.495  27.682  33.869  1.00  0.00     0.281 C 
ATOM      2  C   UNL     1      20.146  28.096  33.245  1.00  0.00     0.202 C 
ATOM      3  C   UNL     1      20.099  27.780  31.723  1.00  0.00     0.179 C 
ATOM      4  C   UNL     1      21.312  26.943  31.277  1.00  0.00     0.177 C 
ATOM      5  C   UNL     1      21.664  25.846  32.327  1.00  0.00     0.178 C 
ATOM      6  O   UNL     1      21.751  26.299  33.681  1.00  0.00    -0.341 OA
ENDROOT
BRANCH   1   7
ATOM      7  O   UNL     1      21.430  27.935  35.265  1.00  0.00    -0.350 OA
BRANCH   7   8
ATOM      8  C   UNL     1      22.647  27.623  35.917  1.00  0.00     0.160 C 
ATOM      9  C   UNL     1      22.932  28.625  37.036  1.00  0.00     0.035 C 
ENDBRANCH   7   8
ENDBRANCH   1   7
BRANCH   2  10
ATOM     10  O   UNL     1      19.102  27.451  33.933  1.00  0.00    -0.385 OA
ATOM     11  H   UNL     1      19.301  27.537  34.903  1.00  0.00     0.211 HD
ENDBRANCH   2  10
BRANCH   3  12
ATOM     12  O   UNL     1      18.908  27.119  31.376  1.00  0.00    -0.387 OA
ATOM     13  H   UNL     1      18.170  27.771  31.500  1.00  0.00     0.211 HD
ENDBRANCH   3  12
BRANCH   5  14
ATOM     14  C   UNL     1      20.693  24.649  32.279  1.00  0.00     0.191 C 
BRANCH  14  15
ATOM     15  O   UNL     1      19.794  24.709  33.355  1.00  0.00    -0.394 OA
ATOM     16  H   UNL     1      18.888  24.541  32.983  1.00  0.00     0.210 HD
ENDBRANCH  14  15
ENDBRANCH   5  14
BRANCH   4  17
ATOM     17  O   UNL     1      21.094  26.377  30.008  1.00  0.00    -0.387 OA
ATOM     18  H   UNL     1      21.960  26.421  29.522  1.00  0.00     0.211 HD
ENDBRANCH   4  17
TORSDOF 7
ENDMDL
MODEL 8
REMARK VINA RESULT:    -3.847     14.247     15.826
REMARK INTER + INTRA:          -5.341
REMARK INTER:                  -4.864
REMARK INTRA:                  -0.477
REMARK UNBOUND:                -0.370
REMARK SMILES CCO[C@H]1O[C@@H](CO)[C@@H](O)[C@@H](O)[C@H]1O
REMARK SMILES IDX 4 1 13 2 11 3 9 4 6 5 5 6 3 7 2 8 1 9 14 10 12 12 7 14 8 15
REMARK SMILES IDX 10 17
REMARK H PARENT 14 11 12 13 8 16 10 18
REMARK Flexibility Score: inf
ROOT
ATOM      1  C   UNL     1      19.615  28.354  33.075  1.00  0.00     0.281 C 
ATOM      2  C   UNL     1      19.396  26.961  32.449  1.00  0.00     0.202 C 
ATOM      3  C   UNL     1      20.549  26.581  31.478  1.00  0.00     0.179 C 
ATOM      4  C   UNL     1      21.714  27.587  31.555  1.00  0.00     0.177 C 
ATOM      5  C   UNL     1      21.995  28.021  33.025  1.00  0.00     0.178 C 
ATOM      6  O   UNL     1      20.846  28.420  33.778  1.00  0.00    -0.341 OA
ENDROOT
BRANCH   1   7
ATOM      7  O   UNL     1      18.563  28.592  33.997  1.00  0.00    -0.350 OA
BRANCH   7   8
ATOM      8  C   UNL     1      19.050  28.856  35.300  1.00  0.00     0.160 C 
ATOM      9  C   UNL     1      18.029  29.660  36.106  1.00  0.00     0.035 C 
ENDBRANCH   7   8
ENDBRANCH   1   7
BRANCH   2  10
ATOM     10  O   UNL     1      19.262  26.010  33.478  1.00  0.00    -0.385 OA
ATOM     11  H   UNL     1      20.180  25.715  33.718  1.00  0.00     0.211 HD
ENDBRANCH   2  10
BRANCH   3  12
ATOM     12  O   UNL     1      21.023  25.282  31.731  1.00  0.00    -0.387 OA
ATOM     13  H   UNL     1      20.489  24.923  32.486  1.00  0.00     0.211 HD
ENDBRANCH   3  12
BRANCH   5  14
ATOM     14  C   UNL     1      22.745  26.937  33.828  1.00  0.00     0.191 C 
BRANCH  14  15
ATOM     15  O   UNL     1      21.987  26.544  34.941  1.00  0.00    -0.394 OA
ATOM     16  H   UNL     1      21.383  27.303  35.160  1.00  0.00     0.210 HD
ENDBRANCH  14  15
ENDBRANCH   5  14
BRANCH   4  17
ATOM     17  O   UNL     1      22.872  27.065  30.951  1.00  0.00    -0.387 OA
ATOM     18  H   UNL     1      22.578  26.600  30.123  1.00  0.00     0.211 HD
ENDBRANCH   4  17
TORSDOF 7
ENDMDL
MODEL 9
REMARK VINA RESULT:    -3.801     15.260     16.919
REMARK INTER + INTRA:          -5.283
REMARK INTER:                  -4.716
REMARK INTRA:                  -0.566
REMARK UNBOUND:                -0.370
REMARK SMILES CCO[C@H]1O[C@@H](CO)[C@@H](O)[C@@H](O)[C@H]1O
REMARK SMILES IDX 4 1 13 2 11 3 9 4 6 5 5 6 3 7 2 8 1 9 14 10 12 12 7 14 8 15
REMARK SMILES IDX 10 17
REMARK H PARENT 14 11 12 13 8 16 10 18
REMARK Flexibility Score: inf
ROOT
ATOM      1  C   UNL     1      20.795  25.753  31.853  1.00  0.00     0.281 C 
ATOM      2  C   UNL     1      21.620  26.077  33.115  1.00  0.00     0.202 C 
ATOM      3  C   UNL     1      22.942  26.815  32.761  1.00  0.00     0.179 C 
ATOM      4  C   UNL     1      22.987  27.224  31.277  1.00  0.00     0.177 C 
ATOM      5  C   UNL     1      21.603  27.752  30.790  1.00  0.00     0.178 C 
ATOM      6  O   UNL     1      20.482  26.928  31.121  1.00  0.00    -0.341 OA
ENDROOT
BRANCH   1   7
ATOM      7  O   UNL     1      19.578  25.149  32.266  1.00  0.00    -0.350 OA
BRANCH   7   8
ATOM      8  C   UNL     1      18.586  25.214  31.259  1.00  0.00     0.160 C 
ATOM      9  C   UNL     1      18.088  23.814  30.900  1.00  0.00     0.035 C 
ENDBRANCH   7   8
ENDBRANCH   1   7
BRANCH   2  10
ATOM     10  O   UNL     1      20.832  26.838  33.998  1.00  0.00    -0.385 OA
ATOM     11  H   UNL     1      21.451  27.239  34.663  1.00  0.00     0.211 HD
ENDBRANCH   2  10
BRANCH   3  12
ATOM     12  O   UNL     1      23.129  27.946  33.575  1.00  0.00    -0.387 OA
ATOM     13  H   UNL     1      23.980  28.369  33.288  1.00  0.00     0.211 HD
ENDBRANCH   3  12
BRANCH   5  14
ATOM     14  C   UNL     1      21.310  29.185  31.281  1.00  0.00     0.191 C 
BRANCH  14  15
ATOM     15  O   UNL     1      20.417  29.155  32.364  1.00  0.00    -0.394 OA
ATOM     16  H   UNL     1      19.769  28.424  32.181  1.00  0.00     0.210 HD
ENDBRANCH  14  15
ENDBRANCH   5  14
BRANCH   4  17
ATOM     17  O   UNL     1      23.999  28.173  31.046  1.00  0.00    -0.387 OA
ATOM     18  H   UNL     1      24.282  28.065  30.099  1.00  0.00     0.211 HD
ENDBRANCH   4  17
TORSDOF 7
ENDMDL
