MODEL 1
REMARK VINA RESULT:    -3.557      0.000      0.000
REMARK INTER + INTRA:          -4.211
REMARK INTER:                  -4.180
REMARK INTRA:                  -0.030
REMARK UNBOUND:                -0.030
REMARK SMILES O=C([O-])CCC(=O)[O-]
REMARK SMILES IDX 4 1 2 2 1 3 3 4 5 5 6 6 7 7 8 8
REMARK H PARENT
REMARK Flexibility Score: inf
ROOT
ATOM      1  C   UNL     1      53.268  21.050  50.614  1.00  0.00     0.059 C 
ENDROOT
BRANCH   1   2
ATOM      2  C   UNL     1      51.831  21.110  51.037  1.00  0.00     0.042 C 
ATOM      3  O   UNL     1      50.938  21.411  50.203  1.00  0.00    -0.550 OA
ATOM      4  O   UNL     1      51.477  20.793  52.343  1.00  0.00    -0.550 OA
ENDBRANCH   1   2
BRANCH   1   5
ATOM      5  C   UNL     1      53.436  20.297  49.290  1.00  0.00     0.059 C 
BRANCH   5   6
ATOM      6  C   UNL     1      54.827  20.430  48.751  1.00  0.00     0.042 C 
ATOM      7  O   UNL     1      55.709  19.587  49.062  1.00  0.00    -0.550 OA
ATOM      8  O   UNL     1      55.138  21.459  47.872  1.00  0.00    -0.550 OA
ENDBRANCH   5   6
ENDBRANCH   1   5
TORSDOF 3
ENDMDL
MODEL 2
REMARK VINA RESULT:    -3.556      0.090      4.419
REMARK INTER + INTRA:          -4.210
REMARK INTER:                  -4.180
REMARK INTRA:                  -0.030
REMARK UNBOUND:                -0.030
REMARK SMILES O=C([O-])CCC(=O)[O-]
REMARK SMILES IDX 4 1 2 2 1 3 3 4 5 5 6 6 7 7 8 8
REMARK H PARENT
REMARK Flexibility Score: inf
ROOT
ATOM      1  C   UNL     1      53.459  20.282  49.275  1.00  0.00     0.059 C 
ENDROOT
BRANCH   1   2
ATOM      2  C   UNL     1      54.870  20.412  48.787  1.00  0.00     0.042 C 
ATOM      3  O   UNL     1      55.729  19.543  49.092  1.00  0.00    -0.550 OA
ATOM      4  O   UNL     1      55.226  21.471  47.961  1.00  0.00    -0.550 OA
ENDBRANCH   1   2
BRANCH   1   5
ATOM      5  C   UNL     1      53.247  21.030  50.595  1.00  0.00     0.059 C 
BRANCH   5   6
ATOM      6  C   UNL     1      51.804  21.043  50.998  1.00  0.00     0.042 C 
ATOM      7  O   UNL     1      50.909  21.248  50.137  1.00  0.00    -0.550 OA
ATOM      8  O   UNL     1      51.447  20.785  52.315  1.00  0.00    -0.550 OA
ENDBRANCH   5   6
ENDBRANCH   1   5
TORSDOF 3
ENDMDL
MODEL 3
REMARK VINA RESULT:    -3.448      0.382      1.582
REMARK INTER + INTRA:          -4.083
REMARK INTER:                  -4.053
REMARK INTRA:                  -0.031
REMARK UNBOUND:                -0.030
REMARK SMILES O=C([O-])CCC(=O)[O-]
REMARK SMILES IDX 4 1 2 2 1 3 3 4 5 5 6 6 7 7 8 8
REMARK H PARENT
REMARK Flexibility Score: inf
ROOT
ATOM      1  C   UNL     1      53.318  21.076  50.611  1.00  0.00     0.059 C 
ENDROOT
BRANCH   1   2
ATOM      2  C   UNL     1      51.911  21.003  51.121  1.00  0.00     0.042 C 
ATOM      3  O   UNL     1      51.642  21.372  52.294  1.00  0.00    -0.550 OA
ATOM      4  O   UNL     1      50.890  20.566  50.286  1.00  0.00    -0.550 OA
ENDBRANCH   1   2
BRANCH   1   5
ATOM      5  C   UNL     1      53.488  20.288  49.308  1.00  0.00     0.059 C 
BRANCH   5   6
ATOM      6  C   UNL     1      54.866  20.446  48.742  1.00  0.00     0.042 C 
ATOM      7  O   UNL     1      55.142  21.436  48.015  1.00  0.00    -0.550 OA
ATOM      8  O   UNL     1      55.856  19.522  49.052  1.00  0.00    -0.550 OA
ENDBRANCH   5   6
ENDBRANCH   1   5
TORSDOF 3
ENDMDL
MODEL 4
REMARK VINA RESULT:    -3.198      9.702     10.457
REMARK INTER + INTRA:          -3.789
REMARK INTER:                  -3.618
REMARK INTRA:                  -0.171
REMARK UNBOUND:                -0.030
REMARK SMILES O=C([O-])CCC(=O)[O-]
REMARK SMILES IDX 4 1 2 2 1 3 3 4 5 5 6 6 7 7 8 8
REMARK H PARENT
REMARK Flexibility Score: inf
ROOT
ATOM      1  C   UNL     1      44.715  18.726  53.481  1.00  0.00     0.059 C 
ENDROOT
BRANCH   1   2
ATOM      2  C   UNL     1      43.385  18.461  54.120  1.00  0.00     0.042 C 
ATOM      3  O   UNL     1      43.276  17.586  55.018  1.00  0.00    -0.550 OA
ATOM      4  O   UNL     1      42.274  19.209  53.749  1.00  0.00    -0.550 OA
ENDBRANCH   1   2
BRANCH   1   5
ATOM      5  C   UNL     1      45.132  17.582  52.551  1.00  0.00     0.059 C 
BRANCH   5   6
ATOM      6  C   UNL     1      44.229  17.481  51.360  1.00  0.00     0.042 C 
ATOM      7  O   UNL     1      43.741  16.368  51.030  1.00  0.00    -0.550 OA
ATOM      8  O   UNL     1      43.894  18.620  50.641  1.00  0.00    -0.550 OA
ENDBRANCH   5   6
ENDBRANCH   1   5
TORSDOF 3
ENDMDL
MODEL 5
REMARK VINA RESULT:    -3.133      8.884     11.320
REMARK INTER + INTRA:          -3.713
REMARK INTER:                  -3.682
REMARK INTRA:                  -0.031
REMARK UNBOUND:                -0.030
REMARK SMILES O=C([O-])CCC(=O)[O-]
REMARK SMILES IDX 4 1 2 2 1 3 3 4 5 5 6 6 7 7 8 8
REMARK H PARENT
REMARK Flexibility Score: inf
ROOT
ATOM      1  C   UNL     1      43.724  18.267  52.630  1.00  0.00     0.059 C 
ENDROOT
BRANCH   1   2
ATOM      2  C   UNL     1      44.861  17.764  51.795  1.00  0.00     0.042 C 
ATOM      3  O   UNL     1      45.976  18.349  51.824  1.00  0.00    -0.550 OA
ATOM      4  O   UNL     1      44.702  16.625  51.015  1.00  0.00    -0.550 OA
ENDBRANCH   1   2
BRANCH   1   5
ATOM      5  C   UNL     1      44.053  18.210  54.126  1.00  0.00     0.059 C 
BRANCH   5   6
ATOM      6  C   UNL     1      42.834  18.429  54.969  1.00  0.00     0.042 C 
ATOM      7  O   UNL     1      41.867  19.100  54.522  1.00  0.00    -0.550 OA
ATOM      8  O   UNL     1      42.750  17.855  56.232  1.00  0.00    -0.550 OA
ENDBRANCH   5   6
ENDBRANCH   1   5
TORSDOF 3
ENDMDL
MODEL 6
REMARK VINA RESULT:    -3.100      2.025      2.795
REMARK INTER + INTRA:          -3.674
REMARK INTER:                  -3.618
REMARK INTRA:                  -0.055
REMARK UNBOUND:                -0.030
REMARK SMILES O=C([O-])CCC(=O)[O-]
REMARK SMILES IDX 4 1 2 2 1 3 3 4 5 5 6 6 7 7 8 8
REMARK H PARENT
REMARK Flexibility Score: inf
ROOT
ATOM      1  C   UNL     1      50.821  20.972  50.448  1.00  0.00     0.059 C 
ENDROOT
BRANCH   1   2
ATOM      2  C   UNL     1      49.687  20.015  50.238  1.00  0.00     0.042 C 
ATOM      3  O   UNL     1      49.894  18.773  50.259  1.00  0.00    -0.550 OA
ATOM      4  O   UNL     1      48.396  20.495  50.059  1.00  0.00    -0.550 OA
ENDBRANCH   1   2
BRANCH   1   5
ATOM      5  C   UNL     1      52.025  20.624  49.565  1.00  0.00     0.059 C 
BRANCH   5   6
ATOM      6  C   UNL     1      53.317  20.775  50.308  1.00  0.00     0.042 C 
ATOM      7  O   UNL     1      53.353  21.411  51.394  1.00  0.00    -0.550 OA
ATOM      8  O   UNL     1      54.473  20.178  49.822  1.00  0.00    -0.550 OA
ENDBRANCH   5   6
ENDBRANCH   1   5
TORSDOF 3
ENDMDL
MODEL 7
REMARK VINA RESULT:    -3.044      2.948      4.372
REMARK INTER + INTRA:          -3.608
REMARK INTER:                  -3.480
REMARK INTRA:                  -0.129
REMARK UNBOUND:                -0.030
REMARK SMILES O=C([O-])CCC(=O)[O-]
REMARK SMILES IDX 4 1 2 2 1 3 3 4 5 5 6 6 7 7 8 8
REMARK H PARENT
REMARK Flexibility Score: inf
ROOT
ATOM      1  C   UNL     1      48.760  20.296  49.643  1.00  0.00     0.059 C 
ENDROOT
BRANCH   1   2
ATOM      2  C   UNL     1      47.780  20.656  50.718  1.00  0.00     0.042 C 
ATOM      3  O   UNL     1      46.910  19.825  51.087  1.00  0.00    -0.550 OA
ATOM      4  O   UNL     1      47.856  21.896  51.341  1.00  0.00    -0.550 OA
ENDBRANCH   1   2
BRANCH   1   5
ATOM      5  C   UNL     1      49.931  19.478  50.196  1.00  0.00     0.059 C 
BRANCH   5   6
ATOM      6  C   UNL     1      51.081  20.355  50.590  1.00  0.00     0.042 C 
ATOM      7  O   UNL     1      51.911  20.737  49.724  1.00  0.00    -0.550 OA
ATOM      8  O   UNL     1      51.211  20.783  51.905  1.00  0.00    -0.550 OA
ENDBRANCH   5   6
ENDBRANCH   1   5
TORSDOF 3
ENDMDL
MODEL 8
REMARK VINA RESULT:    -3.027      1.979      4.389
REMARK INTER + INTRA:          -3.588
REMARK INTER:                  -3.528
REMARK INTRA:                  -0.060
REMARK UNBOUND:                -0.030
REMARK SMILES O=C([O-])CCC(=O)[O-]
REMARK SMILES IDX 4 1 2 2 1 3 3 4 5 5 6 6 7 7 8 8
REMARK H PARENT
REMARK Flexibility Score: inf
ROOT
ATOM      1  C   UNL     1      52.104  20.497  49.510  1.00  0.00     0.059 C 
ENDROOT
BRANCH   1   2
ATOM      2  C   UNL     1      53.381  20.732  50.260  1.00  0.00     0.042 C 
ATOM      3  O   UNL     1      54.464  20.256  49.831  1.00  0.00    -0.550 OA
ATOM      4  O   UNL     1      53.378  21.512  51.409  1.00  0.00    -0.550 OA
ENDBRANCH   1   2
BRANCH   1   5
ATOM      5  C   UNL     1      50.899  21.089  50.247  1.00  0.00     0.059 C 
BRANCH   5   6
ATOM      6  C   UNL     1      49.754  20.125  50.299  1.00  0.00     0.042 C 
ATOM      7  O   UNL     1      48.571  20.550  50.371  1.00  0.00    -0.550 OA
ATOM      8  O   UNL     1      49.990  18.758  50.226  1.00  0.00    -0.550 OA
ENDBRANCH   5   6
ENDBRANCH   1   5
TORSDOF 3
ENDMDL
MODEL 9
REMARK VINA RESULT:    -3.005      2.959      5.466
REMARK INTER + INTRA:          -3.563
REMARK INTER:                  -3.435
REMARK INTRA:                  -0.127
REMARK UNBOUND:                -0.030
REMARK SMILES O=C([O-])CCC(=O)[O-]
REMARK SMILES IDX 4 1 2 2 1 3 3 4 5 5 6 6 7 7 8 8
REMARK H PARENT
REMARK Flexibility Score: inf
ROOT
ATOM      1  C   UNL     1      49.973  19.419  50.248  1.00  0.00     0.059 C 
ENDROOT
BRANCH   1   2
ATOM      2  C   UNL     1      51.102  20.297  50.694  1.00  0.00     0.042 C 
ATOM      3  O   UNL     1      52.013  20.617  49.887  1.00  0.00    -0.550 OA
ATOM      4  O   UNL     1      51.126  20.793  51.992  1.00  0.00    -0.550 OA
ENDBRANCH   1   2
BRANCH   1   5
ATOM      5  C   UNL     1      48.822  20.237  49.655  1.00  0.00     0.059 C 
BRANCH   5   6
ATOM      6  C   UNL     1      47.780  20.552  50.684  1.00  0.00     0.042 C 
ATOM      7  O   UNL     1      46.921  19.687  51.001  1.00  0.00    -0.550 OA
ATOM      8  O   UNL     1      47.783  21.785  51.323  1.00  0.00    -0.550 OA
ENDBRANCH   5   6
ENDBRANCH   1   5
TORSDOF 3
ENDMDL
