MODEL 1
REMARK VINA RESULT:    -4.277      0.000      0.000
REMARK INTER + INTRA:          -4.543
REMARK INTER:                  -4.527
REMARK INTRA:                  -0.016
REMARK UNBOUND:                -0.016
REMARK SMILES O=C([O-])c1cccnc1
REMARK SMILES IDX 4 1 5 2 9 3 6 4 8 5 7 6 2 7 1 8 3 9
REMARK H PARENT
REMARK Flexibility Score: inf
ROOT
ATOM      1  C   UNL     1      -5.729  -6.423   1.028  1.00  0.00     0.016 A 
ATOM      2  C   UNL     1      -6.419  -7.337   0.214  1.00  0.00     0.013 A 
ATOM      3  C   UNL     1      -5.860  -6.541   2.423  1.00  0.00     0.120 A 
ATOM      4  C   UNL     1      -7.212  -8.330   0.790  1.00  0.00     0.021 A 
ATOM      5  N   UNL     1      -6.639  -7.518   2.960  1.00  0.00    -0.264 NA
ATOM      6  C   UNL     1      -7.310  -8.407   2.180  1.00  0.00     0.111 A 
ENDROOT
BRANCH   1   7
ATOM      7  C   UNL     1      -4.887  -5.367   0.428  1.00  0.00     0.073 C 
ATOM      8  O   UNL     1      -3.640  -5.518   0.332  1.00  0.00    -0.545 OA
ATOM      9  O   UNL     1      -5.461  -4.189  -0.038  1.00  0.00    -0.545 OA
ENDBRANCH   1   7
TORSDOF 1
ENDMDL
MODEL 2
REMARK VINA RESULT:    -4.260     12.614     13.427
REMARK INTER + INTRA:          -4.525
REMARK INTER:                  -4.504
REMARK INTRA:                  -0.021
REMARK UNBOUND:                -0.016
REMARK SMILES O=C([O-])c1cccnc1
REMARK SMILES IDX 4 1 5 2 9 3 6 4 8 5 7 6 2 7 1 8 3 9
REMARK H PARENT
REMARK Flexibility Score: inf
ROOT
ATOM      1  C   UNL     1      -7.180   5.928   5.766  1.00  0.00     0.016 A 
ATOM      2  C   UNL     1      -7.898   4.869   6.348  1.00  0.00     0.013 A 
ATOM      3  C   UNL     1      -7.268   6.109   4.375  1.00  0.00     0.120 A 
ATOM      4  C   UNL     1      -8.674   4.026   5.551  1.00  0.00     0.021 A 
ATOM      5  N   UNL     1      -8.032   5.273   3.620  1.00  0.00    -0.264 NA
ATOM      6  C   UNL     1      -8.730   4.247   4.174  1.00  0.00     0.111 A 
ENDROOT
BRANCH   1   7
ATOM      7  C   UNL     1      -6.355   6.826   6.600  1.00  0.00     0.073 C 
ATOM      8  O   UNL     1      -5.680   6.369   7.561  1.00  0.00    -0.545 OA
ATOM      9  O   UNL     1      -6.312   8.191   6.335  1.00  0.00    -0.545 OA
ENDBRANCH   1   7
TORSDOF 1
ENDMDL
MODEL 3
REMARK VINA RESULT:    -4.228      3.163      4.264
REMARK INTER + INTRA:          -4.491
REMARK INTER:                  -4.468
REMARK INTRA:                  -0.023
REMARK UNBOUND:                -0.016
REMARK SMILES O=C([O-])c1cccnc1
REMARK SMILES IDX 4 1 5 2 9 3 6 4 8 5 7 6 2 7 1 8 3 9
REMARK H PARENT
REMARK Flexibility Score: inf
ROOT
ATOM      1  C   UNL     1      -4.031  -4.718   1.364  1.00  0.00     0.016 A 
ATOM      2  C   UNL     1      -3.151  -5.731   1.783  1.00  0.00     0.013 A 
ATOM      3  C   UNL     1      -3.882  -3.434   1.918  1.00  0.00     0.120 A 
ATOM      4  C   UNL     1      -2.159  -5.453   2.725  1.00  0.00     0.021 A 
ATOM      5  N   UNL     1      -2.907  -3.190   2.835  1.00  0.00    -0.264 NA
ATOM      6  C   UNL     1      -2.051  -4.163   3.245  1.00  0.00     0.111 A 
ENDROOT
BRANCH   1   7
ATOM      7  C   UNL     1      -5.085  -5.000   0.368  1.00  0.00     0.073 C 
ATOM      8  O   UNL     1      -5.627  -4.062  -0.276  1.00  0.00    -0.545 OA
ATOM      9  O   UNL     1      -5.494  -6.307   0.126  1.00  0.00    -0.545 OA
ENDBRANCH   1   7
TORSDOF 1
ENDMDL
MODEL 4
REMARK VINA RESULT:    -4.179      2.978      4.400
REMARK INTER + INTRA:          -4.439
REMARK INTER:                  -4.415
REMARK INTRA:                  -0.024
REMARK UNBOUND:                -0.016
REMARK SMILES O=C([O-])c1cccnc1
REMARK SMILES IDX 4 1 5 2 9 3 6 4 8 5 7 6 2 7 1 8 3 9
REMARK H PARENT
REMARK Flexibility Score: inf
ROOT
ATOM      1  C   UNL     1      -3.969  -4.707   1.484  1.00  0.00     0.016 A 
ATOM      2  C   UNL     1      -3.750  -3.375   1.874  1.00  0.00     0.013 A 
ATOM      3  C   UNL     1      -3.181  -5.713   2.070  1.00  0.00     0.120 A 
ATOM      4  C   UNL     1      -2.771  -3.074   2.821  1.00  0.00     0.021 A 
ATOM      5  N   UNL     1      -2.233  -5.392   2.991  1.00  0.00    -0.264 NA
ATOM      6  C   UNL     1      -2.014  -4.107   3.375  1.00  0.00     0.111 A 
ENDROOT
BRANCH   1   7
ATOM      7  C   UNL     1      -5.003  -5.038   0.481  1.00  0.00     0.073 C 
ATOM      8  O   UNL     1      -5.625  -4.125  -0.125  1.00  0.00    -0.545 OA
ATOM      9  O   UNL     1      -5.305  -6.365   0.193  1.00  0.00    -0.545 OA
ENDBRANCH   1   7
TORSDOF 1
ENDMDL
MODEL 5
REMARK VINA RESULT:    -4.178      1.764      2.385
REMARK INTER + INTRA:          -4.438
REMARK INTER:                  -4.414
REMARK INTRA:                  -0.024
REMARK UNBOUND:                -0.016
REMARK SMILES O=C([O-])c1cccnc1
REMARK SMILES IDX 4 1 5 2 9 3 6 4 8 5 7 6 2 7 1 8 3 9
REMARK H PARENT
REMARK Flexibility Score: inf
ROOT
ATOM      1  C   UNL     1      -5.026  -5.642   0.760  1.00  0.00     0.016 A 
ATOM      2  C   UNL     1      -4.180  -6.289   1.677  1.00  0.00     0.013 A 
ATOM      3  C   UNL     1      -5.988  -6.412   0.081  1.00  0.00     0.120 A 
ATOM      4  C   UNL     1      -4.303  -7.662   1.896  1.00  0.00     0.021 A 
ATOM      5  N   UNL     1      -6.086  -7.748   0.313  1.00  0.00    -0.264 NA
ATOM      6  C   UNL     1      -5.272  -8.382   1.198  1.00  0.00     0.111 A 
ENDROOT
BRANCH   1   7
ATOM      7  C   UNL     1      -4.906  -4.189   0.519  1.00  0.00     0.073 C 
ATOM      8  O   UNL     1      -5.588  -3.629  -0.380  1.00  0.00    -0.545 OA
ATOM      9  O   UNL     1      -4.036  -3.418   1.282  1.00  0.00    -0.545 OA
ENDBRANCH   1   7
TORSDOF 1
ENDMDL
MODEL 6
REMARK VINA RESULT:    -4.151      1.696      2.000
REMARK INTER + INTRA:          -4.410
REMARK INTER:                  -4.387
REMARK INTRA:                  -0.023
REMARK UNBOUND:                -0.016
REMARK SMILES O=C([O-])c1cccnc1
REMARK SMILES IDX 4 1 5 2 9 3 6 4 8 5 7 6 2 7 1 8 3 9
REMARK H PARENT
REMARK Flexibility Score: inf
ROOT
ATOM      1  C   UNL     1      -4.920  -5.706   0.844  1.00  0.00     0.016 A 
ATOM      2  C   UNL     1      -5.986  -6.504   0.393  1.00  0.00     0.013 A 
ATOM      3  C   UNL     1      -3.891  -6.321   1.578  1.00  0.00     0.120 A 
ATOM      4  C   UNL     1      -6.008  -7.870   0.675  1.00  0.00     0.021 A 
ATOM      5  N   UNL     1      -3.936  -7.655   1.840  1.00  0.00    -0.264 NA
ATOM      6  C   UNL     1      -4.962  -8.434   1.407  1.00  0.00     0.111 A 
ENDROOT
BRANCH   1   7
ATOM      7  C   UNL     1      -4.887  -4.258   0.552  1.00  0.00     0.073 C 
ATOM      8  O   UNL     1      -5.587  -3.775  -0.378  1.00  0.00    -0.545 OA
ATOM      9  O   UNL     1      -4.080  -3.407   1.300  1.00  0.00    -0.545 OA
ENDBRANCH   1   7
TORSDOF 1
ENDMDL
MODEL 7
REMARK VINA RESULT:    -4.111     12.474     13.567
REMARK INTER + INTRA:          -4.367
REMARK INTER:                  -4.350
REMARK INTRA:                  -0.017
REMARK UNBOUND:                -0.016
REMARK SMILES O=C([O-])c1cccnc1
REMARK SMILES IDX 4 1 5 2 9 3 6 4 8 5 7 6 2 7 1 8 3 9
REMARK H PARENT
REMARK Flexibility Score: inf
ROOT
ATOM      1  C   UNL     1      -7.416   5.599   5.263  1.00  0.00     0.016 A 
ATOM      2  C   UNL     1      -6.583   6.633   4.801  1.00  0.00     0.013 A 
ATOM      3  C   UNL     1      -7.413   5.305   6.638  1.00  0.00     0.120 A 
ATOM      4  C   UNL     1      -5.779   7.339   5.695  1.00  0.00     0.021 A 
ATOM      5  N   UNL     1      -6.619   6.009   7.490  1.00  0.00    -0.264 NA
ATOM      6  C   UNL     1      -5.810   7.010   7.051  1.00  0.00     0.111 A 
ENDROOT
BRANCH   1   7
ATOM      7  C   UNL     1      -8.273   4.844   4.325  1.00  0.00     0.073 C 
ATOM      8  O   UNL     1      -9.237   5.407   3.743  1.00  0.00    -0.545 OA
ATOM      9  O   UNL     1      -8.025   3.500   4.072  1.00  0.00    -0.545 OA
ENDBRANCH   1   7
TORSDOF 1
ENDMDL
MODEL 8
REMARK VINA RESULT:    -4.023      3.050      3.979
REMARK INTER + INTRA:          -4.275
REMARK INTER:                  -4.259
REMARK INTRA:                  -0.016
REMARK UNBOUND:                -0.016
REMARK SMILES O=C([O-])c1cccnc1
REMARK SMILES IDX 4 1 5 2 9 3 6 4 8 5 7 6 2 7 1 8 3 9
REMARK H PARENT
REMARK Flexibility Score: inf
ROOT
ATOM      1  C   UNL     1      -3.114  -4.046   1.709  1.00  0.00     0.016 A 
ATOM      2  C   UNL     1      -4.478  -3.780   1.503  1.00  0.00     0.013 A 
ATOM      3  C   UNL     1      -2.663  -5.370   1.560  1.00  0.00     0.120 A 
ATOM      4  C   UNL     1      -5.351  -4.813   1.160  1.00  0.00     0.021 A 
ATOM      5  N   UNL     1      -3.534  -6.359   1.225  1.00  0.00    -0.264 NA
ATOM      6  C   UNL     1      -4.855  -6.110   1.023  1.00  0.00     0.111 A 
ENDROOT
BRANCH   1   7
ATOM      7  C   UNL     1      -2.181  -2.960   2.074  1.00  0.00     0.073 C 
ATOM      8  O   UNL     1      -2.049  -2.603   3.275  1.00  0.00    -0.545 OA
ATOM      9  O   UNL     1      -1.433  -2.316   1.094  1.00  0.00    -0.545 OA
ENDBRANCH   1   7
TORSDOF 1
ENDMDL
MODEL 9
REMARK VINA RESULT:    -3.942      3.398      4.096
REMARK INTER + INTRA:          -4.189
REMARK INTER:                  -4.166
REMARK INTRA:                  -0.022
REMARK UNBOUND:                -0.016
REMARK SMILES O=C([O-])c1cccnc1
REMARK SMILES IDX 4 1 5 2 9 3 6 4 8 5 7 6 2 7 1 8 3 9
REMARK H PARENT
REMARK Flexibility Score: inf
ROOT
ATOM      1  C   UNL     1      -3.101  -5.864   1.520  1.00  0.00     0.016 A 
ATOM      2  C   UNL     1      -4.433  -6.083   1.130  1.00  0.00     0.013 A 
ATOM      3  C   UNL     1      -2.676  -4.540   1.729  1.00  0.00     0.120 A 
ATOM      4  C   UNL     1      -5.300  -5.003   0.957  1.00  0.00     0.021 A 
ATOM      5  N   UNL     1      -3.541  -3.505   1.554  1.00  0.00    -0.264 NA
ATOM      6  C   UNL     1      -4.831  -3.707   1.177  1.00  0.00     0.111 A 
ENDROOT
BRANCH   1   7
ATOM      7  C   UNL     1      -2.174  -6.999   1.706  1.00  0.00     0.073 C 
ATOM      8  O   UNL     1      -1.180  -6.897   2.474  1.00  0.00    -0.545 OA
ATOM      9  O   UNL     1      -2.386  -8.198   1.034  1.00  0.00    -0.545 OA
ENDBRANCH   1   7
TORSDOF 1
ENDMDL
