MODEL 1
REMARK VINA RESULT:    -3.136      0.000      0.000
REMARK INTER + INTRA:          -3.925
REMARK INTER:                  -3.777
REMARK INTRA:                  -0.148
REMARK UNBOUND:                -0.148
REMARK SMILES O=c1c(O)c(-c2ccc(O)c(O)c2)oc2cc(O)cc(O)c12
REMARK SMILES IDX 5 1 3 2 2 3 1 4 22 5 20 6 19 7 17 8 16 9 15 10 14 11 6 12
REMARK SMILES IDX 7 13 8 14 9 15 13 16 11 17 10 18 12 20 4 22 21 24 18 26
REMARK H PARENT 10 19 12 21 4 23 21 25 18 27
REMARK Flexibility Score: inf
ROOT
ATOM      1  C   UNL     1      13.264 -13.060  28.427  1.00  0.00     0.180 A 
ATOM      2  C   UNL     1      11.982 -12.911  27.870  1.00  0.00     0.208 A 
ATOM      3  C   UNL     1      11.151 -11.882  28.340  1.00  0.00     0.238 A 
ATOM      4  O   UNL     1      10.025 -11.720  27.800  1.00  0.00    -0.285 OA
ATOM      5  C   UNL     1      11.606 -11.024  29.370  1.00  0.00     0.111 A 
ATOM      6  C   UNL     1      10.832  -9.974  29.950  1.00  0.00     0.134 A 
ATOM      7  C   UNL     1      11.429  -9.105  30.872  1.00  0.00     0.093 A 
ATOM      8  C   UNL     1      12.749  -9.288  31.284  1.00  0.00     0.123 A 
ATOM      9  C   UNL     1      13.495 -10.348  30.768  1.00  0.00     0.094 A 
ATOM     10  C   UNL     1      12.938 -11.209  29.819  1.00  0.00     0.146 A 
ATOM     11  O   UNL     1      13.686 -12.199  29.346  1.00  0.00    -0.452 OA
ENDROOT
BRANCH   1  12
ATOM     12  C   UNL     1      14.187 -14.137  28.002  1.00  0.00     0.025 A 
ATOM     13  C   UNL     1      14.696 -14.132  26.693  1.00  0.00     0.016 A 
ATOM     14  C   UNL     1      15.586 -15.127  26.277  1.00  0.00     0.051 A 
ATOM     15  C   UNL     1      15.990 -16.130  27.166  1.00  0.00     0.157 A 
ATOM     16  C   UNL     1      14.612 -15.134  28.898  1.00  0.00     0.062 A 
ATOM     17  C   UNL     1      15.506 -16.132  28.481  1.00  0.00     0.158 A 
BRANCH  15  18
ATOM     18  O   UNL     1      16.876 -17.125  26.755  1.00  0.00    -0.504 OA
ATOM     19  H   UNL     1      17.199 -17.842  27.393  1.00  0.00     0.293 HD
ENDBRANCH  15  18
BRANCH  17  20
ATOM     20  O   UNL     1      15.921 -17.123  29.368  1.00  0.00    -0.504 OA
ATOM     21  H   UNL     1      15.537 -17.191  30.303  1.00  0.00     0.293 HD
ENDBRANCH  17  20
ENDBRANCH   1  12
BRANCH   2  22
ATOM     22  O   UNL     1      11.562 -13.755  26.838  1.00  0.00    -0.502 OA
ATOM     23  H   UNL     1      12.209 -14.308  26.290  1.00  0.00     0.293 HD
ENDBRANCH   2  22
BRANCH   6  24
ATOM     24  O   UNL     1       9.478  -9.760  29.678  1.00  0.00    -0.507 OA
ATOM     25  H   UNL     1       9.085  -8.882  29.374  1.00  0.00     0.293 HD
ENDBRANCH   6  24
BRANCH   8  26
ATOM     26  O   UNL     1      13.306  -8.414  32.215  1.00  0.00    -0.508 OA
ATOM     27  H   UNL     1      13.492  -8.702  33.168  1.00  0.00     0.293 HD
ENDBRANCH   8  26
TORSDOF 6
ENDMDL
MODEL 2
REMARK VINA RESULT:    -2.508      1.661      6.799
REMARK INTER + INTRA:          -3.169
REMARK INTER:                  -3.025
REMARK INTRA:                  -0.144
REMARK UNBOUND:                -0.148
REMARK SMILES O=c1c(O)c(-c2ccc(O)c(O)c2)oc2cc(O)cc(O)c12
REMARK SMILES IDX 5 1 3 2 2 3 1 4 22 5 20 6 19 7 17 8 16 9 15 10 14 11 6 12
REMARK SMILES IDX 7 13 8 14 9 15 13 16 11 17 10 18 12 20 4 22 21 24 18 26
REMARK H PARENT 10 19 12 21 4 23 21 25 18 27
REMARK Flexibility Score: inf
ROOT
ATOM      1  C   UNL     1      13.285 -12.934  29.492  1.00  0.00     0.180 A 
ATOM      2  C   UNL     1      13.473 -13.424  28.187  1.00  0.00     0.208 A 
ATOM      3  C   UNL     1      14.247 -14.580  27.999  1.00  0.00     0.238 A 
ATOM      4  O   UNL     1      14.366 -15.044  26.835  1.00  0.00    -0.285 OA
ATOM      5  C   UNL     1      14.837 -15.222  29.115  1.00  0.00     0.111 A 
ATOM      6  C   UNL     1      15.674 -16.375  29.035  1.00  0.00     0.134 A 
ATOM      7  C   UNL     1      16.097 -17.003  30.214  1.00  0.00     0.093 A 
ATOM      8  C   UNL     1      15.768 -16.483  31.465  1.00  0.00     0.123 A 
ATOM      9  C   UNL     1      15.001 -15.321  31.552  1.00  0.00     0.094 A 
ATOM     10  C   UNL     1      14.534 -14.693  30.395  1.00  0.00     0.146 A 
ATOM     11  O   UNL     1      13.797 -13.595  30.523  1.00  0.00    -0.452 OA
ENDROOT
BRANCH   1  12
ATOM     12  C   UNL     1      12.503 -11.707  29.767  1.00  0.00     0.025 A 
ATOM     13  C   UNL     1      13.155 -10.572  30.277  1.00  0.00     0.016 A 
ATOM     14  C   UNL     1      12.440  -9.398  30.524  1.00  0.00     0.051 A 
ATOM     15  C   UNL     1      11.068  -9.335  30.252  1.00  0.00     0.157 A 
ATOM     16  C   UNL     1      11.129 -11.633  29.475  1.00  0.00     0.062 A 
ATOM     17  C   UNL     1      10.412 -10.453  29.722  1.00  0.00     0.158 A 
BRANCH  15  18
ATOM     18  O   UNL     1      10.351  -8.165  30.498  1.00  0.00    -0.504 OA
ATOM     19  H   UNL     1       9.991  -7.596  29.742  1.00  0.00     0.293 HD
ENDBRANCH  15  18
BRANCH  17  20
ATOM     20  O   UNL     1       9.049 -10.384  29.437  1.00  0.00    -0.504 OA
ATOM     21  H   UNL     1       8.409  -9.872  30.032  1.00  0.00     0.293 HD
ENDBRANCH  17  20
ENDBRANCH   1  12
BRANCH   2  22
ATOM     22  O   UNL     1      12.863 -12.787  27.103  1.00  0.00    -0.502 OA
ATOM     23  H   UNL     1      13.147 -12.952  26.145  1.00  0.00     0.293 HD
ENDBRANCH   2  22
BRANCH   6  24
ATOM     24  O   UNL     1      16.137 -16.923  27.836  1.00  0.00    -0.507 OA
ATOM     25  H   UNL     1      16.084 -16.468  26.938  1.00  0.00     0.293 HD
ENDBRANCH   6  24
BRANCH   8  26
ATOM     26  O   UNL     1      16.219 -17.125  32.617  1.00  0.00    -0.508 OA
ATOM     27  H   UNL     1      17.200 -17.130  32.872  1.00  0.00     0.293 HD
ENDBRANCH   8  26
TORSDOF 6
ENDMDL
MODEL 3
REMARK VINA RESULT:    -2.114      1.138      2.829
REMARK INTER + INTRA:          -2.694
REMARK INTER:                  -2.645
REMARK INTRA:                  -0.049
REMARK UNBOUND:                -0.148
REMARK SMILES O=c1c(O)c(-c2ccc(O)c(O)c2)oc2cc(O)cc(O)c12
REMARK SMILES IDX 5 1 3 2 2 3 1 4 22 5 20 6 19 7 17 8 16 9 15 10 14 11 6 12
REMARK SMILES IDX 7 13 8 14 9 15 13 16 11 17 10 18 12 20 4 22 21 24 18 26
REMARK H PARENT 10 19 12 21 4 23 21 25 18 27
REMARK Flexibility Score: inf
ROOT
ATOM      1  C   UNL     1      13.781 -12.894  28.865  1.00  0.00     0.180 A 
ATOM      2  C   UNL     1      14.412 -12.098  29.838  1.00  0.00     0.208 A 
ATOM      3  C   UNL     1      13.698 -11.037  30.417  1.00  0.00     0.238 A 
ATOM      4  O   UNL     1      14.249 -10.363  31.326  1.00  0.00    -0.285 OA
ATOM      5  C   UNL     1      12.368 -10.776  30.007  1.00  0.00     0.111 A 
ATOM      6  C   UNL     1      11.565  -9.703  30.498  1.00  0.00     0.134 A 
ATOM      7  C   UNL     1      10.219  -9.618  30.119  1.00  0.00     0.093 A 
ATOM      8  C   UNL     1       9.667 -10.526  29.216  1.00  0.00     0.123 A 
ATOM      9  C   UNL     1      10.460 -11.543  28.684  1.00  0.00     0.094 A 
ATOM     10  C   UNL     1      11.796 -11.676  29.072  1.00  0.00     0.146 A 
ATOM     11  O   UNL     1      12.512 -12.664  28.549  1.00  0.00    -0.452 OA
ENDROOT
BRANCH   1  12
ATOM     12  C   UNL     1      14.478 -14.013  28.191  1.00  0.00     0.025 A 
ATOM     13  C   UNL     1      14.597 -14.009  26.791  1.00  0.00     0.016 A 
ATOM     14  C   UNL     1      15.269 -15.045  26.136  1.00  0.00     0.051 A 
ATOM     15  C   UNL     1      15.844 -16.089  26.870  1.00  0.00     0.157 A 
ATOM     16  C   UNL     1      15.075 -15.053  28.926  1.00  0.00     0.062 A 
ATOM     17  C   UNL     1      15.751 -16.092  28.268  1.00  0.00     0.158 A 
BRANCH  15  18
ATOM     18  O   UNL     1      16.513 -17.125  26.220  1.00  0.00    -0.504 OA
ATOM     19  H   UNL     1      17.424 -17.442  26.530  1.00  0.00     0.293 HD
ENDBRANCH  15  18
BRANCH  17  20
ATOM     20  O   UNL     1      16.337 -17.125  28.997  1.00  0.00    -0.504 OA
ATOM     21  H   UNL     1      15.869 -18.015  29.125  1.00  0.00     0.293 HD
ENDBRANCH  17  20
ENDBRANCH   1  12
BRANCH   2  22
ATOM     22  O   UNL     1      15.717 -12.388  30.244  1.00  0.00    -0.502 OA
ATOM     23  H   UNL     1      15.921 -12.998  31.026  1.00  0.00     0.293 HD
ENDBRANCH   2  22
BRANCH   6  24
ATOM     24  O   UNL     1      12.044  -8.688  31.332  1.00  0.00    -0.507 OA
ATOM     25  H   UNL     1      11.636  -8.434  32.219  1.00  0.00     0.293 HD
ENDBRANCH   6  24
BRANCH   8  26
ATOM     26  O   UNL     1       8.329 -10.402  28.849  1.00  0.00    -0.508 OA
ATOM     27  H   UNL     1       7.591 -10.354  29.541  1.00  0.00     0.293 HD
ENDBRANCH   8  26
TORSDOF 6
ENDMDL
MODEL 4
REMARK VINA RESULT:    -1.996     11.060     13.915
REMARK INTER + INTRA:          -2.552
REMARK INTER:                  -2.321
REMARK INTRA:                  -0.231
REMARK UNBOUND:                -0.148
REMARK SMILES O=c1c(O)c(-c2ccc(O)c(O)c2)oc2cc(O)cc(O)c12
REMARK SMILES IDX 5 1 3 2 2 3 1 4 22 5 20 6 19 7 17 8 16 9 15 10 14 11 6 12
REMARK SMILES IDX 7 13 8 14 9 15 13 16 11 17 10 18 12 20 4 22 21 24 18 26
REMARK H PARENT 10 19 12 21 4 23 21 25 18 27
REMARK Flexibility Score: inf
ROOT
ATOM      1  C   UNL     1      16.349  -0.580  27.097  1.00  0.00     0.180 A 
ATOM      2  C   UNL     1      15.713  -1.048  28.260  1.00  0.00     0.208 A 
ATOM      3  C   UNL     1      16.387  -1.963  29.084  1.00  0.00     0.238 A 
ATOM      4  O   UNL     1      15.835  -2.336  30.152  1.00  0.00    -0.285 OA
ATOM      5  C   UNL     1      17.683  -2.410  28.728  1.00  0.00     0.111 A 
ATOM      6  C   UNL     1      18.441  -3.366  29.468  1.00  0.00     0.134 A 
ATOM      7  C   UNL     1      19.764  -3.637  29.094  1.00  0.00     0.093 A 
ATOM      8  C   UNL     1      20.331  -3.037  27.971  1.00  0.00     0.123 A 
ATOM      9  C   UNL     1      19.577  -2.147  27.205  1.00  0.00     0.094 A 
ATOM     10  C   UNL     1      18.268  -1.829  27.574  1.00  0.00     0.146 A 
ATOM     11  O   UNL     1      17.590  -0.968  26.825  1.00  0.00    -0.452 OA
ENDROOT
BRANCH   1  12
ATOM     12  C   UNL     1      15.692   0.365  26.166  1.00  0.00     0.025 A 
ATOM     13  C   UNL     1      15.552   1.713  26.535  1.00  0.00     0.016 A 
ATOM     14  C   UNL     1      14.954   2.627  25.663  1.00  0.00     0.051 A 
ATOM     15  C   UNL     1      14.502   2.210  24.405  1.00  0.00     0.157 A 
ATOM     16  C   UNL     1      15.255  -0.044  24.893  1.00  0.00     0.062 A 
ATOM     17  C   UNL     1      14.656   0.873  24.017  1.00  0.00     0.158 A 
BRANCH  15  18
ATOM     18  O   UNL     1      13.903   3.118  23.533  1.00  0.00    -0.504 OA
ATOM     19  H   UNL     1      14.450   3.652  22.868  1.00  0.00     0.293 HD
ENDBRANCH  15  18
BRANCH  17  20
ATOM     20  O   UNL     1      14.219   0.464  22.759  1.00  0.00    -0.504 OA
ATOM     21  H   UNL     1      13.836  -0.461  22.606  1.00  0.00     0.293 HD
ENDBRANCH  17  20
ENDBRANCH   1  12
BRANCH   2  22
ATOM     22  O   UNL     1      14.443  -0.576  28.605  1.00  0.00    -0.502 OA
ATOM     23  H   UNL     1      14.297   0.105  29.340  1.00  0.00     0.293 HD
ENDBRANCH   2  22
BRANCH   6  24
ATOM     24  O   UNL     1      17.939  -4.091  30.552  1.00  0.00    -0.507 OA
ATOM     25  H   UNL     1      17.926  -3.764  31.506  1.00  0.00     0.293 HD
ENDBRANCH   6  24
BRANCH   8  26
ATOM     26  O   UNL     1      21.644  -3.342  27.618  1.00  0.00    -0.508 OA
ATOM     27  H   UNL     1      22.401  -2.686  27.776  1.00  0.00     0.293 HD
ENDBRANCH   8  26
TORSDOF 6
ENDMDL
MODEL 5
REMARK VINA RESULT:    -1.495     10.068     12.185
REMARK INTER + INTRA:          -1.949
REMARK INTER:                  -1.720
REMARK INTRA:                  -0.229
REMARK UNBOUND:                -0.148
REMARK SMILES O=c1c(O)c(-c2ccc(O)c(O)c2)oc2cc(O)cc(O)c12
REMARK SMILES IDX 5 1 3 2 2 3 1 4 22 5 20 6 19 7 17 8 16 9 15 10 14 11 6 12
REMARK SMILES IDX 7 13 8 14 9 15 13 16 11 17 10 18 12 20 4 22 21 24 18 26
REMARK H PARENT 10 19 12 21 4 23 21 25 18 27
REMARK Flexibility Score: inf
ROOT
ATOM      1  C   UNL     1      15.780  -1.837  26.913  1.00  0.00     0.180 A 
ATOM      2  C   UNL     1      15.824  -1.248  28.189  1.00  0.00     0.208 A 
ATOM      3  C   UNL     1      15.576   0.128  28.313  1.00  0.00     0.238 A 
ATOM      4  O   UNL     1      15.562   0.638  29.464  1.00  0.00    -0.285 OA
ATOM      5  C   UNL     1      15.302   0.902  27.159  1.00  0.00     0.111 A 
ATOM      6  C   UNL     1      15.077   2.311  27.164  1.00  0.00     0.134 A 
ATOM      7  C   UNL     1      14.686   2.951  25.981  1.00  0.00     0.093 A 
ATOM      8  C   UNL     1      14.578   2.247  24.783  1.00  0.00     0.123 A 
ATOM      9  C   UNL     1      14.855   0.880  24.755  1.00  0.00     0.094 A 
ATOM     10  C   UNL     1      15.211   0.206  25.926  1.00  0.00     0.146 A 
ATOM     11  O   UNL     1      15.456  -1.097  25.858  1.00  0.00    -0.452 OA
ENDROOT
BRANCH   1  12
ATOM     12  C   UNL     1      16.055  -3.276  26.699  1.00  0.00     0.025 A 
ATOM     13  C   UNL     1      17.364  -3.759  26.857  1.00  0.00     0.016 A 
ATOM     14  C   UNL     1      17.643  -5.117  26.681  1.00  0.00     0.051 A 
ATOM     15  C   UNL     1      16.616  -6.013  26.361  1.00  0.00     0.157 A 
ATOM     16  C   UNL     1      15.023  -4.183  26.398  1.00  0.00     0.062 A 
ATOM     17  C   UNL     1      15.302  -5.546  26.223  1.00  0.00     0.158 A 
BRANCH  15  18
ATOM     18  O   UNL     1      16.889  -7.368  26.183  1.00  0.00    -0.504 OA
ATOM     19  H   UNL     1      16.538  -7.878  25.381  1.00  0.00     0.293 HD
ENDBRANCH  15  18
BRANCH  17  20
ATOM     20  O   UNL     1      14.279  -6.442  25.919  1.00  0.00    -0.504 OA
ATOM     21  H   UNL     1      14.460  -7.431  25.793  1.00  0.00     0.293 HD
ENDBRANCH  17  20
ENDBRANCH   1  12
BRANCH   2  22
ATOM     22  O   UNL     1      16.073  -2.035  29.317  1.00  0.00    -0.502 OA
ATOM     23  H   UNL     1      16.990  -2.411  29.527  1.00  0.00     0.293 HD
ENDBRANCH   2  22
BRANCH   6  24
ATOM     24  O   UNL     1      15.247   3.125  28.287  1.00  0.00    -0.507 OA
ATOM     25  H   UNL     1      14.640   3.128  29.092  1.00  0.00     0.293 HD
ENDBRANCH   6  24
BRANCH   8  26
ATOM     26  O   UNL     1      14.202   2.919  23.622  1.00  0.00    -0.508 OA
ATOM     27  H   UNL     1      14.448   2.569  22.703  1.00  0.00     0.293 HD
ENDBRANCH   8  26
TORSDOF 6
ENDMDL
MODEL 6
REMARK VINA RESULT:    -1.469     10.852     14.050
REMARK INTER + INTRA:          -1.918
REMARK INTER:                  -1.951
REMARK INTRA:                   0.033
REMARK UNBOUND:                -0.148
REMARK SMILES O=c1c(O)c(-c2ccc(O)c(O)c2)oc2cc(O)cc(O)c12
REMARK SMILES IDX 5 1 3 2 2 3 1 4 22 5 20 6 19 7 17 8 16 9 15 10 14 11 6 12
REMARK SMILES IDX 7 13 8 14 9 15 13 16 11 17 10 18 12 20 4 22 21 24 18 26
REMARK H PARENT 10 19 12 21 4 23 21 25 18 27
REMARK Flexibility Score: inf
ROOT
ATOM      1  C   UNL     1      17.157  -0.733  26.437  1.00  0.00     0.180 A 
ATOM      2  C   UNL     1      18.423  -1.021  25.897  1.00  0.00     0.208 A 
ATOM      3  C   UNL     1      19.272  -1.902  26.586  1.00  0.00     0.238 A 
ATOM      4  O   UNL     1      20.381  -2.198  26.071  1.00  0.00    -0.285 OA
ATOM      5  C   UNL     1      18.851  -2.472  27.812  1.00  0.00     0.111 A 
ATOM      6  C   UNL     1      19.646  -3.345  28.614  1.00  0.00     0.134 A 
ATOM      7  C   UNL     1      19.080  -3.952  29.742  1.00  0.00     0.093 A 
ATOM      8  C   UNL     1      17.772  -3.667  30.133  1.00  0.00     0.123 A 
ATOM      9  C   UNL     1      17.007  -2.768  29.390  1.00  0.00     0.094 A 
ATOM     10  C   UNL     1      17.531  -2.175  28.239  1.00  0.00     0.146 A 
ATOM     11  O   UNL     1      16.766  -1.333  27.554  1.00  0.00    -0.452 OA
ENDROOT
BRANCH   1  12
ATOM     12  C   UNL     1      16.217   0.206  25.782  1.00  0.00     0.025 A 
ATOM     13  C   UNL     1      15.900   0.030  24.425  1.00  0.00     0.016 A 
ATOM     14  C   UNL     1      14.999   0.891  23.792  1.00  0.00     0.051 A 
ATOM     15  C   UNL     1      14.391   1.929  24.509  1.00  0.00     0.157 A 
ATOM     16  C   UNL     1      15.589   1.237  26.504  1.00  0.00     0.062 A 
ATOM     17  C   UNL     1      14.684   2.100  25.869  1.00  0.00     0.158 A 
BRANCH  15  18
ATOM     18  O   UNL     1      13.494   2.791  23.882  1.00  0.00    -0.504 OA
ATOM     19  H   UNL     1      13.801   3.462  23.189  1.00  0.00     0.293 HD
ENDBRANCH  15  18
BRANCH  17  20
ATOM     20  O   UNL     1      14.067   3.125  26.584  1.00  0.00    -0.504 OA
ATOM     21  H   UNL     1      13.950   4.051  26.190  1.00  0.00     0.293 HD
ENDBRANCH  17  20
ENDBRANCH   1  12
BRANCH   2  22
ATOM     22  O   UNL     1      18.808  -0.465  24.674  1.00  0.00    -0.502 OA
ATOM     23  H   UNL     1      18.958   0.529  24.551  1.00  0.00     0.293 HD
ENDBRANCH   2  22
BRANCH   6  24
ATOM     24  O   UNL     1      20.992  -3.625  28.364  1.00  0.00    -0.507 OA
ATOM     25  H   UNL     1      21.413  -3.651  27.448  1.00  0.00     0.293 HD
ENDBRANCH   6  24
BRANCH   8  26
ATOM     26  O   UNL     1      17.246  -4.278  31.270  1.00  0.00    -0.508 OA
ATOM     27  H   UNL     1      17.800  -4.909  31.838  1.00  0.00     0.293 HD
ENDBRANCH   8  26
TORSDOF 6
ENDMDL
