MODEL 1
REMARK VINA RESULT:    -3.205      0.000      0.000
REMARK INTER + INTRA:          -4.981
REMARK INTER:                  -4.517
REMARK INTRA:                  -0.464
REMARK UNBOUND:                -0.464
REMARK SMILES CCCCCCCCC(=O)[O-]
REMARK SMILES IDX 6 1 7 2 8 3 9 4 10 5 11 6 5 7 4 8 3 9 2 10 1 11
REMARK H PARENT
REMARK Flexibility Score: inf
ROOT
ATOM      1  C   UNL     1      29.064  22.523  13.506  1.00  0.00     0.000 C 
ENDROOT
BRANCH   1   2
ATOM      2  C   UNL     1      29.030  22.867  12.013  1.00  0.00     0.006 C 
BRANCH   2   3
ATOM      3  C   UNL     1      29.763  21.805  11.188  1.00  0.00     0.053 C 
BRANCH   3   4
ATOM      4  C   UNL     1      28.786  20.972  10.419  1.00  0.00     0.041 C 
ATOM      5  O   UNL     1      27.909  20.302  11.026  1.00  0.00    -0.550 OA
ATOM      6  O   UNL     1      28.812  20.975   9.031  1.00  0.00    -0.550 OA
ENDBRANCH   3   4
ENDBRANCH   2   3
ENDBRANCH   1   2
BRANCH   1   7
ATOM      7  C   UNL     1      30.059  21.390  13.788  1.00  0.00     0.000 C 
BRANCH   7   8
ATOM      8  C   UNL     1      29.420  20.303  14.665  1.00  0.00    -0.000 C 
BRANCH   8   9
ATOM      9  C   UNL     1      27.968  20.630  15.062  1.00  0.00    -0.000 C 
BRANCH   9  10
ATOM     10  C   UNL     1      27.733  20.796  16.575  1.00  0.00    -0.003 C 
ATOM     11  C   UNL     1      26.280  20.558  16.984  1.00  0.00     0.004 C 
ENDBRANCH   9  10
ENDBRANCH   8   9
ENDBRANCH   7   8
ENDBRANCH   1   7
TORSDOF 7
ENDMDL
MODEL 2
REMARK VINA RESULT:    -3.097      2.002      2.959
REMARK INTER + INTRA:          -4.828
REMARK INTER:                  -4.507
REMARK INTRA:                  -0.321
REMARK UNBOUND:                -0.464
REMARK SMILES CCCCCCCCC(=O)[O-]
REMARK SMILES IDX 6 1 7 2 8 3 9 4 10 5 11 6 5 7 4 8 3 9 2 10 1 11
REMARK H PARENT
REMARK Flexibility Score: inf
ROOT
ATOM      1  C   UNL     1      27.693  20.796  14.659  1.00  0.00     0.000 C 
ENDROOT
BRANCH   1   2
ATOM      2  C   UNL     1      28.934  21.499  14.095  1.00  0.00     0.006 C 
BRANCH   2   3
ATOM      3  C   UNL     1      29.297  20.948  12.713  1.00  0.00     0.053 C 
BRANCH   3   4
ATOM      4  C   UNL     1      28.799  21.862  11.638  1.00  0.00     0.041 C 
ATOM      5  O   UNL     1      28.509  23.057  11.907  1.00  0.00    -0.550 OA
ATOM      6  O   UNL     1      28.701  21.407  10.329  1.00  0.00    -0.550 OA
ENDBRANCH   3   4
ENDBRANCH   2   3
ENDBRANCH   1   2
BRANCH   1   7
ATOM      7  C   UNL     1      27.577  21.014  16.172  1.00  0.00     0.000 C 
BRANCH   7   8
ATOM      8  C   UNL     1      26.189  20.599  16.682  1.00  0.00    -0.000 C 
BRANCH   8   9
ATOM      9  C   UNL     1      25.348  19.878  15.612  1.00  0.00    -0.000 C 
BRANCH   9  10
ATOM     10  C   UNL     1      23.879  20.332  15.529  1.00  0.00    -0.003 C 
ATOM     11  C   UNL     1      23.277  20.157  14.136  1.00  0.00     0.004 C 
ENDBRANCH   9  10
ENDBRANCH   8   9
ENDBRANCH   7   8
ENDBRANCH   1   7
TORSDOF 7
ENDMDL
MODEL 3
REMARK VINA RESULT:    -3.074      2.994      5.390
REMARK INTER + INTRA:          -4.796
REMARK INTER:                  -4.466
REMARK INTRA:                  -0.330
REMARK UNBOUND:                -0.464
REMARK SMILES CCCCCCCCC(=O)[O-]
REMARK SMILES IDX 6 1 7 2 8 3 9 4 10 5 11 6 5 7 4 8 3 9 2 10 1 11
REMARK H PARENT
REMARK Flexibility Score: inf
ROOT
ATOM      1  C   UNL     1      26.386  20.496  16.578  1.00  0.00     0.000 C 
ENDROOT
BRANCH   1   2
ATOM      2  C   UNL     1      25.570  19.875  15.438  1.00  0.00     0.006 C 
BRANCH   2   3
ATOM      3  C   UNL     1      24.070  19.944  15.736  1.00  0.00     0.053 C 
BRANCH   3   4
ATOM      4  C   UNL     1      23.282  19.946  14.464  1.00  0.00     0.041 C 
ATOM      5  O   UNL     1      23.872  19.875  13.354  1.00  0.00    -0.550 OA
ATOM      6  O   UNL     1      21.894  19.975  14.505  1.00  0.00    -0.550 OA
ENDBRANCH   3   4
ENDBRANCH   2   3
ENDBRANCH   1   2
BRANCH   1   7
ATOM      7  C   UNL     1      27.618  21.231  16.037  1.00  0.00     0.000 C 
BRANCH   7   8
ATOM      8  C   UNL     1      28.599  20.250  15.379  1.00  0.00    -0.000 C 
BRANCH   8   9
ATOM      9  C   UNL     1      29.218  20.800  14.081  1.00  0.00    -0.000 C 
BRANCH   9  10
ATOM     10  C   UNL     1      28.981  22.302  13.837  1.00  0.00    -0.003 C 
ATOM     11  C   UNL     1      29.389  22.752  12.435  1.00  0.00     0.004 C 
ENDBRANCH   9  10
ENDBRANCH   8   9
ENDBRANCH   7   8
ENDBRANCH   1   7
TORSDOF 7
ENDMDL
MODEL 4
REMARK VINA RESULT:    -3.060      1.513      1.966
REMARK INTER + INTRA:          -4.776
REMARK INTER:                  -4.377
REMARK INTRA:                  -0.399
REMARK UNBOUND:                -0.464
REMARK SMILES CCCCCCCCC(=O)[O-]
REMARK SMILES IDX 6 1 7 2 8 3 9 4 10 5 11 6 5 7 4 8 3 9 2 10 1 11
REMARK H PARENT
REMARK Flexibility Score: inf
ROOT
ATOM      1  C   UNL     1      28.028  21.163  13.105  1.00  0.00     0.000 C 
ENDROOT
BRANCH   1   2
ATOM      2  C   UNL     1      28.900  20.009  12.596  1.00  0.00     0.006 C 
BRANCH   2   3
ATOM      3  C   UNL     1      30.102  20.537  11.807  1.00  0.00     0.053 C 
BRANCH   3   4
ATOM      4  C   UNL     1      29.674  21.605  10.851  1.00  0.00     0.041 C 
ATOM      5  O   UNL     1      30.027  22.799  11.036  1.00  0.00    -0.550 OA
ATOM      6  O   UNL     1      28.925  21.275   9.729  1.00  0.00    -0.550 OA
ENDBRANCH   3   4
ENDBRANCH   2   3
ENDBRANCH   1   2
BRANCH   1   7
ATOM      7  C   UNL     1      28.460  21.601  14.510  1.00  0.00     0.000 C 
BRANCH   7   8
ATOM      8  C   UNL     1      28.133  20.519  15.549  1.00  0.00    -0.000 C 
BRANCH   8   9
ATOM      9  C   UNL     1      27.257  21.041  16.703  1.00  0.00    -0.000 C 
BRANCH   9  10
ATOM     10  C   UNL     1      25.911  20.313  16.875  1.00  0.00    -0.003 C 
ATOM     11  C   UNL     1      25.258  19.941  15.544  1.00  0.00     0.004 C 
ENDBRANCH   9  10
ENDBRANCH   8   9
ENDBRANCH   7   8
ENDBRANCH   1   7
TORSDOF 7
ENDMDL
MODEL 5
REMARK VINA RESULT:    -2.927      2.075      2.714
REMARK INTER + INTRA:          -4.589
REMARK INTER:                  -4.193
REMARK INTRA:                  -0.396
REMARK UNBOUND:                -0.464
REMARK SMILES CCCCCCCCC(=O)[O-]
REMARK SMILES IDX 6 1 7 2 8 3 9 4 10 5 11 6 5 7 4 8 3 9 2 10 1 11
REMARK H PARENT
REMARK Flexibility Score: inf
ROOT
ATOM      1  C   UNL     1      27.601  21.089  12.197  1.00  0.00     0.000 C 
ENDROOT
BRANCH   1   2
ATOM      2  C   UNL     1      28.733  20.588  11.293  1.00  0.00     0.006 C 
BRANCH   2   3
ATOM      3  C   UNL     1      30.098  21.027  11.829  1.00  0.00     0.053 C 
BRANCH   3   4
ATOM      4  C   UNL     1      30.085  22.484  12.167  1.00  0.00     0.041 C 
ATOM      5  O   UNL     1      30.125  23.348  11.252  1.00  0.00    -0.550 OA
ATOM      6  O   UNL     1      29.979  22.890  13.491  1.00  0.00    -0.550 OA
ENDBRANCH   3   4
ENDBRANCH   2   3
ENDBRANCH   1   2
BRANCH   1   7
ATOM      7  C   UNL     1      26.784  19.917  12.756  1.00  0.00     0.000 C 
BRANCH   7   8
ATOM      8  C   UNL     1      26.648  20.020  14.282  1.00  0.00    -0.000 C 
BRANCH   8   9
ATOM      9  C   UNL     1      27.973  20.378  14.979  1.00  0.00    -0.000 C 
BRANCH   9  10
ATOM     10  C   UNL     1      27.845  20.724  16.474  1.00  0.00    -0.003 C 
ATOM     11  C   UNL     1      26.399  20.710  16.969  1.00  0.00     0.004 C 
ENDBRANCH   9  10
ENDBRANCH   8   9
ENDBRANCH   7   8
ENDBRANCH   1   7
TORSDOF 7
ENDMDL
MODEL 6
REMARK VINA RESULT:    -2.912     18.025     19.646
REMARK INTER + INTRA:          -4.568
REMARK INTER:                  -4.201
REMARK INTRA:                  -0.367
REMARK UNBOUND:                -0.464
REMARK SMILES CCCCCCCCC(=O)[O-]
REMARK SMILES IDX 6 1 7 2 8 3 9 4 10 5 11 6 5 7 4 8 3 9 2 10 1 11
REMARK H PARENT
REMARK Flexibility Score: inf
ROOT
ATOM      1  C   UNL     1      10.262  22.969  19.350  1.00  0.00     0.000 C 
ENDROOT
BRANCH   1   2
ATOM      2  C   UNL     1      10.075  22.666  20.841  1.00  0.00     0.006 C 
BRANCH   2   3
ATOM      3  C   UNL     1      10.947  21.483  21.274  1.00  0.00     0.053 C 
BRANCH   3   4
ATOM      4  C   UNL     1      11.673  21.803  22.542  1.00  0.00     0.041 C 
ATOM      5  O   UNL     1      12.099  22.970  22.751  1.00  0.00    -0.550 OA
ATOM      6  O   UNL     1      11.836  20.826  23.516  1.00  0.00    -0.550 OA
ENDBRANCH   3   4
ENDBRANCH   2   3
ENDBRANCH   1   2
BRANCH   1   7
ATOM      7  C   UNL     1      11.055  21.855  18.656  1.00  0.00     0.000 C 
BRANCH   7   8
ATOM      8  C   UNL     1      10.358  21.408  17.363  1.00  0.00    -0.000 C 
BRANCH   8   9
ATOM      9  C   UNL     1       9.875  22.591  16.502  1.00  0.00    -0.000 C 
BRANCH   9  10
ATOM     10  C   UNL     1      10.096  22.421  14.988  1.00  0.00    -0.003 C 
ATOM     11  C   UNL     1      11.573  22.323  14.606  1.00  0.00     0.004 C 
ENDBRANCH   9  10
ENDBRANCH   8   9
ENDBRANCH   7   8
ENDBRANCH   1   7
TORSDOF 7
ENDMDL
MODEL 7
REMARK VINA RESULT:    -2.689      2.960      5.284
REMARK INTER + INTRA:          -4.253
REMARK INTER:                  -3.762
REMARK INTRA:                  -0.491
REMARK UNBOUND:                -0.464
REMARK SMILES CCCCCCCCC(=O)[O-]
REMARK SMILES IDX 6 1 7 2 8 3 9 4 10 5 11 6 5 7 4 8 3 9 2 10 1 11
REMARK H PARENT
REMARK Flexibility Score: inf
ROOT
ATOM      1  C   UNL     1      28.455  19.897  13.798  1.00  0.00     0.000 C 
ENDROOT
BRANCH   1   2
ATOM      2  C   UNL     1      28.674  20.168  15.291  1.00  0.00     0.006 C 
BRANCH   2   3
ATOM      3  C   UNL     1      27.678  21.208  15.811  1.00  0.00     0.053 C 
BRANCH   3   4
ATOM      4  C   UNL     1      26.512  20.536  16.465  1.00  0.00     0.041 C 
ATOM      5  O   UNL     1      25.580  20.061  15.764  1.00  0.00    -0.550 OA
ATOM      6  O   UNL     1      26.477  20.391  17.846  1.00  0.00    -0.550 OA
ENDBRANCH   3   4
ENDBRANCH   2   3
ENDBRANCH   1   2
BRANCH   1   7
ATOM      7  C   UNL     1      29.771  20.012  13.019  1.00  0.00     0.000 C 
BRANCH   7   8
ATOM      8  C   UNL     1      29.544  20.671  11.650  1.00  0.00    -0.000 C 
BRANCH   8   9
ATOM      9  C   UNL     1      28.345  21.638  11.642  1.00  0.00    -0.000 C 
BRANCH   9  10
ATOM     10  C   UNL     1      28.678  23.085  12.048  1.00  0.00    -0.003 C 
ATOM     11  C   UNL     1      30.119  23.480  11.727  1.00  0.00     0.004 C 
ENDBRANCH   9  10
ENDBRANCH   8   9
ENDBRANCH   7   8
ENDBRANCH   1   7
TORSDOF 7
ENDMDL
