MODEL 1
REMARK VINA RESULT:     2.872      0.000      0.000
REMARK INTER + INTRA:           3.912
REMARK INTER:                   3.460
REMARK INTRA:                   0.452
REMARK UNBOUND:                 0.452
REMARK SMILES O=c1c(O)c(-c2ccc(O)c(O)c2)oc2cc(O)cc(O)c12
REMARK SMILES IDX 5 1 3 2 2 3 1 4 22 5 20 6 19 7 17 8 16 9 15 10 14 11 6 12
REMARK SMILES IDX 7 13 8 14 9 15 13 16 11 17 10 18 12 20 4 22 21 24 18 26
REMARK H PARENT 10 19 12 21 4 23 21 25 18 27
REMARK Flexibility Score: inf
ROOT
ATOM      1  C   UNL     1      11.959  10.187  26.183  1.00  0.00     0.180 A 
ATOM      2  C   UNL     1      12.537  10.260  24.905  1.00  0.00     0.208 A 
ATOM      3  C   UNL     1      11.704  10.221  23.776  1.00  0.00     0.238 A 
ATOM      4  O   UNL     1      12.223  10.341  22.636  1.00  0.00    -0.285 OA
ATOM      5  C   UNL     1      10.302  10.092  23.939  1.00  0.00     0.111 A 
ATOM      6  C   UNL     1       9.367  10.001  22.865  1.00  0.00     0.134 A 
ATOM      7  C   UNL     1       7.994  10.008  23.144  1.00  0.00     0.093 A 
ATOM      8  C   UNL     1       7.527  10.036  24.459  1.00  0.00     0.123 A 
ATOM      9  C   UNL     1       8.433  10.065  25.515  1.00  0.00     0.094 A 
ATOM     10  C   UNL     1       9.808  10.096  25.269  1.00  0.00     0.146 A 
ATOM     11  O   UNL     1      10.638  10.134  26.305  1.00  0.00    -0.452 OA
ENDROOT
BRANCH   1  12
ATOM     12  C   UNL     1      12.774  10.198  27.419  1.00  0.00     0.025 A 
ATOM     13  C   UNL     1      14.177  10.129  27.372  1.00  0.00     0.016 A 
ATOM     14  C   UNL     1      14.924  10.116  28.552  1.00  0.00     0.051 A 
ATOM     15  C   UNL     1      14.282  10.158  29.796  1.00  0.00     0.157 A 
ATOM     16  C   UNL     1      12.134  10.219  28.669  1.00  0.00     0.062 A 
ATOM     17  C   UNL     1      12.880  10.206  29.854  1.00  0.00     0.158 A 
BRANCH  15  18
ATOM     18  O   UNL     1      15.031  10.147  30.972  1.00  0.00    -0.504 OA
ATOM     19  H   UNL     1      14.588  10.125  31.883  1.00  0.00     0.293 HD
ENDBRANCH  15  18
BRANCH  17  20
ATOM     20  O   UNL     1      12.209  10.243  31.076  1.00  0.00    -0.504 OA
ATOM     21  H   UNL     1      11.917  11.114  31.504  1.00  0.00     0.293 HD
ENDBRANCH  17  20
ENDBRANCH   1  12
BRANCH   2  22
ATOM     22  O   UNL     1      13.921  10.409  24.766  1.00  0.00    -0.502 OA
ATOM     23  H   UNL     1      14.535  10.547  25.559  1.00  0.00     0.293 HD
ENDBRANCH   2  22
BRANCH   6  24
ATOM     24  O   UNL     1       9.731   9.875  21.521  1.00  0.00    -0.507 OA
ATOM     25  H   UNL     1       9.514   9.081  20.939  1.00  0.00     0.293 HD
ENDBRANCH   6  24
BRANCH   8  26
ATOM     26  O   UNL     1       6.159  10.026  24.727  1.00  0.00    -0.508 OA
ATOM     27  H   UNL     1       5.578  10.837  24.552  1.00  0.00     0.293 HD
ENDBRANCH   8  26
TORSDOF 6
ENDMDL
MODEL 2
REMARK VINA RESULT:     3.410      1.794      6.379
REMARK INTER + INTRA:           4.560
REMARK INTER:                   4.089
REMARK INTRA:                   0.471
REMARK UNBOUND:                 0.452
REMARK SMILES O=c1c(O)c(-c2ccc(O)c(O)c2)oc2cc(O)cc(O)c12
REMARK SMILES IDX 5 1 3 2 2 3 1 4 22 5 20 6 19 7 17 8 16 9 15 10 14 11 6 12
REMARK SMILES IDX 7 13 8 14 9 15 13 16 11 17 10 18 12 20 4 22 21 24 18 26
REMARK H PARENT 10 19 12 21 4 23 21 25 18 27
REMARK Flexibility Score: inf
ROOT
ATOM      1  C   UNL     1      12.509  10.185  26.090  1.00  0.00     0.180 A 
ATOM      2  C   UNL     1      13.795  10.366  26.625  1.00  0.00     0.208 A 
ATOM      3  C   UNL     1      13.946  10.471  28.017  1.00  0.00     0.238 A 
ATOM      4  O   UNL     1      15.107  10.578  28.493  1.00  0.00    -0.285 OA
ATOM      5  C   UNL     1      12.806  10.411  28.856  1.00  0.00     0.111 A 
ATOM      6  C   UNL     1      12.838  10.547  30.276  1.00  0.00     0.134 A 
ATOM      7  C   UNL     1      11.666  10.340  31.015  1.00  0.00     0.093 A 
ATOM      8  C   UNL     1      10.453  10.067  30.379  1.00  0.00     0.123 A 
ATOM      9  C   UNL     1      10.401   9.992  28.990  1.00  0.00     0.094 A 
ATOM     10  C   UNL     1      11.560  10.157  28.227  1.00  0.00     0.146 A 
ATOM     11  O   UNL     1      11.468  10.067  26.906  1.00  0.00    -0.452 OA
ENDROOT
BRANCH   1  12
ATOM     12  C   UNL     1      12.267  10.092  24.632  1.00  0.00     0.025 A 
ATOM     13  C   UNL     1      13.328  10.121  23.710  1.00  0.00     0.016 A 
ATOM     14  C   UNL     1      13.074  10.055  22.339  1.00  0.00     0.051 A 
ATOM     15  C   UNL     1      11.758   9.971  21.866  1.00  0.00     0.157 A 
ATOM     16  C   UNL     1      10.948  10.028  24.153  1.00  0.00     0.062 A 
ATOM     17  C   UNL     1      10.690   9.962  22.778  1.00  0.00     0.158 A 
BRANCH  15  18
ATOM     18  O   UNL     1      11.508   9.904  20.495  1.00  0.00    -0.504 OA
ATOM     19  H   UNL     1      10.605   9.619  20.135  1.00  0.00     0.293 HD
ENDBRANCH  15  18
BRANCH  17  20
ATOM     20  O   UNL     1       9.369   9.887  22.341  1.00  0.00    -0.504 OA
ATOM     21  H   UNL     1       8.965   9.024  21.993  1.00  0.00     0.293 HD
ENDBRANCH  17  20
ENDBRANCH   1  12
BRANCH   2  22
ATOM     22  O   UNL     1      14.910  10.401  25.781  1.00  0.00    -0.502 OA
ATOM     23  H   UNL     1      14.845  10.219  24.787  1.00  0.00     0.293 HD
ENDBRANCH   2  22
BRANCH   6  24
ATOM     24  O   UNL     1      13.978  10.907  31.000  1.00  0.00    -0.507 OA
ATOM     25  H   UNL     1      14.174  10.616  31.946  1.00  0.00     0.293 HD
ENDBRANCH   6  24
BRANCH   8  26
ATOM     26  O   UNL     1       9.289   9.879  31.122  1.00  0.00    -0.508 OA
ATOM     27  H   UNL     1       8.947   8.953  31.346  1.00  0.00     0.293 HD
ENDBRANCH   8  26
TORSDOF 6
ENDMDL
MODEL 3
REMARK VINA RESULT:     4.902      1.729      6.918
REMARK INTER + INTRA:           6.357
REMARK INTER:                   5.905
REMARK INTRA:                   0.453
REMARK UNBOUND:                 0.452
REMARK SMILES O=c1c(O)c(-c2ccc(O)c(O)c2)oc2cc(O)cc(O)c12
REMARK SMILES IDX 5 1 3 2 2 3 1 4 22 5 20 6 19 7 17 8 16 9 15 10 14 11 6 12
REMARK SMILES IDX 7 13 8 14 9 15 13 16 11 17 10 18 12 20 4 22 21 24 18 26
REMARK H PARENT 10 19 12 21 4 23 21 25 18 27
REMARK Flexibility Score: inf
ROOT
ATOM      1  C   UNL     1      11.351  10.183  26.064  1.00  0.00     0.180 A 
ATOM      2  C   UNL     1      10.116  10.029  26.716  1.00  0.00     0.208 A 
ATOM      3  C   UNL     1      10.074  10.071  28.119  1.00  0.00     0.238 A 
ATOM      4  O   UNL     1       8.958   9.987  28.694  1.00  0.00    -0.285 OA
ATOM      5  C   UNL     1      11.272  10.250  28.854  1.00  0.00     0.111 A 
ATOM      6  C   UNL     1      11.353  10.267  30.278  1.00  0.00     0.134 A 
ATOM      7  C   UNL     1      12.571  10.582  30.896  1.00  0.00     0.093 A 
ATOM      8  C   UNL     1      13.722  10.814  30.141  1.00  0.00     0.123 A 
ATOM      9  C   UNL     1      13.666  10.740  28.752  1.00  0.00     0.094 A 
ATOM     10  C   UNL     1      12.459  10.465  28.105  1.00  0.00     0.146 A 
ATOM     11  O   UNL     1      12.446  10.415  26.778  1.00  0.00    -0.452 OA
ENDROOT
BRANCH   1  12
ATOM     12  C   UNL     1      11.478  10.125  24.590  1.00  0.00     0.025 A 
ATOM     13  C   UNL     1      10.345  10.098  23.759  1.00  0.00     0.016 A 
ATOM     14  C   UNL     1      10.489  10.019  22.372  1.00  0.00     0.051 A 
ATOM     15  C   UNL     1      11.764   9.953  21.795  1.00  0.00     0.157 A 
ATOM     16  C   UNL     1      12.753  10.038  24.009  1.00  0.00     0.062 A 
ATOM     17  C   UNL     1      12.901   9.958  22.619  1.00  0.00     0.158 A 
BRANCH  15  18
ATOM     18  O   UNL     1      11.904   9.876  20.410  1.00  0.00    -0.504 OA
ATOM     19  H   UNL     1      12.634   9.319  19.981  1.00  0.00     0.293 HD
ENDBRANCH  15  18
BRANCH  17  20
ATOM     20  O   UNL     1      14.184   9.887  22.078  1.00  0.00    -0.504 OA
ATOM     21  H   UNL     1      14.360  10.026  21.089  1.00  0.00     0.293 HD
ENDBRANCH  17  20
ENDBRANCH   1  12
BRANCH   2  22
ATOM     22  O   UNL     1       8.942   9.876  25.972  1.00  0.00    -0.502 OA
ATOM     23  H   UNL     1       8.392   9.026  25.993  1.00  0.00     0.293 HD
ENDBRANCH   2  22
BRANCH   6  24
ATOM     24  O   UNL     1      10.285   9.959  31.125  1.00  0.00    -0.507 OA
ATOM     25  H   UNL     1       9.468  10.537  31.253  1.00  0.00     0.293 HD
ENDBRANCH   6  24
BRANCH   8  26
ATOM     26  O   UNL     1      14.933  11.111  30.765  1.00  0.00    -0.508 OA
ATOM     27  H   UNL     1      15.039  11.926  31.357  1.00  0.00     0.293 HD
ENDBRANCH   8  26
TORSDOF 6
ENDMDL
MODEL 4
REMARK VINA RESULT:     5.477      2.110      5.610
REMARK INTER + INTRA:           7.049
REMARK INTER:                   6.643
REMARK INTRA:                   0.407
REMARK UNBOUND:                 0.452
REMARK SMILES O=c1c(O)c(-c2ccc(O)c(O)c2)oc2cc(O)cc(O)c12
REMARK SMILES IDX 5 1 3 2 2 3 1 4 22 5 20 6 19 7 17 8 16 9 15 10 14 11 6 12
REMARK SMILES IDX 7 13 8 14 9 15 13 16 11 17 10 18 12 20 4 22 21 24 18 26
REMARK H PARENT 10 19 12 21 4 23 21 25 18 27
REMARK Flexibility Score: inf
ROOT
ATOM      1  C   UNL     1      12.429  10.174  26.147  1.00  0.00     0.180 A 
ATOM      2  C   UNL     1      13.126  10.092  27.364  1.00  0.00     0.208 A 
ATOM      3  C   UNL     1      12.399  10.030  28.564  1.00  0.00     0.238 A 
ATOM      4  O   UNL     1      13.029   9.902  29.646  1.00  0.00    -0.285 OA
ATOM      5  C   UNL     1      10.984  10.067  28.532  1.00  0.00     0.111 A 
ATOM      6  C   UNL     1      10.147  10.052  29.688  1.00  0.00     0.134 A 
ATOM      7  C   UNL     1       8.758   9.960  29.533  1.00  0.00     0.093 A 
ATOM      8  C   UNL     1       8.174   9.950  28.265  1.00  0.00     0.123 A 
ATOM      9  C   UNL     1       8.979  10.026  27.132  1.00  0.00     0.094 A 
ATOM     10  C   UNL     1      10.370  10.081  27.252  1.00  0.00     0.146 A 
ATOM     11  O   UNL     1      11.101  10.140  26.146  1.00  0.00    -0.452 OA
ENDROOT
BRANCH   1  12
ATOM     12  C   UNL     1      13.126  10.268  24.844  1.00  0.00     0.025 A 
ATOM     13  C   UNL     1      14.494  10.582  24.766  1.00  0.00     0.016 A 
ATOM     14  C   UNL     1      15.124  10.688  23.524  1.00  0.00     0.051 A 
ATOM     15  C   UNL     1      14.397  10.496  22.343  1.00  0.00     0.157 A 
ATOM     16  C   UNL     1      12.396  10.097  23.656  1.00  0.00     0.062 A 
ATOM     17  C   UNL     1      13.026  10.203  22.409  1.00  0.00     0.158 A 
BRANCH  15  18
ATOM     18  O   UNL     1      15.030  10.602  21.104  1.00  0.00    -0.504 OA
ATOM     19  H   UNL     1      14.911   9.897  20.386  1.00  0.00     0.293 HD
ENDBRANCH  15  18
BRANCH  17  20
ATOM     20  O   UNL     1      12.271  10.013  21.253  1.00  0.00    -0.504 OA
ATOM     21  H   UNL     1      12.558  10.388  20.355  1.00  0.00     0.293 HD
ENDBRANCH  17  20
ENDBRANCH   1  12
BRANCH   2  22
ATOM     22  O   UNL     1      14.523  10.035  27.372  1.00  0.00    -0.502 OA
ATOM     23  H   UNL     1      15.069  10.175  28.213  1.00  0.00     0.293 HD
ENDBRANCH   2  22
BRANCH   6  24
ATOM     24  O   UNL     1      10.624  10.151  30.998  1.00  0.00    -0.507 OA
ATOM     25  H   UNL     1      11.167  10.922  31.356  1.00  0.00     0.293 HD
ENDBRANCH   6  24
BRANCH   8  26
ATOM     26  O   UNL     1       6.790   9.875  28.121  1.00  0.00    -0.508 OA
ATOM     27  H   UNL     1       6.277  10.550  27.566  1.00  0.00     0.293 HD
ENDBRANCH   8  26
TORSDOF 6
ENDMDL
