MODEL 1
REMARK VINA RESULT:    -4.927      0.000      0.000
REMARK INTER + INTRA:          -5.070
REMARK INTER:                  -6.079
REMARK INTRA:                   1.010
REMARK UNBOUND:                 1.010
REMARK SMILES C=C1[C@@H]2CC[C@H]3[C@@H]2C(C)(C)CCC[C@@]13C
REMARK SMILES IDX 14 1 6 2 7 3 3 4 2 5 1 6 4 7 5 8 15 9 8 10 9 11 10 12 11 13
REMARK SMILES IDX 13 15 12 16
REMARK H PARENT
REMARK Flexibility Score: 80.00
ROOT
ATOM      1  C   UNL     1     106.882 110.507 128.579  1.00  0.00    -0.008 C 
ATOM      2  C   UNL     1     105.435 110.565 129.206  1.00  0.00     0.003 C 
ATOM      3  C   UNL     1     104.532 109.859 128.169  1.00  0.00     0.006 C 
ATOM      4  C   UNL     1     105.017 110.713 127.004  1.00  0.00     0.019 C 
ATOM      5  C   UNL     1     106.508 110.564 127.115  1.00  0.00    -0.068 C 
ATOM      6  C   UNL     1     107.356 110.592 126.077  1.00  0.00     0.009 C 
ATOM      7  C   UNL     1     104.672 112.129 127.522  1.00  0.00     0.008 C 
ATOM      8  C   UNL     1     104.863 112.001 129.054  1.00  0.00     0.005 C 
ATOM      9  C   UNL     1     107.780 111.719 128.944  1.00  0.00     0.016 C 
ENDROOT
BRANCH   3  10
ATOM     10  C   UNL     1     104.554 108.290 128.020  1.00  0.00    -0.032 C 
ATOM     11  C   UNL     1     103.799 107.900 126.726  1.00  0.00     0.011 C 
ATOM     12  C   UNL     1     103.755 107.676 129.202  1.00  0.00     0.011 C 
BRANCH  10  13
ATOM     13  C   UNL     1     105.963 107.639 127.941  1.00  0.00     0.007 CG0
ATOM     14  G   UNL     1     106.866 107.934 129.139  1.00  0.00     0.000 G0
ENDBRANCH  10  13
ENDBRANCH   3  10
BRANCH   1  15
ATOM     15  C   UNL     1     107.677 109.222 128.953  1.00  0.00     0.011 C 
BRANCH  15  16
ATOM     16  C   UNL     1     106.875 107.935 129.133  1.00  0.00     0.001 CG0
ATOM     17  G   UNL     1     105.959 107.631 127.947  1.00  0.00     0.000 G0
ENDBRANCH  15  16
ENDBRANCH   1  15
TORSDOF 0
ENDMDL
MODEL 2
REMARK VINA RESULT:    -4.866      5.307      7.915
REMARK INTER + INTRA:          -4.994
REMARK INTER:                  -6.016
REMARK INTRA:                   1.022
REMARK UNBOUND:                 1.010
REMARK SMILES C=C1[C@@H]2CC[C@H]3[C@@H]2C(C)(C)CCC[C@@]13C
REMARK SMILES IDX 14 1 6 2 7 3 3 4 2 5 1 6 4 7 5 8 15 9 8 10 9 11 10 12 11 13
REMARK SMILES IDX 13 15 12 16
REMARK H PARENT
REMARK Flexibility Score: 80.00
ROOT
ATOM      1  C   UNL     1     105.688 101.922 128.759  1.00  0.00    -0.008 C 
ATOM      2  C   UNL     1     107.177 101.898 129.281  1.00  0.00     0.003 C 
ATOM      3  C   UNL     1     107.987 102.622 128.182  1.00  0.00     0.006 C 
ATOM      4  C   UNL     1     107.439 101.755 127.055  1.00  0.00     0.019 C 
ATOM      5  C   UNL     1     105.957 101.870 127.272  1.00  0.00    -0.068 C 
ATOM      6  C   UNL     1     105.038 101.822 126.298  1.00  0.00     0.009 C 
ATOM      7  C   UNL     1     107.853 100.349 127.547  1.00  0.00     0.008 C 
ATOM      8  C   UNL     1     107.770 100.475 129.089  1.00  0.00     0.005 C 
ATOM      9  C   UNL     1     104.847 100.690 129.188  1.00  0.00     0.016 C 
ENDROOT
BRANCH   3  10
ATOM     10  C   UNL     1     107.919 104.190 128.035  1.00  0.00    -0.032 C 
ATOM     11  C   UNL     1     108.578 104.596 126.694  1.00  0.00     0.011 C 
ATOM     12  C   UNL     1     108.779 104.824 129.162  1.00  0.00     0.011 C 
BRANCH  10  13
ATOM     13  C   UNL     1     106.493 104.807 128.048  1.00  0.00     0.007 CG0
ATOM     14  G   UNL     1     105.683 104.508 129.310  1.00  0.00     0.000 G0
ENDBRANCH  10  13
ENDBRANCH   3  10
BRANCH   1  15
ATOM     15  C   UNL     1     104.892 103.189 129.189  1.00  0.00     0.011 C 
BRANCH  15  16
ATOM     16  C   UNL     1     105.674 104.496 129.302  1.00  0.00     0.001 CG0
ATOM     17  G   UNL     1     106.503 104.806 128.055  1.00  0.00     0.000 G0
ENDBRANCH  15  16
ENDBRANCH   1  15
TORSDOF 0
ENDMDL
MODEL 3
REMARK VINA RESULT:    -4.823      3.654      5.519
REMARK INTER + INTRA:          -4.941
REMARK INTER:                  -5.963
REMARK INTRA:                   1.022
REMARK UNBOUND:                 1.010
REMARK SMILES C=C1[C@@H]2CC[C@H]3[C@@H]2C(C)(C)CCC[C@@]13C
REMARK SMILES IDX 14 1 6 2 7 3 3 4 2 5 1 6 4 7 5 8 15 9 8 10 9 11 10 12 11 13
REMARK SMILES IDX 13 15 12 16
REMARK H PARENT
REMARK Flexibility Score: 80.00
ROOT
ATOM      1  C   UNL     1     110.523 105.676 128.568  1.00  0.00    -0.008 C 
ATOM      2  C   UNL     1     110.580 107.157 129.110  1.00  0.00     0.003 C 
ATOM      3  C   UNL     1     109.793 107.984 128.068  1.00  0.00     0.006 C 
ATOM      4  C   UNL     1     110.591 107.452 126.884  1.00  0.00     0.019 C 
ATOM      5  C   UNL     1     110.487 105.967 127.086  1.00  0.00    -0.068 C 
ATOM      6  C   UNL     1     110.477 105.063 126.097  1.00  0.00     0.009 C 
ATOM      7  C   UNL     1     112.025 107.858 127.298  1.00  0.00     0.008 C 
ATOM      8  C   UNL     1     111.989 107.752 128.843  1.00  0.00     0.005 C 
ATOM      9  C   UNL     1     111.777 104.828 128.912  1.00  0.00     0.016 C 
ENDROOT
BRANCH   3  10
ATOM     10  C   UNL     1     108.219 107.918 128.013  1.00  0.00    -0.032 C 
ATOM     11  C   UNL     1     107.736 108.597 126.707  1.00  0.00     0.011 C 
ATOM     12  C   UNL     1     107.654 108.763 129.188  1.00  0.00     0.011 C 
BRANCH  10  13
ATOM     13  C   UNL     1     107.602 106.493 128.043  1.00  0.00     0.007 CG0
ATOM     14  G   UNL     1     107.979 105.663 129.269  1.00  0.00     0.000 G0
ENDBRANCH  10  13
ENDBRANCH   3  10
BRANCH   1  15
ATOM     15  C   UNL     1     109.282 104.875 129.061  1.00  0.00     0.011 C 
BRANCH  15  16
ATOM     16  C   UNL     1     107.984 105.655 129.258  1.00  0.00     0.001 CG0
ATOM     17  G   UNL     1     107.596 106.488 128.037  1.00  0.00     0.000 G0
ENDBRANCH  15  16
ENDBRANCH   1  15
TORSDOF 0
ENDMDL
MODEL 4
REMARK VINA RESULT:    -4.789      3.804      5.542
REMARK INTER + INTRA:          -4.899
REMARK INTER:                  -5.922
REMARK INTRA:                   1.022
REMARK UNBOUND:                 1.010
REMARK SMILES C=C1[C@@H]2CC[C@H]3[C@@H]2C(C)(C)CCC[C@@]13C
REMARK SMILES IDX 14 1 6 2 7 3 3 4 2 5 1 6 4 7 5 8 15 9 8 10 9 11 10 12 11 13
REMARK SMILES IDX 13 15 12 16
REMARK H PARENT
REMARK Flexibility Score: 80.00
ROOT
ATOM      1  C   UNL     1     102.070 106.828 128.528  1.00  0.00    -0.008 C 
ATOM      2  C   UNL     1     101.883 105.328 128.981  1.00  0.00     0.003 C 
ATOM      3  C   UNL     1     102.595 104.499 127.888  1.00  0.00     0.006 C 
ATOM      4  C   UNL     1     101.847 105.168 126.741  1.00  0.00     0.019 C 
ATOM      5  C   UNL     1     102.081 106.623 127.031  1.00  0.00    -0.068 C 
ATOM      6  C   UNL     1     102.171 107.581 126.097  1.00  0.00     0.009 C 
ATOM      7  C   UNL     1     100.383 104.865 127.137  1.00  0.00     0.008 C 
ATOM      8  C   UNL     1     100.427 104.875 128.686  1.00  0.00     0.005 C 
ATOM      9  C   UNL     1     100.895 107.760 128.927  1.00  0.00     0.016 C 
ENDROOT
BRANCH   3  10
ATOM     10  C   UNL     1     104.168 104.429 127.829  1.00  0.00    -0.032 C 
ATOM     11  C   UNL     1     104.591 103.785 126.486  1.00  0.00     0.011 C 
ATOM     12  C   UNL     1     104.657 103.474 128.953  1.00  0.00     0.011 C 
BRANCH  10  13
ATOM     13  C   UNL     1     104.908 105.791 127.936  1.00  0.00     0.007 CG0
ATOM     14  G   UNL     1     104.593 106.588 129.201  1.00  0.00     0.000 G0
ENDBRANCH  10  13
ENDBRANCH   3  10
BRANCH   1  15
ATOM     15  C   UNL     1     103.376 107.486 129.062  1.00  0.00     0.011 C 
BRANCH  15  16
ATOM     16  C   UNL     1     104.601 106.586 129.201  1.00  0.00     0.001 CG0
ATOM     17  G   UNL     1     104.907 105.791 127.932  1.00  0.00     0.000 G0
ENDBRANCH  15  16
ENDBRANCH   1  15
TORSDOF 0
ENDMDL
MODEL 5
REMARK VINA RESULT:    -4.451      3.954      5.860
REMARK INTER + INTRA:          -4.482
REMARK INTER:                  -5.476
REMARK INTRA:                   0.994
REMARK UNBOUND:                 1.010
REMARK SMILES C=C1[C@@H]2CC[C@H]3[C@@H]2C(C)(C)CCC[C@@]13C
REMARK SMILES IDX 14 1 6 2 7 3 3 4 2 5 1 6 4 7 5 8 15 9 8 10 9 11 10 12 11 13
REMARK SMILES IDX 13 15 12 16
REMARK H PARENT
REMARK Flexibility Score: 80.00
ROOT
ATOM      1  C   UNL     1     102.495 105.163 128.088  1.00  0.00    -0.008 C 
ATOM      2  C   UNL     1     102.089 104.600 126.671  1.00  0.00     0.003 C 
ATOM      3  C   UNL     1     103.026 105.325 125.680  1.00  0.00     0.006 C 
ATOM      4  C   UNL     1     102.681 106.715 126.203  1.00  0.00     0.019 C 
ATOM      5  C   UNL     1     102.918 106.555 127.678  1.00  0.00    -0.068 C 
ATOM      6  C   UNL     1     103.332 107.534 128.493  1.00  0.00     0.009 C 
ATOM      7  C   UNL     1     101.148 106.727 125.998  1.00  0.00     0.008 C 
ATOM      8  C   UNL     1     100.750 105.246 126.221  1.00  0.00     0.005 C 
ATOM      9  C   UNL     1     101.319 105.243 129.098  1.00  0.00     0.016 C 
ENDROOT
BRANCH   3  10
ATOM     10  C   UNL     1     104.543 104.916 125.561  1.00  0.00    -0.032 C 
ATOM     11  C   UNL     1     105.293 106.002 124.752  1.00  0.00     0.011 C 
ATOM     12  C   UNL     1     104.630 103.605 124.731  1.00  0.00     0.011 C 
BRANCH  10  13
ATOM     13  C   UNL     1     105.302 104.741 126.905  1.00  0.00     0.007 CG0
ATOM     14  G   UNL     1     104.680 103.721 127.858  1.00  0.00     0.000 G0
ENDBRANCH  10  13
ENDBRANCH   3  10
BRANCH   1  15
ATOM     15  C   UNL     1     103.635 104.360 128.779  1.00  0.00     0.011 C 
BRANCH  15  16
ATOM     16  C   UNL     1     104.691 103.730 127.873  1.00  0.00     0.001 CG0
ATOM     17  G   UNL     1     105.308 104.727 126.892  1.00  0.00     0.000 G0
ENDBRANCH  15  16
ENDBRANCH   1  15
TORSDOF 0
ENDMDL
MODEL 6
REMARK VINA RESULT:    -4.398      4.908      7.508
REMARK INTER + INTRA:          -4.417
REMARK INTER:                  -5.433
REMARK INTRA:                   1.017
REMARK UNBOUND:                 1.010
REMARK SMILES C=C1[C@@H]2CC[C@H]3[C@@H]2C(C)(C)CCC[C@@]13C
REMARK SMILES IDX 14 1 6 2 7 3 3 4 2 5 1 6 4 7 5 8 15 9 8 10 9 11 10 12 11 13
REMARK SMILES IDX 13 15 12 16
REMARK H PARENT
REMARK Flexibility Score: 80.00
ROOT
ATOM      1  C   UNL     1     105.712 102.366 126.322  1.00  0.00    -0.008 C 
ATOM      2  C   UNL     1     105.440 102.202 127.867  1.00  0.00     0.003 C 
ATOM      3  C   UNL     1     106.569 103.006 128.550  1.00  0.00     0.006 C 
ATOM      4  C   UNL     1     107.681 102.308 127.777  1.00  0.00     0.019 C 
ATOM      5  C   UNL     1     107.219 102.475 126.357  1.00  0.00    -0.068 C 
ATOM      6  C   UNL     1     108.034 102.591 125.300  1.00  0.00     0.009 C 
ATOM      7  C   UNL     1     107.416 100.833 128.160  1.00  0.00     0.008 C 
ATOM      8  C   UNL     1     105.876 100.782 128.322  1.00  0.00     0.005 C 
ATOM      9  C   UNL     1     105.290 101.139 125.471  1.00  0.00     0.016 C 
ENDROOT
BRANCH   3  10
ATOM     10  C   UNL     1     106.534 104.581 128.572  1.00  0.00    -0.032 C 
ATOM     11  C   UNL     1     107.913 105.106 129.042  1.00  0.00     0.011 C 
ATOM     12  C   UNL     1     105.500 105.032 129.640  1.00  0.00     0.011 C 
BRANCH  10  13
ATOM     13  C   UNL     1     106.222 105.268 127.213  1.00  0.00     0.007 CG0
ATOM     14  G   UNL     1     104.886 104.865 126.590  1.00  0.00     0.000 G0
ENDBRANCH  10  13
ENDBRANCH   3  10
BRANCH   1  15
ATOM     15  C   UNL     1     105.027 103.615 125.694  1.00  0.00     0.011 C 
BRANCH  15  16
ATOM     16  C   UNL     1     104.892 104.853 126.578  1.00  0.00     0.001 CG0
ATOM     17  G   UNL     1     106.211 105.271 127.226  1.00  0.00     0.000 G0
ENDBRANCH  15  16
ENDBRANCH   1  15
TORSDOF 0
ENDMDL
MODEL 7
REMARK VINA RESULT:    -4.373      5.244      7.471
REMARK INTER + INTRA:          -4.385
REMARK INTER:                  -5.432
REMARK INTRA:                   1.046
REMARK UNBOUND:                 1.010
REMARK SMILES C=C1[C@@H]2CC[C@H]3[C@@H]2C(C)(C)CCC[C@@]13C
REMARK SMILES IDX 14 1 6 2 7 3 3 4 2 5 1 6 4 7 5 8 15 9 8 10 9 11 10 12 11 13
REMARK SMILES IDX 13 15 12 16
REMARK H PARENT
REMARK Flexibility Score: 80.00
ROOT
ATOM      1  C   UNL     1     107.352 102.466 128.136  1.00  0.00    -0.008 C 
ATOM      2  C   UNL     1     107.801 102.088 126.671  1.00  0.00     0.003 C 
ATOM      3  C   UNL     1     106.990 103.036 125.759  1.00  0.00     0.006 C 
ATOM      4  C   UNL     1     105.651 102.670 126.387  1.00  0.00     0.019 C 
ATOM      5  C   UNL     1     105.929 102.884 127.847  1.00  0.00    -0.068 C 
ATOM      6  C   UNL     1     105.016 103.276 128.747  1.00  0.00     0.009 C 
ATOM      7  C   UNL     1     105.633 101.141 126.156  1.00  0.00     0.008 C 
ATOM      8  C   UNL     1     107.130 100.752 126.252  1.00  0.00     0.005 C 
ATOM      9  C   UNL     1     107.363 101.272 129.129  1.00  0.00     0.016 C 
ENDROOT
BRANCH   3  10
ATOM     10  C   UNL     1     107.378 104.558 125.633  1.00  0.00    -0.032 C 
ATOM     11  C   UNL     1     106.246 105.303 124.884  1.00  0.00     0.011 C 
ATOM     12  C   UNL     1     108.646 104.667 124.741  1.00  0.00     0.011 C 
BRANCH  10  13
ATOM     13  C   UNL     1     107.610 105.308 126.974  1.00  0.00     0.007 CG0
ATOM     14  G   UNL     1     108.712 104.715 127.851  1.00  0.00     0.000 G0
ENDBRANCH  10  13
ENDBRANCH   3  10
BRANCH   1  15
ATOM     15  C   UNL     1     108.201 103.602 128.779  1.00  0.00     0.011 C 
BRANCH  15  16
ATOM     16  C   UNL     1     108.706 104.703 127.851  1.00  0.00     0.001 CG0
ATOM     17  G   UNL     1     107.605 105.296 126.972  1.00  0.00     0.000 G0
ENDBRANCH  15  16
ENDBRANCH   1  15
TORSDOF 0
ENDMDL
MODEL 8
REMARK VINA RESULT:    -4.319      1.456      3.839
REMARK INTER + INTRA:          -4.319
REMARK INTER:                  -5.329
REMARK INTRA:                   1.010
REMARK UNBOUND:                 1.010
REMARK SMILES C=C1[C@@H]2CC[C@H]3[C@@H]2C(C)(C)CCC[C@@]13C
REMARK SMILES IDX 14 1 6 2 7 3 3 4 2 5 1 6 4 7 5 8 15 9 8 10 9 11 10 12 11 13
REMARK SMILES IDX 13 15 12 16
REMARK H PARENT
REMARK Flexibility Score: 80.00
ROOT
ATOM      1  C   UNL     1     106.125 107.913 127.062  1.00  0.00    -0.008 C 
ATOM      2  C   UNL     1     104.803 108.643 126.602  1.00  0.00     0.003 C 
ATOM      3  C   UNL     1     104.509 109.662 127.725  1.00  0.00     0.006 C 
ATOM      4  C   UNL     1     104.596 108.625 128.838  1.00  0.00     0.019 C 
ATOM      5  C   UNL     1     105.926 107.986 128.559  1.00  0.00    -0.068 C 
ATOM      6  C   UNL     1     106.737 107.474 129.495  1.00  0.00     0.009 C 
ATOM      7  C   UNL     1     103.514 107.619 128.378  1.00  0.00     0.008 C 
ATOM      8  C   UNL     1     103.587 107.705 126.833  1.00  0.00     0.005 C 
ATOM      9  C   UNL     1     106.219 106.431 126.612  1.00  0.00     0.016 C 
ENDROOT
BRANCH   3  10
ATOM     10  C   UNL     1     105.358 110.984 127.853  1.00  0.00    -0.032 C 
ATOM     11  C   UNL     1     105.051 111.646 129.219  1.00  0.00     0.011 C 
ATOM     12  C   UNL     1     104.880 111.979 126.760  1.00  0.00     0.011 C 
BRANCH  10  13
ATOM     13  C   UNL     1     106.899 110.807 127.768  1.00  0.00     0.007 CG0
ATOM     14  G   UNL     1     107.392 110.146 126.481  1.00  0.00     0.000 G0
ENDBRANCH  10  13
ENDBRANCH   3  10
BRANCH   1  15
ATOM     15  C   UNL     1     107.429 108.618 126.587  1.00  0.00     0.011 C 
BRANCH  15  16
ATOM     16  C   UNL     1     107.402 110.142 126.494  1.00  0.00     0.001 CG0
ATOM     17  G   UNL     1     106.895 110.810 127.772  1.00  0.00     0.000 G0
ENDBRANCH  15  16
ENDBRANCH   1  15
TORSDOF 0
ENDMDL
MODEL 9
REMARK VINA RESULT:    -4.300      1.362      2.361
REMARK INTER + INTRA:          -4.296
REMARK INTER:                  -5.318
REMARK INTRA:                   1.022
REMARK UNBOUND:                 1.010
REMARK SMILES C=C1[C@@H]2CC[C@H]3[C@@H]2C(C)(C)CCC[C@@]13C
REMARK SMILES IDX 14 1 6 2 7 3 3 4 2 5 1 6 4 7 5 8 15 9 8 10 9 11 10 12 11 13
REMARK SMILES IDX 13 15 12 16
REMARK H PARENT
REMARK Flexibility Score: 80.00
ROOT
ATOM      1  C   UNL     1     106.767 110.097 126.125  1.00  0.00    -0.008 C 
ATOM      2  C   UNL     1     107.000 110.391 127.657  1.00  0.00     0.003 C 
ATOM      3  C   UNL     1     105.927 109.549 128.384  1.00  0.00     0.006 C 
ATOM      4  C   UNL     1     104.776 110.100 127.551  1.00  0.00     0.019 C 
ATOM      5  C   UNL     1     105.273 109.870 126.152  1.00  0.00    -0.068 C 
ATOM      6  C   UNL     1     104.487 109.616 125.097  1.00  0.00     0.009 C 
ATOM      7  C   UNL     1     104.918 111.615 127.830  1.00  0.00     0.008 C 
ATOM      8  C   UNL     1     106.446 111.800 128.004  1.00  0.00     0.005 C 
ATOM      9  C   UNL     1     107.105 111.290 125.192  1.00  0.00     0.016 C 
ENDROOT
BRANCH   3  10
ATOM     10  C   UNL     1     106.085 107.987 128.519  1.00  0.00    -0.032 C 
ATOM     11  C   UNL     1     104.747 107.389 129.017  1.00  0.00     0.011 C 
ATOM     12  C   UNL     1     107.140 107.697 129.623  1.00  0.00     0.011 C 
BRANCH  10  13
ATOM     13  C   UNL     1     106.466 107.233 127.215  1.00  0.00     0.007 CG0
ATOM     14  G   UNL     1     107.769 107.701 126.567  1.00  0.00     0.000 G0
ENDBRANCH  10  13
ENDBRANCH   3  10
BRANCH   1  15
ATOM     15  C   UNL     1     107.559 108.865 125.595  1.00  0.00     0.011 C 
BRANCH  15  16
ATOM     16  C   UNL     1     107.763 107.701 126.562  1.00  0.00     0.001 CG0
ATOM     17  G   UNL     1     106.463 107.227 127.210  1.00  0.00     0.000 G0
ENDBRANCH  15  16
ENDBRANCH   1  15
TORSDOF 0
ENDMDL
