MODEL 1
REMARK VINA RESULT:    -4.608      0.000      0.000
REMARK INTER + INTRA:          -4.742
REMARK INTER:                  -4.742
REMARK INTRA:                   0.000
REMARK UNBOUND:                 0.000
REMARK SMILES Nc1ncnc2nc[nH]c12
REMARK SMILES IDX 8 1 7 2 6 3 5 4 4 5 3 6 2 7 10 8 9 9 1 11
REMARK H PARENT 9 10 1 12 1 13
REMARK Flexibility Score: inf
ROOT
ATOM      1  C   UNL     1      19.819   1.130  17.099  1.00  0.00     0.199 A 
ATOM      2  N   UNL     1      18.960   0.073  17.096  1.00  0.00    -0.217 NA
ATOM      3  C   UNL     1      19.050  -0.363  15.829  1.00  0.00     0.182 A 
ATOM      4  N   UNL     1      18.387  -1.412  15.287  1.00  0.00    -0.215 NA
ATOM      5  C   UNL     1      18.611  -1.707  13.970  1.00  0.00     0.226 A 
ATOM      6  N   UNL     1      19.485  -0.954  13.227  1.00  0.00    -0.217 NA
ATOM      7  C   UNL     1      20.155   0.105  13.773  1.00  0.00     0.152 A 
ATOM      8  C   UNL     1      19.916   0.391  15.114  1.00  0.00     0.127 A 
ATOM      9  N   UNL     1      20.418   1.350  15.902  1.00  0.00    -0.340 N 
ATOM     10  H   UNL     1      21.109   2.096  15.664  1.00  0.00     0.168 HD
ENDROOT
BRANCH   7  11
ATOM     11  N   UNL     1      21.059   0.874  12.980  1.00  0.00    -0.382 N 
ATOM     12  H   UNL     1      21.740   0.417  12.333  1.00  0.00     0.158 HD
ATOM     13  H   UNL     1      21.049   1.917  13.038  1.00  0.00     0.158 HD
ENDBRANCH   7  11
TORSDOF 1
ENDMDL
MODEL 2
REMARK VINA RESULT:    -4.474      0.913      2.967
REMARK INTER + INTRA:          -4.605
REMARK INTER:                  -4.605
REMARK INTRA:                   0.000
REMARK UNBOUND:                 0.000
REMARK SMILES Nc1ncnc2nc[nH]c12
REMARK SMILES IDX 8 1 7 2 6 3 5 4 4 5 3 6 2 7 10 8 9 9 1 11
REMARK H PARENT 9 10 1 12 1 13
REMARK Flexibility Score: inf
ROOT
ATOM      1  C   UNL     1      19.552  -0.124  12.645  1.00  0.00     0.199 A 
ATOM      2  N   UNL     1      18.885  -1.163  13.221  1.00  0.00    -0.217 NA
ATOM      3  C   UNL     1      18.995  -0.882  14.529  1.00  0.00     0.182 A 
ATOM      4  N   UNL     1      18.497  -1.610  15.557  1.00  0.00    -0.215 NA
ATOM      5  C   UNL     1      18.711  -1.161  16.830  1.00  0.00     0.226 A 
ATOM      6  N   UNL     1      19.414  -0.003  17.052  1.00  0.00    -0.217 NA
ATOM      7  C   UNL     1      19.917   0.733  16.016  1.00  0.00     0.152 A 
ATOM      8  C   UNL     1      19.689   0.263  14.725  1.00  0.00     0.127 A 
ATOM      9  N   UNL     1      20.056   0.764  13.539  1.00  0.00    -0.340 N 
ATOM     10  H   UNL     1      20.599   1.632  13.336  1.00  0.00     0.168 HD
ENDROOT
BRANCH   7  11
ATOM     11  N   UNL     1      20.645   1.935  16.270  1.00  0.00    -0.382 N 
ATOM     12  H   UNL     1      21.060   2.132  17.207  1.00  0.00     0.158 HD
ATOM     13  H   UNL     1      20.771   2.640  15.510  1.00  0.00     0.158 HD
ENDBRANCH   7  11
TORSDOF 1
ENDMDL
MODEL 3
REMARK VINA RESULT:    -4.375      1.090      1.238
REMARK INTER + INTRA:          -4.502
REMARK INTER:                  -4.502
REMARK INTRA:                   0.000
REMARK UNBOUND:                 0.000
REMARK SMILES Nc1ncnc2nc[nH]c12
REMARK SMILES IDX 8 1 7 2 6 3 5 4 4 5 3 6 2 7 10 8 9 9 1 11
REMARK H PARENT 9 10 1 12 1 13
REMARK Flexibility Score: inf
ROOT
ATOM      1  C   UNL     1      18.994  -0.179  16.734  1.00  0.00     0.199 A 
ATOM      2  N   UNL     1      18.013  -0.923  16.152  1.00  0.00    -0.217 NA
ATOM      3  C   UNL     1      18.336  -0.853  14.851  1.00  0.00     0.182 A 
ATOM      4  N   UNL     1      17.673  -1.431  13.821  1.00  0.00    -0.215 NA
ATOM      5  C   UNL     1      18.158  -1.248  12.556  1.00  0.00     0.226 A 
ATOM      6  N   UNL     1      19.286  -0.495  12.345  1.00  0.00    -0.217 NA
ATOM      7  C   UNL     1      19.957   0.089  13.383  1.00  0.00     0.152 A 
ATOM      8  C   UNL     1      19.450  -0.109  14.664  1.00  0.00     0.127 A 
ATOM      9  N   UNL     1      19.888   0.333  15.850  1.00  0.00    -0.340 N 
ATOM     10  H   UNL     1      20.719   0.930  16.059  1.00  0.00     0.168 HD
ENDROOT
BRANCH   7  11
ATOM     11  N   UNL     1      21.128   0.867  13.139  1.00  0.00    -0.382 N 
ATOM     12  H   UNL     1      21.151   1.597  12.392  1.00  0.00     0.158 HD
ATOM     13  H   UNL     1      21.987   0.713  13.712  1.00  0.00     0.158 HD
ENDBRANCH   7  11
TORSDOF 1
ENDMDL
MODEL 4
REMARK VINA RESULT:    -4.309      1.263      3.179
REMARK INTER + INTRA:          -4.435
REMARK INTER:                  -4.435
REMARK INTRA:                   0.000
REMARK UNBOUND:                 0.000
REMARK SMILES Nc1ncnc2nc[nH]c12
REMARK SMILES IDX 8 1 7 2 6 3 5 4 4 5 3 6 2 7 10 8 9 9 1 11
REMARK H PARENT 9 10 1 12 1 13
REMARK Flexibility Score: inf
ROOT
ATOM      1  C   UNL     1      17.628  -1.571  12.199  1.00  0.00     0.199 A 
ATOM      2  N   UNL     1      17.110  -1.721  13.449  1.00  0.00    -0.217 NA
ATOM      3  C   UNL     1      17.984  -1.036  14.204  1.00  0.00     0.182 A 
ATOM      4  N   UNL     1      17.934  -0.867  15.546  1.00  0.00    -0.215 NA
ATOM      5  C   UNL     1      18.920  -0.131  16.143  1.00  0.00     0.226 A 
ATOM      6  N   UNL     1      19.931   0.416  15.392  1.00  0.00    -0.217 NA
ATOM      7  C   UNL     1      19.984   0.246  14.037  1.00  0.00     0.152 A 
ATOM      8  C   UNL     1      18.971  -0.505  13.446  1.00  0.00     0.127 A 
ATOM      9  N   UNL     1      18.766  -0.833  12.164  1.00  0.00    -0.340 N 
ATOM     10  H   UNL     1      19.339  -0.585  11.327  1.00  0.00     0.168 HD
ENDROOT
BRANCH   7  11
ATOM     11  N   UNL     1      21.045   0.825  13.277  1.00  0.00    -0.382 N 
ATOM     12  H   UNL     1      21.794   1.392  13.732  1.00  0.00     0.158 HD
ATOM     13  H   UNL     1      21.083   0.685  12.243  1.00  0.00     0.158 HD
ENDBRANCH   7  11
TORSDOF 1
ENDMDL
MODEL 5
REMARK VINA RESULT:    -4.240     10.334     11.539
REMARK INTER + INTRA:          -4.364
REMARK INTER:                  -4.364
REMARK INTRA:                   0.000
REMARK UNBOUND:                 0.000
REMARK SMILES Nc1ncnc2nc[nH]c12
REMARK SMILES IDX 8 1 7 2 6 3 5 4 4 5 3 6 2 7 10 8 9 9 1 11
REMARK H PARENT 9 10 1 12 1 13
REMARK Flexibility Score: inf
ROOT
ATOM      1  C   UNL     1      26.404   2.275  23.067  1.00  0.00     0.199 A 
ATOM      2  N   UNL     1      25.812   3.024  22.097  1.00  0.00    -0.217 NA
ATOM      3  C   UNL     1      26.860   3.654  21.544  1.00  0.00     0.182 A 
ATOM      4  N   UNL     1      26.824   4.535  20.516  1.00  0.00    -0.215 NA
ATOM      5  C   UNL     1      28.004   5.076  20.086  1.00  0.00     0.226 A 
ATOM      6  N   UNL     1      29.188   4.730  20.687  1.00  0.00    -0.217 NA
ATOM      7  C   UNL     1      29.227   3.842  21.725  1.00  0.00     0.152 A 
ATOM      8  C   UNL     1      28.017   3.300  22.150  1.00  0.00     0.127 A 
ATOM      9  N   UNL     1      27.752   2.422  23.125  1.00  0.00    -0.340 N 
ATOM     10  H   UNL     1      28.416   1.953  23.780  1.00  0.00     0.168 HD
ENDROOT
BRANCH   7  11
ATOM     11  N   UNL     1      30.471   3.497  22.335  1.00  0.00    -0.382 N 
ATOM     12  H   UNL     1      30.869   4.064  23.116  1.00  0.00     0.158 HD
ATOM     13  H   UNL     1      31.004   2.663  22.002  1.00  0.00     0.158 HD
ENDBRANCH   7  11
TORSDOF 1
ENDMDL
MODEL 6
REMARK VINA RESULT:    -4.239     10.295     12.038
REMARK INTER + INTRA:          -4.363
REMARK INTER:                  -4.363
REMARK INTRA:                   0.000
REMARK UNBOUND:                 0.000
REMARK SMILES Nc1ncnc2nc[nH]c12
REMARK SMILES IDX 8 1 7 2 6 3 5 4 4 5 3 6 2 7 10 8 9 9 1 11
REMARK H PARENT 9 10 1 12 1 13
REMARK Flexibility Score: inf
ROOT
ATOM      1  C   UNL     1      27.006  -1.274   5.444  1.00  0.00     0.199 A 
ATOM      2  N   UNL     1      27.078  -2.119   4.379  1.00  0.00    -0.217 NA
ATOM      3  C   UNL     1      25.825  -2.598   4.309  1.00  0.00     0.182 A 
ATOM      4  N   UNL     1      25.350  -3.491   3.409  1.00  0.00    -0.215 NA
ATOM      5  C   UNL     1      24.037  -3.861   3.497  1.00  0.00     0.226 A 
ATOM      6  N   UNL     1      23.229  -3.335   4.474  1.00  0.00    -0.217 NA
ATOM      7  C   UNL     1      23.707  -2.433   5.383  1.00  0.00     0.152 A 
ATOM      8  C   UNL     1      25.046  -2.067   5.279  1.00  0.00     0.127 A 
ATOM      9  N   UNL     1      25.776  -1.221   6.017  1.00  0.00    -0.340 N 
ATOM     10  H   UNL     1      25.481  -0.649   6.839  1.00  0.00     0.168 HD
ENDROOT
BRANCH   7  11
ATOM     11  N   UNL     1      22.848  -1.900   6.391  1.00  0.00    -0.382 N 
ATOM     12  H   UNL     1      21.836  -1.719   6.204  1.00  0.00     0.158 HD
ATOM     13  H   UNL     1      23.227  -1.681   7.339  1.00  0.00     0.158 HD
ENDBRANCH   7  11
TORSDOF 1
ENDMDL
MODEL 7
REMARK VINA RESULT:    -4.020     10.422     11.718
REMARK INTER + INTRA:          -4.137
REMARK INTER:                  -4.137
REMARK INTRA:                   0.000
REMARK UNBOUND:                 0.000
REMARK SMILES Nc1ncnc2nc[nH]c12
REMARK SMILES IDX 8 1 7 2 6 3 5 4 4 5 3 6 2 7 10 8 9 9 1 11
REMARK H PARENT 9 10 1 12 1 13
REMARK Flexibility Score: inf
ROOT
ATOM      1  C   UNL     1      24.309  -1.229   5.501  1.00  0.00     0.199 A 
ATOM      2  N   UNL     1      24.936  -1.873   4.477  1.00  0.00    -0.217 NA
ATOM      3  C   UNL     1      24.108  -2.903   4.239  1.00  0.00     0.182 A 
ATOM      4  N   UNL     1      24.267  -3.867   3.302  1.00  0.00    -0.215 NA
ATOM      5  C   UNL     1      23.312  -4.841   3.207  1.00  0.00     0.226 A 
ATOM      6  N   UNL     1      22.225  -4.833   4.045  1.00  0.00    -0.217 NA
ATOM      7  C   UNL     1      22.062  -3.860   4.992  1.00  0.00     0.152 A 
ATOM      8  C   UNL     1      23.044  -2.876   5.074  1.00  0.00     0.127 A 
ATOM      9  N   UNL     1      23.150  -1.819   5.888  1.00  0.00    -0.340 N 
ATOM     10  H   UNL     1      22.501  -1.510   6.646  1.00  0.00     0.168 HD
ENDROOT
BRANCH   7  11
ATOM     11  N   UNL     1      20.923  -3.872   5.853  1.00  0.00    -0.382 N 
ATOM     12  H   UNL     1      19.972  -4.109   5.493  1.00  0.00     0.158 HD
ATOM     13  H   UNL     1      21.031  -3.641   6.865  1.00  0.00     0.158 HD
ENDBRANCH   7  11
TORSDOF 1
ENDMDL
MODEL 8
REMARK VINA RESULT:    -3.888      9.960     11.225
REMARK INTER + INTRA:          -4.002
REMARK INTER:                  -4.002
REMARK INTRA:                   0.000
REMARK UNBOUND:                 0.000
REMARK SMILES Nc1ncnc2nc[nH]c12
REMARK SMILES IDX 8 1 7 2 6 3 5 4 4 5 3 6 2 7 10 8 9 9 1 11
REMARK H PARENT 9 10 1 12 1 13
REMARK Flexibility Score: inf
ROOT
ATOM      1  C   UNL     1      27.495   5.947  19.497  1.00  0.00     0.199 A 
ATOM      2  N   UNL     1      26.335   5.258  19.685  1.00  0.00    -0.217 NA
ATOM      3  C   UNL     1      26.669   4.397  20.660  1.00  0.00     0.182 A 
ATOM      4  N   UNL     1      25.865   3.469  21.229  1.00  0.00    -0.215 NA
ATOM      5  C   UNL     1      26.387   2.678  22.214  1.00  0.00     0.226 A 
ATOM      6  N   UNL     1      27.692   2.828  22.610  1.00  0.00    -0.217 NA
ATOM      7  C   UNL     1      28.506   3.766  22.037  1.00  0.00     0.152 A 
ATOM      8  C   UNL     1      27.959   4.563  21.035  1.00  0.00     0.127 A 
ATOM      9  N   UNL     1      28.506   5.544  20.308  1.00  0.00    -0.340 N 
ATOM     10  H   UNL     1      29.479   5.921  20.346  1.00  0.00     0.168 HD
ENDROOT
BRANCH   7  11
ATOM     11  N   UNL     1      29.861   3.904  22.464  1.00  0.00    -0.382 N 
ATOM     12  H   UNL     1      30.480   4.652  22.078  1.00  0.00     0.158 HD
ATOM     13  H   UNL     1      30.254   3.250  23.177  1.00  0.00     0.158 HD
ENDBRANCH   7  11
TORSDOF 1
ENDMDL
MODEL 9
REMARK VINA RESULT:    -3.873      1.605      3.085
REMARK INTER + INTRA:          -3.986
REMARK INTER:                  -3.986
REMARK INTRA:                   0.000
REMARK UNBOUND:                 0.000
REMARK SMILES Nc1ncnc2nc[nH]c12
REMARK SMILES IDX 8 1 7 2 6 3 5 4 4 5 3 6 2 7 10 8 9 9 1 11
REMARK H PARENT 9 10 1 12 1 13
REMARK Flexibility Score: inf
ROOT
ATOM      1  C   UNL     1      20.394   0.295  13.390  1.00  0.00     0.199 A 
ATOM      2  N   UNL     1      19.895   0.401  14.652  1.00  0.00    -0.217 NA
ATOM      3  C   UNL     1      18.875  -0.472  14.631  1.00  0.00     0.182 A 
ATOM      4  N   UNL     1      18.034  -0.757  15.653  1.00  0.00    -0.215 NA
ATOM      5  C   UNL     1      17.049  -1.681  15.440  1.00  0.00     0.226 A 
ATOM      6  N   UNL     1      16.924  -2.298  14.221  1.00  0.00    -0.217 NA
ATOM      7  C   UNL     1      17.772  -2.011  13.188  1.00  0.00     0.152 A 
ATOM      8  C   UNL     1      18.770  -1.069  13.421  1.00  0.00     0.127 A 
ATOM      9  N   UNL     1      19.727  -0.595  12.613  1.00  0.00    -0.340 N 
ATOM     10  H   UNL     1      19.924  -0.845  11.618  1.00  0.00     0.168 HD
ENDROOT
BRANCH   7  11
ATOM     11  N   UNL     1      17.623  -2.665  11.927  1.00  0.00    -0.382 N 
ATOM     12  H   UNL     1      16.726  -3.124  11.655  1.00  0.00     0.158 HD
ATOM     13  H   UNL     1      18.422  -2.692  11.255  1.00  0.00     0.158 HD
ENDBRANCH   7  11
TORSDOF 1
ENDMDL
