MODEL 1
REMARK VINA RESULT:    -5.825      0.000      0.000
REMARK INTER + INTRA:          -8.799
REMARK INTER:                  -8.209
REMARK INTRA:                  -0.590
REMARK UNBOUND:                -0.590
REMARK SMILES COc1ccc(-c2cc(=O)c3c(OC)c(OC)c(OC)c(OC)c3o2)cc1OC
REMARK SMILES IDX 7 1 8 2 9 3 10 4 11 5 24 6 25 7 21 8 18 9 15 10 12 11 6 12
REMARK SMILES IDX 3 13 27 14 4 15 26 16 5 17 2 18 1 19 28 20 29 21 22 22 23 23
REMARK SMILES IDX 13 24 14 25 19 26 20 27 16 28 17 29
REMARK H PARENT
REMARK Flexibility Score: inf
ROOT
ATOM      1  C   UNL     1       6.592  -2.700  -4.891  1.00  0.00     0.138 A 
ATOM      2  C   UNL     1       7.416  -1.741  -5.504  1.00  0.00     0.100 A 
ATOM      3  C   UNL     1       7.991  -0.740  -4.721  1.00  0.00     0.197 A 
ATOM      4  O   UNL     1       8.724   0.121  -5.279  1.00  0.00    -0.289 OA
ATOM      5  C   UNL     1       7.758  -0.716  -3.332  1.00  0.00     0.115 A 
ATOM      6  C   UNL     1       6.898  -1.701  -2.791  1.00  0.00     0.188 A 
ATOM      7  O   UNL     1       6.374  -2.631  -3.581  1.00  0.00    -0.452 OA
ATOM      8  C   UNL     1       6.623  -1.728  -1.409  1.00  0.00     0.209 A 
ATOM      9  C   UNL     1       7.256  -0.808  -0.558  1.00  0.00     0.211 A 
ATOM     10  C   UNL     1       8.075   0.196  -1.089  1.00  0.00     0.208 A 
ATOM     11  C   UNL     1       8.374   0.218  -2.466  1.00  0.00     0.179 A 
ENDROOT
BRANCH   1  12
ATOM     12  C   UNL     1       5.984  -3.823  -5.650  1.00  0.00     0.021 A 
ATOM     13  C   UNL     1       4.869  -5.929  -7.169  1.00  0.00     0.160 A 
ATOM     14  C   UNL     1       4.234  -5.496  -5.996  1.00  0.00     0.161 A 
ATOM     15  C   UNL     1       6.059  -5.303  -7.581  1.00  0.00     0.051 A 
ATOM     16  C   UNL     1       4.800  -4.458  -5.230  1.00  0.00     0.062 A 
ATOM     17  C   UNL     1       6.604  -4.264  -6.830  1.00  0.00     0.016 A 
BRANCH  13  18
ATOM     18  O   UNL     1       4.296  -6.983  -7.896  1.00  0.00    -0.493 OA
ATOM     19  C   UNL     1       4.814  -8.313  -7.924  1.00  0.00     0.278 C 
ENDBRANCH  13  18
BRANCH  14  20
ATOM     20  O   UNL     1       3.031  -6.124  -5.636  1.00  0.00    -0.493 OA
ATOM     21  C   UNL     1       2.589  -6.340  -4.298  1.00  0.00     0.278 C 
ENDBRANCH  14  20
ENDBRANCH   1  12
BRANCH   8  22
ATOM     22  O   UNL     1       5.713  -2.637  -0.853  1.00  0.00    -0.490 OA
ATOM     23  C   UNL     1       4.332  -2.341  -0.644  1.00  0.00     0.278 C 
ENDBRANCH   8  22
BRANCH  11  24
ATOM     24  O   UNL     1       9.301   1.139  -2.980  1.00  0.00    -0.492 OA
ATOM     25  C   UNL     1       8.980   2.505  -3.240  1.00  0.00     0.278 C 
ENDBRANCH  11  24
BRANCH   9  26
ATOM     26  O   UNL     1       7.024  -0.828   0.821  1.00  0.00    -0.490 OA
ATOM     27  C   UNL     1       7.802  -1.613   1.718  1.00  0.00     0.279 C 
ENDBRANCH   9  26
BRANCH  10  28
ATOM     28  O   UNL     1       8.588   1.162  -0.216  1.00  0.00    -0.490 OA
ATOM     29  C   UNL     1       7.863   2.342   0.111  1.00  0.00     0.278 C 
ENDBRANCH  10  28
TORSDOF 7
ENDMDL
MODEL 2
REMARK VINA RESULT:    -5.633     10.569     14.643
REMARK INTER + INTRA:          -8.529
REMARK INTER:                  -7.773
REMARK INTRA:                  -0.756
REMARK UNBOUND:                -0.590
REMARK SMILES COc1ccc(-c2cc(=O)c3c(OC)c(OC)c(OC)c(OC)c3o2)cc1OC
REMARK SMILES IDX 7 1 8 2 9 3 10 4 11 5 24 6 25 7 21 8 18 9 15 10 12 11 6 12
REMARK SMILES IDX 3 13 27 14 4 15 26 16 5 17 2 18 1 19 28 20 29 21 22 22 23 23
REMARK SMILES IDX 13 24 14 25 19 26 20 27 16 28 17 29
REMARK H PARENT
REMARK Flexibility Score: inf
ROOT
ATOM      1  C   UNL     1      -4.137  -4.413   3.345  1.00  0.00     0.138 A 
ATOM      2  C   UNL     1      -3.781  -5.715   3.731  1.00  0.00     0.100 A 
ATOM      3  C   UNL     1      -3.540  -6.673   2.747  1.00  0.00     0.197 A 
ATOM      4  O   UNL     1      -3.226  -7.842   3.102  1.00  0.00    -0.289 OA
ATOM      5  C   UNL     1      -3.634  -6.320   1.386  1.00  0.00     0.115 A 
ATOM      6  C   UNL     1      -4.021  -4.995   1.076  1.00  0.00     0.188 A 
ATOM      7  O   UNL     1      -4.242  -4.122   2.051  1.00  0.00    -0.452 OA
ATOM      8  C   UNL     1      -4.136  -4.582  -0.267  1.00  0.00     0.209 A 
ATOM      9  C   UNL     1      -3.806  -5.475  -1.298  1.00  0.00     0.211 A 
ATOM     10  C   UNL     1      -3.462  -6.799  -1.002  1.00  0.00     0.208 A 
ATOM     11  C   UNL     1      -3.323  -7.216   0.338  1.00  0.00     0.179 A 
ENDROOT
BRANCH   1  12
ATOM     12  C   UNL     1      -4.364  -3.327   4.333  1.00  0.00     0.021 A 
ATOM     13  C   UNL     1      -4.883  -1.262   6.191  1.00  0.00     0.160 A 
ATOM     14  C   UNL     1      -3.597  -1.416   5.654  1.00  0.00     0.161 A 
ATOM     15  C   UNL     1      -5.907  -2.140   5.793  1.00  0.00     0.051 A 
ATOM     16  C   UNL     1      -3.334  -2.457   4.741  1.00  0.00     0.062 A 
ATOM     17  C   UNL     1      -5.647  -3.156   4.876  1.00  0.00     0.016 A 
BRANCH  13  18
ATOM     18  O   UNL     1      -5.108  -0.234   7.118  1.00  0.00    -0.493 OA
ATOM     19  C   UNL     1      -6.378   0.060   7.698  1.00  0.00     0.278 C 
ENDBRANCH  13  18
BRANCH  14  20
ATOM     20  O   UNL     1      -2.611  -0.501   6.051  1.00  0.00    -0.493 OA
ATOM     21  C   UNL     1      -2.181   0.624   5.287  1.00  0.00     0.278 C 
ENDBRANCH  14  20
ENDBRANCH   1  12
BRANCH   8  22
ATOM     22  O   UNL     1      -4.597  -3.304  -0.610  1.00  0.00    -0.490 OA
ATOM     23  C   UNL     1      -5.972  -2.996  -0.838  1.00  0.00     0.278 C 
ENDBRANCH   8  22
BRANCH  11  24
ATOM     24  O   UNL     1      -2.847  -8.503   0.638  1.00  0.00    -0.492 OA
ATOM     25  C   UNL     1      -1.486  -8.893   0.455  1.00  0.00     0.278 C 
ENDBRANCH  11  24
BRANCH   9  26
ATOM     26  O   UNL     1      -3.884  -5.084  -2.639  1.00  0.00    -0.490 OA
ATOM     27  C   UNL     1      -2.801  -4.462  -3.321  1.00  0.00     0.279 C 
ENDBRANCH   9  26
BRANCH  10  28
ATOM     28  O   UNL     1      -3.257  -7.685  -2.066  1.00  0.00    -0.490 OA
ATOM     29  C   UNL     1      -4.292  -8.532  -2.551  1.00  0.00     0.278 C 
ENDBRANCH  10  28
TORSDOF 7
ENDMDL
MODEL 3
REMARK VINA RESULT:    -5.615      6.496     11.007
REMARK INTER + INTRA:          -8.503
REMARK INTER:                  -7.868
REMARK INTRA:                  -0.635
REMARK UNBOUND:                -0.590
REMARK SMILES COc1ccc(-c2cc(=O)c3c(OC)c(OC)c(OC)c(OC)c3o2)cc1OC
REMARK SMILES IDX 7 1 8 2 9 3 10 4 11 5 24 6 25 7 21 8 18 9 15 10 12 11 6 12
REMARK SMILES IDX 3 13 27 14 4 15 26 16 5 17 2 18 1 19 28 20 29 21 22 22 23 23
REMARK SMILES IDX 13 24 14 25 19 26 20 27 16 28 17 29
REMARK H PARENT
REMARK Flexibility Score: inf
ROOT
ATOM      1  C   UNL     1      -1.388  -5.254  -3.172  1.00  0.00     0.138 A 
ATOM      2  C   UNL     1      -0.130  -4.634  -3.102  1.00  0.00     0.100 A 
ATOM      3  C   UNL     1       0.925  -5.151  -3.853  1.00  0.00     0.197 A 
ATOM      4  O   UNL     1       2.053  -4.593  -3.781  1.00  0.00    -0.289 OA
ATOM      5  C   UNL     1       0.713  -6.270  -4.683  1.00  0.00     0.115 A 
ATOM      6  C   UNL     1      -0.576  -6.855  -4.682  1.00  0.00     0.188 A 
ATOM      7  O   UNL     1      -1.545  -6.324  -3.947  1.00  0.00    -0.452 OA
ATOM      8  C   UNL     1      -0.851  -7.978  -5.489  1.00  0.00     0.209 A 
ATOM      9  C   UNL     1       0.145  -8.478  -6.342  1.00  0.00     0.211 A 
ATOM     10  C   UNL     1       1.434  -7.932  -6.319  1.00  0.00     0.208 A 
ATOM     11  C   UNL     1       1.713  -6.796  -5.533  1.00  0.00     0.179 A 
ENDROOT
BRANCH   1  12
ATOM     12  C   UNL     1      -2.571  -4.733  -2.440  1.00  0.00     0.021 A 
ATOM     13  C   UNL     1      -4.851  -3.705  -1.126  1.00  0.00     0.160 A 
ATOM     14  C   UNL     1      -3.689  -3.988  -0.396  1.00  0.00     0.161 A 
ATOM     15  C   UNL     1      -4.868  -3.932  -2.513  1.00  0.00     0.051 A 
ATOM     16  C   UNL     1      -2.558  -4.518  -1.049  1.00  0.00     0.062 A 
ATOM     17  C   UNL     1      -3.742  -4.438  -3.158  1.00  0.00     0.016 A 
BRANCH  13  18
ATOM     18  O   UNL     1      -5.970  -3.204  -0.443  1.00  0.00    -0.493 OA
ATOM     19  C   UNL     1      -6.802  -2.152  -0.931  1.00  0.00     0.278 C 
ENDBRANCH  13  18
BRANCH  14  20
ATOM     20  O   UNL     1      -3.700  -3.717   0.981  1.00  0.00    -0.493 OA
ATOM     21  C   UNL     1      -3.919  -4.685   2.005  1.00  0.00     0.278 C 
ENDBRANCH  14  20
ENDBRANCH   1  12
BRANCH   8  22
ATOM     22  O   UNL     1      -2.089  -8.631  -5.451  1.00  0.00    -0.490 OA
ATOM     23  C   UNL     1      -2.422  -9.634  -4.490  1.00  0.00     0.278 C 
ENDBRANCH   8  22
BRANCH  11  24
ATOM     24  O   UNL     1       2.965  -6.165  -5.610  1.00  0.00    -0.492 OA
ATOM     25  C   UNL     1       4.154  -6.721  -5.050  1.00  0.00     0.278 C 
ENDBRANCH  11  24
BRANCH   9  26
ATOM     26  O   UNL     1      -0.106  -9.574  -7.175  1.00  0.00    -0.490 OA
ATOM     27  C   UNL     1      -0.718  -9.441  -8.453  1.00  0.00     0.279 C 
ENDBRANCH   9  26
BRANCH  10  28
ATOM     28  O   UNL     1       2.426  -8.540  -7.099  1.00  0.00    -0.490 OA
ATOM     29  C   UNL     1       2.766  -8.058  -8.393  1.00  0.00     0.278 C 
ENDBRANCH  10  28
TORSDOF 7
ENDMDL
MODEL 4
REMARK VINA RESULT:    -5.588      1.919      7.846
REMARK INTER + INTRA:          -8.465
REMARK INTER:                  -7.959
REMARK INTRA:                  -0.506
REMARK UNBOUND:                -0.590
REMARK SMILES COc1ccc(-c2cc(=O)c3c(OC)c(OC)c(OC)c(OC)c3o2)cc1OC
REMARK SMILES IDX 7 1 8 2 9 3 10 4 11 5 24 6 25 7 21 8 18 9 15 10 12 11 6 12
REMARK SMILES IDX 3 13 27 14 4 15 26 16 5 17 2 18 1 19 28 20 29 21 22 22 23 23
REMARK SMILES IDX 13 24 14 25 19 26 20 27 16 28 17 29
REMARK H PARENT
REMARK Flexibility Score: inf
ROOT
ATOM      1  C   UNL     1       7.872  -2.196  -4.172  1.00  0.00     0.138 A 
ATOM      2  C   UNL     1       9.001  -2.202  -5.007  1.00  0.00     0.100 A 
ATOM      3  C   UNL     1       8.985  -2.981  -6.164  1.00  0.00     0.197 A 
ATOM      4  O   UNL     1      10.004  -2.985  -6.906  1.00  0.00    -0.289 OA
ATOM      5  C   UNL     1       7.837  -3.730  -6.489  1.00  0.00     0.115 A 
ATOM      6  C   UNL     1       6.749  -3.692  -5.586  1.00  0.00     0.188 A 
ATOM      7  O   UNL     1       6.816  -2.936  -4.497  1.00  0.00    -0.452 OA
ATOM      8  C   UNL     1       5.573  -4.423  -5.854  1.00  0.00     0.209 A 
ATOM      9  C   UNL     1       5.463  -5.143  -7.054  1.00  0.00     0.211 A 
ATOM     10  C   UNL     1       6.549  -5.220  -7.933  1.00  0.00     0.208 A 
ATOM     11  C   UNL     1       7.721  -4.475  -7.685  1.00  0.00     0.179 A 
ENDROOT
BRANCH   1  12
ATOM     12  C   UNL     1       7.795  -1.355  -2.949  1.00  0.00     0.021 A 
ATOM     13  C   UNL     1       7.713   0.298  -0.659  1.00  0.00     0.160 A 
ATOM     14  C   UNL     1       7.303  -1.040  -0.574  1.00  0.00     0.161 A 
ATOM     15  C   UNL     1       8.168   0.804  -1.890  1.00  0.00     0.051 A 
ATOM     16  C   UNL     1       7.326  -1.859  -1.720  1.00  0.00     0.062 A 
ATOM     17  C   UNL     1       8.208  -0.015  -3.016  1.00  0.00     0.016 A 
BRANCH  13  18
ATOM     18  O   UNL     1       7.652   1.096   0.493  1.00  0.00    -0.493 OA
ATOM     19  C   UNL     1       8.690   1.177   1.469  1.00  0.00     0.278 C 
ENDBRANCH  13  18
BRANCH  14  20
ATOM     20  O   UNL     1       6.886  -1.516   0.679  1.00  0.00    -0.493 OA
ATOM     21  C   UNL     1       7.578  -2.492   1.455  1.00  0.00     0.278 C 
ENDBRANCH  14  20
ENDBRANCH   1  12
BRANCH   8  22
ATOM     22  O   UNL     1       4.510  -4.474  -4.943  1.00  0.00    -0.490 OA
ATOM     23  C   UNL     1       3.751  -3.329  -4.552  1.00  0.00     0.278 C 
ENDBRANCH   8  22
BRANCH  11  24
ATOM     24  O   UNL     1       8.758  -4.443  -8.631  1.00  0.00    -0.492 OA
ATOM     25  C   UNL     1       8.653  -3.758  -9.879  1.00  0.00     0.278 C 
ENDBRANCH  11  24
BRANCH   9  26
ATOM     26  O   UNL     1       4.298  -5.855  -7.360  1.00  0.00    -0.490 OA
ATOM     27  C   UNL     1       4.034  -7.153  -6.838  1.00  0.00     0.279 C 
ENDBRANCH   9  26
BRANCH  10  28
ATOM     28  O   UNL     1       6.435  -6.045  -9.058  1.00  0.00    -0.490 OA
ATOM     29  C   UNL     1       6.997  -7.351  -9.093  1.00  0.00     0.278 C 
ENDBRANCH  10  28
TORSDOF 7
ENDMDL
MODEL 5
REMARK VINA RESULT:    -5.528      2.463      3.919
REMARK INTER + INTRA:          -8.380
REMARK INTER:                  -7.758
REMARK INTRA:                  -0.622
REMARK UNBOUND:                -0.590
REMARK SMILES COc1ccc(-c2cc(=O)c3c(OC)c(OC)c(OC)c(OC)c3o2)cc1OC
REMARK SMILES IDX 7 1 8 2 9 3 10 4 11 5 24 6 25 7 21 8 18 9 15 10 12 11 6 12
REMARK SMILES IDX 3 13 27 14 4 15 26 16 5 17 2 18 1 19 28 20 29 21 22 22 23 23
REMARK SMILES IDX 13 24 14 25 19 26 20 27 16 28 17 29
REMARK H PARENT
REMARK Flexibility Score: inf
ROOT
ATOM      1  C   UNL     1       3.384  -3.763  -3.729  1.00  0.00     0.138 A 
ATOM      2  C   UNL     1       4.121  -3.442  -4.881  1.00  0.00     0.100 A 
ATOM      3  C   UNL     1       5.253  -2.637  -4.760  1.00  0.00     0.197 A 
ATOM      4  O   UNL     1       5.907  -2.348  -5.799  1.00  0.00    -0.289 OA
ATOM      5  C   UNL     1       5.654  -2.177  -3.490  1.00  0.00     0.115 A 
ATOM      6  C   UNL     1       4.848  -2.523  -2.380  1.00  0.00     0.188 A 
ATOM      7  O   UNL     1       3.778  -3.290  -2.550  1.00  0.00    -0.452 OA
ATOM      8  C   UNL     1       5.194  -2.091  -1.084  1.00  0.00     0.209 A 
ATOM      9  C   UNL     1       6.380  -1.365  -0.889  1.00  0.00     0.211 A 
ATOM     10  C   UNL     1       7.162  -0.983  -1.986  1.00  0.00     0.208 A 
ATOM     11  C   UNL     1       6.836  -1.429  -3.283  1.00  0.00     0.179 A 
ENDROOT
BRANCH   1  12
ATOM     12  C   UNL     1       2.195  -4.653  -3.772  1.00  0.00     0.021 A 
ATOM     13  C   UNL     1      -0.014  -6.412  -3.886  1.00  0.00     0.160 A 
ATOM     14  C   UNL     1      -0.219  -5.025  -3.897  1.00  0.00     0.161 A 
ATOM     15  C   UNL     1       1.298  -6.915  -3.822  1.00  0.00     0.051 A 
ATOM     16  C   UNL     1       0.881  -4.149  -3.822  1.00  0.00     0.062 A 
ATOM     17  C   UNL     1       2.384  -6.044  -3.767  1.00  0.00     0.016 A 
BRANCH  13  18
ATOM     18  O   UNL     1      -1.130  -7.260  -3.934  1.00  0.00    -0.493 OA
ATOM     19  C   UNL     1      -1.419  -8.145  -5.016  1.00  0.00     0.278 C 
ENDBRANCH  13  18
BRANCH  14  20
ATOM     20  O   UNL     1      -1.540  -4.563  -3.995  1.00  0.00    -0.493 OA
ATOM     21  C   UNL     1      -2.346  -4.147  -2.895  1.00  0.00     0.278 C 
ENDBRANCH  14  20
ENDBRANCH   1  12
BRANCH   8  22
ATOM     22  O   UNL     1       4.375  -2.345   0.024  1.00  0.00    -0.490 OA
ATOM     23  C   UNL     1       3.645  -1.330   0.714  1.00  0.00     0.278 C 
ENDBRANCH   8  22
BRANCH  11  24
ATOM     24  O   UNL     1       7.691  -1.162  -4.364  1.00  0.00    -0.492 OA
ATOM     25  C   UNL     1       8.949  -1.814  -4.542  1.00  0.00     0.278 C 
ENDBRANCH  11  24
BRANCH   9  26
ATOM     26  O   UNL     1       6.764  -0.946   0.389  1.00  0.00    -0.490 OA
ATOM     27  C   UNL     1       7.554  -1.754   1.255  1.00  0.00     0.279 C 
ENDBRANCH   9  26
BRANCH  10  28
ATOM     28  O   UNL     1       8.269  -0.159  -1.755  1.00  0.00    -0.490 OA
ATOM     29  C   UNL     1       8.193   1.256  -1.878  1.00  0.00     0.278 C 
ENDBRANCH  10  28
TORSDOF 7
ENDMDL
MODEL 6
REMARK VINA RESULT:    -5.493      6.791     10.799
REMARK INTER + INTRA:          -8.330
REMARK INTER:                  -7.686
REMARK INTRA:                  -0.645
REMARK UNBOUND:                -0.590
REMARK SMILES COc1ccc(-c2cc(=O)c3c(OC)c(OC)c(OC)c(OC)c3o2)cc1OC
REMARK SMILES IDX 7 1 8 2 9 3 10 4 11 5 24 6 25 7 21 8 18 9 15 10 12 11 6 12
REMARK SMILES IDX 3 13 27 14 4 15 26 16 5 17 2 18 1 19 28 20 29 21 22 22 23 23
REMARK SMILES IDX 13 24 14 25 19 26 20 27 16 28 17 29
REMARK H PARENT
REMARK Flexibility Score: inf
ROOT
ATOM      1  C   UNL     1      -0.822  -5.618  -2.484  1.00  0.00     0.138 A 
ATOM      2  C   UNL     1      -1.241  -4.278  -2.476  1.00  0.00     0.100 A 
ATOM      3  C   UNL     1      -2.460  -3.950  -1.883  1.00  0.00     0.197 A 
ATOM      4  O   UNL     1      -2.832  -2.745  -1.885  1.00  0.00    -0.289 OA
ATOM      5  C   UNL     1      -3.241  -4.958  -1.284  1.00  0.00     0.115 A 
ATOM      6  C   UNL     1      -2.765  -6.288  -1.353  1.00  0.00     0.188 A 
ATOM      7  O   UNL     1      -1.598  -6.547  -1.931  1.00  0.00    -0.452 OA
ATOM      8  C   UNL     1      -3.502  -7.342  -0.775  1.00  0.00     0.209 A 
ATOM      9  C   UNL     1      -4.685  -7.057  -0.075  1.00  0.00     0.211 A 
ATOM     10  C   UNL     1      -5.186  -5.750  -0.037  1.00  0.00     0.208 A 
ATOM     11  C   UNL     1      -4.445  -4.687  -0.593  1.00  0.00     0.179 A 
ENDROOT
BRANCH   1  12
ATOM     12  C   UNL     1       0.484  -6.037  -3.054  1.00  0.00     0.021 A 
ATOM     13  C   UNL     1       2.963  -6.912  -4.089  1.00  0.00     0.160 A 
ATOM     14  C   UNL     1       2.652  -5.545  -4.073  1.00  0.00     0.161 A 
ATOM     15  C   UNL     1       2.034  -7.838  -3.582  1.00  0.00     0.051 A 
ATOM     16  C   UNL     1       1.408  -5.111  -3.574  1.00  0.00     0.062 A 
ATOM     17  C   UNL     1       0.813  -7.402  -3.072  1.00  0.00     0.016 A 
BRANCH  13  18
ATOM     18  O   UNL     1       4.198  -7.316  -4.618  1.00  0.00    -0.493 OA
ATOM     19  C   UNL     1       4.497  -8.649  -5.029  1.00  0.00     0.278 C 
ENDBRANCH  13  18
BRANCH  14  20
ATOM     20  O   UNL     1       3.619  -4.650  -4.557  1.00  0.00    -0.493 OA
ATOM     21  C   UNL     1       3.720  -3.276  -4.190  1.00  0.00     0.278 C 
ENDBRANCH  14  20
ENDBRANCH   1  12
BRANCH   8  22
ATOM     22  O   UNL     1      -3.102  -8.679  -0.896  1.00  0.00    -0.490 OA
ATOM     23  C   UNL     1      -3.432  -9.503  -2.014  1.00  0.00     0.278 C 
ENDBRANCH   8  22
BRANCH  11  24
ATOM     24  O   UNL     1      -4.877  -3.360  -0.438  1.00  0.00    -0.492 OA
ATOM     25  C   UNL     1      -6.004  -2.822  -1.130  1.00  0.00     0.278 C 
ENDBRANCH  11  24
BRANCH   9  26
ATOM     26  O   UNL     1      -5.424  -8.078   0.532  1.00  0.00    -0.490 OA
ATOM     27  C   UNL     1      -5.134  -8.560   1.840  1.00  0.00     0.279 C 
ENDBRANCH   9  26
BRANCH  10  28
ATOM     28  O   UNL     1      -6.429  -5.534   0.569  1.00  0.00    -0.490 OA
ATOM     29  C   UNL     1      -6.542  -5.084   1.914  1.00  0.00     0.278 C 
ENDBRANCH  10  28
TORSDOF 7
ENDMDL
MODEL 7
REMARK VINA RESULT:    -5.445      3.897      7.846
REMARK INTER + INTRA:          -8.263
REMARK INTER:                  -7.645
REMARK INTRA:                  -0.619
REMARK UNBOUND:                -0.590
REMARK SMILES COc1ccc(-c2cc(=O)c3c(OC)c(OC)c(OC)c(OC)c3o2)cc1OC
REMARK SMILES IDX 7 1 8 2 9 3 10 4 11 5 24 6 25 7 21 8 18 9 15 10 12 11 6 12
REMARK SMILES IDX 3 13 27 14 4 15 26 16 5 17 2 18 1 19 28 20 29 21 22 22 23 23
REMARK SMILES IDX 13 24 14 25 19 26 20 27 16 28 17 29
REMARK H PARENT
REMARK Flexibility Score: inf
ROOT
ATOM      1  C   UNL     1       1.769  -6.058  -4.247  1.00  0.00     0.138 A 
ATOM      2  C   UNL     1       2.098  -7.405  -4.467  1.00  0.00     0.100 A 
ATOM      3  C   UNL     1       3.361  -7.724  -4.963  1.00  0.00     0.197 A 
ATOM      4  O   UNL     1       3.648  -8.936  -5.163  1.00  0.00    -0.289 OA
ATOM      5  C   UNL     1       4.295  -6.699  -5.216  1.00  0.00     0.115 A 
ATOM      6  C   UNL     1       3.882  -5.364  -4.992  1.00  0.00     0.188 A 
ATOM      7  O   UNL     1       2.667  -5.115  -4.521  1.00  0.00    -0.452 OA
ATOM      8  C   UNL     1       4.769  -4.294  -5.229  1.00  0.00     0.209 A 
ATOM      9  C   UNL     1       6.087  -4.562  -5.631  1.00  0.00     0.211 A 
ATOM     10  C   UNL     1       6.491  -5.876  -5.894  1.00  0.00     0.208 A 
ATOM     11  C   UNL     1       5.619  -6.954  -5.639  1.00  0.00     0.179 A 
ENDROOT
BRANCH   1  12
ATOM     12  C   UNL     1       0.462  -5.643  -3.676  1.00  0.00     0.021 A 
ATOM     13  C   UNL     1      -2.012  -4.771  -2.625  1.00  0.00     0.160 A 
ATOM     14  C   UNL     1      -1.355  -5.870  -2.054  1.00  0.00     0.161 A 
ATOM     15  C   UNL     1      -1.427  -4.108  -3.718  1.00  0.00     0.051 A 
ATOM     16  C   UNL     1      -0.130  -6.316  -2.590  1.00  0.00     0.062 A 
ATOM     17  C   UNL     1      -0.206  -4.541  -4.233  1.00  0.00     0.016 A 
BRANCH  13  18
ATOM     18  O   UNL     1      -3.243  -4.368  -2.087  1.00  0.00    -0.493 OA
ATOM     19  C   UNL     1      -4.410  -4.104  -2.864  1.00  0.00     0.278 C 
ENDBRANCH  13  18
BRANCH  14  20
ATOM     20  O   UNL     1      -1.955  -6.485  -0.944  1.00  0.00    -0.493 OA
ATOM     21  C   UNL     1      -2.657  -7.725  -0.975  1.00  0.00     0.278 C 
ENDBRANCH  14  20
ENDBRANCH   1  12
BRANCH   8  22
ATOM     22  O   UNL     1       4.368  -2.958  -5.098  1.00  0.00    -0.490 OA
ATOM     23  C   UNL     1       4.374  -2.251  -3.857  1.00  0.00     0.278 C 
ENDBRANCH   8  22
BRANCH  11  24
ATOM     24  O   UNL     1       6.066  -8.279  -5.773  1.00  0.00    -0.492 OA
ATOM     25  C   UNL     1       6.335  -8.887  -7.036  1.00  0.00     0.278 C 
ENDBRANCH  11  24
BRANCH   9  26
ATOM     26  O   UNL     1       6.997  -3.522  -5.847  1.00  0.00    -0.490 OA
ATOM     27  C   UNL     1       7.831  -3.006  -4.815  1.00  0.00     0.279 C 
ENDBRANCH   9  26
BRANCH  10  28
ATOM     28  O   UNL     1       7.777  -6.084  -6.407  1.00  0.00    -0.490 OA
ATOM     29  C   UNL     1       8.877  -6.417  -5.568  1.00  0.00     0.278 C 
ENDBRANCH  10  28
TORSDOF 7
ENDMDL
MODEL 8
REMARK VINA RESULT:    -5.401     11.964     14.805
REMARK INTER + INTRA:          -8.201
REMARK INTER:                  -7.657
REMARK INTRA:                  -0.544
REMARK UNBOUND:                -0.590
REMARK SMILES COc1ccc(-c2cc(=O)c3c(OC)c(OC)c(OC)c(OC)c3o2)cc1OC
REMARK SMILES IDX 7 1 8 2 9 3 10 4 11 5 24 6 25 7 21 8 18 9 15 10 12 11 6 12
REMARK SMILES IDX 3 13 27 14 4 15 26 16 5 17 2 18 1 19 28 20 29 21 22 22 23 23
REMARK SMILES IDX 13 24 14 25 19 26 20 27 16 28 17 29
REMARK H PARENT
REMARK Flexibility Score: inf
ROOT
ATOM      1  C   UNL     1      -3.454  -4.178   5.047  1.00  0.00     0.138 A 
ATOM      2  C   UNL     1      -4.032  -4.951   4.026  1.00  0.00     0.100 A 
ATOM      3  C   UNL     1      -3.424  -6.149   3.655  1.00  0.00     0.197 A 
ATOM      4  O   UNL     1      -3.945  -6.836   2.735  1.00  0.00    -0.289 OA
ATOM      5  C   UNL     1      -2.257  -6.578   4.318  1.00  0.00     0.115 A 
ATOM      6  C   UNL     1      -1.721  -5.734   5.319  1.00  0.00     0.188 A 
ATOM      7  O   UNL     1      -2.337  -4.602   5.633  1.00  0.00    -0.452 OA
ATOM      8  C   UNL     1      -0.553  -6.106   6.017  1.00  0.00     0.209 A 
ATOM      9  C   UNL     1       0.043  -7.350   5.756  1.00  0.00     0.211 A 
ATOM     10  C   UNL     1      -0.456  -8.173   4.740  1.00  0.00     0.208 A 
ATOM     11  C   UNL     1      -1.635  -7.820   4.052  1.00  0.00     0.179 A 
ENDROOT
BRANCH   1  12
ATOM     12  C   UNL     1      -4.069  -2.914   5.529  1.00  0.00     0.021 A 
ATOM     13  C   UNL     1      -5.320  -0.543   6.421  1.00  0.00     0.160 A 
ATOM     14  C   UNL     1      -3.958  -0.536   6.089  1.00  0.00     0.161 A 
ATOM     15  C   UNL     1      -6.054  -1.737   6.301  1.00  0.00     0.051 A 
ATOM     16  C   UNL     1      -3.330  -1.723   5.662  1.00  0.00     0.062 A 
ATOM     17  C   UNL     1      -5.433  -2.904   5.860  1.00  0.00     0.016 A 
BRANCH  13  18
ATOM     18  O   UNL     1      -5.911   0.648   6.869  1.00  0.00    -0.493 OA
ATOM     19  C   UNL     1      -7.016   0.705   7.771  1.00  0.00     0.278 C 
ENDBRANCH  13  18
BRANCH  14  20
ATOM     20  O   UNL     1      -3.269   0.682   6.190  1.00  0.00    -0.493 OA
ATOM     21  C   UNL     1      -2.162   1.067   5.377  1.00  0.00     0.278 C 
ENDBRANCH  14  20
ENDBRANCH   1  12
BRANCH   8  22
ATOM     22  O   UNL     1       0.051  -5.258   6.954  1.00  0.00    -0.490 OA
ATOM     23  C   UNL     1      -0.272  -5.263   8.345  1.00  0.00     0.278 C 
ENDBRANCH   8  22
BRANCH  11  24
ATOM     24  O   UNL     1      -2.213  -8.706   3.128  1.00  0.00    -0.492 OA
ATOM     25  C   UNL     1      -1.711  -8.889   1.804  1.00  0.00     0.278 C 
ENDBRANCH  11  24
BRANCH   9  26
ATOM     26  O   UNL     1       1.186  -7.758   6.452  1.00  0.00    -0.490 OA
ATOM     27  C   UNL     1       1.128  -8.613   7.589  1.00  0.00     0.279 C 
ENDBRANCH   9  26
BRANCH  10  28
ATOM     28  O   UNL     1       0.242  -9.348   4.435  1.00  0.00    -0.490 OA
ATOM     29  C   UNL     1       1.305  -9.368   3.491  1.00  0.00     0.278 C 
ENDBRANCH  10  28
TORSDOF 7
ENDMDL
MODEL 9
REMARK VINA RESULT:    -5.380      1.599      8.269
REMARK INTER + INTRA:          -8.172
REMARK INTER:                  -7.509
REMARK INTRA:                  -0.663
REMARK UNBOUND:                -0.590
REMARK SMILES COc1ccc(-c2cc(=O)c3c(OC)c(OC)c(OC)c(OC)c3o2)cc1OC
REMARK SMILES IDX 7 1 8 2 9 3 10 4 11 5 24 6 25 7 21 8 18 9 15 10 12 11 6 12
REMARK SMILES IDX 3 13 27 14 4 15 26 16 5 17 2 18 1 19 28 20 29 21 22 22 23 23
REMARK SMILES IDX 13 24 14 25 19 26 20 27 16 28 17 29
REMARK H PARENT
REMARK Flexibility Score: inf
ROOT
ATOM      1  C   UNL     1       6.517  -3.454  -5.515  1.00  0.00     0.138 A 
ATOM      2  C   UNL     1       7.135  -3.751  -6.741  1.00  0.00     0.100 A 
ATOM      3  C   UNL     1       6.612  -4.771  -7.535  1.00  0.00     0.197 A 
ATOM      4  O   UNL     1       7.175  -5.035  -8.633  1.00  0.00    -0.289 OA
ATOM      5  C   UNL     1       5.465  -5.472  -7.112  1.00  0.00     0.115 A 
ATOM      6  C   UNL     1       4.914  -5.133  -5.854  1.00  0.00     0.188 A 
ATOM      7  O   UNL     1       5.452  -4.155  -5.135  1.00  0.00    -0.452 OA
ATOM      8  C   UNL     1       3.769  -5.800  -5.373  1.00  0.00     0.209 A 
ATOM      9  C   UNL     1       3.141  -6.765  -6.176  1.00  0.00     0.211 A 
ATOM     10  C   UNL     1       3.702  -7.136  -7.403  1.00  0.00     0.208 A 
ATOM     11  C   UNL     1       4.834  -6.460  -7.903  1.00  0.00     0.179 A 
ENDROOT
BRANCH   1  12
ATOM     12  C   UNL     1       6.987  -2.352  -4.637  1.00  0.00     0.021 A 
ATOM     13  C   UNL     1       7.953  -0.245  -3.021  1.00  0.00     0.160 A 
ATOM     14  C   UNL     1       7.072  -1.193  -2.485  1.00  0.00     0.161 A 
ATOM     15  C   UNL     1       8.353  -0.356  -4.365  1.00  0.00     0.051 A 
ATOM     16  C   UNL     1       6.575  -2.233  -3.296  1.00  0.00     0.062 A 
ATOM     17  C   UNL     1       7.874  -1.397  -5.158  1.00  0.00     0.016 A 
BRANCH  13  18
ATOM     18  O   UNL     1       8.408   0.795  -2.197  1.00  0.00    -0.493 OA
ATOM     19  C   UNL     1       8.608   2.138  -2.636  1.00  0.00     0.278 C 
ENDBRANCH  13  18
BRANCH  14  20
ATOM     20  O   UNL     1       6.722  -1.067  -1.131  1.00  0.00    -0.493 OA
ATOM     21  C   UNL     1       7.031  -2.017  -0.114  1.00  0.00     0.278 C 
ENDBRANCH  14  20
ENDBRANCH   1  12
BRANCH   8  22
ATOM     22  O   UNL     1       3.246  -5.547  -4.098  1.00  0.00    -0.490 OA
ATOM     23  C   UNL     1       2.436  -4.413  -3.789  1.00  0.00     0.278 C 
ENDBRANCH   8  22
BRANCH  11  24
ATOM     24  O   UNL     1       5.318  -6.736  -9.192  1.00  0.00    -0.492 OA
ATOM     25  C   UNL     1       6.003  -7.944  -9.524  1.00  0.00     0.278 C 
ENDBRANCH  11  24
BRANCH   9  26
ATOM     26  O   UNL     1       1.987  -7.424  -5.737  1.00  0.00    -0.490 OA
ATOM     27  C   UNL     1       0.680  -6.894  -5.930  1.00  0.00     0.279 C 
ENDBRANCH   9  26
BRANCH  10  28
ATOM     28  O   UNL     1       3.108  -8.186  -8.114  1.00  0.00    -0.490 OA
ATOM     29  C   UNL     1       2.170  -7.951  -9.157  1.00  0.00     0.278 C 
ENDBRANCH  10  28
TORSDOF 7
ENDMDL
