MODEL 1
REMARK VINA RESULT:    -3.364      0.000      0.000
REMARK INTER + INTRA:          -4.525
REMARK INTER:                  -4.347
REMARK INTRA:                  -0.178
REMARK UNBOUND:                -0.178
REMARK SMILES C=CC(=O)CCCCC
REMARK SMILES IDX 6 1 7 2 8 3 9 4 5 5 3 6 4 7 2 8 1 9
REMARK H PARENT
REMARK Flexibility Score: inf
ROOT
ATOM      1  C   UNL     1    -121.000-100.384   2.627  1.00  0.00     0.008 C 
ENDROOT
BRANCH   1   2
ATOM      2  C   UNL     1    -122.346-100.411   3.368  1.00  0.00     0.000 C 
BRANCH   2   3
ATOM      3  C   UNL     1    -122.185-100.295   4.891  1.00  0.00    -0.003 C 
ATOM      4  C   UNL     1    -122.230 -98.836   5.338  1.00  0.00     0.004 C 
ENDBRANCH   2   3
ENDBRANCH   1   2
BRANCH   1   5
ATOM      5  C   UNL     1    -120.628-101.748   2.031  1.00  0.00     0.080 C 
BRANCH   5   6
ATOM      6  C   UNL     1    -119.277-101.684   1.380  1.00  0.00     0.155 C 
ATOM      7  O   UNL     1    -118.607-102.744   1.242  1.00  0.00    -0.295 OA
BRANCH   6   8
ATOM      8  C   UNL     1    -118.725-100.385   0.950  1.00  0.00     0.039 C 
ATOM      9  C   UNL     1    -117.421-100.113   0.991  1.00  0.00     0.012 C 
ENDBRANCH   6   8
ENDBRANCH   5   6
ENDBRANCH   1   5
TORSDOF 5
ENDMDL
MODEL 2
REMARK VINA RESULT:    -3.276      2.769      5.442
REMARK INTER + INTRA:          -4.412
REMARK INTER:                  -4.137
REMARK INTRA:                  -0.276
REMARK UNBOUND:                -0.178
REMARK SMILES C=CC(=O)CCCCC
REMARK SMILES IDX 6 1 7 2 8 3 9 4 5 5 3 6 4 7 2 8 1 9
REMARK H PARENT
REMARK Flexibility Score: inf
ROOT
ATOM      1  C   UNL     1    -121.925-100.782   3.410  1.00  0.00     0.008 C 
ENDROOT
BRANCH   1   2
ATOM      2  C   UNL     1    -121.058 -99.752   2.670  1.00  0.00     0.000 C 
BRANCH   2   3
ATOM      3  C   UNL     1    -120.380-100.337   1.423  1.00  0.00    -0.003 C 
ATOM      4  C   UNL     1    -119.955-101.784   1.657  1.00  0.00     0.004 C 
ENDBRANCH   2   3
ENDBRANCH   1   2
BRANCH   1   5
ATOM      5  C   UNL     1    -122.097-100.446   4.898  1.00  0.00     0.080 C 
BRANCH   5   6
ATOM      6  C   UNL     1    -122.769 -99.114   5.061  1.00  0.00     0.155 C 
ATOM      7  O   UNL     1    -122.118 -98.151   5.551  1.00  0.00    -0.295 OA
BRANCH   6   8
ATOM      8  C   UNL     1    -124.188 -98.952   4.691  1.00  0.00     0.039 C 
ATOM      9  C   UNL     1    -125.146 -99.743   5.171  1.00  0.00     0.012 C 
ENDBRANCH   6   8
ENDBRANCH   5   6
ENDBRANCH   1   5
TORSDOF 5
ENDMDL
MODEL 3
REMARK VINA RESULT:    -3.189      1.652      2.213
REMARK INTER + INTRA:          -4.299
REMARK INTER:                  -4.029
REMARK INTRA:                  -0.270
REMARK UNBOUND:                -0.178
REMARK SMILES C=CC(=O)CCCCC
REMARK SMILES IDX 6 1 7 2 8 3 9 4 5 5 3 6 4 7 2 8 1 9
REMARK H PARENT
REMARK Flexibility Score: inf
ROOT
ATOM      1  C   UNL     1    -122.478-100.628   2.390  1.00  0.00     0.008 C 
ENDROOT
BRANCH   1   2
ATOM      2  C   UNL     1    -123.208-100.269   3.694  1.00  0.00     0.000 C 
BRANCH   2   3
ATOM      3  C   UNL     1    -122.263-100.204   4.902  1.00  0.00    -0.003 C 
ATOM      4  C   UNL     1    -122.195 -98.790   5.471  1.00  0.00     0.004 C 
ENDBRANCH   2   3
ENDBRANCH   1   2
BRANCH   1   5
ATOM      5  C   UNL     1    -121.004-100.990   2.619  1.00  0.00     0.080 C 
BRANCH   5   6
ATOM      6  C   UNL     1    -120.559-102.026   1.629  1.00  0.00     0.155 C 
ATOM      7  O   UNL     1    -119.342-102.356   1.585  1.00  0.00    -0.295 OA
BRANCH   6   8
ATOM      8  C   UNL     1    -121.531-102.615   0.688  1.00  0.00     0.039 C 
ATOM      9  C   UNL     1    -121.315-102.664  -0.626  1.00  0.00     0.012 C 
ENDBRANCH   6   8
ENDBRANCH   5   6
ENDBRANCH   1   5
TORSDOF 5
ENDMDL
MODEL 4
REMARK VINA RESULT:    -3.156     12.769     13.507
REMARK INTER + INTRA:          -4.257
REMARK INTER:                  -4.020
REMARK INTRA:                  -0.237
REMARK UNBOUND:                -0.178
REMARK SMILES C=CC(=O)CCCCC
REMARK SMILES IDX 6 1 7 2 8 3 9 4 5 5 3 6 4 7 2 8 1 9
REMARK H PARENT
REMARK Flexibility Score: inf
ROOT
ATOM      1  C   UNL     1    -115.700 -96.864  14.608  1.00  0.00     0.008 C 
ENDROOT
BRANCH   1   2
ATOM      2  C   UNL     1    -116.409 -96.336  15.865  1.00  0.00     0.000 C 
BRANCH   2   3
ATOM      3  C   UNL     1    -117.145 -95.012  15.616  1.00  0.00    -0.003 C 
ATOM      4  C   UNL     1    -117.775 -94.987  14.226  1.00  0.00     0.004 C 
ENDBRANCH   2   3
ENDBRANCH   1   2
BRANCH   1   5
ATOM      5  C   UNL     1    -116.111 -98.300  14.257  1.00  0.00     0.080 C 
BRANCH   5   6
ATOM      6  C   UNL     1    -115.074 -99.274  14.735  1.00  0.00     0.155 C 
ATOM      7  O   UNL     1    -115.362-100.077  15.663  1.00  0.00    -0.295 OA
BRANCH   6   8
ATOM      8  C   UNL     1    -113.719 -99.255  14.151  1.00  0.00     0.039 C 
ATOM      9  C   UNL     1    -113.465 -99.697  12.919  1.00  0.00     0.012 C 
ENDBRANCH   6   8
ENDBRANCH   5   6
ENDBRANCH   1   5
TORSDOF 5
ENDMDL
MODEL 5
REMARK VINA RESULT:    -3.153     13.075     14.543
REMARK INTER + INTRA:          -4.253
REMARK INTER:                  -3.930
REMARK INTRA:                  -0.322
REMARK UNBOUND:                -0.178
REMARK SMILES C=CC(=O)CCCCC
REMARK SMILES IDX 6 1 7 2 8 3 9 4 5 5 3 6 4 7 2 8 1 9
REMARK H PARENT
REMARK Flexibility Score: inf
ROOT
ATOM      1  C   UNL     1    -115.231 -96.136  15.243  1.00  0.00     0.008 C 
ENDROOT
BRANCH   1   2
ATOM      2  C   UNL     1    -116.006 -97.441  15.482  1.00  0.00     0.000 C 
BRANCH   2   3
ATOM      3  C   UNL     1    -116.040 -98.344  14.241  1.00  0.00    -0.003 C 
ATOM      4  C   UNL     1    -114.654 -98.900  13.927  1.00  0.00     0.004 C 
ENDBRANCH   2   3
ENDBRANCH   1   2
BRANCH   1   5
ATOM      5  C   UNL     1    -115.904 -95.233  14.200  1.00  0.00     0.080 C 
BRANCH   5   6
ATOM      6  C   UNL     1    -117.106 -94.556  14.790  1.00  0.00     0.155 C 
ATOM      7  O   UNL     1    -118.237 -94.734  14.261  1.00  0.00    -0.295 OA
BRANCH   6   8
ATOM      8  C   UNL     1    -116.951 -93.657  15.950  1.00  0.00     0.039 C 
ATOM      9  C   UNL     1    -116.106 -92.627  15.949  1.00  0.00     0.012 C 
ENDBRANCH   6   8
ENDBRANCH   5   6
ENDBRANCH   1   5
TORSDOF 5
ENDMDL
MODEL 6
REMARK VINA RESULT:    -3.106      1.931      2.069
REMARK INTER + INTRA:          -4.192
REMARK INTER:                  -3.965
REMARK INTRA:                  -0.228
REMARK UNBOUND:                -0.178
REMARK SMILES C=CC(=O)CCCCC
REMARK SMILES IDX 6 1 7 2 8 3 9 4 5 5 3 6 4 7 2 8 1 9
REMARK H PARENT
REMARK Flexibility Score: inf
ROOT
ATOM      1  C   UNL     1    -121.952-100.503   2.971  1.00  0.00     0.008 C 
ENDROOT
BRANCH   1   2
ATOM      2  C   UNL     1    -121.732-100.847   4.452  1.00  0.00     0.000 C 
BRANCH   2   3
ATOM      3  C   UNL     1    -122.595 -99.994   5.392  1.00  0.00    -0.003 C 
ATOM      4  C   UNL     1    -122.102 -98.550   5.432  1.00  0.00     0.004 C 
ENDBRANCH   2   3
ENDBRANCH   1   2
BRANCH   1   5
ATOM      5  C   UNL     1    -120.676-100.658   2.133  1.00  0.00     0.080 C 
BRANCH   5   6
ATOM      6  C   UNL     1    -120.150 -99.312   1.726  1.00  0.00     0.155 C 
ATOM      7  O   UNL     1    -120.710 -98.271   2.166  1.00  0.00    -0.295 OA
BRANCH   6   8
ATOM      8  C   UNL     1    -119.017 -99.215   0.785  1.00  0.00     0.039 C 
ATOM      9  C   UNL     1    -117.754 -99.402   1.166  1.00  0.00     0.012 C 
ENDBRANCH   6   8
ENDBRANCH   5   6
ENDBRANCH   1   5
TORSDOF 5
ENDMDL
MODEL 7
REMARK VINA RESULT:    -3.095      2.790      4.848
REMARK INTER + INTRA:          -4.178
REMARK INTER:                  -3.828
REMARK INTRA:                  -0.350
REMARK UNBOUND:                -0.178
REMARK SMILES C=CC(=O)CCCCC
REMARK SMILES IDX 6 1 7 2 8 3 9 4 5 5 3 6 4 7 2 8 1 9
REMARK H PARENT
REMARK Flexibility Score: inf
ROOT
ATOM      1  C   UNL     1    -121.287-100.855   2.862  1.00  0.00     0.008 C 
ENDROOT
BRANCH   1   2
ATOM      2  C   UNL     1    -120.463-100.200   1.741  1.00  0.00     0.000 C 
BRANCH   2   3
ATOM      3  C   UNL     1    -120.369 -98.675   1.891  1.00  0.00    -0.003 C 
ATOM      4  C   UNL     1    -119.103 -98.136   1.231  1.00  0.00     0.004 C 
ENDBRANCH   2   3
ENDBRANCH   1   2
BRANCH   1   5
ATOM      5  C   UNL     1    -122.789-100.563   2.737  1.00  0.00     0.080 C 
BRANCH   5   6
ATOM      6  C   UNL     1    -123.340-100.086   4.049  1.00  0.00     0.155 C 
ATOM      7  O   UNL     1    -124.576 -99.858   4.153  1.00  0.00    -0.295 OA
BRANCH   6   8
ATOM      8  C   UNL     1    -122.433 -99.846   5.188  1.00  0.00     0.039 C 
ATOM      9  C   UNL     1    -122.124 -98.620   5.610  1.00  0.00     0.012 C 
ENDBRANCH   6   8
ENDBRANCH   5   6
ENDBRANCH   1   5
TORSDOF 5
ENDMDL
MODEL 8
REMARK VINA RESULT:    -3.049      2.432      4.317
REMARK INTER + INTRA:          -4.118
REMARK INTER:                  -3.554
REMARK INTRA:                  -0.565
REMARK UNBOUND:                -0.178
REMARK SMILES C=CC(=O)CCCCC
REMARK SMILES IDX 6 1 7 2 8 3 9 4 5 5 3 6 4 7 2 8 1 9
REMARK H PARENT
REMARK Flexibility Score: inf
ROOT
ATOM      1  C   UNL     1    -116.856-100.915   0.458  1.00  0.00     0.008 C 
ENDROOT
BRANCH   1   2
ATOM      2  C   UNL     1    -116.797 -99.600   1.250  1.00  0.00     0.000 C 
BRANCH   2   3
ATOM      3  C   UNL     1    -118.129 -98.837   1.230  1.00  0.00    -0.003 C 
ATOM      4  C   UNL     1    -118.665 -98.705  -0.193  1.00  0.00     0.004 C 
ENDBRANCH   2   3
ENDBRANCH   1   2
BRANCH   1   5
ATOM      5  C   UNL     1    -117.663-102.003   1.180  1.00  0.00     0.080 C 
BRANCH   5   6
ATOM      6  C   UNL     1    -118.853-102.405   0.359  1.00  0.00     0.155 C 
ATOM      7  O   UNL     1    -118.680-102.812  -0.822  1.00  0.00    -0.295 OA
BRANCH   6   8
ATOM      8  C   UNL     1    -120.213-102.279   0.919  1.00  0.00     0.039 C 
ATOM      9  C   UNL     1    -120.450-101.711   2.101  1.00  0.00     0.012 C 
ENDBRANCH   6   8
ENDBRANCH   5   6
ENDBRANCH   1   5
TORSDOF 5
ENDMDL
MODEL 9
REMARK VINA RESULT:    -3.002      3.543      5.456
REMARK INTER + INTRA:          -4.058
REMARK INTER:                  -3.428
REMARK INTRA:                  -0.629
REMARK UNBOUND:                -0.178
REMARK SMILES C=CC(=O)CCCCC
REMARK SMILES IDX 6 1 7 2 8 3 9 4 5 5 3 6 4 7 2 8 1 9
REMARK H PARENT
REMARK Flexibility Score: inf
ROOT
ATOM      1  C   UNL     1    -124.556 -99.685   5.013  1.00  0.00     0.008 C 
ENDROOT
BRANCH   1   2
ATOM      2  C   UNL     1    -123.073 -99.284   5.053  1.00  0.00     0.000 C 
BRANCH   2   3
ATOM      3  C   UNL     1    -122.149-100.385   4.513  1.00  0.00    -0.003 C 
ATOM      4  C   UNL     1    -121.555 -99.990   3.164  1.00  0.00     0.004 C 
ENDBRANCH   2   3
ENDBRANCH   1   2
BRANCH   1   5
ATOM      5  C   UNL     1    -125.370 -98.839   4.025  1.00  0.00     0.080 C 
BRANCH   5   6
ATOM      6  C   UNL     1    -125.262 -99.404   2.639  1.00  0.00     0.155 C 
ATOM      7  O   UNL     1    -125.065 -98.624   1.667  1.00  0.00    -0.295 OA
BRANCH   6   8
ATOM      8  C   UNL     1    -125.431-100.853   2.417  1.00  0.00     0.039 C 
ATOM      9  C   UNL     1    -124.598-101.562   1.656  1.00  0.00     0.012 C 
ENDBRANCH   6   8
ENDBRANCH   5   6
ENDBRANCH   1   5
TORSDOF 5
ENDMDL
