MODEL 1
REMARK VINA RESULT:    -4.863      0.000      0.000
REMARK INTER + INTRA:          -6.786
REMARK INTER:                  -6.569
REMARK INTRA:                  -0.218
REMARK UNBOUND:                -0.218
REMARK SMILES CCCCCCCC(=O)[O-]
REMARK SMILES IDX 5 1 6 2 7 3 8 4 9 5 10 6 4 7 3 8 2 9 1 10
REMARK H PARENT
REMARK Flexibility Score: inf
ROOT
ATOM      1  C   UNL     1      19.744  23.761  41.720  1.00  0.00     0.000 C 
ENDROOT
BRANCH   1   2
ATOM      2  C   UNL     1      20.400  22.813  40.705  1.00  0.00     0.006 C 
BRANCH   2   3
ATOM      3  C   UNL     1      21.140  23.573  39.595  1.00  0.00     0.053 C 
BRANCH   3   4
ATOM      4  C   UNL     1      22.626  23.442  39.728  1.00  0.00     0.041 C 
ATOM      5  O   UNL     1      23.387  23.951  38.864  1.00  0.00    -0.550 OA
ATOM      6  O   UNL     1      23.170  22.730  40.790  1.00  0.00    -0.550 OA
ENDBRANCH   3   4
ENDBRANCH   2   3
ENDBRANCH   1   2
BRANCH   1   7
ATOM      7  C   UNL     1      19.029  22.974  42.824  1.00  0.00     0.000 C 
BRANCH   7   8
ATOM      8  C   UNL     1      18.359  21.716  42.258  1.00  0.00    -0.000 C 
BRANCH   8   9
ATOM      9  C   UNL     1      17.609  20.952  43.355  1.00  0.00    -0.003 C 
ATOM     10  C   UNL     1      17.531  19.462  43.035  1.00  0.00     0.004 C 
ENDBRANCH   8   9
ENDBRANCH   7   8
ENDBRANCH   1   7
TORSDOF 6
ENDMDL
MODEL 2
REMARK VINA RESULT:    -4.699      3.405      5.805
REMARK INTER + INTRA:          -6.565
REMARK INTER:                  -6.420
REMARK INTRA:                  -0.144
REMARK UNBOUND:                -0.218
REMARK SMILES CCCCCCCC(=O)[O-]
REMARK SMILES IDX 5 1 6 2 7 3 8 4 9 5 10 6 4 7 3 8 2 9 1 10
REMARK H PARENT
REMARK Flexibility Score: inf
ROOT
ATOM      1  C   UNL     1      20.081  22.045  40.438  1.00  0.00     0.000 C 
ENDROOT
BRANCH   1   2
ATOM      2  C   UNL     1      18.806  22.025  41.294  1.00  0.00     0.006 C 
BRANCH   2   3
ATOM      3  C   UNL     1      18.172  20.629  41.362  1.00  0.00     0.053 C 
BRANCH   3   4
ATOM      4  C   UNL     1      17.754  20.276  42.756  1.00  0.00     0.041 C 
ATOM      5  O   UNL     1      17.610  21.179  43.622  1.00  0.00    -0.550 OA
ATOM      6  O   UNL     1      17.553  18.947  43.107  1.00  0.00    -0.550 OA
ENDBRANCH   3   4
ENDBRANCH   2   3
ENDBRANCH   1   2
BRANCH   1   7
ATOM      7  C   UNL     1      20.608  23.475  40.271  1.00  0.00     0.000 C 
BRANCH   7   8
ATOM      8  C   UNL     1      21.916  23.489  39.471  1.00  0.00    -0.000 C 
BRANCH   8   9
ATOM      9  C   UNL     1      23.098  23.049  40.341  1.00  0.00    -0.003 C 
ATOM     10  C   UNL     1      24.427  23.294  39.632  1.00  0.00     0.004 C 
ENDBRANCH   8   9
ENDBRANCH   7   8
ENDBRANCH   1   7
TORSDOF 6
ENDMDL
MODEL 3
REMARK VINA RESULT:    -4.252     13.643     14.710
REMARK INTER + INTRA:          -5.961
REMARK INTER:                  -5.537
REMARK INTRA:                  -0.424
REMARK UNBOUND:                -0.218
REMARK SMILES CCCCCCCC(=O)[O-]
REMARK SMILES IDX 5 1 6 2 7 3 8 4 9 5 10 6 4 7 3 8 2 9 1 10
REMARK H PARENT
REMARK Flexibility Score: inf
ROOT
ATOM      1  C   UNL     1      12.398  13.745  34.900  1.00  0.00     0.000 C 
ENDROOT
BRANCH   1   2
ATOM      2  C   UNL     1      12.858  13.191  36.257  1.00  0.00     0.006 C 
BRANCH   2   3
ATOM      3  C   UNL     1      12.165  11.867  36.610  1.00  0.00     0.053 C 
BRANCH   3   4
ATOM      4  C   UNL     1      11.535  11.916  37.968  1.00  0.00     0.041 C 
ATOM      5  O   UNL     1      10.578  12.703  38.194  1.00  0.00    -0.550 OA
ATOM      6  O   UNL     1      12.024  11.115  38.992  1.00  0.00    -0.550 OA
ENDBRANCH   3   4
ENDBRANCH   2   3
ENDBRANCH   1   2
BRANCH   1   7
ATOM      7  C   UNL     1      13.124  13.045  33.746  1.00  0.00     0.000 C 
BRANCH   7   8
ATOM      8  C   UNL     1      14.627  12.934  34.027  1.00  0.00    -0.000 C 
BRANCH   8   9
ATOM      9  C   UNL     1      15.173  11.576  33.572  1.00  0.00    -0.003 C 
ATOM     10  C   UNL     1      14.086  10.743  32.897  1.00  0.00     0.004 C 
ENDBRANCH   8   9
ENDBRANCH   7   8
ENDBRANCH   1   7
TORSDOF 6
ENDMDL
MODEL 4
REMARK VINA RESULT:    -4.233     13.390     14.365
REMARK INTER + INTRA:          -5.935
REMARK INTER:                  -5.378
REMARK INTRA:                  -0.557
REMARK UNBOUND:                -0.218
REMARK SMILES CCCCCCCC(=O)[O-]
REMARK SMILES IDX 5 1 6 2 7 3 8 4 9 5 10 6 4 7 3 8 2 9 1 10
REMARK H PARENT
REMARK Flexibility Score: inf
ROOT
ATOM      1  C   UNL     1      12.671  13.740  34.720  1.00  0.00     0.000 C 
ENDROOT
BRANCH   1   2
ATOM      2  C   UNL     1      13.807  13.194  33.843  1.00  0.00     0.006 C 
BRANCH   2   3
ATOM      3  C   UNL     1      13.359  12.000  32.987  1.00  0.00     0.053 C 
BRANCH   3   4
ATOM      4  C   UNL     1      14.375  10.900  32.995  1.00  0.00     0.041 C 
ATOM      5  O   UNL     1      15.572  11.140  32.684  1.00  0.00    -0.550 OA
ATOM      6  O   UNL     1      13.994   9.603  33.314  1.00  0.00    -0.550 OA
ENDBRANCH   3   4
ENDBRANCH   2   3
ENDBRANCH   1   2
BRANCH   1   7
ATOM      7  C   UNL     1      12.355  12.779  35.871  1.00  0.00     0.000 C 
BRANCH   7   8
ATOM      8  C   UNL     1      13.528  12.695  36.856  1.00  0.00    -0.000 C 
BRANCH   8   9
ATOM      9  C   UNL     1      13.956  11.240  37.079  1.00  0.00    -0.003 C 
ATOM     10  C   UNL     1      15.363  10.991  36.544  1.00  0.00     0.004 C 
ENDBRANCH   8   9
ENDBRANCH   7   8
ENDBRANCH   1   7
TORSDOF 6
ENDMDL
MODEL 5
REMARK VINA RESULT:    -4.226     13.127     14.557
REMARK INTER + INTRA:          -5.926
REMARK INTER:                  -5.353
REMARK INTRA:                  -0.573
REMARK UNBOUND:                -0.218
REMARK SMILES CCCCCCCC(=O)[O-]
REMARK SMILES IDX 5 1 6 2 7 3 8 4 9 5 10 6 4 7 3 8 2 9 1 10
REMARK H PARENT
REMARK Flexibility Score: inf
ROOT
ATOM      1  C   UNL     1      12.520  13.348  34.393  1.00  0.00     0.000 C 
ENDROOT
BRANCH   1   2
ATOM      2  C   UNL     1      13.160  14.013  35.621  1.00  0.00     0.006 C 
BRANCH   2   3
ATOM      3  C   UNL     1      13.858  12.997  36.535  1.00  0.00     0.053 C 
BRANCH   3   4
ATOM      4  C   UNL     1      12.903  11.960  37.042  1.00  0.00     0.041 C 
ATOM      5  O   UNL     1      12.007  12.273  37.870  1.00  0.00    -0.550 OA
ATOM      6  O   UNL     1      13.023  10.640  36.624  1.00  0.00    -0.550 OA
ENDBRANCH   3   4
ENDBRANCH   2   3
ENDBRANCH   1   2
BRANCH   1   7
ATOM      7  C   UNL     1      13.587  12.938  33.372  1.00  0.00     0.000 C 
BRANCH   7   8
ATOM      8  C   UNL     1      13.449  11.458  32.994  1.00  0.00    -0.000 C 
BRANCH   8   9
ATOM      9  C   UNL     1      14.817  10.767  32.970  1.00  0.00    -0.003 C 
ATOM     10  C   UNL     1      15.908  11.686  33.512  1.00  0.00     0.004 C 
ENDBRANCH   8   9
ENDBRANCH   7   8
ENDBRANCH   1   7
TORSDOF 6
ENDMDL
MODEL 6
REMARK VINA RESULT:    -4.222     13.432     14.355
REMARK INTER + INTRA:          -5.921
REMARK INTER:                  -5.359
REMARK INTRA:                  -0.562
REMARK UNBOUND:                -0.218
REMARK SMILES CCCCCCCC(=O)[O-]
REMARK SMILES IDX 5 1 6 2 7 3 8 4 9 5 10 6 4 7 3 8 2 9 1 10
REMARK H PARENT
REMARK Flexibility Score: inf
ROOT
ATOM      1  C   UNL     1      15.571  12.283  35.754  1.00  0.00     0.000 C 
ENDROOT
BRANCH   1   2
ATOM      2  C   UNL     1      15.991  11.162  34.791  1.00  0.00     0.006 C 
BRANCH   2   3
ATOM      3  C   UNL     1      15.570  11.451  33.344  1.00  0.00     0.053 C 
BRANCH   3   4
ATOM      4  C   UNL     1      14.262  10.804  33.007  1.00  0.00     0.041 C 
ATOM      5  O   UNL     1      14.005   9.642  33.419  1.00  0.00    -0.550 OA
ATOM      6  O   UNL     1      13.339  11.472  32.212  1.00  0.00    -0.550 OA
ENDBRANCH   3   4
ENDBRANCH   2   3
ENDBRANCH   1   2
BRANCH   1   7
ATOM      7  C   UNL     1      14.483  11.799  36.719  1.00  0.00     0.000 C 
BRANCH   7   8
ATOM      8  C   UNL     1      13.276  12.744  36.706  1.00  0.00    -0.000 C 
BRANCH   8   9
ATOM      9  C   UNL     1      13.471  13.871  35.685  1.00  0.00    -0.003 C 
ATOM     10  C   UNL     1      12.357  13.868  34.641  1.00  0.00     0.004 C 
ENDBRANCH   8   9
ENDBRANCH   7   8
ENDBRANCH   1   7
TORSDOF 6
ENDMDL
MODEL 7
REMARK VINA RESULT:    -4.217     12.934     14.263
REMARK INTER + INTRA:          -5.914
REMARK INTER:                  -5.341
REMARK INTRA:                  -0.574
REMARK UNBOUND:                -0.218
REMARK SMILES CCCCCCCC(=O)[O-]
REMARK SMILES IDX 5 1 6 2 7 3 8 4 9 5 10 6 4 7 3 8 2 9 1 10
REMARK H PARENT
REMARK Flexibility Score: inf
ROOT
ATOM      1  C   UNL     1      14.912  13.274  35.404  1.00  0.00     0.000 C 
ENDROOT
BRANCH   1   2
ATOM      2  C   UNL     1      13.625  14.097  35.238  1.00  0.00     0.006 C 
BRANCH   2   3
ATOM      3  C   UNL     1      12.381  13.208  35.097  1.00  0.00     0.053 C 
BRANCH   3   4
ATOM      4  C   UNL     1      12.307  12.180  36.184  1.00  0.00     0.041 C 
ATOM      5  O   UNL     1      12.339  10.954  35.899  1.00  0.00    -0.550 OA
ATOM      6  O   UNL     1      12.172  12.576  37.508  1.00  0.00    -0.550 OA
ENDBRANCH   3   4
ENDBRANCH   2   3
ENDBRANCH   1   2
BRANCH   1   7
ATOM      7  C   UNL     1      15.872  13.515  34.234  1.00  0.00     0.000 C 
BRANCH   7   8
ATOM      8  C   UNL     1      16.301  12.191  33.591  1.00  0.00    -0.000 C 
BRANCH   8   9
ATOM      9  C   UNL     1      15.367  11.049  34.010  1.00  0.00    -0.003 C 
ATOM     10  C   UNL     1      14.447  10.641  32.862  1.00  0.00     0.004 C 
ENDBRANCH   8   9
ENDBRANCH   7   8
ENDBRANCH   1   7
TORSDOF 6
ENDMDL
MODEL 8
REMARK VINA RESULT:    -4.205     13.375     14.203
REMARK INTER + INTRA:          -5.897
REMARK INTER:                  -5.525
REMARK INTRA:                  -0.372
REMARK UNBOUND:                -0.218
REMARK SMILES CCCCCCCC(=O)[O-]
REMARK SMILES IDX 5 1 6 2 7 3 8 4 9 5 10 6 4 7 3 8 2 9 1 10
REMARK H PARENT
REMARK Flexibility Score: inf
ROOT
ATOM      1  C   UNL     1      14.838  13.374  35.275  1.00  0.00     0.000 C 
ENDROOT
BRANCH   1   2
ATOM      2  C   UNL     1      15.264  13.013  33.844  1.00  0.00     0.006 C 
BRANCH   2   3
ATOM      3  C   UNL     1      15.475  11.504  33.662  1.00  0.00     0.053 C 
BRANCH   3   4
ATOM      4  C   UNL     1      14.247  10.832  33.129  1.00  0.00     0.041 C 
ATOM      5  O   UNL     1      14.014   9.626  33.405  1.00  0.00    -0.550 OA
ATOM      6  O   UNL     1      13.377  11.530  32.301  1.00  0.00    -0.550 OA
ENDBRANCH   3   4
ENDBRANCH   2   3
ENDBRANCH   1   2
BRANCH   1   7
ATOM      7  C   UNL     1      13.487  14.098  35.280  1.00  0.00     0.000 C 
BRANCH   7   8
ATOM      8  C   UNL     1      12.352  13.142  35.668  1.00  0.00    -0.000 C 
BRANCH   8   9
ATOM      9  C   UNL     1      12.579  12.559  37.067  1.00  0.00    -0.003 C 
ATOM     10  C   UNL     1      11.255  12.344  37.796  1.00  0.00     0.004 C 
ENDBRANCH   8   9
ENDBRANCH   7   8
ENDBRANCH   1   7
TORSDOF 6
ENDMDL
MODEL 9
REMARK VINA RESULT:    -4.168     12.018     13.473
REMARK INTER + INTRA:          -5.848
REMARK INTER:                  -5.238
REMARK INTRA:                  -0.611
REMARK UNBOUND:                -0.218
REMARK SMILES CCCCCCCC(=O)[O-]
REMARK SMILES IDX 5 1 6 2 7 3 8 4 9 5 10 6 4 7 3 8 2 9 1 10
REMARK H PARENT
REMARK Flexibility Score: inf
ROOT
ATOM      1  C   UNL     1      14.484  10.964  33.061  1.00  0.00     0.000 C 
ENDROOT
BRANCH   1   2
ATOM      2  C   UNL     1      15.908  11.520  33.212  1.00  0.00     0.006 C 
BRANCH   2   3
ATOM      3  C   UNL     1      16.264  11.818  34.675  1.00  0.00     0.053 C 
BRANCH   3   4
ATOM      4  C   UNL     1      16.620  13.258  34.877  1.00  0.00     0.041 C 
ATOM      5  O   UNL     1      17.240  13.619  35.912  1.00  0.00    -0.550 OA
ATOM      6  O   UNL     1      16.240  14.208  33.937  1.00  0.00    -0.550 OA
ENDBRANCH   3   4
ENDBRANCH   2   3
ENDBRANCH   1   2
BRANCH   1   7
ATOM      7  C   UNL     1      13.553  11.540  34.134  1.00  0.00     0.000 C 
BRANCH   7   8
ATOM      8  C   UNL     1      12.884  12.831  33.647  1.00  0.00    -0.000 C 
BRANCH   8   9
ATOM      9  C   UNL     1      12.709  13.827  34.799  1.00  0.00    -0.003 C 
ATOM     10  C   UNL     1      13.034  13.179  36.143  1.00  0.00     0.004 C 
ENDBRANCH   8   9
ENDBRANCH   7   8
ENDBRANCH   1   7
TORSDOF 6
ENDMDL
