MODEL 1
REMARK VINA RESULT:    -5.902      0.000      0.000
REMARK INTER + INTRA:          -9.632
REMARK INTER:                  -9.007
REMARK INTRA:                  -0.625
REMARK UNBOUND:                -0.625
REMARK SMILES OC[C@@H]1O[C@H](O[C@]2(CO)O[C@@H](CO)[C@H](O)[C@H]2O)[C@H](O)[C@@H](O)[C@@H]1O
REMARK SMILES IDX 6 1 5 2 3 3 22 4 4 5 20 6 18 7 2 8 1 9 23 11 21 13 19 15
REMARK SMILES IDX 7 17 16 18 10 19 14 20 11 21 8 22 9 23 17 25 15 27 12 29
REMARK SMILES IDX 13 30
REMARK H PARENT 1 10 23 12 21 14 19 16 9 24 17 26 15 28 13 31
REMARK Flexibility Score: inf
ROOT
ATOM      1  O   UNL     1      10.553  -2.780  39.457  1.00  0.00    -0.313 OA
ENDROOT
BRANCH   1   2
ATOM      2  C   UNL     1       9.979  -3.899  38.792  1.00  0.00     0.285 C 
ATOM      3  C   UNL     1       8.999  -4.645  36.797  1.00  0.00     0.178 C 
ATOM      4  C   UNL     1       9.247  -6.096  37.337  1.00  0.00     0.177 C 
ATOM      5  O   UNL     1       9.849  -3.674  37.404  1.00  0.00    -0.341 OA
ATOM      6  C   UNL     1      10.661  -6.212  37.930  1.00  0.00     0.179 C 
ATOM      7  C   UNL     1      10.899  -5.123  39.011  1.00  0.00     0.202 C 
BRANCH   3   8
ATOM      8  C   UNL     1       9.189  -4.536  35.275  1.00  0.00     0.191 C 
BRANCH   8   9
ATOM      9  O   UNL     1      10.376  -5.181  34.896  1.00  0.00    -0.394 OA
ATOM     10  H   UNL     1      10.284  -6.134  35.167  1.00  0.00     0.210 HD
ENDBRANCH   8   9
ENDBRANCH   3   8
BRANCH   4  11
ATOM     11  O   UNL     1       9.061  -7.066  36.332  1.00  0.00    -0.387 OA
ATOM     12  H   UNL     1       9.850  -7.669  36.355  1.00  0.00     0.211 HD
ENDBRANCH   4  11
BRANCH   6  13
ATOM     13  O   UNL     1      10.826  -7.488  38.494  1.00  0.00    -0.387 OA
ATOM     14  H   UNL     1       9.934  -7.925  38.484  1.00  0.00     0.211 HD
ENDBRANCH   6  13
BRANCH   7  15
ATOM     15  O   UNL     1      12.248  -4.718  38.979  1.00  0.00    -0.385 OA
ATOM     16  H   UNL     1      12.274  -3.778  39.295  1.00  0.00     0.211 HD
ENDBRANCH   7  15
ENDBRANCH   1   2
BRANCH   1  17
ATOM     17  C   UNL     1       9.667  -1.800  40.014  1.00  0.00     0.224 C 
ATOM     18  C   UNL     1       8.484  -2.338  40.874  1.00  0.00     0.208 C 
ATOM     19  O   UNL     1      10.459  -1.010  40.885  1.00  0.00    -0.337 OA
ATOM     20  C   UNL     1       8.305  -1.253  41.896  1.00  0.00     0.180 C 
ATOM     21  C   UNL     1       9.737  -0.762  42.076  1.00  0.00     0.179 C 
BRANCH  17  22
ATOM     22  C   UNL     1       9.211  -0.839  38.883  1.00  0.00     0.225 C 
BRANCH  22  23
ATOM     23  O   UNL     1      10.130   0.194  38.663  1.00  0.00    -0.391 OA
ATOM     24  H   UNL     1      11.001  -0.238  38.485  1.00  0.00     0.210 HD
ENDBRANCH  22  23
ENDBRANCH  17  22
BRANCH  18  25
ATOM     25  O   UNL     1       7.305  -2.528  40.137  1.00  0.00    -0.385 OA
ATOM     26  H   UNL     1       6.712  -3.101  40.694  1.00  0.00     0.211 HD
ENDBRANCH  18  25
BRANCH  20  27
ATOM     27  O   UNL     1       7.769  -1.767  43.090  1.00  0.00    -0.387 OA
ATOM     28  H   UNL     1       6.820  -1.994  42.893  1.00  0.00     0.211 HD
ENDBRANCH  20  27
BRANCH  21  29
ATOM     29  C   UNL     1       9.791   0.734  42.417  1.00  0.00     0.191 C 
BRANCH  29  30
ATOM     30  O   UNL     1      11.074   1.243  42.194  1.00  0.00    -0.394 OA
ATOM     31  H   UNL     1      11.437   1.514  43.077  1.00  0.00     0.210 HD
ENDBRANCH  29  30
ENDBRANCH  21  29
ENDBRANCH   1  17
TORSDOF 13
ENDMDL
MODEL 2
REMARK VINA RESULT:    -5.791     11.634     15.582
REMARK INTER + INTRA:          -9.464
REMARK INTER:                  -8.716
REMARK INTRA:                  -0.747
REMARK UNBOUND:                -0.625
REMARK SMILES OC[C@@H]1O[C@H](O[C@]2(CO)O[C@@H](CO)[C@H](O)[C@H]2O)[C@H](O)[C@@H](O)[C@@H]1O
REMARK SMILES IDX 6 1 5 2 3 3 22 4 4 5 20 6 18 7 2 8 1 9 23 11 21 13 19 15
REMARK SMILES IDX 7 17 16 18 10 19 14 20 11 21 8 22 9 23 17 25 15 27 12 29
REMARK SMILES IDX 13 30
REMARK H PARENT 1 10 23 12 21 14 19 16 9 24 17 26 15 28 13 31
REMARK Flexibility Score: inf
ROOT
ATOM      1  O   UNL     1      19.479   6.036  42.611  1.00  0.00    -0.313 OA
ENDROOT
BRANCH   1   2
ATOM      2  C   UNL     1      20.658   6.594  43.178  1.00  0.00     0.285 C 
ATOM      3  C   UNL     1      21.699   7.241  45.177  1.00  0.00     0.178 C 
ATOM      4  C   UNL     1      23.033   7.275  44.352  1.00  0.00     0.177 C 
ATOM      5  O   UNL     1      20.698   6.421  44.580  1.00  0.00    -0.341 OA
ATOM      6  C   UNL     1      23.141   6.029  43.457  1.00  0.00     0.179 C 
ATOM      7  C   UNL     1      21.884   5.884  42.557  1.00  0.00     0.202 C 
BRANCH   3   8
ATOM      8  C   UNL     1      21.904   6.744  46.618  1.00  0.00     0.191 C 
BRANCH   8   9
ATOM      9  O   UNL     1      20.720   6.158  47.091  1.00  0.00    -0.394 OA
ATOM     10  H   UNL     1      20.229   5.817  46.295  1.00  0.00     0.210 HD
ENDBRANCH   8   9
ENDBRANCH   3   8
BRANCH   4  11
ATOM     11  O   UNL     1      24.162   7.371  45.189  1.00  0.00    -0.387 OA
ATOM     12  H   UNL     1      23.831   7.453  46.122  1.00  0.00     0.211 HD
ENDBRANCH   4  11
BRANCH   6  13
ATOM     13  O   UNL     1      24.291   6.128  42.658  1.00  0.00    -0.387 OA
ATOM     14  H   UNL     1      24.328   5.307  42.102  1.00  0.00     0.211 HD
ENDBRANCH   6  13
BRANCH   7  15
ATOM     15  O   UNL     1      21.598   4.517  42.368  1.00  0.00    -0.385 OA
ATOM     16  H   UNL     1      20.972   4.251  43.090  1.00  0.00     0.211 HD
ENDBRANCH   7  15
ENDBRANCH   1   2
BRANCH   1  17
ATOM     17  C   UNL     1      18.325   6.880  42.490  1.00  0.00     0.224 C 
ATOM     18  C   UNL     1      18.549   8.278  41.841  1.00  0.00     0.208 C 
ATOM     19  O   UNL     1      17.426   6.189  41.638  1.00  0.00    -0.337 OA
ATOM     20  C   UNL     1      17.246   8.520  41.133  1.00  0.00     0.180 C 
ATOM     21  C   UNL     1      16.851   7.105  40.727  1.00  0.00     0.179 C 
BRANCH  17  22
ATOM     22  C   UNL     1      17.614   6.953  43.869  1.00  0.00     0.225 C 
BRANCH  22  23
ATOM     23  O   UNL     1      16.582   6.015  43.984  1.00  0.00    -0.391 OA
ATOM     24  H   UNL     1      16.957   5.147  43.693  1.00  0.00     0.210 HD
ENDBRANCH  22  23
ENDBRANCH  17  22
BRANCH  18  25
ATOM     25  O   UNL     1      18.802   9.290  42.779  1.00  0.00    -0.385 OA
ATOM     26  H   UNL     1      19.724   9.137  43.119  1.00  0.00     0.211 HD
ENDBRANCH  18  25
BRANCH  20  27
ATOM     27  O   UNL     1      17.426   9.359  40.020  1.00  0.00    -0.387 OA
ATOM     28  H   UNL     1      17.185   8.816  39.221  1.00  0.00     0.211 HD
ENDBRANCH  20  27
BRANCH  21  29
ATOM     29  C   UNL     1      15.327   6.923  40.696  1.00  0.00     0.191 C 
BRANCH  29  30
ATOM     30  O   UNL     1      14.956   5.771  41.397  1.00  0.00    -0.394 OA
ATOM     31  H   UNL     1      13.966   5.713  41.358  1.00  0.00     0.210 HD
ENDBRANCH  29  30
ENDBRANCH  21  29
ENDBRANCH   1  17
TORSDOF 13
ENDMDL
MODEL 3
REMARK VINA RESULT:    -5.597     10.894     14.705
REMARK INTER + INTRA:          -9.167
REMARK INTER:                  -7.809
REMARK INTRA:                  -1.358
REMARK UNBOUND:                -0.625
REMARK SMILES OC[C@@H]1O[C@H](O[C@]2(CO)O[C@@H](CO)[C@H](O)[C@H]2O)[C@H](O)[C@@H](O)[C@@H]1O
REMARK SMILES IDX 6 1 5 2 3 3 22 4 4 5 20 6 18 7 2 8 1 9 23 11 21 13 19 15
REMARK SMILES IDX 7 17 16 18 10 19 14 20 11 21 8 22 9 23 17 25 15 27 12 29
REMARK SMILES IDX 13 30
REMARK H PARENT 1 10 23 12 21 14 19 16 9 24 17 26 15 28 13 31
REMARK Flexibility Score: inf
ROOT
ATOM      1  O   UNL     1      17.442   8.620  42.621  1.00  0.00    -0.313 OA
ENDROOT
BRANCH   1   2
ATOM      2  C   UNL     1      18.330   7.954  43.512  1.00  0.00     0.285 C 
ATOM      3  C   UNL     1      20.233   6.593  43.653  1.00  0.00     0.178 C 
ATOM      4  C   UNL     1      20.287   7.000  45.167  1.00  0.00     0.177 C 
ATOM      5  O   UNL     1      19.502   7.520  42.855  1.00  0.00    -0.341 OA
ATOM      6  C   UNL     1      20.052   8.512  45.323  1.00  0.00     0.179 C 
ATOM      7  C   UNL     1      18.728   8.940  44.635  1.00  0.00     0.202 C 
BRANCH   3   8
ATOM      8  C   UNL     1      21.631   6.446  43.027  1.00  0.00     0.191 C 
BRANCH   8   9
ATOM      9  O   UNL     1      21.522   5.875  41.750  1.00  0.00    -0.394 OA
ATOM     10  H   UNL     1      22.065   5.040  41.762  1.00  0.00     0.210 HD
ENDBRANCH   8   9
ENDBRANCH   3   8
BRANCH   4  11
ATOM     11  O   UNL     1      21.510   6.635  45.763  1.00  0.00    -0.387 OA
ATOM     12  H   UNL     1      22.236   6.944  45.160  1.00  0.00     0.211 HD
ENDBRANCH   4  11
BRANCH   6  13
ATOM     13  O   UNL     1      20.007   8.837  46.689  1.00  0.00    -0.387 OA
ATOM     14  H   UNL     1      20.351   8.049  47.184  1.00  0.00     0.211 HD
ENDBRANCH   6  13
BRANCH   7  15
ATOM     15  O   UNL     1      18.875  10.236  44.102  1.00  0.00    -0.385 OA
ATOM     16  H   UNL     1      19.764  10.267  43.662  1.00  0.00     0.211 HD
ENDBRANCH   7  15
ENDBRANCH   1   2
BRANCH   1  17
ATOM     17  C   UNL     1      16.694   7.821  41.694  1.00  0.00     0.224 C 
ATOM     18  C   UNL     1      16.708   6.282  41.930  1.00  0.00     0.208 C 
ATOM     19  O   UNL     1      15.343   8.229  41.832  1.00  0.00    -0.337 OA
ATOM     20  C   UNL     1      15.345   5.867  41.453  1.00  0.00     0.180 C 
ATOM     21  C   UNL     1      14.508   7.087  41.821  1.00  0.00     0.179 C 
BRANCH  17  22
ATOM     22  C   UNL     1      17.100   8.222  40.250  1.00  0.00     0.225 C 
BRANCH  22  23
ATOM     23  O   UNL     1      18.488   8.225  40.071  1.00  0.00    -0.391 OA
ATOM     24  H   UNL     1      18.885   8.433  40.953  1.00  0.00     0.210 HD
ENDBRANCH  22  23
ENDBRANCH  17  22
BRANCH  18  25
ATOM     25  O   UNL     1      17.711   5.619  41.207  1.00  0.00    -0.385 OA
ATOM     26  H   UNL     1      17.470   5.703  40.246  1.00  0.00     0.211 HD
ENDBRANCH  18  25
BRANCH  20  27
ATOM     27  O   UNL     1      14.909   4.707  42.118  1.00  0.00    -0.387 OA
ATOM     28  H   UNL     1      14.381   4.188  41.453  1.00  0.00     0.211 HD
ENDBRANCH  20  27
BRANCH  21  29
ATOM     29  C   UNL     1      13.345   7.300  40.841  1.00  0.00     0.191 C 
BRANCH  29  30
ATOM     30  O   UNL     1      13.280   6.250  39.920  1.00  0.00    -0.394 OA
ATOM     31  H   UNL     1      13.040   5.432  40.428  1.00  0.00     0.210 HD
ENDBRANCH  29  30
ENDBRANCH  21  29
ENDBRANCH   1  17
TORSDOF 13
ENDMDL
MODEL 4
REMARK VINA RESULT:    -5.587     15.600     19.552
REMARK INTER + INTRA:          -9.151
REMARK INTER:                  -7.686
REMARK INTRA:                  -1.465
REMARK UNBOUND:                -0.625
REMARK SMILES OC[C@@H]1O[C@H](O[C@]2(CO)O[C@@H](CO)[C@H](O)[C@H]2O)[C@H](O)[C@@H](O)[C@@H]1O
REMARK SMILES IDX 6 1 5 2 3 3 22 4 4 5 20 6 18 7 2 8 1 9 23 11 21 13 19 15
REMARK SMILES IDX 7 17 16 18 10 19 14 20 11 21 8 22 9 23 17 25 15 27 12 29
REMARK SMILES IDX 13 30
REMARK H PARENT 1 10 23 12 21 14 19 16 9 24 17 26 15 28 13 31
REMARK Flexibility Score: inf
ROOT
ATOM      1  O   UNL     1      22.558   6.583  47.208  1.00  0.00    -0.313 OA
ENDROOT
BRANCH   1   2
ATOM      2  C   UNL     1      23.737   6.046  47.799  1.00  0.00     0.285 C 
ATOM      3  C   UNL     1      25.928   6.529  48.477  1.00  0.00     0.178 C 
ATOM      4  C   UNL     1      25.865   5.187  49.285  1.00  0.00     0.177 C 
ATOM      5  O   UNL     1      24.639   7.062  48.185  1.00  0.00    -0.341 OA
ATOM      6  C   UNL     1      24.526   5.074  50.033  1.00  0.00     0.179 C 
ATOM      7  C   UNL     1      23.331   5.240  49.055  1.00  0.00     0.202 C 
BRANCH   3   8
ATOM      8  C   UNL     1      26.726   7.625  49.205  1.00  0.00     0.191 C 
BRANCH   8   9
ATOM      9  O   UNL     1      26.035   8.030  50.357  1.00  0.00    -0.394 OA
ATOM     10  H   UNL     1      26.217   7.345  51.057  1.00  0.00     0.210 HD
ENDBRANCH   8   9
ENDBRANCH   3   8
BRANCH   4  11
ATOM     11  O   UNL     1      26.938   5.072  50.192  1.00  0.00    -0.387 OA
ATOM     12  H   UNL     1      27.330   5.978  50.300  1.00  0.00     0.211 HD
ENDBRANCH   4  11
BRANCH   6  13
ATOM     13  O   UNL     1      24.452   3.824  50.669  1.00  0.00    -0.387 OA
ATOM     14  H   UNL     1      23.898   3.948  51.484  1.00  0.00     0.211 HD
ENDBRANCH   6  13
BRANCH   7  15
ATOM     15  O   UNL     1      22.271   5.891  49.717  1.00  0.00    -0.385 OA
ATOM     16  H   UNL     1      21.452   5.724  49.182  1.00  0.00     0.211 HD
ENDBRANCH   7  15
ENDBRANCH   1   2
BRANCH   1  17
ATOM     17  C   UNL     1      22.647   7.087  45.868  1.00  0.00     0.224 C 
ATOM     18  C   UNL     1      23.939   6.733  45.073  1.00  0.00     0.208 C 
ATOM     19  O   UNL     1      21.572   6.494  45.158  1.00  0.00    -0.337 OA
ATOM     20  C   UNL     1      23.434   6.628  43.662  1.00  0.00     0.180 C 
ATOM     21  C   UNL     1      22.025   6.089  43.881  1.00  0.00     0.179 C 
BRANCH  17  22
ATOM     22  C   UNL     1      22.339   8.609  45.887  1.00  0.00     0.225 C 
BRANCH  22  23
ATOM     23  O   UNL     1      23.223   9.319  46.708  1.00  0.00    -0.391 OA
ATOM     24  H   UNL     1      22.941  10.266  46.672  1.00  0.00     0.210 HD
ENDBRANCH  22  23
ENDBRANCH  17  22
BRANCH  18  25
ATOM     25  O   UNL     1      24.938   7.714  45.173  1.00  0.00    -0.385 OA
ATOM     26  H   UNL     1      25.740   7.264  45.552  1.00  0.00     0.211 HD
ENDBRANCH  18  25
BRANCH  20  27
ATOM     27  O   UNL     1      24.227   5.745  42.908  1.00  0.00    -0.387 OA
ATOM     28  H   UNL     1      25.118   5.725  43.350  1.00  0.00     0.211 HD
ENDBRANCH  20  27
BRANCH  21  29
ATOM     29  C   UNL     1      21.050   6.580  42.801  1.00  0.00     0.191 C 
BRANCH  29  30
ATOM     30  O   UNL     1      21.313   5.952  41.580  1.00  0.00    -0.394 OA
ATOM     31  H   UNL     1      22.298   5.956  41.457  1.00  0.00     0.210 HD
ENDBRANCH  29  30
ENDBRANCH  21  29
ENDBRANCH   1  17
TORSDOF 13
ENDMDL
MODEL 5
REMARK VINA RESULT:    -5.372      7.624     11.475
REMARK INTER + INTRA:          -8.825
REMARK INTER:                  -7.803
REMARK INTRA:                  -1.022
REMARK UNBOUND:                -0.625
REMARK SMILES OC[C@@H]1O[C@H](O[C@]2(CO)O[C@@H](CO)[C@H](O)[C@H]2O)[C@H](O)[C@@H](O)[C@@H]1O
REMARK SMILES IDX 6 1 5 2 3 3 22 4 4 5 20 6 18 7 2 8 1 9 23 11 21 13 19 15
REMARK SMILES IDX 7 17 16 18 10 19 14 20 11 21 8 22 9 23 17 25 15 27 12 29
REMARK SMILES IDX 13 30
REMARK H PARENT 1 10 23 12 21 14 19 16 9 24 17 26 15 28 13 31
REMARK Flexibility Score: inf
ROOT
ATOM      1  O   UNL     1      13.848   6.756  41.037  1.00  0.00    -0.313 OA
ENDROOT
BRANCH   1   2
ATOM      2  C   UNL     1      13.238   5.539  41.452  1.00  0.00     0.285 C 
ATOM      3  C   UNL     1      12.109   4.463  43.203  1.00  0.00     0.178 C 
ATOM      4  C   UNL     1      11.708   3.380  42.143  1.00  0.00     0.177 C 
ATOM      5  O   UNL     1      12.454   5.715  42.614  1.00  0.00    -0.341 OA
ATOM      6  C   UNL     1      11.245   4.052  40.839  1.00  0.00     0.179 C 
ATOM      7  C   UNL     1      12.324   5.036  40.310  1.00  0.00     0.202 C 
BRANCH   3   8
ATOM      8  C   UNL     1      10.997   4.729  44.232  1.00  0.00     0.191 C 
BRANCH   8   9
ATOM      9  O   UNL     1      10.955   3.684  45.167  1.00  0.00    -0.394 OA
ATOM     10  H   UNL     1      10.403   4.005  45.931  1.00  0.00     0.210 HD
ENDBRANCH   8   9
ENDBRANCH   3   8
BRANCH   4  11
ATOM     11  O   UNL     1      10.703   2.520  42.629  1.00  0.00    -0.387 OA
ATOM     12  H   UNL     1      10.948   2.278  43.560  1.00  0.00     0.211 HD
ENDBRANCH   4  11
BRANCH   6  13
ATOM     13  O   UNL     1      10.984   3.066  39.874  1.00  0.00    -0.387 OA
ATOM     14  H   UNL     1      10.592   3.528  39.088  1.00  0.00     0.211 HD
ENDBRANCH   6  13
BRANCH   7  15
ATOM     15  O   UNL     1      11.693   6.130  39.686  1.00  0.00    -0.385 OA
ATOM     16  H   UNL     1      11.502   5.857  38.751  1.00  0.00     0.211 HD
ENDBRANCH   7  15
ENDBRANCH   1   2
BRANCH   1  17
ATOM     17  C   UNL     1      15.217   6.981  41.400  1.00  0.00     0.224 C 
ATOM     18  C   UNL     1      16.265   6.901  40.250  1.00  0.00     0.208 C 
ATOM     19  O   UNL     1      15.275   8.308  41.894  1.00  0.00    -0.337 OA
ATOM     20  C   UNL     1      17.296   7.906  40.679  1.00  0.00     0.180 C 
ATOM     21  C   UNL     1      16.434   8.943  41.390  1.00  0.00     0.179 C 
BRANCH  17  22
ATOM     22  C   UNL     1      15.567   6.073  42.610  1.00  0.00     0.225 C 
BRANCH  22  23
ATOM     23  O   UNL     1      15.233   6.667  43.833  1.00  0.00    -0.391 OA
ATOM     24  H   UNL     1      14.377   7.140  43.690  1.00  0.00     0.210 HD
ENDBRANCH  22  23
ENDBRANCH  17  22
BRANCH  18  25
ATOM     25  O   UNL     1      16.839   5.628  40.111  1.00  0.00    -0.385 OA
ATOM     26  H   UNL     1      17.770   5.770  39.792  1.00  0.00     0.211 HD
ENDBRANCH  18  25
BRANCH  20  27
ATOM     27  O   UNL     1      17.965   8.447  39.568  1.00  0.00    -0.387 OA
ATOM     28  H   UNL     1      18.506   7.707  39.182  1.00  0.00     0.211 HD
ENDBRANCH  20  27
BRANCH  21  29
ATOM     29  C   UNL     1      17.192   9.630  42.535  1.00  0.00     0.191 C 
BRANCH  29  30
ATOM     30  O   UNL     1      18.540   9.256  42.526  1.00  0.00    -0.394 OA
ATOM     31  H   UNL     1      19.073  10.093  42.525  1.00  0.00     0.210 HD
ENDBRANCH  29  30
ENDBRANCH  21  29
ENDBRANCH   1  17
TORSDOF 13
ENDMDL
MODEL 6
REMARK VINA RESULT:    -5.266      8.218     11.921
REMARK INTER + INTRA:          -8.663
REMARK INTER:                  -7.388
REMARK INTRA:                  -1.275
REMARK UNBOUND:                -0.625
REMARK SMILES OC[C@@H]1O[C@H](O[C@]2(CO)O[C@@H](CO)[C@H](O)[C@H]2O)[C@H](O)[C@@H](O)[C@@H]1O
REMARK SMILES IDX 6 1 5 2 3 3 22 4 4 5 20 6 18 7 2 8 1 9 23 11 21 13 19 15
REMARK SMILES IDX 7 17 16 18 10 19 14 20 11 21 8 22 9 23 17 25 15 27 12 29
REMARK SMILES IDX 13 30
REMARK H PARENT 1 10 23 12 21 14 19 16 9 24 17 26 15 28 13 31
REMARK Flexibility Score: inf
ROOT
ATOM      1  O   UNL     1      14.142   6.105  41.989  1.00  0.00    -0.313 OA
ENDROOT
BRANCH   1   2
ATOM      2  C   UNL     1      13.373   6.348  40.816  1.00  0.00     0.285 C 
ATOM      3  C   UNL     1      11.883   5.399  39.275  1.00  0.00     0.178 C 
ATOM      4  C   UNL     1      11.575   6.869  38.822  1.00  0.00     0.177 C 
ATOM      5  O   UNL     1      12.424   5.326  40.592  1.00  0.00    -0.341 OA
ATOM      6  C   UNL     1      11.393   7.780  40.048  1.00  0.00     0.179 C 
ATOM      7  C   UNL     1      12.623   7.689  40.992  1.00  0.00     0.202 C 
BRANCH   3   8
ATOM      8  C   UNL     1      10.641   4.493  39.236  1.00  0.00     0.191 C 
BRANCH   8   9
ATOM      9  O   UNL     1      10.471   3.974  37.943  1.00  0.00    -0.394 OA
ATOM     10  H   UNL     1      11.004   4.549  37.330  1.00  0.00     0.210 HD
ENDBRANCH   8   9
ENDBRANCH   3   8
BRANCH   4  11
ATOM     11  O   UNL     1      10.436   6.934  37.996  1.00  0.00    -0.387 OA
ATOM     12  H   UNL     1      10.219   7.894  37.869  1.00  0.00     0.211 HD
ENDBRANCH   4  11
BRANCH   6  13
ATOM     13  O   UNL     1      11.216   9.106  39.620  1.00  0.00    -0.387 OA
ATOM     14  H   UNL     1      10.613   9.542  40.276  1.00  0.00     0.211 HD
ENDBRANCH   6  13
BRANCH   7  15
ATOM     15  O   UNL     1      12.199   7.828  42.328  1.00  0.00    -0.385 OA
ATOM     16  H   UNL     1      11.699   7.003  42.558  1.00  0.00     0.211 HD
ENDBRANCH   7  15
ENDBRANCH   1   2
BRANCH   1  17
ATOM     17  C   UNL     1      15.502   6.562  42.008  1.00  0.00     0.224 C 
ATOM     18  C   UNL     1      16.276   6.506  40.658  1.00  0.00     0.208 C 
ATOM     19  O   UNL     1      15.446   7.931  42.373  1.00  0.00    -0.337 OA
ATOM     20  C   UNL     1      17.196   7.689  40.760  1.00  0.00     0.180 C 
ATOM     21  C   UNL     1      16.349   8.665  41.569  1.00  0.00     0.179 C 
BRANCH  17  22
ATOM     22  C   UNL     1      16.249   5.855  43.171  1.00  0.00     0.225 C 
BRANCH  22  23
ATOM     23  O   UNL     1      16.304   4.467  43.000  1.00  0.00    -0.391 OA
ATOM     24  H   UNL     1      15.378   4.169  42.818  1.00  0.00     0.210 HD
ENDBRANCH  22  23
ENDBRANCH  17  22
BRANCH  18  25
ATOM     25  O   UNL     1      17.008   5.320  40.488  1.00  0.00    -0.385 OA
ATOM     26  H   UNL     1      17.931   5.591  40.235  1.00  0.00     0.211 HD
ENDBRANCH  18  25
BRANCH  20  27
ATOM     27  O   UNL     1      17.512   8.193  39.487  1.00  0.00    -0.387 OA
ATOM     28  H   UNL     1      16.871   7.771  38.854  1.00  0.00     0.211 HD
ENDBRANCH  20  27
BRANCH  21  29
ATOM     29  C   UNL     1      17.212   9.577  42.452  1.00  0.00     0.191 C 
BRANCH  29  30
ATOM     30  O   UNL     1      18.557   9.201  42.380  1.00  0.00    -0.394 OA
ATOM     31  H   UNL     1      18.595   8.355  41.863  1.00  0.00     0.210 HD
ENDBRANCH  29  30
ENDBRANCH  21  29
ENDBRANCH   1  17
TORSDOF 13
ENDMDL
MODEL 7
REMARK VINA RESULT:    -5.264      4.336      7.988
REMARK INTER + INTRA:          -8.659
REMARK INTER:                  -7.642
REMARK INTRA:                  -1.017
REMARK UNBOUND:                -0.625
REMARK SMILES OC[C@@H]1O[C@H](O[C@]2(CO)O[C@@H](CO)[C@H](O)[C@H]2O)[C@H](O)[C@@H](O)[C@@H]1O
REMARK SMILES IDX 6 1 5 2 3 3 22 4 4 5 20 6 18 7 2 8 1 9 23 11 21 13 19 15
REMARK SMILES IDX 7 17 16 18 10 19 14 20 11 21 8 22 9 23 17 25 15 27 12 29
REMARK SMILES IDX 13 30
REMARK H PARENT 1 10 23 12 21 14 19 16 9 24 17 26 15 28 13 31
REMARK Flexibility Score: inf
ROOT
ATOM      1  O   UNL     1      10.196   2.298  41.663  1.00  0.00    -0.313 OA
ENDROOT
BRANCH   1   2
ATOM      2  C   UNL     1      10.717   3.199  40.691  1.00  0.00     0.285 C 
ATOM      3  C   UNL     1      10.182   4.943  39.218  1.00  0.00     0.178 C 
ATOM      4  C   UNL     1      11.725   5.206  39.132  1.00  0.00     0.177 C 
ATOM      5  O   UNL     1       9.805   4.237  40.398  1.00  0.00    -0.341 OA
ATOM      6  C   UNL     1      12.356   5.160  40.534  1.00  0.00     0.179 C 
ATOM      7  C   UNL     1      12.016   3.824  41.249  1.00  0.00     0.202 C 
BRANCH   3   8
ATOM      8  C   UNL     1       9.354   6.238  39.171  1.00  0.00     0.191 C 
BRANCH   8   9
ATOM      9  O   UNL     1       9.208   6.661  37.841  1.00  0.00    -0.394 OA
ATOM     10  H   UNL     1       8.571   6.031  37.408  1.00  0.00     0.210 HD
ENDBRANCH   8   9
ENDBRANCH   3   8
BRANCH   4  11
ATOM     11  O   UNL     1      12.011   6.438  38.511  1.00  0.00    -0.387 OA
ATOM     12  H   UNL     1      12.168   7.102  39.234  1.00  0.00     0.211 HD
ENDBRANCH   4  11
BRANCH   6  13
ATOM     13  O   UNL     1      13.749   5.301  40.422  1.00  0.00    -0.387 OA
ATOM     14  H   UNL     1      13.917   6.195  40.026  1.00  0.00     0.211 HD
ENDBRANCH   6  13
BRANCH   7  15
ATOM     15  O   UNL     1      11.878   4.056  42.632  1.00  0.00    -0.385 OA
ATOM     16  H   UNL     1      12.037   3.188  43.086  1.00  0.00     0.211 HD
ENDBRANCH   7  15
ENDBRANCH   1   2
BRANCH   1  17
ATOM     17  C   UNL     1       9.845   0.975  41.234  1.00  0.00     0.224 C 
ATOM     18  C   UNL     1      10.307  -0.199  42.148  1.00  0.00     0.208 C 
ATOM     19  O   UNL     1       8.428   0.934  41.226  1.00  0.00    -0.337 OA
ATOM     20  C   UNL     1       9.204  -1.203  41.969  1.00  0.00     0.180 C 
ATOM     21  C   UNL     1       7.994  -0.297  41.772  1.00  0.00     0.179 C 
BRANCH  17  22
ATOM     22  C   UNL     1      10.272   0.801  39.752  1.00  0.00     0.225 C 
BRANCH  22  23
ATOM     23  O   UNL     1       9.183   0.861  38.875  1.00  0.00    -0.391 OA
ATOM     24  H   UNL     1       9.436   0.336  38.076  1.00  0.00     0.210 HD
ENDBRANCH  22  23
ENDBRANCH  17  22
BRANCH  18  25
ATOM     25  O   UNL     1      11.543  -0.744  41.767  1.00  0.00    -0.385 OA
ATOM     26  H   UNL     1      12.232  -0.308  42.336  1.00  0.00     0.211 HD
ENDBRANCH  18  25
BRANCH  20  27
ATOM     27  O   UNL     1       9.074  -2.018  43.107  1.00  0.00    -0.387 OA
ATOM     28  H   UNL     1       8.341  -1.621  43.651  1.00  0.00     0.211 HD
ENDBRANCH  20  27
BRANCH  21  29
ATOM     29  C   UNL     1       6.944  -0.935  40.851  1.00  0.00     0.191 C 
BRANCH  29  30
ATOM     30  O   UNL     1       7.238  -2.285  40.632  1.00  0.00    -0.394 OA
ATOM     31  H   UNL     1       7.227  -2.429  39.651  1.00  0.00     0.210 HD
ENDBRANCH  29  30
ENDBRANCH  21  29
ENDBRANCH   1  17
TORSDOF 13
ENDMDL
MODEL 8
REMARK VINA RESULT:    -5.252     11.148     15.154
REMARK INTER + INTRA:          -8.641
REMARK INTER:                  -7.667
REMARK INTRA:                  -0.973
REMARK UNBOUND:                -0.625
REMARK SMILES OC[C@@H]1O[C@H](O[C@]2(CO)O[C@@H](CO)[C@H](O)[C@H]2O)[C@H](O)[C@@H](O)[C@@H]1O
REMARK SMILES IDX 6 1 5 2 3 3 22 4 4 5 20 6 18 7 2 8 1 9 23 11 21 13 19 15
REMARK SMILES IDX 7 17 16 18 10 19 14 20 11 21 8 22 9 23 17 25 15 27 12 29
REMARK SMILES IDX 13 30
REMARK H PARENT 1 10 23 12 21 14 19 16 9 24 17 26 15 28 13 31
REMARK Flexibility Score: inf
ROOT
ATOM      1  O   UNL     1      17.882   8.622  44.819  1.00  0.00    -0.313 OA
ENDROOT
BRANCH   1   2
ATOM      2  C   UNL     1      17.745   7.812  43.657  1.00  0.00     0.285 C 
ATOM      3  C   UNL     1      16.424   6.188  42.601  1.00  0.00     0.178 C 
ATOM      4  C   UNL     1      17.213   6.543  41.293  1.00  0.00     0.177 C 
ATOM      5  O   UNL     1      16.460   7.232  43.572  1.00  0.00    -0.341 OA
ATOM      6  C   UNL     1      17.339   8.069  41.141  1.00  0.00     0.179 C 
ATOM      7  C   UNL     1      17.970   8.701  42.412  1.00  0.00     0.202 C 
BRANCH   3   8
ATOM      8  C   UNL     1      14.945   5.859  42.333  1.00  0.00     0.191 C 
BRANCH   8   9
ATOM      9  O   UNL     1      14.835   4.568  41.795  1.00  0.00    -0.394 OA
ATOM     10  H   UNL     1      14.924   4.659  40.808  1.00  0.00     0.210 HD
ENDBRANCH   8   9
ENDBRANCH   3   8
BRANCH   4  11
ATOM     11  O   UNL     1      16.604   5.990  40.149  1.00  0.00    -0.387 OA
ATOM     12  H   UNL     1      16.029   6.696  39.752  1.00  0.00     0.211 HD
ENDBRANCH   4  11
BRANCH   6  13
ATOM     13  O   UNL     1      18.131   8.360  40.019  1.00  0.00    -0.387 OA
ATOM     14  H   UNL     1      18.185   7.528  39.480  1.00  0.00     0.211 HD
ENDBRANCH   6  13
BRANCH   7  15
ATOM     15  O   UNL     1      17.411   9.976  42.627  1.00  0.00    -0.385 OA
ATOM     16  H   UNL     1      17.042   9.976  43.548  1.00  0.00     0.211 HD
ENDBRANCH   7  15
ENDBRANCH   1   2
BRANCH   1  17
ATOM     17  C   UNL     1      19.104   8.527  45.565  1.00  0.00     0.224 C 
ATOM     18  C   UNL     1      19.066   7.659  46.858  1.00  0.00     0.208 C 
ATOM     19  O   UNL     1      20.040   7.905  44.700  1.00  0.00    -0.337 OA
ATOM     20  C   UNL     1      20.457   7.095  46.912  1.00  0.00     0.180 C 
ATOM     21  C   UNL     1      20.787   6.952  45.431  1.00  0.00     0.179 C 
BRANCH  17  22
ATOM     22  C   UNL     1      19.653   9.959  45.807  1.00  0.00     0.225 C 
BRANCH  22  23
ATOM     23  O   UNL     1      19.480  10.789  44.692  1.00  0.00    -0.391 OA
ATOM     24  H   UNL     1      20.016  10.392  43.961  1.00  0.00     0.210 HD
ENDBRANCH  22  23
ENDBRANCH  17  22
BRANCH  18  25
ATOM     25  O   UNL     1      18.784   8.401  48.016  1.00  0.00    -0.385 OA
ATOM     26  H   UNL     1      18.967   9.353  47.793  1.00  0.00     0.211 HD
ENDBRANCH  18  25
BRANCH  20  27
ATOM     27  O   UNL     1      20.474   5.858  47.580  1.00  0.00    -0.387 OA
ATOM     28  H   UNL     1      20.500   5.160  46.871  1.00  0.00     0.211 HD
ENDBRANCH  20  27
BRANCH  21  29
ATOM     29  C   UNL     1      22.285   7.141  45.156  1.00  0.00     0.191 C 
BRANCH  29  30
ATOM     30  O   UNL     1      22.516   7.315  43.788  1.00  0.00    -0.394 OA
ATOM     31  H   UNL     1      21.631   7.291  43.339  1.00  0.00     0.210 HD
ENDBRANCH  29  30
ENDBRANCH  21  29
ENDBRANCH   1  17
TORSDOF 13
ENDMDL
MODEL 9
REMARK VINA RESULT:    -5.234      3.558      6.112
REMARK INTER + INTRA:          -8.614
REMARK INTER:                  -7.419
REMARK INTRA:                  -1.195
REMARK UNBOUND:                -0.625
REMARK SMILES OC[C@@H]1O[C@H](O[C@]2(CO)O[C@@H](CO)[C@H](O)[C@H]2O)[C@H](O)[C@@H](O)[C@@H]1O
REMARK SMILES IDX 6 1 5 2 3 3 22 4 4 5 20 6 18 7 2 8 1 9 23 11 21 13 19 15
REMARK SMILES IDX 7 17 16 18 10 19 14 20 11 21 8 22 9 23 17 25 15 27 12 29
REMARK SMILES IDX 13 30
REMARK H PARENT 1 10 23 12 21 14 19 16 9 24 17 26 15 28 13 31
REMARK Flexibility Score: inf
ROOT
ATOM      1  O   UNL     1      10.406   1.925  41.876  1.00  0.00    -0.313 OA
ENDROOT
BRANCH   1   2
ATOM      2  C   UNL     1       9.407   0.931  41.675  1.00  0.00     0.285 C 
ATOM      3  C   UNL     1       8.094  -0.167  40.073  1.00  0.00     0.178 C 
ATOM      4  C   UNL     1       7.802  -1.229  41.189  1.00  0.00     0.177 C 
ATOM      5  O   UNL     1       9.287   0.577  40.313  1.00  0.00    -0.341 OA
ATOM      6  C   UNL     1       9.099  -1.598  41.930  1.00  0.00     0.179 C 
ATOM      7  C   UNL     1       9.802  -0.328  42.482  1.00  0.00     0.202 C 
BRANCH   3   8
ATOM      8  C   UNL     1       8.216  -0.793  38.673  1.00  0.00     0.191 C 
BRANCH   8   9
ATOM      9  O   UNL     1       9.242  -1.750  38.668  1.00  0.00    -0.394 OA
ATOM     10  H   UNL     1       9.795  -1.574  37.859  1.00  0.00     0.210 HD
ENDBRANCH   8   9
ENDBRANCH   3   8
BRANCH   4  11
ATOM     11  O   UNL     1       7.198  -2.387  40.663  1.00  0.00    -0.387 OA
ATOM     12  H   UNL     1       6.227  -2.332  40.867  1.00  0.00     0.211 HD
ENDBRANCH   4  11
BRANCH   6  13
ATOM     13  O   UNL     1       8.798  -2.474  42.985  1.00  0.00    -0.387 OA
ATOM     14  H   UNL     1       9.656  -2.880  43.276  1.00  0.00     0.211 HD
ENDBRANCH   6  13
BRANCH   7  15
ATOM     15  O   UNL     1      11.198  -0.508  42.434  1.00  0.00    -0.385 OA
ATOM     16  H   UNL     1      11.573   0.276  41.955  1.00  0.00     0.211 HD
ENDBRANCH   7  15
ENDBRANCH   1   2
BRANCH   1  17
ATOM     17  C   UNL     1       9.982   3.233  42.286  1.00  0.00     0.224 C 
ATOM     18  C   UNL     1       9.830   4.301  41.163  1.00  0.00     0.208 C 
ATOM     19  O   UNL     1       8.690   3.064  42.847  1.00  0.00    -0.337 OA
ATOM     20  C   UNL     1       8.695   5.146  41.669  1.00  0.00     0.180 C 
ATOM     21  C   UNL     1       7.851   4.113  42.406  1.00  0.00     0.179 C 
BRANCH  17  22
ATOM     22  C   UNL     1      10.883   3.703  43.460  1.00  0.00     0.225 C 
BRANCH  22  23
ATOM     23  O   UNL     1      10.384   3.304  44.705  1.00  0.00    -0.391 OA
ATOM     24  H   UNL     1       9.486   3.711  44.791  1.00  0.00     0.210 HD
ENDBRANCH  22  23
ENDBRANCH  17  22
BRANCH  18  25
ATOM     25  O   UNL     1      10.985   5.078  40.978  1.00  0.00    -0.385 OA
ATOM     26  H   UNL     1      11.358   5.250  41.883  1.00  0.00     0.211 HD
ENDBRANCH  18  25
BRANCH  20  27
ATOM     27  O   UNL     1       7.995   5.740  40.605  1.00  0.00    -0.387 OA
ATOM     28  H   UNL     1       7.308   6.329  41.018  1.00  0.00     0.211 HD
ENDBRANCH  20  27
BRANCH  21  29
ATOM     29  C   UNL     1       7.111   4.727  43.603  1.00  0.00     0.191 C 
BRANCH  29  30
ATOM     30  O   UNL     1       7.660   4.272  44.806  1.00  0.00    -0.394 OA
ATOM     31  H   UNL     1       8.626   4.119  44.645  1.00  0.00     0.210 HD
ENDBRANCH  29  30
ENDBRANCH  21  29
ENDBRANCH   1  17
TORSDOF 13
ENDMDL
