MODEL 1
REMARK VINA RESULT:    -4.647      0.000      0.000
REMARK INTER + INTRA:          -5.350
REMARK INTER:                  -5.055
REMARK INTRA:                  -0.295
REMARK UNBOUND:                -0.295
REMARK SMILES CC(=O)c1cc(C)ccc1O
REMARK SMILES IDX 7 1 6 2 5 3 4 4 10 5 9 6 8 7 2 8 3 9 1 10 11 11
REMARK H PARENT 11 12
REMARK Flexibility Score: inf
ROOT
ATOM      1  C   UNL     1      17.980  17.494  19.170  1.00  0.00     0.044 C 
ATOM      2  C   UNL     1      17.345  18.394  18.150  1.00  0.00    -0.050 A 
ATOM      3  C   UNL     1      16.204  17.975  17.451  1.00  0.00     0.019 A 
ATOM      4  C   UNL     1      15.611  18.795  16.471  1.00  0.00     0.059 A 
ATOM      5  C   UNL     1      16.209  20.042  16.174  1.00  0.00     0.126 A 
ATOM      6  C   UNL     1      17.357  20.451  16.869  1.00  0.00     0.047 A 
ATOM      7  C   UNL     1      17.923  19.632  17.845  1.00  0.00     0.007 A 
ENDROOT
BRANCH   4   8
ATOM      8  C   UNL     1      14.390  18.310  15.775  1.00  0.00     0.163 C 
ATOM      9  O   UNL     1      14.257  18.522  14.539  1.00  0.00    -0.294 OA
ATOM     10  C   UNL     1      13.299  17.570  16.488  1.00  0.00     0.093 C 
ENDBRANCH   4   8
BRANCH   5  11
ATOM     11  O   UNL     1      15.689  20.867  15.177  1.00  0.00    -0.507 OA
ATOM     12  H   UNL     1      15.856  21.866  15.169  1.00  0.00     0.293 HD
ENDBRANCH   5  11
TORSDOF 2
ENDMDL
MODEL 2
REMARK VINA RESULT:    -4.586      2.007      2.227
REMARK INTER + INTRA:          -5.283
REMARK INTER:                  -4.977
REMARK INTRA:                  -0.306
REMARK UNBOUND:                -0.295
REMARK SMILES CC(=O)c1cc(C)ccc1O
REMARK SMILES IDX 7 1 6 2 5 3 4 4 10 5 9 6 8 7 2 8 3 9 1 10 11 11
REMARK H PARENT 11 12
REMARK Flexibility Score: inf
ROOT
ATOM      1  C   UNL     1      18.159  17.884  20.157  1.00  0.00     0.044 C 
ATOM      2  C   UNL     1      17.895  18.356  18.757  1.00  0.00    -0.050 A 
ATOM      3  C   UNL     1      17.566  17.435  17.751  1.00  0.00     0.019 A 
ATOM      4  C   UNL     1      17.341  17.857  16.427  1.00  0.00     0.059 A 
ATOM      5  C   UNL     1      17.490  19.229  16.114  1.00  0.00     0.126 A 
ATOM      6  C   UNL     1      17.830  20.143  17.122  1.00  0.00     0.047 A 
ATOM      7  C   UNL     1      18.036  19.709  18.431  1.00  0.00     0.007 A 
ENDROOT
BRANCH   4   8
ATOM      8  C   UNL     1      16.974  16.841  15.404  1.00  0.00     0.163 C 
ATOM      9  O   UNL     1      15.997  17.061  14.637  1.00  0.00    -0.294 OA
ATOM     10  C   UNL     1      17.723  15.553  15.245  1.00  0.00     0.093 C 
ENDBRANCH   4   8
BRANCH   5  11
ATOM     11  O   UNL     1      17.328  19.687  14.807  1.00  0.00    -0.507 OA
ATOM     12  H   UNL     1      17.554  19.108  14.006  1.00  0.00     0.293 HD
ENDBRANCH   5  11
TORSDOF 2
ENDMDL
MODEL 3
REMARK VINA RESULT:    -4.569      2.063      3.059
REMARK INTER + INTRA:          -5.265
REMARK INTER:                  -4.962
REMARK INTRA:                  -0.303
REMARK UNBOUND:                -0.295
REMARK SMILES CC(=O)c1cc(C)ccc1O
REMARK SMILES IDX 7 1 6 2 5 3 4 4 10 5 9 6 8 7 2 8 3 9 1 10 11 11
REMARK H PARENT 11 12
REMARK Flexibility Score: inf
ROOT
ATOM      1  C   UNL     1      17.668  21.669  19.477  1.00  0.00     0.044 C 
ATOM      2  C   UNL     1      17.672  20.366  18.733  1.00  0.00    -0.050 A 
ATOM      3  C   UNL     1      17.202  20.304  17.414  1.00  0.00     0.019 A 
ATOM      4  C   UNL     1      17.173  19.085  16.710  1.00  0.00     0.059 A 
ATOM      5  C   UNL     1      17.593  17.906  17.371  1.00  0.00     0.126 A 
ATOM      6  C   UNL     1      18.051  17.973  18.694  1.00  0.00     0.047 A 
ATOM      7  C   UNL     1      18.085  19.191  19.372  1.00  0.00     0.007 A 
ENDROOT
BRANCH   4   8
ATOM      8  C   UNL     1      16.686  19.081  15.304  1.00  0.00     0.163 C 
ATOM      9  O   UNL     1      17.289  18.384  14.442  1.00  0.00    -0.294 OA
ATOM     10  C   UNL     1      15.495  19.876  14.864  1.00  0.00     0.093 C 
ENDBRANCH   4   8
BRANCH   5  11
ATOM     11  O   UNL     1      17.536  16.668  16.732  1.00  0.00    -0.507 OA
ATOM     12  H   UNL     1      16.701  16.354  16.251  1.00  0.00     0.293 HD
ENDBRANCH   5  11
TORSDOF 2
ENDMDL
MODEL 4
REMARK VINA RESULT:    -4.558      2.323      3.206
REMARK INTER + INTRA:          -5.252
REMARK INTER:                  -4.949
REMARK INTRA:                  -0.304
REMARK UNBOUND:                -0.295
REMARK SMILES CC(=O)c1cc(C)ccc1O
REMARK SMILES IDX 7 1 6 2 5 3 4 4 10 5 9 6 8 7 2 8 3 9 1 10 11 11
REMARK H PARENT 11 12
REMARK Flexibility Score: inf
ROOT
ATOM      1  C   UNL     1      16.526  20.943  14.825  1.00  0.00     0.044 C 
ATOM      2  C   UNL     1      16.669  19.945  15.937  1.00  0.00    -0.050 A 
ATOM      3  C   UNL     1      15.688  18.964  16.136  1.00  0.00     0.019 A 
ATOM      4  C   UNL     1      15.793  18.036  17.191  1.00  0.00     0.059 A 
ATOM      5  C   UNL     1      16.892  18.133  18.076  1.00  0.00     0.126 A 
ATOM      6  C   UNL     1      17.865  19.124  17.878  1.00  0.00     0.047 A 
ATOM      7  C   UNL     1      17.752  20.026  16.820  1.00  0.00     0.007 A 
ENDROOT
BRANCH   4   8
ATOM      8  C   UNL     1      14.734  17.003  17.343  1.00  0.00     0.163 C 
ATOM      9  O   UNL     1      14.254  16.773  18.487  1.00  0.00    -0.294 OA
ATOM     10  C   UNL     1      14.207  16.215  16.183  1.00  0.00     0.093 C 
ENDBRANCH   4   8
BRANCH   5  11
ATOM     11  O   UNL     1      17.013  17.270  19.165  1.00  0.00    -0.507 OA
ATOM     12  H   UNL     1      16.367  16.504  19.313  1.00  0.00     0.293 HD
ENDBRANCH   5  11
TORSDOF 2
ENDMDL
MODEL 5
REMARK VINA RESULT:    -4.465      2.735      3.602
REMARK INTER + INTRA:          -5.151
REMARK INTER:                  -4.867
REMARK INTRA:                  -0.284
REMARK UNBOUND:                -0.295
REMARK SMILES CC(=O)c1cc(C)ccc1O
REMARK SMILES IDX 7 1 6 2 5 3 4 4 10 5 9 6 8 7 2 8 3 9 1 10 11 11
REMARK H PARENT 11 12
REMARK Flexibility Score: inf
ROOT
ATOM      1  C   UNL     1      16.824  21.247  14.550  1.00  0.00     0.044 C 
ATOM      2  C   UNL     1      17.123  20.130  15.507  1.00  0.00    -0.050 A 
ATOM      3  C   UNL     1      16.946  18.796  15.113  1.00  0.00     0.019 A 
ATOM      4  C   UNL     1      17.196  17.737  16.007  1.00  0.00     0.059 A 
ATOM      5  C   UNL     1      17.596  18.041  17.329  1.00  0.00     0.126 A 
ATOM      6  C   UNL     1      17.761  19.378  17.720  1.00  0.00     0.047 A 
ATOM      7  C   UNL     1      17.521  20.414  16.818  1.00  0.00     0.007 A 
ENDROOT
BRANCH   4   8
ATOM      8  C   UNL     1      17.013  16.340  15.530  1.00  0.00     0.163 C 
ATOM      9  O   UNL     1      17.999  15.553  15.526  1.00  0.00    -0.294 OA
ATOM     10  C   UNL     1      15.692  15.821  15.050  1.00  0.00     0.093 C 
ENDBRANCH   4   8
BRANCH   5  11
ATOM     11  O   UNL     1      17.807  17.028  18.265  1.00  0.00    -0.507 OA
ATOM     12  H   UNL     1      17.570  17.147  19.243  1.00  0.00     0.293 HD
ENDBRANCH   5  11
TORSDOF 2
ENDMDL
MODEL 6
REMARK VINA RESULT:    -4.452      2.422      4.356
REMARK INTER + INTRA:          -5.137
REMARK INTER:                  -4.833
REMARK INTRA:                  -0.304
REMARK UNBOUND:                -0.295
REMARK SMILES CC(=O)c1cc(C)ccc1O
REMARK SMILES IDX 7 1 6 2 5 3 4 4 10 5 9 6 8 7 2 8 3 9 1 10 11 11
REMARK H PARENT 11 12
REMARK Flexibility Score: inf
ROOT
ATOM      1  C   UNL     1      16.600  20.171  13.954  1.00  0.00     0.044 C 
ATOM      2  C   UNL     1      16.219  19.411  15.191  1.00  0.00    -0.050 A 
ATOM      3  C   UNL     1      17.139  19.260  16.238  1.00  0.00     0.019 A 
ATOM      4  C   UNL     1      16.807  18.527  17.395  1.00  0.00     0.059 A 
ATOM      5  C   UNL     1      15.538  17.908  17.468  1.00  0.00     0.126 A 
ATOM      6  C   UNL     1      14.627  18.053  16.412  1.00  0.00     0.047 A 
ATOM      7  C   UNL     1      14.966  18.793  15.280  1.00  0.00     0.007 A 
ENDROOT
BRANCH   4   8
ATOM      8  C   UNL     1      17.813  18.417  18.485  1.00  0.00     0.163 C 
ATOM      9  O   UNL     1      18.038  17.292  19.009  1.00  0.00    -0.294 OA
ATOM     10  C   UNL     1      18.580  19.600  18.993  1.00  0.00     0.093 C 
ENDBRANCH   4   8
BRANCH   5  11
ATOM     11  O   UNL     1      15.183  17.129  18.570  1.00  0.00    -0.507 OA
ATOM     12  H   UNL     1      14.394  16.494  18.543  1.00  0.00     0.293 HD
ENDBRANCH   5  11
TORSDOF 2
ENDMDL
MODEL 7
REMARK VINA RESULT:    -4.363      2.206      3.801
REMARK INTER + INTRA:          -5.041
REMARK INTER:                  -4.739
REMARK INTRA:                  -0.302
REMARK UNBOUND:                -0.295
REMARK SMILES CC(=O)c1cc(C)ccc1O
REMARK SMILES IDX 7 1 6 2 5 3 4 4 10 5 9 6 8 7 2 8 3 9 1 10 11 11
REMARK H PARENT 11 12
REMARK Flexibility Score: inf
ROOT
ATOM      1  C   UNL     1      16.301  15.699  14.818  1.00  0.00     0.044 C 
ATOM      2  C   UNL     1      16.427  17.050  15.460  1.00  0.00    -0.050 A 
ATOM      3  C   UNL     1      17.141  17.199  16.658  1.00  0.00     0.019 A 
ATOM      4  C   UNL     1      17.247  18.454  17.288  1.00  0.00     0.059 A 
ATOM      5  C   UNL     1      16.587  19.564  16.712  1.00  0.00     0.126 A 
ATOM      6  C   UNL     1      15.865  19.406  15.520  1.00  0.00     0.047 A 
ATOM      7  C   UNL     1      15.781  18.159  14.902  1.00  0.00     0.007 A 
ENDROOT
BRANCH   4   8
ATOM      8  C   UNL     1      18.035  18.559  18.546  1.00  0.00     0.163 C 
ATOM      9  O   UNL     1      18.783  19.558  18.725  1.00  0.00    -0.294 OA
ATOM     10  C   UNL     1      17.977  17.517  19.620  1.00  0.00     0.093 C 
ENDBRANCH   4   8
BRANCH   5  11
ATOM     11  O   UNL     1      16.621  20.815  17.326  1.00  0.00    -0.507 OA
ATOM     12  H   UNL     1      17.236  21.553  17.002  1.00  0.00     0.293 HD
ENDBRANCH   5  11
TORSDOF 2
ENDMDL
MODEL 8
REMARK VINA RESULT:    -4.296      9.082     10.401
REMARK INTER + INTRA:          -4.967
REMARK INTER:                  -4.670
REMARK INTRA:                  -0.298
REMARK UNBOUND:                -0.295
REMARK SMILES CC(=O)c1cc(C)ccc1O
REMARK SMILES IDX 7 1 6 2 5 3 4 4 10 5 9 6 8 7 2 8 3 9 1 10 11 11
REMARK H PARENT 11 12
REMARK Flexibility Score: inf
ROOT
ATOM      1  C   UNL     1      21.431  24.653   6.475  1.00  0.00     0.044 C 
ATOM      2  C   UNL     1      20.673  23.847   7.490  1.00  0.00    -0.050 A 
ATOM      3  C   UNL     1      21.039  22.520   7.755  1.00  0.00     0.019 A 
ATOM      4  C   UNL     1      20.322  21.741   8.684  1.00  0.00     0.059 A 
ATOM      5  C   UNL     1      19.195  22.309   9.323  1.00  0.00     0.126 A 
ATOM      6  C   UNL     1      18.827  23.633   9.045  1.00  0.00     0.047 A 
ATOM      7  C   UNL     1      19.556  24.395   8.132  1.00  0.00     0.007 A 
ENDROOT
BRANCH   4   8
ATOM      8  C   UNL     1      20.768  20.346   8.943  1.00  0.00     0.163 C 
ATOM      9  O   UNL     1      21.035  19.991  10.124  1.00  0.00    -0.294 OA
ATOM     10  C   UNL     1      20.912  19.332   7.850  1.00  0.00     0.093 C 
ENDBRANCH   4   8
BRANCH   5  11
ATOM     11  O   UNL     1      18.424  21.561  10.212  1.00  0.00    -0.507 OA
ATOM     12  H   UNL     1      18.433  20.548  10.206  1.00  0.00     0.293 HD
ENDBRANCH   5  11
TORSDOF 2
ENDMDL
MODEL 9
REMARK VINA RESULT:    -4.290      9.470     10.507
REMARK INTER + INTRA:          -4.961
REMARK INTER:                  -4.669
REMARK INTRA:                  -0.292
REMARK UNBOUND:                -0.295
REMARK SMILES CC(=O)c1cc(C)ccc1O
REMARK SMILES IDX 7 1 6 2 5 3 4 4 10 5 9 6 8 7 2 8 3 9 1 10 11 11
REMARK H PARENT 11 12
REMARK Flexibility Score: inf
ROOT
ATOM      1  C   UNL     1      14.820   8.890  10.923  1.00  0.00     0.044 C 
ATOM      2  C   UNL     1      16.214   9.443  10.991  1.00  0.00    -0.050 A 
ATOM      3  C   UNL     1      16.475  10.616  11.714  1.00  0.00     0.019 A 
ATOM      4  C   UNL     1      17.772  11.163  11.766  1.00  0.00     0.059 A 
ATOM      5  C   UNL     1      18.809  10.528  11.043  1.00  0.00     0.126 A 
ATOM      6  C   UNL     1      18.539   9.361  10.313  1.00  0.00     0.047 A 
ATOM      7  C   UNL     1      17.252   8.826  10.283  1.00  0.00     0.007 A 
ENDROOT
BRANCH   4   8
ATOM      8  C   UNL     1      17.996  12.397  12.566  1.00  0.00     0.163 C 
ATOM      9  O   UNL     1      18.787  13.279  12.133  1.00  0.00    -0.294 OA
ATOM     10  C   UNL     1      17.314  12.641  13.877  1.00  0.00     0.093 C 
ENDBRANCH   4   8
BRANCH   5  11
ATOM     11  O   UNL     1      20.097  11.060  11.023  1.00  0.00    -0.507 OA
ATOM     12  H   UNL     1      20.903  10.499  10.771  1.00  0.00     0.293 HD
ENDBRANCH   5  11
TORSDOF 2
ENDMDL
