MODEL 1
REMARK VINA RESULT:    -5.287      0.000      0.000
REMARK INTER + INTRA:          -8.876
REMARK INTER:                  -7.915
REMARK INTRA:                  -0.961
REMARK UNBOUND:                -0.961
REMARK SMILES COC(=O)C1=CO[C@H](O[C@@H]2O[C@@H](CO)[C@H](O)[C@@H](O)[C@H]2O)[C@H]2C(CO)=CC[C@H]12
REMARK SMILES IDX 9 1 8 2 5 3 6 4 27 5 7 6 21 7 26 8 22 9 25 10 3 11 4 12 2 13
REMARK SMILES IDX 1 14 23 15 24 16 10 18 19 19 11 20 17 21 12 22 15 23 20 24
REMARK SMILES IDX 18 26 13 28 14 29 16 31
REMARK H PARENT 24 17 20 25 18 27 14 30 16 32
REMARK Flexibility Score: inf
ROOT
ATOM      1  O   UNL     1      28.647  -5.160  35.204  1.00  0.00    -0.310 OA
ENDROOT
BRANCH   1   2
ATOM      2  C   UNL     1      29.554  -4.612  34.268  1.00  0.00     0.316 C 
ATOM      3  C   UNL     1      31.489  -2.494  33.696  1.00  0.00     0.076 C 
ATOM      4  C   UNL     1      30.166  -2.226  33.724  1.00  0.00     0.202 C 
ATOM      5  C   UNL     1      31.881  -3.949  33.827  1.00  0.00     0.047 C 
ATOM      6  O   UNL     1      29.213  -3.235  34.009  1.00  0.00    -0.471 OA
ATOM      7  C   UNL     1      30.970  -4.628  34.844  1.00  0.00     0.094 C 
ATOM      8  C   UNL     1      33.273  -4.361  34.297  1.00  0.00     0.037 C 
ATOM      9  C   UNL     1      31.690  -5.913  35.095  1.00  0.00    -0.039 C 
ATOM     10  C   UNL     1      32.996  -5.719  34.876  1.00  0.00    -0.024 C 
BRANCH   3  11
ATOM     11  C   UNL     1      32.465  -1.440  33.329  1.00  0.00     0.337 C 
ATOM     12  O   UNL     1      33.434  -1.183  34.100  1.00  0.00    -0.246 OA
BRANCH  11  13
ATOM     13  O   UNL     1      32.335  -0.756  32.114  1.00  0.00    -0.466 OA
ATOM     14  C   UNL     1      32.012   0.627  32.044  1.00  0.00     0.282 C 
ENDBRANCH  11  13
ENDBRANCH   3  11
BRANCH   9  15
ATOM     15  C   UNL     1      31.156  -7.048  35.927  1.00  0.00     0.187 C 
BRANCH  15  16
ATOM     16  O   UNL     1      30.547  -6.572  37.100  1.00  0.00    -0.392 OA
ATOM     17  H   UNL     1      30.118  -5.705  36.865  1.00  0.00     0.211 HD
ENDBRANCH  15  16
ENDBRANCH   9  15
ENDBRANCH   1   2
BRANCH   1  18
ATOM     18  C   UNL     1      27.310  -4.778  34.919  1.00  0.00     0.286 C 
ATOM     19  C   UNL     1      26.748  -5.669  33.778  1.00  0.00     0.202 C 
ATOM     20  O   UNL     1      26.544  -4.971  36.096  1.00  0.00    -0.341 OA
ATOM     21  C   UNL     1      25.206  -5.824  33.880  1.00  0.00     0.179 C 
ATOM     22  C   UNL     1      25.231  -4.426  35.987  1.00  0.00     0.178 C 
ATOM     23  C   UNL     1      24.590  -4.600  34.577  1.00  0.00     0.177 C 
BRANCH  19  24
ATOM     24  O   UNL     1      27.134  -5.163  32.520  1.00  0.00    -0.385 OA
ATOM     25  H   UNL     1      27.737  -5.832  32.098  1.00  0.00     0.211 HD
ENDBRANCH  19  24
BRANCH  21  26
ATOM     26  O   UNL     1      24.633  -5.986  32.607  1.00  0.00    -0.387 OA
ATOM     27  H   UNL     1      23.841  -6.580  32.724  1.00  0.00     0.211 HD
ENDBRANCH  21  26
BRANCH  22  28
ATOM     28  C   UNL     1      25.218  -2.962  36.463  1.00  0.00     0.191 C 
BRANCH  28  29
ATOM     29  O   UNL     1      24.292  -2.204  35.727  1.00  0.00    -0.394 OA
ATOM     30  H   UNL     1      24.629  -2.166  34.798  1.00  0.00     0.210 HD
ENDBRANCH  28  29
ENDBRANCH  22  28
BRANCH  23  31
ATOM     31  O   UNL     1      23.201  -4.766  34.706  1.00  0.00    -0.387 OA
ATOM     32  H   UNL     1      22.771  -4.068  34.146  1.00  0.00     0.211 HD
ENDBRANCH  23  31
ENDBRANCH   1  18
TORSDOF 11
ENDMDL
MODEL 2
REMARK VINA RESULT:    -5.249      2.099      3.190
REMARK INTER + INTRA:          -8.818
REMARK INTER:                  -7.413
REMARK INTRA:                  -1.405
REMARK UNBOUND:                -0.961
REMARK SMILES COC(=O)C1=CO[C@H](O[C@@H]2O[C@@H](CO)[C@H](O)[C@@H](O)[C@H]2O)[C@H]2C(CO)=CC[C@H]12
REMARK SMILES IDX 9 1 8 2 5 3 6 4 27 5 7 6 21 7 26 8 22 9 25 10 3 11 4 12 2 13
REMARK SMILES IDX 1 14 23 15 24 16 10 18 19 19 11 20 17 21 12 22 15 23 20 24
REMARK SMILES IDX 18 26 13 28 14 29 16 31
REMARK H PARENT 24 17 20 25 18 27 14 30 16 32
REMARK Flexibility Score: inf
ROOT
ATOM      1  O   UNL     1      27.558  -2.923  35.426  1.00  0.00    -0.310 OA
ENDROOT
BRANCH   1   2
ATOM      2  C   UNL     1      28.598  -3.752  34.946  1.00  0.00     0.316 C 
ATOM      3  C   UNL     1      31.264  -3.877  33.748  1.00  0.00     0.076 C 
ATOM      4  C   UNL     1      30.199  -3.487  33.015  1.00  0.00     0.202 C 
ATOM      5  C   UNL     1      30.969  -4.375  35.146  1.00  0.00     0.047 C 
ATOM      6  O   UNL     1      28.903  -3.409  33.578  1.00  0.00    -0.471 OA
ATOM      7  C   UNL     1      29.869  -3.520  35.765  1.00  0.00     0.094 C 
ATOM      8  C   UNL     1      32.040  -4.381  36.233  1.00  0.00     0.037 C 
ATOM      9  C   UNL     1      29.945  -3.913  37.204  1.00  0.00    -0.039 C 
ATOM     10  C   UNL     1      31.197  -4.302  37.474  1.00  0.00    -0.024 C 
BRANCH   3  11
ATOM     11  C   UNL     1      32.602  -4.016  33.123  1.00  0.00     0.337 C 
ATOM     12  O   UNL     1      33.005  -5.153  32.743  1.00  0.00    -0.246 OA
BRANCH  11  13
ATOM     13  O   UNL     1      33.401  -2.884  32.919  1.00  0.00    -0.466 OA
ATOM     14  C   UNL     1      33.417  -1.786  33.822  1.00  0.00     0.282 C 
ENDBRANCH  11  13
ENDBRANCH   3  11
BRANCH   9  15
ATOM     15  C   UNL     1      28.976  -3.470  38.268  1.00  0.00     0.187 C 
BRANCH  15  16
ATOM     16  O   UNL     1      28.632  -2.117  38.106  1.00  0.00    -0.392 OA
ATOM     17  H   UNL     1      29.284  -1.733  37.460  1.00  0.00     0.211 HD
ENDBRANCH  15  16
ENDBRANCH   9  15
ENDBRANCH   1   2
BRANCH   1  18
ATOM     18  C   UNL     1      26.421  -3.683  35.807  1.00  0.00     0.286 C 
ATOM     19  C   UNL     1      25.168  -2.766  35.830  1.00  0.00     0.202 C 
ATOM     20  O   UNL     1      26.244  -4.708  34.844  1.00  0.00    -0.341 OA
ATOM     21  C   UNL     1      23.869  -3.565  35.538  1.00  0.00     0.179 C 
ATOM     22  C   UNL     1      25.256  -5.658  35.234  1.00  0.00     0.178 C 
ATOM     23  C   UNL     1      24.033  -5.031  35.971  1.00  0.00     0.177 C 
BRANCH  19  24
ATOM     24  O   UNL     1      25.084  -2.075  37.056  1.00  0.00    -0.385 OA
ATOM     25  H   UNL     1      25.733  -2.493  37.683  1.00  0.00     0.211 HD
ENDBRANCH  19  24
BRANCH  21  26
ATOM     26  O   UNL     1      22.768  -2.993  36.199  1.00  0.00    -0.387 OA
ATOM     27  H   UNL     1      23.120  -2.583  37.036  1.00  0.00     0.211 HD
ENDBRANCH  21  26
BRANCH  22  28
ATOM     28  C   UNL     1      25.902  -6.803  36.035  1.00  0.00     0.191 C 
BRANCH  28  29
ATOM     29  O   UNL     1      25.127  -7.125  37.163  1.00  0.00    -0.394 OA
ATOM     30  H   UNL     1      25.484  -6.590  37.915  1.00  0.00     0.210 HD
ENDBRANCH  28  29
ENDBRANCH  22  28
BRANCH  23  31
ATOM     31  O   UNL     1      22.871  -5.759  35.662  1.00  0.00    -0.387 OA
ATOM     32  H   UNL     1      22.097  -5.204  35.944  1.00  0.00     0.211 HD
ENDBRANCH  23  31
ENDBRANCH   1  18
TORSDOF 11
ENDMDL
MODEL 3
REMARK VINA RESULT:    -5.189      2.452      7.748
REMARK INTER + INTRA:          -8.728
REMARK INTER:                  -8.061
REMARK INTRA:                  -0.667
REMARK UNBOUND:                -0.961
REMARK SMILES COC(=O)C1=CO[C@H](O[C@@H]2O[C@@H](CO)[C@H](O)[C@@H](O)[C@H]2O)[C@H]2C(CO)=CC[C@H]12
REMARK SMILES IDX 9 1 8 2 5 3 6 4 27 5 7 6 21 7 26 8 22 9 25 10 3 11 4 12 2 13
REMARK SMILES IDX 1 14 23 15 24 16 10 18 19 19 11 20 17 21 12 22 15 23 20 24
REMARK SMILES IDX 18 26 13 28 14 29 16 31
REMARK H PARENT 24 17 20 25 18 27 14 30 16 32
REMARK Flexibility Score: inf
ROOT
ATOM      1  O   UNL     1      27.939  -2.990  36.583  1.00  0.00    -0.310 OA
ENDROOT
BRANCH   1   2
ATOM      2  C   UNL     1      26.849  -3.223  35.712  1.00  0.00     0.316 C 
ATOM      3  C   UNL     1      24.359  -4.689  35.255  1.00  0.00     0.076 C 
ATOM      4  C   UNL     1      25.552  -5.318  35.171  1.00  0.00     0.202 C 
ATOM      5  C   UNL     1      24.404  -3.190  35.447  1.00  0.00     0.047 C 
ATOM      6  O   UNL     1      26.768  -4.629  35.399  1.00  0.00    -0.471 OA
ATOM      7  C   UNL     1      25.540  -2.836  36.400  1.00  0.00     0.094 C 
ATOM      8  C   UNL     1      23.222  -2.425  36.036  1.00  0.00     0.037 C 
ATOM      9  C   UNL     1      25.232  -1.412  36.734  1.00  0.00    -0.039 C 
ATOM     10  C   UNL     1      23.912  -1.224  36.617  1.00  0.00    -0.024 C 
BRANCH   3  11
ATOM     11  C   UNL     1      23.102  -5.412  34.947  1.00  0.00     0.337 C 
ATOM     12  O   UNL     1      23.091  -6.307  34.055  1.00  0.00    -0.246 OA
BRANCH  11  13
ATOM     13  O   UNL     1      21.936  -5.129  35.671  1.00  0.00    -0.466 OA
ATOM     14  C   UNL     1      21.816  -5.394  37.063  1.00  0.00     0.282 C 
ENDBRANCH  11  13
ENDBRANCH   3  11
BRANCH   9  15
ATOM     15  C   UNL     1      26.122  -0.508  37.543  1.00  0.00     0.187 C 
BRANCH  15  16
ATOM     16  O   UNL     1      26.004   0.827  37.121  1.00  0.00    -0.392 OA
ATOM     17  H   UNL     1      25.043   0.974  36.908  1.00  0.00     0.211 HD
ENDBRANCH  15  16
ENDBRANCH   9  15
ENDBRANCH   1   2
BRANCH   1  18
ATOM     18  C   UNL     1      29.042  -3.828  36.271  1.00  0.00     0.286 C 
ATOM     19  C   UNL     1      30.311  -2.957  36.061  1.00  0.00     0.202 C 
ATOM     20  O   UNL     1      29.242  -4.705  37.366  1.00  0.00    -0.341 OA
ATOM     21  C   UNL     1      31.605  -3.738  36.413  1.00  0.00     0.179 C 
ATOM     22  C   UNL     1      30.193  -5.728  37.079  1.00  0.00     0.178 C 
ATOM     23  C   UNL     1      31.393  -5.247  36.208  1.00  0.00     0.177 C 
BRANCH  19  24
ATOM     24  O   UNL     1      30.353  -2.455  34.745  1.00  0.00    -0.385 OA
ATOM     25  H   UNL     1      31.304  -2.275  34.520  1.00  0.00     0.211 HD
ENDBRANCH  19  24
BRANCH  21  26
ATOM     26  O   UNL     1      32.686  -3.299  35.630  1.00  0.00    -0.387 OA
ATOM     27  H   UNL     1      32.676  -3.845  34.797  1.00  0.00     0.211 HD
ENDBRANCH  21  26
BRANCH  22  28
ATOM     28  C   UNL     1      29.489  -6.960  36.483  1.00  0.00     0.191 C 
BRANCH  28  29
ATOM     29  O   UNL     1      28.145  -7.014  36.889  1.00  0.00    -0.394 OA
ATOM     30  H   UNL     1      27.618  -7.279  36.095  1.00  0.00     0.210 HD
ENDBRANCH  28  29
ENDBRANCH  22  28
BRANCH  23  31
ATOM     31  O   UNL     1      32.553  -5.952  36.571  1.00  0.00    -0.387 OA
ATOM     32  H   UNL     1      32.438  -6.886  36.252  1.00  0.00     0.211 HD
ENDBRANCH  23  31
ENDBRANCH   1  18
TORSDOF 11
ENDMDL
MODEL 4
REMARK VINA RESULT:    -5.149      1.839      6.640
REMARK INTER + INTRA:          -8.669
REMARK INTER:                  -7.853
REMARK INTRA:                  -0.816
REMARK UNBOUND:                -0.961
REMARK SMILES COC(=O)C1=CO[C@H](O[C@@H]2O[C@@H](CO)[C@H](O)[C@@H](O)[C@H]2O)[C@H]2C(CO)=CC[C@H]12
REMARK SMILES IDX 9 1 8 2 5 3 6 4 27 5 7 6 21 7 26 8 22 9 25 10 3 11 4 12 2 13
REMARK SMILES IDX 1 14 23 15 24 16 10 18 19 19 11 20 17 21 12 22 15 23 20 24
REMARK SMILES IDX 18 26 13 28 14 29 16 31
REMARK H PARENT 24 17 20 25 18 27 14 30 16 32
REMARK Flexibility Score: inf
ROOT
ATOM      1  O   UNL     1      28.074  -5.746  35.328  1.00  0.00    -0.310 OA
ENDROOT
BRANCH   1   2
ATOM      2  C   UNL     1      27.142  -5.005  36.091  1.00  0.00     0.316 C 
ATOM      3  C   UNL     1      25.992  -2.375  36.654  1.00  0.00     0.076 C 
ATOM      4  C   UNL     1      27.242  -2.679  37.063  1.00  0.00     0.202 C 
ATOM      5  C   UNL     1      25.195  -3.503  36.036  1.00  0.00     0.047 C 
ATOM      6  O   UNL     1      27.821  -3.943  36.792  1.00  0.00    -0.471 OA
ATOM      7  C   UNL     1      26.115  -4.352  35.166  1.00  0.00     0.094 C 
ATOM      8  C   UNL     1      24.013  -3.231  35.110  1.00  0.00     0.037 C 
ATOM      9  C   UNL     1      25.135  -5.175  34.393  1.00  0.00    -0.039 C 
ATOM     10  C   UNL     1      23.991  -4.488  34.288  1.00  0.00    -0.024 C 
BRANCH   3  11
ATOM     11  C   UNL     1      25.379  -1.071  37.006  1.00  0.00     0.337 C 
ATOM     12  O   UNL     1      24.209  -0.798  36.612  1.00  0.00    -0.246 OA
BRANCH  11  13
ATOM     13  O   UNL     1      26.080  -0.160  37.806  1.00  0.00    -0.466 OA
ATOM     14  C   UNL     1      25.556   1.115  38.155  1.00  0.00     0.282 C 
ENDBRANCH  11  13
ENDBRANCH   3  11
BRANCH   9  15
ATOM     15  C   UNL     1      25.503  -6.304  33.468  1.00  0.00     0.187 C 
BRANCH  15  16
ATOM     16  O   UNL     1      26.553  -5.932  32.611  1.00  0.00    -0.392 OA
ATOM     17  H   UNL     1      26.815  -6.752  32.111  1.00  0.00     0.211 HD
ENDBRANCH  15  16
ENDBRANCH   9  15
ENDBRANCH   1   2
BRANCH   1  18
ATOM     18  C   UNL     1      29.350  -5.124  35.319  1.00  0.00     0.286 C 
ATOM     19  C   UNL     1      30.434  -6.157  35.731  1.00  0.00     0.202 C 
ATOM     20  O   UNL     1      29.601  -4.671  34.000  1.00  0.00    -0.341 OA
ATOM     21  C   UNL     1      31.813  -5.823  35.098  1.00  0.00     0.179 C 
ATOM     22  C   UNL     1      30.763  -3.848  33.917  1.00  0.00     0.178 C 
ATOM     23  C   UNL     1      31.930  -4.312  34.840  1.00  0.00     0.177 C 
BRANCH  19  24
ATOM     24  O   UNL     1      30.519  -6.252  37.134  1.00  0.00    -0.385 OA
ATOM     25  H   UNL     1      29.609  -6.454  37.479  1.00  0.00     0.211 HD
ENDBRANCH  19  24
BRANCH  21  26
ATOM     26  O   UNL     1      32.863  -6.247  35.931  1.00  0.00    -0.387 OA
ATOM     27  H   UNL     1      33.633  -6.455  35.334  1.00  0.00     0.211 HD
ENDBRANCH  21  26
BRANCH  22  28
ATOM     28  C   UNL     1      30.389  -2.371  34.136  1.00  0.00     0.191 C 
BRANCH  28  29
ATOM     29  O   UNL     1      29.037  -2.146  33.830  1.00  0.00    -0.394 OA
ATOM     30  H   UNL     1      28.899  -2.457  32.901  1.00  0.00     0.210 HD
ENDBRANCH  28  29
ENDBRANCH  22  28
BRANCH  23  31
ATOM     31  O   UNL     1      33.161  -4.021  34.227  1.00  0.00    -0.387 OA
ATOM     32  H   UNL     1      33.093  -4.320  33.282  1.00  0.00     0.211 HD
ENDBRANCH  23  31
ENDBRANCH   1  18
TORSDOF 11
ENDMDL
MODEL 5
REMARK VINA RESULT:    -5.128      2.068      7.329
REMARK INTER + INTRA:          -8.638
REMARK INTER:                  -7.670
REMARK INTRA:                  -0.968
REMARK UNBOUND:                -0.961
REMARK SMILES COC(=O)C1=CO[C@H](O[C@@H]2O[C@@H](CO)[C@H](O)[C@@H](O)[C@H]2O)[C@H]2C(CO)=CC[C@H]12
REMARK SMILES IDX 9 1 8 2 5 3 6 4 27 5 7 6 21 7 26 8 22 9 25 10 3 11 4 12 2 13
REMARK SMILES IDX 1 14 23 15 24 16 10 18 19 19 11 20 17 21 12 22 15 23 20 24
REMARK SMILES IDX 18 26 13 28 14 29 16 31
REMARK H PARENT 24 17 20 25 18 27 14 30 16 32
REMARK Flexibility Score: inf
ROOT
ATOM      1  O   UNL     1      29.416  -5.906  36.379  1.00  0.00    -0.310 OA
ENDROOT
BRANCH   1   2
ATOM      2  C   UNL     1      28.266  -5.612  35.609  1.00  0.00     0.316 C 
ATOM      3  C   UNL     1      25.359  -5.843  35.378  1.00  0.00     0.076 C 
ATOM      4  C   UNL     1      26.152  -6.920  35.186  1.00  0.00     0.202 C 
ATOM      5  C   UNL     1      26.064  -4.518  35.566  1.00  0.00     0.047 C 
ATOM      6  O   UNL     1      27.560  -6.832  35.303  1.00  0.00    -0.471 OA
ATOM      7  C   UNL     1      27.314  -4.727  36.414  1.00  0.00     0.094 C 
ATOM      8  C   UNL     1      25.380  -3.343  36.260  1.00  0.00     0.037 C 
ATOM      9  C   UNL     1      27.679  -3.323  36.775  1.00  0.00    -0.039 C 
ATOM     10  C   UNL     1      26.566  -2.581  36.778  1.00  0.00    -0.024 C 
BRANCH   3  11
ATOM     11  C   UNL     1      23.893  -5.941  35.184  1.00  0.00     0.337 C 
ATOM     12  O   UNL     1      23.420  -6.116  34.024  1.00  0.00    -0.246 OA
BRANCH  11  13
ATOM     13  O   UNL     1      23.034  -5.878  36.289  1.00  0.00    -0.466 OA
ATOM     14  C   UNL     1      22.009  -4.899  36.407  1.00  0.00     0.282 C 
ENDBRANCH  11  13
ENDBRANCH   3  11
BRANCH   9  15
ATOM     15  C   UNL     1      28.936  -2.924  37.502  1.00  0.00     0.187 C 
BRANCH  15  16
ATOM     16  O   UNL     1      28.699  -1.837  38.361  1.00  0.00    -0.392 OA
ATOM     17  H   UNL     1      29.553  -1.662  38.840  1.00  0.00     0.211 HD
ENDBRANCH  15  16
ENDBRANCH   9  15
ENDBRANCH   1   2
BRANCH   1  18
ATOM     18  C   UNL     1      30.573  -5.281  35.845  1.00  0.00     0.286 C 
ATOM     19  C   UNL     1      31.743  -6.301  35.805  1.00  0.00     0.202 C 
ATOM     20  O   UNL     1      30.266  -4.857  34.527  1.00  0.00    -0.341 OA
ATOM     21  C   UNL     1      32.746  -5.978  34.664  1.00  0.00     0.179 C 
ATOM     22  C   UNL     1      31.286  -4.033  33.967  1.00  0.00     0.178 C 
ATOM     23  C   UNL     1      32.732  -4.473  34.350  1.00  0.00     0.177 C 
BRANCH  19  24
ATOM     24  O   UNL     1      32.387  -6.364  37.057  1.00  0.00    -0.385 OA
ATOM     25  H   UNL     1      33.237  -6.865  36.935  1.00  0.00     0.211 HD
ENDBRANCH  19  24
BRANCH  21  26
ATOM     26  O   UNL     1      34.047  -6.380  35.011  1.00  0.00    -0.387 OA
ATOM     27  H   UNL     1      33.984  -7.332  35.299  1.00  0.00     0.211 HD
ENDBRANCH  21  26
BRANCH  22  28
ATOM     28  C   UNL     1      31.016  -2.553  34.289  1.00  0.00     0.191 C 
BRANCH  28  29
ATOM     29  O   UNL     1      32.219  -1.860  34.507  1.00  0.00    -0.394 OA
ATOM     30  H   UNL     1      32.941  -2.416  34.123  1.00  0.00     0.210 HD
ENDBRANCH  28  29
ENDBRANCH  22  28
BRANCH  23  31
ATOM     31  O   UNL     1      33.608  -4.193  33.288  1.00  0.00    -0.387 OA
ATOM     32  H   UNL     1      33.252  -4.659  32.487  1.00  0.00     0.211 HD
ENDBRANCH  23  31
ENDBRANCH   1  18
TORSDOF 11
ENDMDL
MODEL 6
REMARK VINA RESULT:    -5.118      1.928      2.340
REMARK INTER + INTRA:          -8.622
REMARK INTER:                  -7.368
REMARK INTRA:                  -1.254
REMARK UNBOUND:                -0.961
REMARK SMILES COC(=O)C1=CO[C@H](O[C@@H]2O[C@@H](CO)[C@H](O)[C@@H](O)[C@H]2O)[C@H]2C(CO)=CC[C@H]12
REMARK SMILES IDX 9 1 8 2 5 3 6 4 27 5 7 6 21 7 26 8 22 9 25 10 3 11 4 12 2 13
REMARK SMILES IDX 1 14 23 15 24 16 10 18 19 19 11 20 17 21 12 22 15 23 20 24
REMARK SMILES IDX 18 26 13 28 14 29 16 31
REMARK H PARENT 24 17 20 25 18 27 14 30 16 32
REMARK Flexibility Score: inf
ROOT
ATOM      1  O   UNL     1      27.979  -2.820  35.110  1.00  0.00    -0.310 OA
ENDROOT
BRANCH   1   2
ATOM      2  C   UNL     1      28.997  -3.655  34.591  1.00  0.00     0.316 C 
ATOM      3  C   UNL     1      31.725  -3.818  33.548  1.00  0.00     0.076 C 
ATOM      4  C   UNL     1      30.739  -3.267  32.809  1.00  0.00     0.202 C 
ATOM      5  C   UNL     1      31.306  -4.461  34.851  1.00  0.00     0.047 C 
ATOM      6  O   UNL     1      29.414  -3.169  33.299  1.00  0.00    -0.471 OA
ATOM      7  C   UNL     1      30.220  -3.615  35.507  1.00  0.00     0.094 C 
ATOM      8  C   UNL     1      32.298  -4.676  35.991  1.00  0.00     0.037 C 
ATOM      9  C   UNL     1      30.174  -4.186  36.887  1.00  0.00    -0.039 C 
ATOM     10  C   UNL     1      31.379  -4.691  37.179  1.00  0.00    -0.024 C 
BRANCH   3  11
ATOM     11  C   UNL     1      33.090  -3.972  32.991  1.00  0.00     0.337 C 
ATOM     12  O   UNL     1      33.329  -4.888  32.153  1.00  0.00    -0.246 OA
BRANCH  11  13
ATOM     13  O   UNL     1      34.104  -3.081  33.365  1.00  0.00    -0.466 OA
ATOM     14  C   UNL     1      33.833  -1.772  33.851  1.00  0.00     0.282 C 
ENDBRANCH  11  13
ENDBRANCH   3  11
BRANCH   9  15
ATOM     15  C   UNL     1      29.164  -3.810  37.938  1.00  0.00     0.187 C 
BRANCH  15  16
ATOM     16  O   UNL     1      28.811  -2.454  37.838  1.00  0.00    -0.392 OA
ATOM     17  H   UNL     1      29.308  -1.977  38.556  1.00  0.00     0.211 HD
ENDBRANCH  15  16
ENDBRANCH   9  15
ENDBRANCH   1   2
BRANCH   1  18
ATOM     18  C   UNL     1      26.717  -3.469  35.095  1.00  0.00     0.286 C 
ATOM     19  C   UNL     1      26.896  -4.942  34.636  1.00  0.00     0.202 C 
ATOM     20  O   UNL     1      26.201  -3.442  36.415  1.00  0.00    -0.341 OA
ATOM     21  C   UNL     1      25.802  -5.866  35.236  1.00  0.00     0.179 C 
ATOM     22  C   UNL     1      24.847  -3.882  36.481  1.00  0.00     0.178 C 
ATOM     23  C   UNL     1      24.520  -5.064  35.518  1.00  0.00     0.177 C 
BRANCH  19  24
ATOM     24  O   UNL     1      26.924  -5.021  33.229  1.00  0.00    -0.385 OA
ATOM     25  H   UNL     1      26.308  -4.325  32.875  1.00  0.00     0.211 HD
ENDBRANCH  19  24
BRANCH  21  26
ATOM     26  O   UNL     1      25.514  -6.933  34.367  1.00  0.00    -0.387 OA
ATOM     27  H   UNL     1      26.049  -7.711  34.685  1.00  0.00     0.211 HD
ENDBRANCH  21  26
BRANCH  22  28
ATOM     28  C   UNL     1      23.888  -2.692  36.299  1.00  0.00     0.191 C 
BRANCH  28  29
ATOM     29  O   UNL     1      22.581  -3.039  36.682  1.00  0.00    -0.394 OA
ATOM     30  H   UNL     1      22.620  -3.282  37.640  1.00  0.00     0.210 HD
ENDBRANCH  28  29
ENDBRANCH  22  28
BRANCH  23  31
ATOM     31  O   UNL     1      23.550  -5.895  36.102  1.00  0.00    -0.387 OA
ATOM     32  H   UNL     1      22.665  -5.480  35.923  1.00  0.00     0.211 HD
ENDBRANCH  23  31
ENDBRANCH   1  18
TORSDOF 11
ENDMDL
MODEL 7
REMARK VINA RESULT:    -5.041      1.975      7.717
REMARK INTER + INTRA:          -8.506
REMARK INTER:                  -8.418
REMARK INTRA:                  -0.088
REMARK UNBOUND:                -0.961
REMARK SMILES COC(=O)C1=CO[C@H](O[C@@H]2O[C@@H](CO)[C@H](O)[C@@H](O)[C@H]2O)[C@H]2C(CO)=CC[C@H]12
REMARK SMILES IDX 9 1 8 2 5 3 6 4 27 5 7 6 21 7 26 8 22 9 25 10 3 11 4 12 2 13
REMARK SMILES IDX 1 14 23 15 24 16 10 18 19 19 11 20 17 21 12 22 15 23 20 24
REMARK SMILES IDX 18 26 13 28 14 29 16 31
REMARK H PARENT 24 17 20 25 18 27 14 30 16 32
REMARK Flexibility Score: inf
ROOT
ATOM      1  O   UNL     1      27.941  -3.053  36.464  1.00  0.00    -0.310 OA
ENDROOT
BRANCH   1   2
ATOM      2  C   UNL     1      26.844  -3.421  35.650  1.00  0.00     0.316 C 
ATOM      3  C   UNL     1      24.478  -5.118  35.366  1.00  0.00     0.076 C 
ATOM      4  C   UNL     1      25.718  -5.644  35.260  1.00  0.00     0.202 C 
ATOM      5  C   UNL     1      24.397  -3.613  35.488  1.00  0.00     0.047 C 
ATOM      6  O   UNL     1      26.876  -4.842  35.404  1.00  0.00    -0.471 OA
ATOM      7  C   UNL     1      25.533  -3.116  36.376  1.00  0.00     0.094 C 
ATOM      8  C   UNL     1      23.175  -2.925  36.091  1.00  0.00     0.037 C 
ATOM      9  C   UNL     1      25.113  -1.710  36.657  1.00  0.00    -0.039 C 
ATOM     10  C   UNL     1      23.778  -1.643  36.588  1.00  0.00    -0.024 C 
BRANCH   3  11
ATOM     11  C   UNL     1      23.279  -5.961  35.144  1.00  0.00     0.337 C 
ATOM     12  O   UNL     1      22.164  -5.611  35.626  1.00  0.00    -0.246 OA
BRANCH  11  13
ATOM     13  O   UNL     1      23.374  -7.125  34.370  1.00  0.00    -0.466 OA
ATOM     14  C   UNL     1      23.740  -7.103  32.996  1.00  0.00     0.282 C 
ENDBRANCH  11  13
ENDBRANCH   3  11
BRANCH   9  15
ATOM     15  C   UNL     1      25.950  -0.693  37.387  1.00  0.00     0.187 C 
BRANCH  15  16
ATOM     16  O   UNL     1      25.284   0.541  37.475  1.00  0.00    -0.392 OA
ATOM     17  H   UNL     1      25.840   1.200  36.978  1.00  0.00     0.211 HD
ENDBRANCH  15  16
ENDBRANCH   9  15
ENDBRANCH   1   2
BRANCH   1  18
ATOM     18  C   UNL     1      29.171  -3.490  35.906  1.00  0.00     0.286 C 
ATOM     19  C   UNL     1      29.415  -2.764  34.555  1.00  0.00     0.202 C 
ATOM     20  O   UNL     1      30.203  -3.155  36.819  1.00  0.00    -0.341 OA
ATOM     21  C   UNL     1      30.930  -2.620  34.247  1.00  0.00     0.179 C 
ATOM     22  C   UNL     1      31.457  -3.729  36.459  1.00  0.00     0.178 C 
ATOM     23  C   UNL     1      31.723  -3.751  34.923  1.00  0.00     0.177 C 
BRANCH  19  24
ATOM     24  O   UNL     1      28.737  -3.424  33.510  1.00  0.00    -0.385 OA
ATOM     25  H   UNL     1      29.331  -4.146  33.173  1.00  0.00     0.211 HD
ENDBRANCH  19  24
BRANCH  21  26
ATOM     26  O   UNL     1      31.165  -2.635  32.862  1.00  0.00    -0.387 OA
ATOM     27  H   UNL     1      31.893  -3.296  32.703  1.00  0.00     0.211 HD
ENDBRANCH  21  26
BRANCH  22  28
ATOM     28  C   UNL     1      31.615  -5.118  37.103  1.00  0.00     0.191 C 
BRANCH  28  29
ATOM     29  O   UNL     1      32.378  -5.967  36.284  1.00  0.00    -0.394 OA
ATOM     30  H   UNL     1      31.880  -6.819  36.214  1.00  0.00     0.210 HD
ENDBRANCH  28  29
ENDBRANCH  22  28
BRANCH  23  31
ATOM     31  O   UNL     1      33.097  -3.590  34.678  1.00  0.00    -0.387 OA
ATOM     32  H   UNL     1      33.184  -3.077  33.832  1.00  0.00     0.211 HD
ENDBRANCH  23  31
ENDBRANCH   1  18
TORSDOF 11
ENDMDL
MODEL 8
REMARK VINA RESULT:    -5.012      1.799      4.236
REMARK INTER + INTRA:          -8.463
REMARK INTER:                  -7.320
REMARK INTRA:                  -1.144
REMARK UNBOUND:                -0.961
REMARK SMILES COC(=O)C1=CO[C@H](O[C@@H]2O[C@@H](CO)[C@H](O)[C@@H](O)[C@H]2O)[C@H]2C(CO)=CC[C@H]12
REMARK SMILES IDX 9 1 8 2 5 3 6 4 27 5 7 6 21 7 26 8 22 9 25 10 3 11 4 12 2 13
REMARK SMILES IDX 1 14 23 15 24 16 10 18 19 19 11 20 17 21 12 22 15 23 20 24
REMARK SMILES IDX 18 26 13 28 14 29 16 31
REMARK H PARENT 24 17 20 25 18 27 14 30 16 32
REMARK Flexibility Score: inf
ROOT
ATOM      1  O   UNL     1      28.604  -3.243  34.645  1.00  0.00    -0.310 OA
ENDROOT
BRANCH   1   2
ATOM      2  C   UNL     1      29.853  -3.571  35.222  1.00  0.00     0.316 C 
ATOM      3  C   UNL     1      32.100  -5.444  35.278  1.00  0.00     0.076 C 
ATOM      4  C   UNL     1      30.903  -5.791  35.799  1.00  0.00     0.202 C 
ATOM      5  C   UNL     1      32.238  -4.011  34.814  1.00  0.00     0.047 C 
ATOM      6  O   UNL     1      29.800  -4.903  35.773  1.00  0.00    -0.471 OA
ATOM      7  C   UNL     1      30.941  -3.568  34.147  1.00  0.00     0.094 C 
ATOM      8  C   UNL     1      33.296  -3.602  33.793  1.00  0.00     0.037 C 
ATOM      9  C   UNL     1      31.358  -2.303  33.470  1.00  0.00    -0.039 C 
ATOM     10  C   UNL     1      32.664  -2.380  33.191  1.00  0.00    -0.024 C 
BRANCH   3  11
ATOM     11  C   UNL     1      33.260  -6.362  35.375  1.00  0.00     0.337 C 
ATOM     12  O   UNL     1      33.558  -6.885  36.487  1.00  0.00    -0.246 OA
BRANCH  11  13
ATOM     13  O   UNL     1      34.001  -6.678  34.230  1.00  0.00    -0.466 OA
ATOM     14  C   UNL     1      35.424  -6.695  34.218  1.00  0.00     0.282 C 
ENDBRANCH  11  13
ENDBRANCH   3  11
BRANCH   9  15
ATOM     15  C   UNL     1      30.421  -1.357  32.766  1.00  0.00     0.187 C 
BRANCH  15  16
ATOM     16  O   UNL     1      29.385  -2.056  32.125  1.00  0.00    -0.392 OA
ATOM     17  H   UNL     1      29.796  -2.868  31.722  1.00  0.00     0.211 HD
ENDBRANCH  15  16
ENDBRANCH   9  15
ENDBRANCH   1   2
BRANCH   1  18
ATOM     18  C   UNL     1      27.534  -3.886  35.320  1.00  0.00     0.286 C 
ATOM     19  C   UNL     1      26.502  -2.824  35.787  1.00  0.00     0.202 C 
ATOM     20  O   UNL     1      26.920  -4.778  34.406  1.00  0.00    -0.341 OA
ATOM     21  C   UNL     1      25.070  -3.417  35.873  1.00  0.00     0.179 C 
ATOM     22  C   UNL     1      25.963  -5.629  35.033  1.00  0.00     0.178 C 
ATOM     23  C   UNL     1      25.132  -4.928  36.150  1.00  0.00     0.177 C 
BRANCH  19  24
ATOM     24  O   UNL     1      26.899  -2.254  37.013  1.00  0.00    -0.385 OA
ATOM     25  H   UNL     1      27.729  -1.732  36.849  1.00  0.00     0.211 HD
ENDBRANCH  19  24
BRANCH  21  26
ATOM     26  O   UNL     1      24.321  -2.779  36.877  1.00  0.00    -0.387 OA
ATOM     27  H   UNL     1      24.794  -2.949  37.737  1.00  0.00     0.211 HD
ENDBRANCH  21  26
BRANCH  22  28
ATOM     28  C   UNL     1      26.639  -6.921  35.526  1.00  0.00     0.191 C 
BRANCH  28  29
ATOM     29  O   UNL     1      26.594  -7.007  36.928  1.00  0.00    -0.394 OA
ATOM     30  H   UNL     1      25.647  -7.157  37.173  1.00  0.00     0.210 HD
ENDBRANCH  28  29
ENDBRANCH  22  28
BRANCH  23  31
ATOM     31  O   UNL     1      23.834  -5.467  36.182  1.00  0.00    -0.387 OA
ATOM     32  H   UNL     1      23.740  -6.047  35.381  1.00  0.00     0.211 HD
ENDBRANCH  23  31
ENDBRANCH   1  18
TORSDOF 11
ENDMDL
MODEL 9
REMARK VINA RESULT:    -2.383      1.788      6.714
REMARK INTER + INTRA:          -4.529
REMARK INTER:                  -3.124
REMARK INTRA:                  -1.405
REMARK UNBOUND:                -0.961
REMARK SMILES COC(=O)C1=CO[C@H](O[C@@H]2O[C@@H](CO)[C@H](O)[C@@H](O)[C@H]2O)[C@H]2C(CO)=CC[C@H]12
REMARK SMILES IDX 9 1 8 2 5 3 6 4 27 5 7 6 21 7 26 8 22 9 25 10 3 11 4 12 2 13
REMARK SMILES IDX 1 14 23 15 24 16 10 18 19 19 11 20 17 21 12 22 15 23 20 24
REMARK SMILES IDX 18 26 13 28 14 29 16 31
REMARK H PARENT 24 17 20 25 18 27 14 30 16 32
REMARK Flexibility Score: inf
ROOT
ATOM      1  O   UNL     1      29.581  -5.291  34.790  1.00  0.00    -0.310 OA
ENDROOT
BRANCH   1   2
ATOM      2  C   UNL     1      28.358  -5.088  35.471  1.00  0.00     0.316 C 
ATOM      3  C   UNL     1      26.099  -3.290  35.947  1.00  0.00     0.076 C 
ATOM      4  C   UNL     1      27.316  -3.017  36.466  1.00  0.00     0.202 C 
ATOM      5  C   UNL     1      25.952  -4.625  35.250  1.00  0.00     0.047 C 
ATOM      6  O   UNL     1      28.424  -3.869  36.239  1.00  0.00    -0.471 OA
ATOM      7  C   UNL     1      27.222  -4.925  34.461  1.00  0.00     0.094 C 
ATOM      8  C   UNL     1      24.852  -4.871  34.222  1.00  0.00     0.037 C 
ATOM      9  C   UNL     1      26.785  -6.063  33.595  1.00  0.00    -0.039 C 
ATOM     10  C   UNL     1      25.466  -5.961  33.392  1.00  0.00    -0.024 C 
BRANCH   3  11
ATOM     11  C   UNL     1      24.936  -2.422  36.252  1.00  0.00     0.337 C 
ATOM     12  O   UNL     1      25.112  -1.319  36.843  1.00  0.00    -0.246 OA
BRANCH  11  13
ATOM     13  O   UNL     1      23.650  -2.808  35.853  1.00  0.00    -0.466 OA
ATOM     14  C   UNL     1      22.687  -3.320  36.765  1.00  0.00     0.282 C 
ENDBRANCH  11  13
ENDBRANCH   3  11
BRANCH   9  15
ATOM     15  C   UNL     1      27.696  -6.858  32.699  1.00  0.00     0.187 C 
BRANCH  15  16
ATOM     16  O   UNL     1      28.497  -6.011  31.914  1.00  0.00    -0.392 OA
ATOM     17  H   UNL     1      29.375  -5.942  32.376  1.00  0.00     0.211 HD
ENDBRANCH  15  16
ENDBRANCH   9  15
ENDBRANCH   1   2
BRANCH   1  18
ATOM     18  C   UNL     1      30.124  -4.066  34.320  1.00  0.00     0.286 C 
ATOM     19  C   UNL     1      31.494  -3.809  35.004  1.00  0.00     0.202 C 
ATOM     20  O   UNL     1      30.305  -4.184  32.919  1.00  0.00    -0.341 OA
ATOM     21  C   UNL     1      32.432  -2.960  34.104  1.00  0.00     0.179 C 
ATOM     22  C   UNL     1      30.652  -2.943  32.308  1.00  0.00     0.178 C 
ATOM     23  C   UNL     1      31.607  -2.062  33.168  1.00  0.00     0.177 C 
BRANCH  19  24
ATOM     24  O   UNL     1      31.311  -3.213  36.268  1.00  0.00    -0.385 OA
ATOM     25  H   UNL     1      32.209  -3.083  36.674  1.00  0.00     0.211 HD
ENDBRANCH  19  24
BRANCH  21  26
ATOM     26  O   UNL     1      33.296  -2.171  34.883  1.00  0.00    -0.387 OA
ATOM     27  H   UNL     1      34.203  -2.572  34.799  1.00  0.00     0.211 HD
ENDBRANCH  21  26
BRANCH  22  28
ATOM     28  C   UNL     1      29.383  -2.187  31.875  1.00  0.00     0.191 C 
BRANCH  28  29
ATOM     29  O   UNL     1      29.229  -1.003  32.615  1.00  0.00    -0.394 OA
ATOM     30  H   UNL     1      28.305  -0.686  32.456  1.00  0.00     0.210 HD
ENDBRANCH  28  29
ENDBRANCH  22  28
BRANCH  23  31
ATOM     31  O   UNL     1      32.461  -1.329  32.326  1.00  0.00    -0.387 OA
ATOM     32  H   UNL     1      33.186  -0.961  32.896  1.00  0.00     0.211 HD
ENDBRANCH  23  31
ENDBRANCH   1  18
TORSDOF 11
ENDMDL
