MODEL 1
REMARK VINA RESULT:    10.369      0.000      0.000
REMARK INTER + INTRA:          15.521
REMARK INTER:                  15.824
REMARK INTRA:                  -0.303
REMARK UNBOUND:                -0.303
REMARK SMILES O=C([O-])CCCCCCCCC(=O)[O-]
REMARK SMILES IDX 7 1 6 2 5 3 4 4 2 5 1 6 3 7 8 8 9 9 10 10 11 11 12 12 13 13
REMARK SMILES IDX 14 14
REMARK H PARENT
REMARK Flexibility Score: inf
ROOT
ATOM      1  C   UNL     1      -6.049 -18.099  24.400  1.00  0.00     0.000 C 
ENDROOT
BRANCH   1   2
ATOM      2  C   UNL     1      -5.167 -18.676  23.279  1.00  0.00     0.000 C 
BRANCH   2   3
ATOM      3  C   UNL     1      -4.550 -20.057  23.583  1.00  0.00     0.006 C 
BRANCH   3   4
ATOM      4  C   UNL     1      -4.012 -20.800  22.349  1.00  0.00     0.053 C 
BRANCH   4   5
ATOM      5  C   UNL     1      -2.516 -20.795  22.299  1.00  0.00     0.041 C 
ATOM      6  O   UNL     1      -1.909 -20.008  21.526  1.00  0.00    -0.550 OA
ATOM      7  O   UNL     1      -1.792 -21.684  23.083  1.00  0.00    -0.550 OA
ENDBRANCH   4   5
ENDBRANCH   3   4
ENDBRANCH   2   3
ENDBRANCH   1   2
BRANCH   1   8
ATOM      8  C   UNL     1      -5.902 -18.862  25.728  1.00  0.00     0.000 C 
BRANCH   8   9
ATOM      9  C   UNL     1      -5.872 -17.927  26.947  1.00  0.00     0.000 C 
BRANCH   9  10
ATOM     10  C   UNL     1      -7.115 -17.026  27.032  1.00  0.00     0.006 C 
BRANCH  10  11
ATOM     11  C   UNL     1      -8.419 -17.836  27.033  1.00  0.00     0.053 C 
BRANCH  11  12
ATOM     12  C   UNL     1      -9.460 -17.214  27.913  1.00  0.00     0.041 C 
ATOM     13  O   UNL     1      -9.809 -17.783  28.981  1.00  0.00    -0.550 OA
ATOM     14  O   UNL     1     -10.066 -16.021  27.539  1.00  0.00    -0.550 OA
ENDBRANCH  11  12
ENDBRANCH  10  11
ENDBRANCH   9  10
ENDBRANCH   8   9
ENDBRANCH   1   8
TORSDOF 9
ENDMDL
MODEL 2
REMARK VINA RESULT:    10.406      2.192      3.002
REMARK INTER + INTRA:          15.578
REMARK INTER:                  15.817
REMARK INTRA:                  -0.239
REMARK UNBOUND:                -0.303
REMARK SMILES O=C([O-])CCCCCCCCC(=O)[O-]
REMARK SMILES IDX 7 1 6 2 5 3 4 4 2 5 1 6 3 7 8 8 9 9 10 10 11 11 12 12 13 13
REMARK SMILES IDX 14 14
REMARK H PARENT
REMARK Flexibility Score: inf
ROOT
ATOM      1  C   UNL     1      -7.067 -18.040  25.960  1.00  0.00     0.000 C 
ENDROOT
BRANCH   1   2
ATOM      2  C   UNL     1      -5.633 -18.588  25.855  1.00  0.00     0.000 C 
BRANCH   2   3
ATOM      3  C   UNL     1      -5.420 -19.646  24.753  1.00  0.00     0.006 C 
BRANCH   3   4
ATOM      4  C   UNL     1      -4.680 -19.130  23.508  1.00  0.00     0.053 C 
BRANCH   4   5
ATOM      5  C   UNL     1      -4.002 -20.236  22.760  1.00  0.00     0.041 C 
ATOM      6  O   UNL     1      -2.756 -20.210  22.583  1.00  0.00    -0.550 OA
ATOM      7  O   UNL     1      -4.752 -21.277  22.229  1.00  0.00    -0.550 OA
ENDBRANCH   4   5
ENDBRANCH   3   4
ENDBRANCH   2   3
ENDBRANCH   1   2
BRANCH   1   8
ATOM      8  C   UNL     1      -7.325 -17.291  27.279  1.00  0.00     0.000 C 
BRANCH   8   9
ATOM      9  C   UNL     1      -8.810 -17.283  27.674  1.00  0.00     0.000 C 
BRANCH   9  10
ATOM     10  C   UNL     1      -9.044 -17.794  29.105  1.00  0.00     0.006 C 
BRANCH  10  11
ATOM     11  C   UNL     1      -7.891 -17.426  30.048  1.00  0.00     0.053 C 
BRANCH  11  12
ATOM     12  C   UNL     1      -8.241 -17.683  31.482  1.00  0.00     0.041 C 
ATOM     13  O   UNL     1      -8.951 -16.859  32.118  1.00  0.00    -0.550 OA
ATOM     14  O   UNL     1      -7.760 -18.816  32.125  1.00  0.00    -0.550 OA
ENDBRANCH  11  12
ENDBRANCH  10  11
ENDBRANCH   9  10
ENDBRANCH   8   9
ENDBRANCH   1   8
TORSDOF 9
ENDMDL
MODEL 3
REMARK VINA RESULT:    10.502      0.200      7.833
REMARK INTER + INTRA:          15.724
REMARK INTER:                  16.076
REMARK INTRA:                  -0.352
REMARK UNBOUND:                -0.303
REMARK SMILES O=C([O-])CCCCCCCCC(=O)[O-]
REMARK SMILES IDX 7 1 6 2 5 3 4 4 2 5 1 6 3 7 8 8 9 9 10 10 11 11 12 12 13 13
REMARK SMILES IDX 14 14
REMARK H PARENT
REMARK Flexibility Score: inf
ROOT
ATOM      1  C   UNL     1      -5.717 -18.808  25.731  1.00  0.00     0.000 C 
ENDROOT
BRANCH   1   2
ATOM      2  C   UNL     1      -5.951 -17.912  26.960  1.00  0.00     0.000 C 
BRANCH   2   3
ATOM      3  C   UNL     1      -7.260 -17.097  26.931  1.00  0.00     0.006 C 
BRANCH   3   4
ATOM      4  C   UNL     1      -8.522 -17.907  27.269  1.00  0.00     0.053 C 
BRANCH   4   5
ATOM      5  C   UNL     1      -9.576 -17.060  27.913  1.00  0.00     0.041 C 
ATOM      6  O   UNL     1     -10.164 -17.459  28.952  1.00  0.00    -0.550 OA
ATOM      7  O   UNL     1      -9.933 -15.844  27.344  1.00  0.00    -0.550 OA
ENDBRANCH   4   5
ENDBRANCH   3   4
ENDBRANCH   2   3
ENDBRANCH   1   2
BRANCH   1   8
ATOM      8  C   UNL     1      -5.930 -18.064  24.401  1.00  0.00     0.000 C 
BRANCH   8   9
ATOM      9  C   UNL     1      -5.198 -18.732  23.226  1.00  0.00     0.000 C 
BRANCH   9  10
ATOM     10  C   UNL     1      -4.580 -20.087  23.608  1.00  0.00     0.006 C 
BRANCH  10  11
ATOM     11  C   UNL     1      -4.048 -20.847  22.386  1.00  0.00     0.053 C 
BRANCH  11  12
ATOM     12  C   UNL     1      -2.551 -20.841  22.334  1.00  0.00     0.041 C 
ATOM     13  O   UNL     1      -1.889 -21.620  23.069  1.00  0.00    -0.550 OA
ATOM     14  O   UNL     1      -1.887 -19.954  21.496  1.00  0.00    -0.550 OA
ENDBRANCH  11  12
ENDBRANCH  10  11
ENDBRANCH   9  10
ENDBRANCH   8   9
ENDBRANCH   1   8
TORSDOF 9
ENDMDL
MODEL 4
REMARK VINA RESULT:    13.261     12.786     13.611
REMARK INTER + INTRA:          19.934
REMARK INTER:                  19.945
REMARK INTRA:                  -0.011
REMARK UNBOUND:                -0.303
REMARK SMILES O=C([O-])CCCCCCCCC(=O)[O-]
REMARK SMILES IDX 7 1 6 2 5 3 4 4 2 5 1 6 3 7 8 8 9 9 10 10 11 11 12 12 13 13
REMARK SMILES IDX 14 14
REMARK H PARENT
REMARK Flexibility Score: inf
ROOT
ATOM      1  C   UNL     1      -1.414 -13.013  13.168  1.00  0.00     0.000 C 
ENDROOT
BRANCH   1   2
ATOM      2  C   UNL     1      -1.487 -14.514  13.497  1.00  0.00     0.000 C 
BRANCH   2   3
ATOM      3  C   UNL     1      -0.394 -15.023  14.459  1.00  0.00     0.006 C 
BRANCH   3   4
ATOM      4  C   UNL     1       0.792 -15.716  13.768  1.00  0.00     0.053 C 
BRANCH   4   5
ATOM      5  C   UNL     1       1.871 -16.082  14.739  1.00  0.00     0.041 C 
ATOM      6  O   UNL     1       2.589 -17.095  14.536  1.00  0.00    -0.550 OA
ATOM      7  O   UNL     1       2.061 -15.322  15.886  1.00  0.00    -0.550 OA
ENDBRANCH   4   5
ENDBRANCH   3   4
ENDBRANCH   2   3
ENDBRANCH   1   2
BRANCH   1   8
ATOM      8  C   UNL     1      -2.590 -12.535  12.298  1.00  0.00     0.000 C 
BRANCH   8   9
ATOM      9  C   UNL     1      -3.741 -11.949  13.131  1.00  0.00     0.000 C 
BRANCH   9  10
ATOM     10  C   UNL     1      -4.420 -10.754  12.441  1.00  0.00     0.006 C 
BRANCH  10  11
ATOM     11  C   UNL     1      -4.387  -9.487  13.307  1.00  0.00     0.053 C 
BRANCH  11  12
ATOM     12  C   UNL     1      -4.030  -9.795  14.730  1.00  0.00     0.041 C 
ATOM     13  O   UNL     1      -2.822  -9.846  15.083  1.00  0.00    -0.550 OA
ATOM     14  O   UNL     1      -5.031 -10.054  15.658  1.00  0.00    -0.550 OA
ENDBRANCH  11  12
ENDBRANCH  10  11
ENDBRANCH   9  10
ENDBRANCH   8   9
ENDBRANCH   1   8
TORSDOF 9
ENDMDL
