MODEL 1
REMARK VINA RESULT:    -4.632      0.000      0.000
REMARK INTER + INTRA:         -16.816
REMARK INTER:                 -12.213
REMARK INTRA:                  -4.603
REMARK UNBOUND:                -4.603
REMARK SMILES CCCCCCCCCCCCCCCCCCCCCCCCCCCCCC(=O)[O-]
REMARK SMILES IDX 16 1 17 2 18 3 19 4 20 5 21 6 22 7 23 8 24 9 25 10 26 11
REMARK SMILES IDX 27 12 28 13 29 14 30 15 31 16 32 17 15 18 14 19 13 20 12 21
REMARK SMILES IDX 11 22 10 23 9 24 8 25 7 26 6 27 5 28 4 29 3 30 2 31 1 32
REMARK H PARENT
REMARK Flexibility Score: inf
ROOT
ATOM      1  C   UNL     1      -5.190  -3.312  -4.597  1.00  0.00     0.000 C 
ENDROOT
BRANCH   1   2
ATOM      2  C   UNL     1      -4.443  -2.817  -5.849  1.00  0.00     0.000 C 
BRANCH   2   3
ATOM      3  C   UNL     1      -5.004  -1.538  -6.498  1.00  0.00     0.000 C 
BRANCH   3   4
ATOM      4  C   UNL     1      -4.048  -0.336  -6.407  1.00  0.00     0.000 C 
BRANCH   4   5
ATOM      5  C   UNL     1      -4.754   0.949  -5.932  1.00  0.00     0.000 C 
BRANCH   5   6
ATOM      6  C   UNL     1      -3.828   2.160  -5.697  1.00  0.00     0.000 C 
BRANCH   6   7
ATOM      7  C   UNL     1      -2.781   2.395  -6.800  1.00  0.00     0.000 C 
BRANCH   7   8
ATOM      8  C   UNL     1      -1.347   2.092  -6.328  1.00  0.00     0.000 C 
BRANCH   8   9
ATOM      9  C   UNL     1      -0.676   0.982  -7.154  1.00  0.00     0.000 C 
BRANCH   9  10
ATOM     10  C   UNL     1      -0.947   1.126  -8.663  1.00  0.00     0.000 C 
BRANCH  10  11
ATOM     11  C   UNL     1      -0.044   2.185  -9.317  1.00  0.00     0.000 C 
BRANCH  11  12
ATOM     12  C   UNL     1      -0.677   2.794 -10.582  1.00  0.00     0.000 C 
BRANCH  12  13
ATOM     13  C   UNL     1      -2.075   3.375 -10.314  1.00  0.00     0.006 C 
BRANCH  13  14
ATOM     14  C   UNL     1      -2.419   4.531 -11.264  1.00  0.00     0.053 C 
BRANCH  14  15
ATOM     15  C   UNL     1      -2.694   4.010 -12.638  1.00  0.00     0.041 C 
ATOM     16  O   UNL     1      -1.862   4.195 -13.564  1.00  0.00    -0.550 OA
ATOM     17  O   UNL     1      -3.894   3.362 -12.908  1.00  0.00    -0.550 OA
ENDBRANCH  14  15
ENDBRANCH  13  14
ENDBRANCH  12  13
ENDBRANCH  11  12
ENDBRANCH  10  11
ENDBRANCH   9  10
ENDBRANCH   8   9
ENDBRANCH   7   8
ENDBRANCH   6   7
ENDBRANCH   5   6
ENDBRANCH   4   5
ENDBRANCH   3   4
ENDBRANCH   2   3
ENDBRANCH   1   2
BRANCH   1  18
ATOM     18  C   UNL     1      -4.280  -4.039  -3.592  1.00  0.00     0.000 C 
BRANCH  18  19
ATOM     19  C   UNL     1      -2.825  -4.151  -4.080  1.00  0.00     0.000 C 
BRANCH  19  20
ATOM     20  C   UNL     1      -1.744  -3.918  -3.004  1.00  0.00     0.000 C 
BRANCH  20  21
ATOM     21  C   UNL     1      -0.694  -2.837  -3.333  1.00  0.00     0.000 C 
BRANCH  21  22
ATOM     22  C   UNL     1      -1.171  -1.741  -4.312  1.00  0.00     0.000 C 
BRANCH  22  23
ATOM     23  C   UNL     1      -1.504  -0.396  -3.638  1.00  0.00     0.000 C 
BRANCH  23  24
ATOM     24  C   UNL     1      -2.871  -0.342  -2.928  1.00  0.00    -0.000 C 
BRANCH  24  25
ATOM     25  C   UNL     1      -2.804  -0.172  -1.396  1.00  0.00    -0.000 C 
BRANCH  25  26
ATOM     26  C   UNL     1      -2.912  -1.481  -0.588  1.00  0.00    -0.000 C 
BRANCH  26  27
ATOM     27  C   UNL     1      -4.345  -2.017  -0.417  1.00  0.00    -0.000 C 
BRANCH  27  28
ATOM     28  C   UNL     1      -4.380  -3.498  -0.000  1.00  0.00    -0.000 C 
BRANCH  28  29
ATOM     29  C   UNL     1      -5.640  -3.856   0.804  1.00  0.00    -0.000 C 
BRANCH  29  30
ATOM     30  C   UNL     1      -6.768  -2.824   0.622  1.00  0.00    -0.000 C 
BRANCH  30  31
ATOM     31  C   UNL     1      -7.936  -3.367  -0.217  1.00  0.00    -0.003 C 
ATOM     32  C   UNL     1      -8.448  -4.718   0.285  1.00  0.00     0.004 C 
ENDBRANCH  30  31
ENDBRANCH  29  30
ENDBRANCH  28  29
ENDBRANCH  27  28
ENDBRANCH  26  27
ENDBRANCH  25  26
ENDBRANCH  24  25
ENDBRANCH  23  24
ENDBRANCH  22  23
ENDBRANCH  21  22
ENDBRANCH  20  21
ENDBRANCH  19  20
ENDBRANCH  18  19
ENDBRANCH   1  18
TORSDOF 28
ENDMDL
MODEL 2
REMARK VINA RESULT:    -4.442      4.640     12.073
REMARK INTER + INTRA:         -16.315
REMARK INTER:                 -13.803
REMARK INTRA:                  -2.512
REMARK UNBOUND:                -4.603
REMARK SMILES CCCCCCCCCCCCCCCCCCCCCCCCCCCCCC(=O)[O-]
REMARK SMILES IDX 16 1 17 2 18 3 19 4 20 5 21 6 22 7 23 8 24 9 25 10 26 11
REMARK SMILES IDX 27 12 28 13 29 14 30 15 31 16 32 17 15 18 14 19 13 20 12 21
REMARK SMILES IDX 11 22 10 23 9 24 8 25 7 26 6 27 5 28 4 29 3 30 2 31 1 32
REMARK H PARENT
REMARK Flexibility Score: inf
ROOT
ATOM      1  C   UNL     1      -4.344   1.817  -5.509  1.00  0.00     0.000 C 
ENDROOT
BRANCH   1   2
ATOM      2  C   UNL     1      -5.618   1.196  -6.110  1.00  0.00     0.000 C 
BRANCH   2   3
ATOM      3  C   UNL     1      -5.530  -0.302  -6.456  1.00  0.00     0.000 C 
BRANCH   3   4
ATOM      4  C   UNL     1      -4.291  -0.995  -5.863  1.00  0.00     0.000 C 
BRANCH   4   5
ATOM      5  C   UNL     1      -4.015  -2.368  -6.505  1.00  0.00     0.000 C 
BRANCH   5   6
ATOM      6  C   UNL     1      -4.156  -3.577  -5.557  1.00  0.00     0.000 C 
BRANCH   6   7
ATOM      7  C   UNL     1      -5.414  -3.559  -4.671  1.00  0.00     0.000 C 
BRANCH   7   8
ATOM      8  C   UNL     1      -5.128  -4.011  -3.227  1.00  0.00     0.000 C 
BRANCH   8   9
ATOM      9  C   UNL     1      -4.088  -3.124  -2.526  1.00  0.00     0.000 C 
BRANCH   9  10
ATOM     10  C   UNL     1      -3.562  -3.752  -1.222  1.00  0.00     0.000 C 
BRANCH  10  11
ATOM     11  C   UNL     1      -4.663  -3.885  -0.155  1.00  0.00     0.000 C 
BRANCH  11  12
ATOM     12  C   UNL     1      -5.357  -2.543   0.140  1.00  0.00     0.000 C 
BRANCH  12  13
ATOM     13  C   UNL     1      -6.817  -2.727   0.587  1.00  0.00     0.006 C 
BRANCH  13  14
ATOM     14  C   UNL     1      -7.637  -3.548  -0.418  1.00  0.00     0.053 C 
BRANCH  14  15
ATOM     15  C   UNL     1      -8.266  -4.723   0.261  1.00  0.00     0.041 C 
ATOM     16  O   UNL     1      -9.277  -4.563   0.994  1.00  0.00    -0.550 OA
ATOM     17  O   UNL     1      -7.706  -5.987   0.124  1.00  0.00    -0.550 OA
ENDBRANCH  14  15
ENDBRANCH  13  14
ENDBRANCH  12  13
ENDBRANCH  11  12
ENDBRANCH  10  11
ENDBRANCH   9  10
ENDBRANCH   8   9
ENDBRANCH   7   8
ENDBRANCH   6   7
ENDBRANCH   5   6
ENDBRANCH   4   5
ENDBRANCH   3   4
ENDBRANCH   2   3
ENDBRANCH   1   2
BRANCH   1  18
ATOM     18  C   UNL     1      -3.827   3.031  -6.299  1.00  0.00     0.000 C 
BRANCH  18  19
ATOM     19  C   UNL     1      -2.305   2.995  -6.518  1.00  0.00     0.000 C 
BRANCH  19  20
ATOM     20  C   UNL     1      -1.704   1.596  -6.769  1.00  0.00     0.000 C 
BRANCH  20  21
ATOM     21  C   UNL     1      -1.362   1.267  -8.237  1.00  0.00     0.000 C 
BRANCH  21  22
ATOM     22  C   UNL     1      -0.719   2.426  -9.031  1.00  0.00     0.000 C 
BRANCH  22  23
ATOM     23  C   UNL     1      -0.985   2.373 -10.548  1.00  0.00     0.000 C 
BRANCH  23  24
ATOM     24  C   UNL     1      -2.137   3.270 -11.041  1.00  0.00    -0.000 C 
BRANCH  24  25
ATOM     25  C   UNL     1      -2.621   2.981 -12.477  1.00  0.00    -0.000 C 
BRANCH  25  26
ATOM     26  C   UNL     1      -4.027   3.519 -12.813  1.00  0.00    -0.000 C 
BRANCH  26  27
ATOM     27  C   UNL     1      -4.065   4.562 -13.945  1.00  0.00    -0.000 C 
BRANCH  27  28
ATOM     28  C   UNL     1      -2.851   5.509 -13.922  1.00  0.00    -0.000 C 
BRANCH  28  29
ATOM     29  C   UNL     1      -2.703   6.311 -15.224  1.00  0.00    -0.000 C 
BRANCH  29  30
ATOM     30  C   UNL     1      -3.076   5.487 -16.470  1.00  0.00    -0.000 C 
BRANCH  30  31
ATOM     31  C   UNL     1      -4.221   6.120 -17.277  1.00  0.00    -0.003 C 
ATOM     32  C   UNL     1      -5.506   5.293 -17.231  1.00  0.00     0.004 C 
ENDBRANCH  30  31
ENDBRANCH  29  30
ENDBRANCH  28  29
ENDBRANCH  27  28
ENDBRANCH  26  27
ENDBRANCH  25  26
ENDBRANCH  24  25
ENDBRANCH  23  24
ENDBRANCH  22  23
ENDBRANCH  21  22
ENDBRANCH  20  21
ENDBRANCH  19  20
ENDBRANCH  18  19
ENDBRANCH   1  18
TORSDOF 28
ENDMDL
MODEL 3
REMARK VINA RESULT:    -4.407      4.247      8.884
REMARK INTER + INTRA:         -16.223
REMARK INTER:                 -11.036
REMARK INTRA:                  -5.187
REMARK UNBOUND:                -4.603
REMARK SMILES CCCCCCCCCCCCCCCCCCCCCCCCCCCCCC(=O)[O-]
REMARK SMILES IDX 16 1 17 2 18 3 19 4 20 5 21 6 22 7 23 8 24 9 25 10 26 11
REMARK SMILES IDX 27 12 28 13 29 14 30 15 31 16 32 17 15 18 14 19 13 20 12 21
REMARK SMILES IDX 11 22 10 23 9 24 8 25 7 26 6 27 5 28 4 29 3 30 2 31 1 32
REMARK H PARENT
REMARK Flexibility Score: inf
ROOT
ATOM      1  C   UNL     1      -0.969   0.456  -4.553  1.00  0.00     0.000 C 
ENDROOT
BRANCH   1   2
ATOM      2  C   UNL     1      -1.011  -1.068  -4.337  1.00  0.00     0.000 C 
BRANCH   2   3
ATOM      3  C   UNL     1      -1.804  -1.543  -3.105  1.00  0.00     0.000 C 
BRANCH   3   4
ATOM      4  C   UNL     1      -2.912  -0.565  -2.675  1.00  0.00     0.000 C 
BRANCH   4   5
ATOM      5  C   UNL     1      -2.683   0.008  -1.263  1.00  0.00     0.000 C 
BRANCH   5   6
ATOM      6  C   UNL     1      -1.225   0.395  -0.940  1.00  0.00     0.000 C 
BRANCH   6   7
ATOM      7  C   UNL     1      -0.818   0.206   0.532  1.00  0.00     0.000 C 
BRANCH   7   8
ATOM      8  C   UNL     1      -1.393  -1.086   1.143  1.00  0.00     0.000 C 
BRANCH   8   9
ATOM      9  C   UNL     1      -0.738  -2.353   0.570  1.00  0.00     0.000 C 
BRANCH   9  10
ATOM     10  C   UNL     1      -1.652  -3.587   0.677  1.00  0.00     0.000 C 
BRANCH  10  11
ATOM     11  C   UNL     1      -2.851  -3.507  -0.283  1.00  0.00     0.000 C 
BRANCH  11  12
ATOM     12  C   UNL     1      -4.177  -3.250   0.455  1.00  0.00     0.000 C 
BRANCH  12  13
ATOM     13  C   UNL     1      -5.351  -3.026  -0.512  1.00  0.00     0.006 C 
BRANCH  13  14
ATOM     14  C   UNL     1      -6.670  -2.751   0.224  1.00  0.00     0.053 C 
BRANCH  14  15
ATOM     15  C   UNL     1      -7.610  -3.901   0.053  1.00  0.00     0.041 C 
ATOM     16  O   UNL     1      -8.810  -3.798   0.420  1.00  0.00    -0.550 OA
ATOM     17  O   UNL     1      -7.149  -5.105  -0.467  1.00  0.00    -0.550 OA
ENDBRANCH  14  15
ENDBRANCH  13  14
ENDBRANCH  12  13
ENDBRANCH  11  12
ENDBRANCH  10  11
ENDBRANCH   9  10
ENDBRANCH   8   9
ENDBRANCH   7   8
ENDBRANCH   6   7
ENDBRANCH   5   6
ENDBRANCH   4   5
ENDBRANCH   3   4
ENDBRANCH   2   3
ENDBRANCH   1   2
BRANCH   1  18
ATOM     18  C   UNL     1      -0.262   0.866  -5.857  1.00  0.00     0.000 C 
BRANCH  18  19
ATOM     19  C   UNL     1      -0.552  -0.099  -7.020  1.00  0.00     0.000 C 
BRANCH  19  20
ATOM     20  C   UNL     1      -0.649   0.553  -8.415  1.00  0.00     0.000 C 
BRANCH  20  21
ATOM     21  C   UNL     1      -0.401   2.075  -8.462  1.00  0.00     0.000 C 
BRANCH  21  22
ATOM     22  C   UNL     1      -1.302   2.852  -9.448  1.00  0.00     0.000 C 
BRANCH  22  23
ATOM     23  C   UNL     1      -2.601   3.392  -8.821  1.00  0.00     0.000 C 
BRANCH  23  24
ATOM     24  C   UNL     1      -2.626   3.406  -7.279  1.00  0.00    -0.000 C 
BRANCH  24  25
ATOM     25  C   UNL     1      -3.994   3.081  -6.646  1.00  0.00    -0.000 C 
BRANCH  25  26
ATOM     26  C   UNL     1      -3.949   2.082  -5.471  1.00  0.00    -0.000 C 
BRANCH  26  27
ATOM     27  C   UNL     1      -4.785   0.807  -5.676  1.00  0.00    -0.000 C 
BRANCH  27  28
ATOM     28  C   UNL     1      -4.057  -0.251  -6.525  1.00  0.00    -0.000 C 
BRANCH  28  29
ATOM     29  C   UNL     1      -4.814  -1.588  -6.580  1.00  0.00    -0.000 C 
BRANCH  29  30
ATOM     30  C   UNL     1      -4.127  -2.688  -5.750  1.00  0.00    -0.000 C 
BRANCH  30  31
ATOM     31  C   UNL     1      -5.009  -3.199  -4.599  1.00  0.00    -0.003 C 
ATOM     32  C   UNL     1      -4.404  -4.404  -3.879  1.00  0.00     0.004 C 
ENDBRANCH  30  31
ENDBRANCH  29  30
ENDBRANCH  28  29
ENDBRANCH  27  28
ENDBRANCH  26  27
ENDBRANCH  25  26
ENDBRANCH  24  25
ENDBRANCH  23  24
ENDBRANCH  22  23
ENDBRANCH  21  22
ENDBRANCH  20  21
ENDBRANCH  19  20
ENDBRANCH  18  19
ENDBRANCH   1  18
TORSDOF 28
ENDMDL
MODEL 4
REMARK VINA RESULT:    -4.375      1.276      1.979
REMARK INTER + INTRA:         -16.140
REMARK INTER:                 -11.645
REMARK INTRA:                  -4.495
REMARK UNBOUND:                -4.603
REMARK SMILES CCCCCCCCCCCCCCCCCCCCCCCCCCCCCC(=O)[O-]
REMARK SMILES IDX 16 1 17 2 18 3 19 4 20 5 21 6 22 7 23 8 24 9 25 10 26 11
REMARK SMILES IDX 27 12 28 13 29 14 30 15 31 16 32 17 15 18 14 19 13 20 12 21
REMARK SMILES IDX 11 22 10 23 9 24 8 25 7 26 6 27 5 28 4 29 3 30 2 31 1 32
REMARK H PARENT
REMARK Flexibility Score: inf
ROOT
ATOM      1  C   UNL     1      -4.318  -2.321  -6.135  1.00  0.00     0.000 C 
ENDROOT
BRANCH   1   2
ATOM      2  C   UNL     1      -4.674  -0.833  -6.310  1.00  0.00     0.000 C 
BRANCH   2   3
ATOM      3  C   UNL     1      -3.525   0.161  -6.060  1.00  0.00     0.000 C 
BRANCH   3   4
ATOM      4  C   UNL     1      -2.238  -0.186  -6.830  1.00  0.00     0.000 C 
BRANCH   4   5
ATOM      5  C   UNL     1      -0.982   0.450  -6.203  1.00  0.00     0.000 C 
BRANCH   5   6
ATOM      6  C   UNL     1      -1.243   1.685  -5.317  1.00  0.00     0.000 C 
BRANCH   6   7
ATOM      7  C   UNL     1      -0.387   2.917  -5.658  1.00  0.00     0.000 C 
BRANCH   7   8
ATOM      8  C   UNL     1      -1.124   3.915  -6.572  1.00  0.00     0.000 C 
BRANCH   8   9
ATOM      9  C   UNL     1      -2.652   3.792  -6.468  1.00  0.00     0.000 C 
BRANCH   9  10
ATOM     10  C   UNL     1      -3.294   3.314  -7.783  1.00  0.00     0.000 C 
BRANCH  10  11
ATOM     11  C   UNL     1      -2.331   3.430  -8.977  1.00  0.00     0.000 C 
BRANCH  11  12
ATOM     12  C   UNL     1      -3.014   4.012 -10.227  1.00  0.00     0.000 C 
BRANCH  12  13
ATOM     13  C   UNL     1      -2.578   3.298 -11.517  1.00  0.00     0.006 C 
BRANCH  13  14
ATOM     14  C   UNL     1      -3.529   3.576 -12.689  1.00  0.00     0.053 C 
BRANCH  14  15
ATOM     15  C   UNL     1      -3.158   4.857 -13.367  1.00  0.00     0.041 C 
ATOM     16  O   UNL     1      -2.337   4.854 -14.321  1.00  0.00    -0.550 OA
ATOM     17  O   UNL     1      -3.682   6.060 -12.912  1.00  0.00    -0.550 OA
ENDBRANCH  14  15
ENDBRANCH  13  14
ENDBRANCH  12  13
ENDBRANCH  11  12
ENDBRANCH  10  11
ENDBRANCH   9  10
ENDBRANCH   8   9
ENDBRANCH   7   8
ENDBRANCH   6   7
ENDBRANCH   5   6
ENDBRANCH   4   5
ENDBRANCH   3   4
ENDBRANCH   2   3
ENDBRANCH   1   2
BRANCH   1  18
ATOM     18  C   UNL     1      -5.189  -3.036  -5.087  1.00  0.00     0.000 C 
BRANCH  18  19
ATOM     19  C   UNL     1      -4.430  -3.327  -3.781  1.00  0.00     0.000 C 
BRANCH  19  20
ATOM     20  C   UNL     1      -3.203  -4.252  -3.918  1.00  0.00     0.000 C 
BRANCH  20  21
ATOM     21  C   UNL     1      -1.885  -3.708  -3.331  1.00  0.00     0.000 C 
BRANCH  21  22
ATOM     22  C   UNL     1      -1.426  -2.350  -3.909  1.00  0.00     0.000 C 
BRANCH  22  23
ATOM     23  C   UNL     1      -1.212  -1.254  -2.847  1.00  0.00     0.000 C 
BRANCH  23  24
ATOM     24  C   UNL     1      -2.462  -0.419  -2.508  1.00  0.00    -0.000 C 
BRANCH  24  25
ATOM     25  C   UNL     1      -2.859  -0.414  -1.018  1.00  0.00    -0.000 C 
BRANCH  25  26
ATOM     26  C   UNL     1      -3.810  -1.551  -0.591  1.00  0.00    -0.000 C 
BRANCH  26  27
ATOM     27  C   UNL     1      -3.114  -2.774   0.033  1.00  0.00    -0.000 C 
BRANCH  27  28
ATOM     28  C   UNL     1      -3.972  -4.050  -0.045  1.00  0.00    -0.000 C 
BRANCH  28  29
ATOM     29  C   UNL     1      -5.418  -3.820   0.420  1.00  0.00    -0.000 C 
BRANCH  29  30
ATOM     30  C   UNL     1      -6.433  -3.936  -0.731  1.00  0.00    -0.000 C 
BRANCH  30  31
ATOM     31  C   UNL     1      -7.800  -3.330  -0.378  1.00  0.00    -0.003 C 
ATOM     32  C   UNL     1      -8.588  -4.183   0.616  1.00  0.00     0.004 C 
ENDBRANCH  30  31
ENDBRANCH  29  30
ENDBRANCH  28  29
ENDBRANCH  27  28
ENDBRANCH  26  27
ENDBRANCH  25  26
ENDBRANCH  24  25
ENDBRANCH  23  24
ENDBRANCH  22  23
ENDBRANCH  21  22
ENDBRANCH  20  21
ENDBRANCH  19  20
ENDBRANCH  18  19
ENDBRANCH   1  18
TORSDOF 28
ENDMDL
MODEL 5
REMARK VINA RESULT:    -4.353      1.570      3.016
REMARK INTER + INTRA:         -16.082
REMARK INTER:                 -12.333
REMARK INTRA:                  -3.749
REMARK UNBOUND:                -4.603
REMARK SMILES CCCCCCCCCCCCCCCCCCCCCCCCCCCCCC(=O)[O-]
REMARK SMILES IDX 16 1 17 2 18 3 19 4 20 5 21 6 22 7 23 8 24 9 25 10 26 11
REMARK SMILES IDX 27 12 28 13 29 14 30 15 31 16 32 17 15 18 14 19 13 20 12 21
REMARK SMILES IDX 11 22 10 23 9 24 8 25 7 26 6 27 5 28 4 29 3 30 2 31 1 32
REMARK H PARENT
REMARK Flexibility Score: inf
ROOT
ATOM      1  C   UNL     1      -3.610  -0.376  -6.046  1.00  0.00     0.000 C 
ENDROOT
BRANCH   1   2
ATOM      2  C   UNL     1      -4.052   0.964  -5.430  1.00  0.00     0.000 C 
BRANCH   2   3
ATOM      3  C   UNL     1      -5.080   1.767  -6.249  1.00  0.00     0.000 C 
BRANCH   3   4
ATOM      4  C   UNL     1      -4.446   2.871  -7.114  1.00  0.00     0.000 C 
BRANCH   4   5
ATOM      5  C   UNL     1      -3.055   3.297  -6.605  1.00  0.00     0.000 C 
BRANCH   5   6
ATOM      6  C   UNL     1      -1.924   3.234  -7.653  1.00  0.00     0.000 C 
BRANCH   6   7
ATOM      7  C   UNL     1      -1.241   1.861  -7.783  1.00  0.00     0.000 C 
BRANCH   7   8
ATOM      8  C   UNL     1      -0.950   1.482  -9.247  1.00  0.00     0.000 C 
BRANCH   8   9
ATOM      9  C   UNL     1      -0.855   2.709 -10.167  1.00  0.00     0.000 C 
BRANCH   9  10
ATOM     10  C   UNL     1      -1.684   2.545 -11.454  1.00  0.00     0.000 C 
BRANCH  10  11
ATOM     11  C   UNL     1      -2.661   3.713 -11.670  1.00  0.00     0.000 C 
BRANCH  11  12
ATOM     12  C   UNL     1      -3.749   3.384 -12.707  1.00  0.00     0.000 C 
BRANCH  12  13
ATOM     13  C   UNL     1      -4.272   4.640 -13.424  1.00  0.00     0.006 C 
BRANCH  13  14
ATOM     14  C   UNL     1      -3.215   5.272 -14.340  1.00  0.00     0.053 C 
BRANCH  14  15
ATOM     15  C   UNL     1      -3.755   5.430 -15.726  1.00  0.00     0.041 C 
ATOM     16  O   UNL     1      -4.874   4.940 -16.029  1.00  0.00    -0.550 OA
ATOM     17  O   UNL     1      -3.000   6.075 -16.697  1.00  0.00    -0.550 OA
ENDBRANCH  14  15
ENDBRANCH  13  14
ENDBRANCH  12  13
ENDBRANCH  11  12
ENDBRANCH  10  11
ENDBRANCH   9  10
ENDBRANCH   8   9
ENDBRANCH   7   8
ENDBRANCH   6   7
ENDBRANCH   5   6
ENDBRANCH   4   5
ENDBRANCH   3   4
ENDBRANCH   2   3
ENDBRANCH   1   2
BRANCH   1  18
ATOM     18  C   UNL     1      -4.788  -1.274  -6.460  1.00  0.00     0.000 C 
BRANCH  18  19
ATOM     19  C   UNL     1      -4.604  -2.737  -6.022  1.00  0.00     0.000 C 
BRANCH  19  20
ATOM     20  C   UNL     1      -4.310  -2.949  -4.522  1.00  0.00     0.000 C 
BRANCH  20  21
ATOM     21  C   UNL     1      -3.381  -4.133  -4.183  1.00  0.00     0.000 C 
BRANCH  21  22
ATOM     22  C   UNL     1      -2.130  -3.764  -3.355  1.00  0.00     0.000 C 
BRANCH  22  23
ATOM     23  C   UNL     1      -1.549  -2.374  -3.679  1.00  0.00     0.000 C 
BRANCH  23  24
ATOM     24  C   UNL     1      -1.461  -1.407  -2.482  1.00  0.00    -0.000 C 
BRANCH  24  25
ATOM     25  C   UNL     1      -2.782  -0.699  -2.116  1.00  0.00    -0.000 C 
BRANCH  25  26
ATOM     26  C   UNL     1      -3.536  -1.304  -0.914  1.00  0.00    -0.000 C 
BRANCH  26  27
ATOM     27  C   UNL     1      -2.713  -2.292  -0.068  1.00  0.00    -0.000 C 
BRANCH  27  28
ATOM     28  C   UNL     1      -3.584  -3.376   0.595  1.00  0.00    -0.000 C 
BRANCH  28  29
ATOM     29  C   UNL     1      -3.988  -4.490  -0.383  1.00  0.00    -0.000 C 
BRANCH  29  30
ATOM     30  C   UNL     1      -5.495  -4.797  -0.336  1.00  0.00    -0.000 C 
BRANCH  30  31
ATOM     31  C   UNL     1      -6.339  -3.730  -1.052  1.00  0.00    -0.003 C 
ATOM     32  C   UNL     1      -7.230  -2.938  -0.095  1.00  0.00     0.004 C 
ENDBRANCH  30  31
ENDBRANCH  29  30
ENDBRANCH  28  29
ENDBRANCH  27  28
ENDBRANCH  26  27
ENDBRANCH  25  26
ENDBRANCH  24  25
ENDBRANCH  23  24
ENDBRANCH  22  23
ENDBRANCH  21  22
ENDBRANCH  20  21
ENDBRANCH  19  20
ENDBRANCH  18  19
ENDBRANCH   1  18
TORSDOF 28
ENDMDL
MODEL 6
REMARK VINA RESULT:    -4.343      4.310     11.110
REMARK INTER + INTRA:         -16.053
REMARK INTER:                 -13.087
REMARK INTRA:                  -2.967
REMARK UNBOUND:                -4.603
REMARK SMILES CCCCCCCCCCCCCCCCCCCCCCCCCCCCCC(=O)[O-]
REMARK SMILES IDX 16 1 17 2 18 3 19 4 20 5 21 6 22 7 23 8 24 9 25 10 26 11
REMARK SMILES IDX 27 12 28 13 29 14 30 15 31 16 32 17 15 18 14 19 13 20 12 21
REMARK SMILES IDX 11 22 10 23 9 24 8 25 7 26 6 27 5 28 4 29 3 30 2 31 1 32
REMARK H PARENT
REMARK Flexibility Score: inf
ROOT
ATOM      1  C   UNL     1      -5.436  -0.919  -6.413  1.00  0.00     0.000 C 
ENDROOT
BRANCH   1   2
ATOM      2  C   UNL     1      -4.164  -1.781  -6.516  1.00  0.00     0.000 C 
BRANCH   2   3
ATOM      3  C   UNL     1      -4.351  -3.281  -6.224  1.00  0.00     0.000 C 
BRANCH   3   4
ATOM      4  C   UNL     1      -5.132  -3.560  -4.928  1.00  0.00     0.000 C 
BRANCH   4   5
ATOM      5  C   UNL     1      -4.291  -3.303  -3.662  1.00  0.00     0.000 C 
BRANCH   5   6
ATOM      6  C   UNL     1      -2.903  -3.976  -3.648  1.00  0.00     0.000 C 
BRANCH   6   7
ATOM      7  C   UNL     1      -1.771  -3.108  -3.071  1.00  0.00     0.000 C 
BRANCH   7   8
ATOM      8  C   UNL     1      -2.177  -1.630  -2.922  1.00  0.00     0.000 C 
BRANCH   8   9
ATOM      9  C   UNL     1      -2.223  -1.175  -1.454  1.00  0.00     0.000 C 
BRANCH   9  10
ATOM     10  C   UNL     1      -3.655  -1.156  -0.888  1.00  0.00     0.000 C 
BRANCH  10  11
ATOM     11  C   UNL     1      -3.954  -2.391  -0.023  1.00  0.00     0.000 C 
BRANCH  11  12
ATOM     12  C   UNL     1      -5.262  -3.091  -0.434  1.00  0.00     0.000 C 
BRANCH  12  13
ATOM     13  C   UNL     1      -6.415  -2.795   0.539  1.00  0.00     0.006 C 
BRANCH  13  14
ATOM     14  C   UNL     1      -7.788  -3.125  -0.063  1.00  0.00     0.053 C 
BRANCH  14  15
ATOM     15  C   UNL     1      -8.178  -4.529   0.271  1.00  0.00     0.041 C 
ATOM     16  O   UNL     1      -7.496  -5.495  -0.160  1.00  0.00    -0.550 OA
ATOM     17  O   UNL     1      -9.324  -4.773   1.017  1.00  0.00    -0.550 OA
ENDBRANCH  14  15
ENDBRANCH  13  14
ENDBRANCH  12  13
ENDBRANCH  11  12
ENDBRANCH  10  11
ENDBRANCH   9  10
ENDBRANCH   8   9
ENDBRANCH   7   8
ENDBRANCH   6   7
ENDBRANCH   5   6
ENDBRANCH   4   5
ENDBRANCH   3   4
ENDBRANCH   2   3
ENDBRANCH   1   2
BRANCH   1  18
ATOM     18  C   UNL     1      -5.147   0.556  -6.084  1.00  0.00     0.000 C 
BRANCH  18  19
ATOM     19  C   UNL     1      -3.879   0.738  -5.232  1.00  0.00     0.000 C 
BRANCH  19  20
ATOM     20  C   UNL     1      -2.901   1.826  -5.721  1.00  0.00     0.000 C 
BRANCH  20  21
ATOM     21  C   UNL     1      -3.409   2.713  -6.876  1.00  0.00     0.000 C 
BRANCH  21  22
ATOM     22  C   UNL     1      -2.303   3.296  -7.785  1.00  0.00     0.000 C 
BRANCH  22  23
ATOM     23  C   UNL     1      -1.296   2.250  -8.300  1.00  0.00     0.000 C 
BRANCH  23  24
ATOM     24  C   UNL     1      -1.098   2.231  -9.829  1.00  0.00    -0.000 C 
BRANCH  24  25
ATOM     25  C   UNL     1      -1.898   3.298 -10.604  1.00  0.00    -0.000 C 
BRANCH  25  26
ATOM     26  C   UNL     1      -2.259   2.918 -12.055  1.00  0.00    -0.000 C 
BRANCH  26  27
ATOM     27  C   UNL     1      -3.701   3.259 -12.471  1.00  0.00    -0.000 C 
BRANCH  27  28
ATOM     28  C   UNL     1      -3.763   4.317 -13.587  1.00  0.00    -0.000 C 
BRANCH  28  29
ATOM     29  C   UNL     1      -3.727   5.754 -13.042  1.00  0.00    -0.000 C 
BRANCH  29  30
ATOM     30  C   UNL     1      -2.351   6.419 -13.226  1.00  0.00    -0.000 C 
BRANCH  30  31
ATOM     31  C   UNL     1      -1.941   7.273 -12.016  1.00  0.00    -0.003 C 
ATOM     32  C   UNL     1      -0.704   6.730 -11.300  1.00  0.00     0.004 C 
ENDBRANCH  30  31
ENDBRANCH  29  30
ENDBRANCH  28  29
ENDBRANCH  27  28
ENDBRANCH  26  27
ENDBRANCH  25  26
ENDBRANCH  24  25
ENDBRANCH  23  24
ENDBRANCH  22  23
ENDBRANCH  21  22
ENDBRANCH  20  21
ENDBRANCH  19  20
ENDBRANCH  18  19
ENDBRANCH   1  18
TORSDOF 28
ENDMDL
MODEL 7
REMARK VINA RESULT:    -4.332      4.257     10.518
REMARK INTER + INTRA:         -16.025
REMARK INTER:                 -12.182
REMARK INTRA:                  -3.843
REMARK UNBOUND:                -4.603
REMARK SMILES CCCCCCCCCCCCCCCCCCCCCCCCCCCCCC(=O)[O-]
REMARK SMILES IDX 16 1 17 2 18 3 19 4 20 5 21 6 22 7 23 8 24 9 25 10 26 11
REMARK SMILES IDX 27 12 28 13 29 14 30 15 31 16 32 17 15 18 14 19 13 20 12 21
REMARK SMILES IDX 11 22 10 23 9 24 8 25 7 26 6 27 5 28 4 29 3 30 2 31 1 32
REMARK H PARENT
REMARK Flexibility Score: inf
ROOT
ATOM      1  C   UNL     1      -5.179  -2.426  -5.288  1.00  0.00     0.000 C 
ENDROOT
BRANCH   1   2
ATOM      2  C   UNL     1      -4.380  -3.723  -5.518  1.00  0.00     0.000 C 
BRANCH   2   3
ATOM      3  C   UNL     1      -3.778  -4.367  -4.256  1.00  0.00     0.000 C 
BRANCH   3   4
ATOM      4  C   UNL     1      -3.176  -3.345  -3.275  1.00  0.00     0.000 C 
BRANCH   4   5
ATOM      5  C   UNL     1      -1.828  -2.780  -3.761  1.00  0.00     0.000 C 
BRANCH   5   6
ATOM      6  C   UNL     1      -1.732  -1.241  -3.788  1.00  0.00     0.000 C 
BRANCH   6   7
ATOM      7  C   UNL     1      -2.857  -0.510  -3.034  1.00  0.00     0.000 C 
BRANCH   7   8
ATOM      8  C   UNL     1      -2.418  -0.027  -1.640  1.00  0.00     0.000 C 
BRANCH   8   9
ATOM      9  C   UNL     1      -3.081  -0.822  -0.503  1.00  0.00     0.000 C 
BRANCH   9  10
ATOM     10  C   UNL     1      -2.174  -1.943   0.038  1.00  0.00     0.000 C 
BRANCH  10  11
ATOM     11  C   UNL     1      -2.980  -3.158   0.526  1.00  0.00     0.000 C 
BRANCH  11  12
ATOM     12  C   UNL     1      -4.487  -3.012   0.247  1.00  0.00     0.000 C 
BRANCH  12  13
ATOM     13  C   UNL     1      -5.123  -4.326  -0.236  1.00  0.00     0.006 C 
BRANCH  13  14
ATOM     14  C   UNL     1      -6.445  -4.096  -0.981  1.00  0.00     0.053 C 
BRANCH  14  15
ATOM     15  C   UNL     1      -7.601  -4.513  -0.129  1.00  0.00     0.041 C 
ATOM     16  O   UNL     1      -7.779  -5.728   0.147  1.00  0.00    -0.550 OA
ATOM     17  O   UNL     1      -8.512  -3.564   0.319  1.00  0.00    -0.550 OA
ENDBRANCH  14  15
ENDBRANCH  13  14
ENDBRANCH  12  13
ENDBRANCH  11  12
ENDBRANCH  10  11
ENDBRANCH   9  10
ENDBRANCH   8   9
ENDBRANCH   7   8
ENDBRANCH   6   7
ENDBRANCH   5   6
ENDBRANCH   4   5
ENDBRANCH   3   4
ENDBRANCH   2   3
ENDBRANCH   1   2
BRANCH   1  18
ATOM     18  C   UNL     1      -5.180  -1.487  -6.507  1.00  0.00     0.000 C 
BRANCH  18  19
ATOM     19  C   UNL     1      -4.205  -0.307  -6.349  1.00  0.00     0.000 C 
BRANCH  19  20
ATOM     20  C   UNL     1      -4.835   1.012  -5.855  1.00  0.00     0.000 C 
BRANCH  20  21
ATOM     21  C   UNL     1      -3.869   2.209  -5.728  1.00  0.00     0.000 C 
BRANCH  21  22
ATOM     22  C   UNL     1      -2.376   1.865  -5.933  1.00  0.00     0.000 C 
BRANCH  22  23
ATOM     23  C   UNL     1      -1.463   3.097  -6.085  1.00  0.00     0.000 C 
BRANCH  23  24
ATOM     24  C   UNL     1      -1.426   3.712  -7.499  1.00  0.00    -0.000 C 
BRANCH  24  25
ATOM     25  C   UNL     1      -1.441   2.691  -8.655  1.00  0.00    -0.000 C 
BRANCH  25  26
ATOM     26  C   UNL     1      -2.123   3.181  -9.949  1.00  0.00    -0.000 C 
BRANCH  26  27
ATOM     27  C   UNL     1      -1.426   2.742 -11.250  1.00  0.00    -0.000 C 
BRANCH  27  28
ATOM     28  C   UNL     1      -2.338   2.867 -12.484  1.00  0.00    -0.000 C 
BRANCH  28  29
ATOM     29  C   UNL     1      -3.703   3.489 -12.150  1.00  0.00    -0.000 C 
BRANCH  29  30
ATOM     30  C   UNL     1      -4.225   4.404 -13.273  1.00  0.00    -0.000 C 
BRANCH  30  31
ATOM     31  C   UNL     1      -3.351   5.653 -13.472  1.00  0.00    -0.003 C 
ATOM     32  C   UNL     1      -3.240   6.505 -12.208  1.00  0.00     0.004 C 
ENDBRANCH  30  31
ENDBRANCH  29  30
ENDBRANCH  28  29
ENDBRANCH  27  28
ENDBRANCH  26  27
ENDBRANCH  25  26
ENDBRANCH  24  25
ENDBRANCH  23  24
ENDBRANCH  22  23
ENDBRANCH  21  22
ENDBRANCH  20  21
ENDBRANCH  19  20
ENDBRANCH  18  19
ENDBRANCH   1  18
TORSDOF 28
ENDMDL
MODEL 8
REMARK VINA RESULT:    -4.312      4.738     11.977
REMARK INTER + INTRA:         -15.972
REMARK INTER:                 -13.096
REMARK INTRA:                  -2.876
REMARK UNBOUND:                -4.603
REMARK SMILES CCCCCCCCCCCCCCCCCCCCCCCCCCCCCC(=O)[O-]
REMARK SMILES IDX 16 1 17 2 18 3 19 4 20 5 21 6 22 7 23 8 24 9 25 10 26 11
REMARK SMILES IDX 27 12 28 13 29 14 30 15 31 16 32 17 15 18 14 19 13 20 12 21
REMARK SMILES IDX 11 22 10 23 9 24 8 25 7 26 6 27 5 28 4 29 3 30 2 31 1 32
REMARK H PARENT
REMARK Flexibility Score: inf
ROOT
ATOM      1  C   UNL     1      -3.745   3.081  -7.038  1.00  0.00     0.000 C 
ENDROOT
BRANCH   1   2
ATOM      2  C   UNL     1      -4.313   2.423  -5.767  1.00  0.00     0.000 C 
BRANCH   2   3
ATOM      3  C   UNL     1      -5.096   1.115  -5.986  1.00  0.00     0.000 C 
BRANCH   3   4
ATOM      4  C   UNL     1      -4.301  -0.146  -5.602  1.00  0.00     0.000 C 
BRANCH   4   5
ATOM      5  C   UNL     1      -4.586  -1.335  -6.539  1.00  0.00     0.000 C 
BRANCH   5   6
ATOM      6  C   UNL     1      -4.224  -2.722  -5.969  1.00  0.00     0.000 C 
BRANCH   6   7
ATOM      7  C   UNL     1      -5.317  -3.369  -5.101  1.00  0.00     0.000 C 
BRANCH   7   8
ATOM      8  C   UNL     1      -4.737  -4.231  -3.965  1.00  0.00     0.000 C 
BRANCH   8   9
ATOM      9  C   UNL     1      -4.546  -3.439  -2.661  1.00  0.00     0.000 C 
BRANCH   9  10
ATOM     10  C   UNL     1      -5.708  -3.644  -1.672  1.00  0.00     0.000 C 
BRANCH  10  11
ATOM     11  C   UNL     1      -5.587  -2.735  -0.437  1.00  0.00     0.000 C 
BRANCH  11  12
ATOM     12  C   UNL     1      -6.683  -3.017   0.607  1.00  0.00     0.000 C 
BRANCH  12  13
ATOM     13  C   UNL     1      -7.801  -3.914   0.053  1.00  0.00     0.006 C 
BRANCH  13  14
ATOM     14  C   UNL     1      -8.196  -5.028   1.032  1.00  0.00     0.053 C 
BRANCH  14  15
ATOM     15  C   UNL     1      -7.449  -6.285   0.718  1.00  0.00     0.041 C 
ATOM     16  O   UNL     1      -6.465  -6.630   1.423  1.00  0.00    -0.550 OA
ATOM     17  O   UNL     1      -7.810  -7.051  -0.384  1.00  0.00    -0.550 OA
ENDBRANCH  14  15
ENDBRANCH  13  14
ENDBRANCH  12  13
ENDBRANCH  11  12
ENDBRANCH  10  11
ENDBRANCH   9  10
ENDBRANCH   8   9
ENDBRANCH   7   8
ENDBRANCH   6   7
ENDBRANCH   5   6
ENDBRANCH   4   5
ENDBRANCH   3   4
ENDBRANCH   2   3
ENDBRANCH   1   2
BRANCH   1  18
ATOM     18  C   UNL     1      -2.268   3.490  -6.904  1.00  0.00     0.000 C 
BRANCH  18  19
ATOM     19  C   UNL     1      -1.337   2.289  -6.664  1.00  0.00     0.000 C 
BRANCH  19  20
ATOM     20  C   UNL     1      -1.450   1.145  -7.694  1.00  0.00     0.000 C 
BRANCH  20  21
ATOM     21  C   UNL     1      -0.445   1.195  -8.863  1.00  0.00     0.000 C 
BRANCH  21  22
ATOM     22  C   UNL     1      -0.973   1.875 -10.146  1.00  0.00     0.000 C 
BRANCH  22  23
ATOM     23  C   UNL     1      -0.474   3.320 -10.343  1.00  0.00     0.000 C 
BRANCH  23  24
ATOM     24  C   UNL     1      -1.577   4.359 -10.627  1.00  0.00    -0.000 C 
BRANCH  24  25
ATOM     25  C   UNL     1      -3.011   3.794 -10.665  1.00  0.00    -0.000 C 
BRANCH  25  26
ATOM     26  C   UNL     1      -3.539   3.445 -12.072  1.00  0.00    -0.000 C 
BRANCH  26  27
ATOM     27  C   UNL     1      -2.775   4.110 -13.231  1.00  0.00    -0.000 C 
BRANCH  27  28
ATOM     28  C   UNL     1      -3.645   5.102 -14.025  1.00  0.00    -0.000 C 
BRANCH  28  29
ATOM     29  C   UNL     1      -3.097   6.537 -13.980  1.00  0.00    -0.000 C 
BRANCH  29  30
ATOM     30  C   UNL     1      -3.274   7.191 -12.598  1.00  0.00    -0.000 C 
BRANCH  30  31
ATOM     31  C   UNL     1      -3.251   8.727 -12.663  1.00  0.00    -0.003 C 
ATOM     32  C   UNL     1      -1.921   9.320 -12.198  1.00  0.00     0.004 C 
ENDBRANCH  30  31
ENDBRANCH  29  30
ENDBRANCH  28  29
ENDBRANCH  27  28
ENDBRANCH  26  27
ENDBRANCH  25  26
ENDBRANCH  24  25
ENDBRANCH  23  24
ENDBRANCH  22  23
ENDBRANCH  21  22
ENDBRANCH  20  21
ENDBRANCH  19  20
ENDBRANCH  18  19
ENDBRANCH   1  18
TORSDOF 28
ENDMDL
MODEL 9
REMARK VINA RESULT:    -4.270      4.421     10.652
REMARK INTER + INTRA:         -15.863
REMARK INTER:                 -12.646
REMARK INTRA:                  -3.217
REMARK UNBOUND:                -4.603
REMARK SMILES CCCCCCCCCCCCCCCCCCCCCCCCCCCCCC(=O)[O-]
REMARK SMILES IDX 16 1 17 2 18 3 19 4 20 5 21 6 22 7 23 8 24 9 25 10 26 11
REMARK SMILES IDX 27 12 28 13 29 14 30 15 31 16 32 17 15 18 14 19 13 20 12 21
REMARK SMILES IDX 11 22 10 23 9 24 8 25 7 26 6 27 5 28 4 29 3 30 2 31 1 32
REMARK H PARENT
REMARK Flexibility Score: inf
ROOT
ATOM      1  C   UNL     1      -4.642  -4.139  -3.956  1.00  0.00     0.000 C 
ENDROOT
BRANCH   1   2
ATOM      2  C   UNL     1      -3.126  -4.119  -4.229  1.00  0.00     0.000 C 
BRANCH   2   3
ATOM      3  C   UNL     1      -2.262  -3.461  -3.138  1.00  0.00     0.000 C 
BRANCH   3   4
ATOM      4  C   UNL     1      -1.970  -1.973  -3.404  1.00  0.00     0.000 C 
BRANCH   4   5
ATOM      5  C   UNL     1      -2.992  -1.038  -2.729  1.00  0.00     0.000 C 
BRANCH   5   6
ATOM      6  C   UNL     1      -2.472  -0.281  -1.489  1.00  0.00     0.000 C 
BRANCH   6   7
ATOM      7  C   UNL     1      -1.555  -1.105  -0.568  1.00  0.00     0.000 C 
BRANCH   7   8
ATOM      8  C   UNL     1      -2.316  -1.731   0.616  1.00  0.00     0.000 C 
BRANCH   8   9
ATOM      9  C   UNL     1      -2.708  -3.194   0.360  1.00  0.00     0.000 C 
BRANCH   9  10
ATOM     10  C   UNL     1      -4.216  -3.441   0.550  1.00  0.00     0.000 C 
BRANCH  10  11
ATOM     11  C   UNL     1      -5.065  -2.683  -0.485  1.00  0.00     0.000 C 
BRANCH  11  12
ATOM     12  C   UNL     1      -6.359  -3.434  -0.846  1.00  0.00     0.000 C 
BRANCH  12  13
ATOM     13  C   UNL     1      -7.496  -3.150   0.150  1.00  0.00     0.006 C 
BRANCH  13  14
ATOM     14  C   UNL     1      -8.483  -4.321   0.259  1.00  0.00     0.053 C 
BRANCH  14  15
ATOM     15  C   UNL     1      -7.769  -5.565   0.680  1.00  0.00     0.041 C 
ATOM     16  O   UNL     1      -7.428  -6.421  -0.178  1.00  0.00    -0.550 OA
ATOM     17  O   UNL     1      -7.524  -5.804   2.027  1.00  0.00    -0.550 OA
ENDBRANCH  14  15
ENDBRANCH  13  14
ENDBRANCH  12  13
ENDBRANCH  11  12
ENDBRANCH  10  11
ENDBRANCH   9  10
ENDBRANCH   8   9
ENDBRANCH   7   8
ENDBRANCH   6   7
ENDBRANCH   5   6
ENDBRANCH   4   5
ENDBRANCH   3   4
ENDBRANCH   2   3
ENDBRANCH   1   2
BRANCH   1  18
ATOM     18  C   UNL     1      -5.449  -3.272  -4.938  1.00  0.00     0.000 C 
BRANCH  18  19
ATOM     19  C   UNL     1      -4.564  -2.588  -5.994  1.00  0.00     0.000 C 
BRANCH  19  20
ATOM     20  C   UNL     1      -5.060  -1.212  -6.486  1.00  0.00     0.000 C 
BRANCH  20  21
ATOM     21  C   UNL     1      -4.211   0.000  -6.050  1.00  0.00     0.000 C 
BRANCH  21  22
ATOM     22  C   UNL     1      -4.987   1.333  -5.943  1.00  0.00     0.000 C 
BRANCH  22  23
ATOM     23  C   UNL     1      -4.086   2.575  -5.805  1.00  0.00     0.000 C 
BRANCH  23  24
ATOM     24  C   UNL     1      -3.464   3.080  -7.123  1.00  0.00    -0.000 C 
BRANCH  24  25
ATOM     25  C   UNL     1      -2.028   2.589  -7.397  1.00  0.00    -0.000 C 
BRANCH  25  26
ATOM     26  C   UNL     1      -1.324   3.264  -8.592  1.00  0.00    -0.000 C 
BRANCH  26  27
ATOM     27  C   UNL     1      -1.215   2.390  -9.854  1.00  0.00    -0.000 C 
BRANCH  27  28
ATOM     28  C   UNL     1      -1.640   3.136 -11.132  1.00  0.00    -0.000 C 
BRANCH  28  29
ATOM     29  C   UNL     1      -2.896   3.996 -10.925  1.00  0.00    -0.000 C 
BRANCH  29  30
ATOM     30  C   UNL     1      -2.879   5.278 -11.777  1.00  0.00    -0.000 C 
BRANCH  30  31
ATOM     31  C   UNL     1      -2.977   4.988 -13.284  1.00  0.00    -0.003 C 
ATOM     32  C   UNL     1      -4.190   4.130 -13.644  1.00  0.00     0.004 C 
ENDBRANCH  30  31
ENDBRANCH  29  30
ENDBRANCH  28  29
ENDBRANCH  27  28
ENDBRANCH  26  27
ENDBRANCH  25  26
ENDBRANCH  24  25
ENDBRANCH  23  24
ENDBRANCH  22  23
ENDBRANCH  21  22
ENDBRANCH  20  21
ENDBRANCH  19  20
ENDBRANCH  18  19
ENDBRANCH   1  18
TORSDOF 28
ENDMDL
