MODEL 1
REMARK VINA RESULT:     6.441      0.000      0.000
REMARK INTER + INTRA:           7.847
REMARK INTER:                   7.005
REMARK INTRA:                   0.842
REMARK UNBOUND:                 0.842
REMARK SMILES C[C@@H]1[C@@H](C)CC[C@]2(C(=O)[O-])CC[C@]3(C)C(=CC[C@H]4[C@]5(C)CC[C@@H](O)C(C)(C)[C@@H]5CC[C@]43C)[C@@H]12
REMARK SMILES IDX 7 1 6 2 11 3 33 4 5 5 12 6 15 7 2 8 3 9 13 10 16 11 1 12
REMARK SMILES IDX 4 13 14 14 31 15 17 16 18 17 30 18 32 19 19 20 29 21 28 22
REMARK SMILES IDX 21 23 20 24 25 25 22 26 23 27 26 28 27 29 8 30 9 31 10 32
REMARK SMILES IDX 24 33
REMARK H PARENT 24 34
REMARK Flexibility Score: inf
ROOT
ATOM      1  C   UNL     1       6.933 -54.236 577.479  1.00  0.00     0.017 C 
ATOM      2  C   UNL     1       7.432 -53.830 578.910  1.00  0.00     0.014 C 
ATOM      3  C   UNL     1       7.550 -55.601 577.116  1.00  0.00     0.014 C 
ATOM      4  C   UNL     1       7.403 -53.134 576.452  1.00  0.00     0.030 C 
ATOM      5  C   UNL     1       7.605 -52.314 579.125  1.00  0.00     0.004 C 
ATOM      6  C   UNL     1       7.073 -56.064 575.738  1.00  0.00     0.013 C 
ATOM      7  C   UNL     1       7.495 -53.634 574.975  1.00  0.00    -0.063 C 
ATOM      8  C   UNL     1       6.595 -51.798 576.767  1.00  0.00    -0.003 C 
ATOM      9  C   UNL     1       6.641 -51.435 578.303  1.00  0.00    -0.011 C 
ATOM     10  C   UNL     1       7.597 -55.136 574.596  1.00  0.00    -0.006 C 
ATOM     11  C   UNL     1       7.914 -52.783 574.010  1.00  0.00    -0.027 C 
ATOM     12  C   UNL     1       6.998 -50.548 575.962  1.00  0.00     0.008 C 
ATOM     13  C   UNL     1       5.243 -51.382 578.942  1.00  0.00     0.008 C 
ATOM     14  C   UNL     1       9.125 -55.491 574.435  1.00  0.00     0.017 C 
ATOM     15  C   UNL     1       6.804 -55.365 573.217  1.00  0.00    -0.020 C 
ATOM     16  C   UNL     1       8.240 -53.219 572.611  1.00  0.00     0.032 C 
ATOM     17  C   UNL     1       7.317 -54.359 572.067  1.00  0.00     0.006 C 
ATOM     18  C   UNL     1       6.917 -56.857 572.818  1.00  0.00     0.008 C 
ATOM     19  C   UNL     1       5.274 -55.077 573.423  1.00  0.00     0.012 C 
ATOM     20  C   UNL     1       7.714 -54.935 570.590  1.00  0.00    -0.025 C 
ATOM     21  C   UNL     1       6.600 -57.111 571.360  1.00  0.00     0.005 C 
ATOM     22  C   UNL     1       7.720 -56.526 570.472  1.00  0.00     0.003 C 
ATOM     23  C   UNL     1       6.671 -54.349 569.579  1.00  0.00     0.010 C 
ATOM     24  C   UNL     1       9.125 -54.404 570.187  1.00  0.00     0.012 C 
ATOM     25  C   UNL     1       7.701 -57.132 568.981  1.00  0.00    -0.006 C 
ATOM     26  C   UNL     1       6.779 -54.874 568.148  1.00  0.00     0.033 C 
ATOM     27  C   UNL     1       6.630 -56.399 568.116  1.00  0.00     0.120 C 
ATOM     28  C   UNL     1       9.117 -57.058 568.316  1.00  0.00     0.014 C 
ATOM     29  C   UNL     1       7.337 -58.647 568.980  1.00  0.00     0.014 C 
ENDROOT
BRANCH   1  30
ATOM     30  C   UNL     1       5.408 -54.427 577.509  1.00  0.00     0.048 C 
ATOM     31  O   UNL     1       4.760 -54.555 576.435  1.00  0.00    -0.550 OA
ATOM     32  O   UNL     1       4.691 -54.310 578.694  1.00  0.00    -0.550 OA
ENDBRANCH   1  30
BRANCH  27  33
ATOM     33  O   UNL     1       6.609 -56.876 566.791  1.00  0.00    -0.393 OA
ATOM     34  H   UNL     1       6.457 -57.857 566.814  1.00  0.00     0.210 HD
ENDBRANCH  27  33
TORSDOF 2
ENDMDL
MODEL 2
REMARK VINA RESULT:     7.730      1.820      3.525
REMARK INTER + INTRA:           9.250
REMARK INTER:                   8.948
REMARK INTRA:                   0.302
REMARK UNBOUND:                 0.842
REMARK SMILES C[C@@H]1[C@@H](C)CC[C@]2(C(=O)[O-])CC[C@]3(C)C(=CC[C@H]4[C@]5(C)CC[C@@H](O)C(C)(C)[C@@H]5CC[C@]43C)[C@@H]12
REMARK SMILES IDX 7 1 6 2 11 3 33 4 5 5 12 6 15 7 2 8 3 9 13 10 16 11 1 12
REMARK SMILES IDX 4 13 14 14 31 15 17 16 18 17 30 18 32 19 19 20 29 21 28 22
REMARK SMILES IDX 21 23 20 24 25 25 22 26 23 27 26 28 27 29 8 30 9 31 10 32
REMARK SMILES IDX 24 33
REMARK H PARENT 24 34
REMARK Flexibility Score: inf
ROOT
ATOM      1  C   UNL     1       6.739 -53.266 576.094  1.00  0.00     0.017 C 
ATOM      2  C   UNL     1       6.005 -53.018 577.458  1.00  0.00     0.014 C 
ATOM      3  C   UNL     1       5.925 -52.591 574.972  1.00  0.00     0.014 C 
ATOM      4  C   UNL     1       6.823 -54.823 575.845  1.00  0.00     0.030 C 
ATOM      5  C   UNL     1       6.152 -54.158 578.484  1.00  0.00     0.004 C 
ATOM      6  C   UNL     1       6.610 -52.775 573.617  1.00  0.00     0.013 C 
ATOM      7  C   UNL     1       6.992 -55.223 574.344  1.00  0.00    -0.063 C 
ATOM      8  C   UNL     1       7.820 -55.435 576.925  1.00  0.00    -0.003 C 
ATOM      9  C   UNL     1       7.475 -54.944 578.386  1.00  0.00    -0.011 C 
ATOM     10  C   UNL     1       6.632 -54.272 573.172  1.00  0.00    -0.006 C 
ATOM     11  C   UNL     1       7.049 -56.531 574.008  1.00  0.00    -0.027 C 
ATOM     12  C   UNL     1       7.948 -56.970 576.947  1.00  0.00     0.008 C 
ATOM     13  C   UNL     1       8.636 -54.180 579.044  1.00  0.00     0.008 C 
ATOM     14  C   UNL     1       5.156 -54.597 572.721  1.00  0.00     0.017 C 
ATOM     15  C   UNL     1       7.670 -54.532 571.972  1.00  0.00    -0.020 C 
ATOM     16  C   UNL     1       6.993 -57.021 572.589  1.00  0.00     0.032 C 
ATOM     17  C   UNL     1       7.722 -56.090 571.565  1.00  0.00     0.006 C 
ATOM     18  C   UNL     1       7.307 -53.603 570.787  1.00  0.00     0.008 C 
ATOM     19  C   UNL     1       9.121 -54.130 572.421  1.00  0.00     0.012 C 
ATOM     20  C   UNL     1       7.587 -56.535 569.998  1.00  0.00    -0.025 C 
ATOM     21  C   UNL     1       7.913 -54.048 569.473  1.00  0.00     0.005 C 
ATOM     22  C   UNL     1       7.230 -55.347 568.995  1.00  0.00     0.003 C 
ATOM     23  C   UNL     1       8.962 -57.161 569.583  1.00  0.00     0.010 C 
ATOM     24  C   UNL     1       6.495 -57.641 569.864  1.00  0.00     0.012 C 
ATOM     25  C   UNL     1       7.480 -55.632 567.431  1.00  0.00    -0.006 C 
ATOM     26  C   UNL     1       9.098 -57.523 568.105  1.00  0.00     0.033 C 
ATOM     27  C   UNL     1       8.879 -56.289 567.222  1.00  0.00     0.120 C 
ATOM     28  C   UNL     1       6.340 -56.516 566.822  1.00  0.00     0.014 C 
ATOM     29  C   UNL     1       7.459 -54.317 566.595  1.00  0.00     0.014 C 
ENDROOT
BRANCH   1  30
ATOM     30  C   UNL     1       8.114 -52.581 576.125  1.00  0.00     0.048 C 
ATOM     31  O   UNL     1       9.086 -53.071 575.489  1.00  0.00    -0.550 OA
ATOM     32  O   UNL     1       8.362 -51.504 576.967  1.00  0.00    -0.550 OA
ENDBRANCH   1  30
BRANCH  27  33
ATOM     33  O   UNL     1       9.121 -56.590 565.867  1.00  0.00    -0.393 OA
ATOM     34  H   UNL     1      10.013 -56.230 565.620  1.00  0.00     0.210 HD
ENDBRANCH  27  33
TORSDOF 2
ENDMDL
