MODEL 1
REMARK VINA RESULT:    -3.507      0.000      0.000
REMARK INTER + INTRA:          -9.657
REMARK INTER:                  -7.608
REMARK INTRA:                  -2.050
REMARK UNBOUND:                -2.050
REMARK SMILES CCCCCCCCCCCCCCCCCCCCCC(=O)[O-]
REMARK SMILES IDX 12 1 11 2 10 3 9 4 8 5 7 6 6 7 5 8 4 9 3 10 2 11 1 12 13 13
REMARK SMILES IDX 14 14 15 15 16 16 17 17 18 18 19 19 20 20 21 21 22 22 23 23
REMARK SMILES IDX 24 24
REMARK H PARENT
REMARK Flexibility Score: inf
ROOT
ATOM      1  C   UNL     1      11.673   8.620  -2.568  1.00  0.00     0.000 C 
ENDROOT
BRANCH   1   2
ATOM      2  C   UNL     1      11.863  10.076  -3.025  1.00  0.00     0.000 C 
BRANCH   2   3
ATOM      3  C   UNL     1      12.439  10.976  -1.921  1.00  0.00     0.000 C 
BRANCH   3   4
ATOM      4  C   UNL     1      11.369  11.301  -0.871  1.00  0.00    -0.000 C 
BRANCH   4   5
ATOM      5  C   UNL     1       9.997  11.505  -1.524  1.00  0.00    -0.000 C 
BRANCH   5   6
ATOM      6  C   UNL     1       9.301  12.748  -0.955  1.00  0.00    -0.000 C 
BRANCH   6   7
ATOM      7  C   UNL     1       9.479  13.955  -1.887  1.00  0.00    -0.000 C 
BRANCH   7   8
ATOM      8  C   UNL     1      10.306  15.085  -1.250  1.00  0.00    -0.000 C 
BRANCH   8   9
ATOM      9  C   UNL     1      11.722  15.226  -1.847  1.00  0.00    -0.000 C 
BRANCH   9  10
ATOM     10  C   UNL     1      12.817  14.807  -0.850  1.00  0.00    -0.000 C 
BRANCH  10  11
ATOM     11  C   UNL     1      14.023  15.758  -0.862  1.00  0.00    -0.003 C 
ATOM     12  C   UNL     1      13.942  16.830   0.225  1.00  0.00     0.004 C 
ENDBRANCH  10  11
ENDBRANCH   9  10
ENDBRANCH   8   9
ENDBRANCH   7   8
ENDBRANCH   6   7
ENDBRANCH   5   6
ENDBRANCH   4   5
ENDBRANCH   3   4
ENDBRANCH   2   3
ENDBRANCH   1   2
BRANCH   1  13
ATOM     13  C   UNL     1      10.268   8.081  -2.888  1.00  0.00     0.000 C 
BRANCH  13  14
ATOM     14  C   UNL     1       9.607   7.402  -1.677  1.00  0.00     0.000 C 
BRANCH  14  15
ATOM     15  C   UNL     1       9.086   5.992  -1.997  1.00  0.00     0.000 C 
BRANCH  15  16
ATOM     16  C   UNL     1      10.177   4.937  -1.757  1.00  0.00     0.000 C 
BRANCH  16  17
ATOM     17  C   UNL     1      11.005   5.218  -0.492  1.00  0.00     0.000 C 
BRANCH  17  18
ATOM     18  C   UNL     1      12.512   4.996  -0.711  1.00  0.00     0.000 C 
BRANCH  18  19
ATOM     19  C   UNL     1      12.866   4.761  -2.188  1.00  0.00     0.000 C 
BRANCH  19  20
ATOM     20  C   UNL     1      13.585   3.421  -2.421  1.00  0.00     0.006 C 
BRANCH  20  21
ATOM     21  C   UNL     1      14.746   3.210  -1.440  1.00  0.00     0.053 C 
BRANCH  21  22
ATOM     22  C   UNL     1      15.627   2.072  -1.856  1.00  0.00     0.041 C 
ATOM     23  O   UNL     1      15.159   1.127  -2.543  1.00  0.00    -0.550 OA
ATOM     24  O   UNL     1      16.973   2.072  -1.513  1.00  0.00    -0.550 OA
ENDBRANCH  21  22
ENDBRANCH  20  21
ENDBRANCH  19  20
ENDBRANCH  18  19
ENDBRANCH  17  18
ENDBRANCH  16  17
ENDBRANCH  15  16
ENDBRANCH  14  15
ENDBRANCH  13  14
ENDBRANCH   1  13
TORSDOF 20
ENDMDL
MODEL 2
REMARK VINA RESULT:    -3.496      1.847      3.036
REMARK INTER + INTRA:          -9.632
REMARK INTER:                  -8.438
REMARK INTRA:                  -1.194
REMARK UNBOUND:                -2.050
REMARK SMILES CCCCCCCCCCCCCCCCCCCCCC(=O)[O-]
REMARK SMILES IDX 12 1 11 2 10 3 9 4 8 5 7 6 6 7 5 8 4 9 3 10 2 11 1 12 13 13
REMARK SMILES IDX 14 14 15 15 16 16 17 17 18 18 19 19 20 20 21 21 22 22 23 23
REMARK SMILES IDX 24 24
REMARK H PARENT
REMARK Flexibility Score: inf
ROOT
ATOM      1  C   UNL     1      11.211   6.965  -2.541  1.00  0.00     0.000 C 
ENDROOT
BRANCH   1   2
ATOM      2  C   UNL     1      11.280   8.438  -2.976  1.00  0.00     0.000 C 
BRANCH   2   3
ATOM      3  C   UNL     1      12.683   9.042  -2.814  1.00  0.00     0.000 C 
BRANCH   3   4
ATOM      4  C   UNL     1      12.668  10.188  -1.795  1.00  0.00    -0.000 C 
BRANCH   4   5
ATOM      5  C   UNL     1      11.559  11.198  -2.115  1.00  0.00    -0.000 C 
BRANCH   5   6
ATOM      6  C   UNL     1      10.919  11.732  -0.828  1.00  0.00    -0.000 C 
BRANCH   6   7
ATOM      7  C   UNL     1      10.006  12.930  -1.121  1.00  0.00    -0.000 C 
BRANCH   7   8
ATOM      8  C   UNL     1      10.761  14.120  -1.738  1.00  0.00    -0.000 C 
BRANCH   8   9
ATOM      9  C   UNL     1      11.944  14.614  -0.879  1.00  0.00    -0.000 C 
BRANCH   9  10
ATOM     10  C   UNL     1      13.275  14.582  -1.652  1.00  0.00    -0.000 C 
BRANCH  10  11
ATOM     11  C   UNL     1      14.386  15.377  -0.949  1.00  0.00    -0.003 C 
ATOM     12  C   UNL     1      13.845  16.519  -0.089  1.00  0.00     0.004 C 
ENDBRANCH  10  11
ENDBRANCH   9  10
ENDBRANCH   8   9
ENDBRANCH   7   8
ENDBRANCH   6   7
ENDBRANCH   5   6
ENDBRANCH   4   5
ENDBRANCH   3   4
ENDBRANCH   2   3
ENDBRANCH   1   2
BRANCH   1  13
ATOM     13  C   UNL     1      11.006   6.807  -1.025  1.00  0.00     0.000 C 
BRANCH  13  14
ATOM     14  C   UNL     1      11.418   5.416  -0.515  1.00  0.00     0.000 C 
BRANCH  14  15
ATOM     15  C   UNL     1      12.094   4.562  -1.600  1.00  0.00     0.000 C 
BRANCH  15  16
ATOM     16  C   UNL     1      13.548   4.243  -1.220  1.00  0.00     0.000 C 
BRANCH  16  17
ATOM     17  C   UNL     1      14.176   3.173  -2.128  1.00  0.00     0.000 C 
BRANCH  17  18
ATOM     18  C   UNL     1      15.511   2.640  -1.577  1.00  0.00     0.000 C 
BRANCH  18  19
ATOM     19  C   UNL     1      16.050   1.450  -2.388  1.00  0.00     0.000 C 
BRANCH  19  20
ATOM     20  C   UNL     1      17.417   1.741  -3.031  1.00  0.00     0.006 C 
BRANCH  20  21
ATOM     21  C   UNL     1      18.292   0.484  -3.123  1.00  0.00     0.053 C 
BRANCH  21  22
ATOM     22  C   UNL     1      19.693   0.745  -2.661  1.00  0.00     0.041 C 
ATOM     23  O   UNL     1      20.232   1.863  -2.873  1.00  0.00    -0.550 OA
ATOM     24  O   UNL     1      20.392  -0.235  -1.968  1.00  0.00    -0.550 OA
ENDBRANCH  21  22
ENDBRANCH  20  21
ENDBRANCH  19  20
ENDBRANCH  18  19
ENDBRANCH  17  18
ENDBRANCH  16  17
ENDBRANCH  15  16
ENDBRANCH  14  15
ENDBRANCH  13  14
ENDBRANCH   1  13
TORSDOF 20
ENDMDL
MODEL 3
REMARK VINA RESULT:    -3.409      1.394      2.545
REMARK INTER + INTRA:          -9.445
REMARK INTER:                  -7.707
REMARK INTRA:                  -1.738
REMARK UNBOUND:                -2.050
REMARK SMILES CCCCCCCCCCCCCCCCCCCCCC(=O)[O-]
REMARK SMILES IDX 12 1 11 2 10 3 9 4 8 5 7 6 6 7 5 8 4 9 3 10 2 11 1 12 13 13
REMARK SMILES IDX 14 14 15 15 16 16 17 17 18 18 19 19 20 20 21 21 22 22 23 23
REMARK SMILES IDX 24 24
REMARK H PARENT
REMARK Flexibility Score: inf
ROOT
ATOM      1  C   UNL     1      11.414  10.955  -1.246  1.00  0.00     0.000 C 
ENDROOT
BRANCH   1   2
ATOM      2  C   UNL     1      11.772  12.333  -1.826  1.00  0.00     0.000 C 
BRANCH   2   3
ATOM      3  C   UNL     1      11.537  13.478  -0.830  1.00  0.00     0.000 C 
BRANCH   3   4
ATOM      4  C   UNL     1      10.754  14.621  -1.488  1.00  0.00    -0.000 C 
BRANCH   4   5
ATOM      5  C   UNL     1       9.353  14.755  -0.877  1.00  0.00    -0.000 C 
BRANCH   5   6
ATOM      6  C   UNL     1       9.052  16.215  -0.518  1.00  0.00    -0.000 C 
BRANCH   6   7
ATOM      7  C   UNL     1      10.315  17.081  -0.622  1.00  0.00    -0.000 C 
BRANCH   7   8
ATOM      8  C   UNL     1      10.550  17.948   0.627  1.00  0.00    -0.000 C 
BRANCH   8   9
ATOM      9  C   UNL     1      12.019  17.961   1.102  1.00  0.00    -0.000 C 
BRANCH   9  10
ATOM     10  C   UNL     1      12.775  16.687   0.685  1.00  0.00    -0.000 C 
BRANCH  10  11
ATOM     11  C   UNL     1      14.078  16.993  -0.069  1.00  0.00    -0.003 C 
ATOM     12  C   UNL     1      14.340  16.020  -1.218  1.00  0.00     0.004 C 
ENDBRANCH  10  11
ENDBRANCH   9  10
ENDBRANCH   8   9
ENDBRANCH   7   8
ENDBRANCH   6   7
ENDBRANCH   5   6
ENDBRANCH   4   5
ENDBRANCH   3   4
ENDBRANCH   2   3
ENDBRANCH   1   2
BRANCH   1  13
ATOM     13  C   UNL     1      10.124  10.377  -1.852  1.00  0.00     0.000 C 
BRANCH  13  14
ATOM     14  C   UNL     1      10.353   9.024  -2.546  1.00  0.00     0.000 C 
BRANCH  14  15
ATOM     15  C   UNL     1      11.772   8.476  -2.326  1.00  0.00     0.000 C 
BRANCH  15  16
ATOM     16  C   UNL     1      11.756   6.945  -2.199  1.00  0.00     0.000 C 
BRANCH  16  17
ATOM     17  C   UNL     1      11.125   6.467  -0.881  1.00  0.00     0.000 C 
BRANCH  17  18
ATOM     18  C   UNL     1      11.646   5.086  -0.443  1.00  0.00     0.000 C 
BRANCH  18  19
ATOM     19  C   UNL     1      12.353   4.333  -1.582  1.00  0.00     0.000 C 
BRANCH  19  20
ATOM     20  C   UNL     1      13.796   3.936  -1.226  1.00  0.00     0.006 C 
BRANCH  20  21
ATOM     21  C   UNL     1      14.493   3.196  -2.376  1.00  0.00     0.053 C 
BRANCH  21  22
ATOM     22  C   UNL     1      15.573   2.286  -1.879  1.00  0.00     0.041 C 
ATOM     23  O   UNL     1      16.610   2.764  -1.347  1.00  0.00    -0.550 OA
ATOM     24  O   UNL     1      15.421   0.908  -1.973  1.00  0.00    -0.550 OA
ENDBRANCH  21  22
ENDBRANCH  20  21
ENDBRANCH  19  20
ENDBRANCH  18  19
ENDBRANCH  17  18
ENDBRANCH  16  17
ENDBRANCH  15  16
ENDBRANCH  14  15
ENDBRANCH  13  14
ENDBRANCH   1  13
TORSDOF 20
ENDMDL
MODEL 4
REMARK VINA RESULT:    -3.349      1.526      2.953
REMARK INTER + INTRA:          -9.315
REMARK INTER:                  -7.425
REMARK INTRA:                  -1.889
REMARK UNBOUND:                -2.050
REMARK SMILES CCCCCCCCCCCCCCCCCCCCCC(=O)[O-]
REMARK SMILES IDX 12 1 11 2 10 3 9 4 8 5 7 6 6 7 5 8 4 9 3 10 2 11 1 12 13 13
REMARK SMILES IDX 14 14 15 15 16 16 17 17 18 18 19 19 20 20 21 21 22 22 23 23
REMARK SMILES IDX 24 24
REMARK H PARENT
REMARK Flexibility Score: inf
ROOT
ATOM      1  C   UNL     1      12.621   8.754  -2.566  1.00  0.00     0.000 C 
ENDROOT
BRANCH   1   2
ATOM      2  C   UNL     1      12.849  10.199  -2.091  1.00  0.00     0.000 C 
BRANCH   2   3
ATOM      3  C   UNL     1      13.601  11.052  -3.124  1.00  0.00     0.000 C 
BRANCH   3   4
ATOM      4  C   UNL     1      15.104  11.077  -2.819  1.00  0.00    -0.000 C 
BRANCH   4   5
ATOM      5  C   UNL     1      15.651  12.509  -2.847  1.00  0.00    -0.000 C 
BRANCH   5   6
ATOM      6  C   UNL     1      14.507  13.530  -2.874  1.00  0.00    -0.000 C 
BRANCH   6   7
ATOM      7  C   UNL     1      14.780  14.691  -1.909  1.00  0.00    -0.000 C 
BRANCH   7   8
ATOM      8  C   UNL     1      13.554  15.060  -1.055  1.00  0.00    -0.000 C 
BRANCH   8   9
ATOM      9  C   UNL     1      12.328  15.492  -1.888  1.00  0.00    -0.000 C 
BRANCH   9  10
ATOM     10  C   UNL     1      11.163  14.495  -1.766  1.00  0.00    -0.000 C 
BRANCH  10  11
ATOM     11  C   UNL     1      11.471  13.340  -0.800  1.00  0.00    -0.003 C 
ATOM     12  C   UNL     1      10.317  12.344  -0.682  1.00  0.00     0.004 C 
ENDBRANCH  10  11
ENDBRANCH   9  10
ENDBRANCH   8   9
ENDBRANCH   7   8
ENDBRANCH   6   7
ENDBRANCH   5   6
ENDBRANCH   4   5
ENDBRANCH   3   4
ENDBRANCH   2   3
ENDBRANCH   1   2
BRANCH   1  13
ATOM     13  C   UNL     1      11.130   8.374  -2.601  1.00  0.00     0.000 C 
BRANCH  13  14
ATOM     14  C   UNL     1      10.580   8.017  -1.211  1.00  0.00     0.000 C 
BRANCH  14  15
ATOM     15  C   UNL     1      10.707   6.519  -0.888  1.00  0.00     0.000 C 
BRANCH  15  16
ATOM     16  C   UNL     1      10.325   5.662  -2.105  1.00  0.00     0.000 C 
BRANCH  16  17
ATOM     17  C   UNL     1      11.348   4.551  -2.390  1.00  0.00     0.000 C 
BRANCH  17  18
ATOM     18  C   UNL     1      12.702   4.801  -1.701  1.00  0.00     0.000 C 
BRANCH  18  19
ATOM     19  C   UNL     1      13.784   3.804  -2.146  1.00  0.00     0.000 C 
BRANCH  19  20
ATOM     20  C   UNL     1      14.458   3.090  -0.962  1.00  0.00     0.006 C 
BRANCH  20  21
ATOM     21  C   UNL     1      15.985   3.049  -1.104  1.00  0.00     0.053 C 
BRANCH  21  22
ATOM     22  C   UNL     1      16.440   1.853  -1.883  1.00  0.00     0.041 C 
ATOM     23  O   UNL     1      17.609   1.808  -2.349  1.00  0.00    -0.550 OA
ATOM     24  O   UNL     1      15.584   0.775  -2.065  1.00  0.00    -0.550 OA
ENDBRANCH  21  22
ENDBRANCH  20  21
ENDBRANCH  19  20
ENDBRANCH  18  19
ENDBRANCH  17  18
ENDBRANCH  16  17
ENDBRANCH  15  16
ENDBRANCH  14  15
ENDBRANCH  13  14
ENDBRANCH   1  13
TORSDOF 20
ENDMDL
MODEL 5
REMARK VINA RESULT:    -3.332      3.625      9.575
REMARK INTER + INTRA:          -9.278
REMARK INTER:                  -7.396
REMARK INTRA:                  -1.882
REMARK UNBOUND:                -2.050
REMARK SMILES CCCCCCCCCCCCCCCCCCCCCC(=O)[O-]
REMARK SMILES IDX 12 1 11 2 10 3 9 4 8 5 7 6 6 7 5 8 4 9 3 10 2 11 1 12 13 13
REMARK SMILES IDX 14 14 15 15 16 16 17 17 18 18 19 19 20 20 21 21 22 22 23 23
REMARK SMILES IDX 24 24
REMARK H PARENT
REMARK Flexibility Score: inf
ROOT
ATOM      1  C   UNL     1      13.453   9.936  -2.375  1.00  0.00     0.000 C 
ENDROOT
BRANCH   1   2
ATOM      2  C   UNL     1      13.553   8.456  -2.778  1.00  0.00     0.000 C 
BRANCH   2   3
ATOM      3  C   UNL     1      12.180   7.809  -3.011  1.00  0.00     0.000 C 
BRANCH   3   4
ATOM      4  C   UNL     1      11.141   8.366  -2.029  1.00  0.00    -0.000 C 
BRANCH   4   5
ATOM      5  C   UNL     1      10.388   7.235  -1.319  1.00  0.00    -0.000 C 
BRANCH   5   6
ATOM      6  C   UNL     1      11.368   6.209  -0.736  1.00  0.00    -0.000 C 
BRANCH   6   7
ATOM      7  C   UNL     1      10.932   4.777  -1.072  1.00  0.00    -0.000 C 
BRANCH   7   8
ATOM      8  C   UNL     1      11.522   4.268  -2.398  1.00  0.00    -0.000 C 
BRANCH   8   9
ATOM      9  C   UNL     1      13.062   4.350  -2.461  1.00  0.00    -0.000 C 
BRANCH   9  10
ATOM     10  C   UNL     1      13.724   3.843  -1.168  1.00  0.00    -0.000 C 
BRANCH  10  11
ATOM     11  C   UNL     1      15.070   3.148  -1.425  1.00  0.00    -0.003 C 
ATOM     12  C   UNL     1      14.939   1.918  -2.323  1.00  0.00     0.004 C 
ENDBRANCH  10  11
ENDBRANCH   9  10
ENDBRANCH   8   9
ENDBRANCH   7   8
ENDBRANCH   6   7
ENDBRANCH   5   6
ENDBRANCH   4   5
ENDBRANCH   3   4
ENDBRANCH   2   3
ENDBRANCH   1   2
BRANCH   1  13
ATOM     13  C   UNL     1      14.700  10.742  -2.778  1.00  0.00     0.000 C 
BRANCH  13  14
ATOM     14  C   UNL     1      14.373  12.206  -3.117  1.00  0.00     0.000 C 
BRANCH  14  15
ATOM     15  C   UNL     1      15.403  13.193  -2.545  1.00  0.00     0.000 C 
BRANCH  15  16
ATOM     16  C   UNL     1      14.864  14.631  -2.580  1.00  0.00     0.000 C 
BRANCH  16  17
ATOM     17  C   UNL     1      14.375  15.114  -1.205  1.00  0.00     0.000 C 
BRANCH  17  18
ATOM     18  C   UNL     1      12.842  15.056  -1.068  1.00  0.00     0.000 C 
BRANCH  18  19
ATOM     19  C   UNL     1      12.125  15.164  -2.423  1.00  0.00     0.000 C 
BRANCH  19  20
ATOM     20  C   UNL     1      10.911  14.224  -2.528  1.00  0.00     0.006 C 
BRANCH  20  21
ATOM     21  C   UNL     1      10.415  13.764  -1.151  1.00  0.00     0.053 C 
BRANCH  21  22
ATOM     22  C   UNL     1      10.490  12.275  -1.001  1.00  0.00     0.041 C 
ATOM     23  O   UNL     1      11.413  11.753  -0.323  1.00  0.00    -0.550 OA
ATOM     24  O   UNL     1       9.521  11.467  -1.581  1.00  0.00    -0.550 OA
ENDBRANCH  21  22
ENDBRANCH  20  21
ENDBRANCH  19  20
ENDBRANCH  18  19
ENDBRANCH  17  18
ENDBRANCH  16  17
ENDBRANCH  15  16
ENDBRANCH  14  15
ENDBRANCH  13  14
ENDBRANCH   1  13
TORSDOF 20
ENDMDL
MODEL 6
REMARK VINA RESULT:    -3.327      4.757      9.933
REMARK INTER + INTRA:          -9.267
REMARK INTER:                  -6.815
REMARK INTRA:                  -2.452
REMARK UNBOUND:                -2.050
REMARK SMILES CCCCCCCCCCCCCCCCCCCCCC(=O)[O-]
REMARK SMILES IDX 12 1 11 2 10 3 9 4 8 5 7 6 6 7 5 8 4 9 3 10 2 11 1 12 13 13
REMARK SMILES IDX 14 14 15 15 16 16 17 17 18 18 19 19 20 20 21 21 22 22 23 23
REMARK SMILES IDX 24 24
REMARK H PARENT
REMARK Flexibility Score: inf
ROOT
ATOM      1  C   UNL     1      12.426  11.708  -2.926  1.00  0.00     0.000 C 
ENDROOT
BRANCH   1   2
ATOM      2  C   UNL     1      13.407  10.662  -2.371  1.00  0.00     0.000 C 
BRANCH   2   3
ATOM      3  C   UNL     1      12.891   9.223  -2.520  1.00  0.00     0.000 C 
BRANCH   3   4
ATOM      4  C   UNL     1      11.644   9.000  -1.656  1.00  0.00    -0.000 C 
BRANCH   4   5
ATOM      5  C   UNL     1      10.440   8.593  -2.514  1.00  0.00    -0.000 C 
BRANCH   5   6
ATOM      6  C   UNL     1       9.296   8.070  -1.638  1.00  0.00    -0.000 C 
BRANCH   6   7
ATOM      7  C   UNL     1       8.871   6.660  -2.068  1.00  0.00    -0.000 C 
BRANCH   7   8
ATOM      8  C   UNL     1      10.060   5.694  -2.212  1.00  0.00    -0.000 C 
BRANCH   8   9
ATOM      9  C   UNL     1      10.421   4.960  -0.903  1.00  0.00    -0.000 C 
BRANCH   9  10
ATOM     10  C   UNL     1      11.839   5.306  -0.415  1.00  0.00    -0.000 C 
BRANCH  10  11
ATOM     11  C   UNL     1      12.868   5.330  -1.556  1.00  0.00    -0.003 C 
ATOM     12  C   UNL     1      13.570   3.986  -1.749  1.00  0.00     0.004 C 
ENDBRANCH  10  11
ENDBRANCH   9  10
ENDBRANCH   8   9
ENDBRANCH   7   8
ENDBRANCH   6   7
ENDBRANCH   5   6
ENDBRANCH   4   5
ENDBRANCH   3   4
ENDBRANCH   2   3
ENDBRANCH   1   2
BRANCH   1  13
ATOM     13  C   UNL     1      12.227  12.896  -1.969  1.00  0.00     0.000 C 
BRANCH  13  14
ATOM     14  C   UNL     1      11.306  12.553  -0.787  1.00  0.00     0.000 C 
BRANCH  14  15
ATOM     15  C   UNL     1       9.873  12.214  -1.228  1.00  0.00     0.000 C 
BRANCH  15  16
ATOM     16  C   UNL     1       8.853  13.120  -0.523  1.00  0.00     0.000 C 
BRANCH  16  17
ATOM     17  C   UNL     1       8.329  14.242  -1.433  1.00  0.00     0.000 C 
BRANCH  17  18
ATOM     18  C   UNL     1       8.666  15.645  -0.897  1.00  0.00     0.000 C 
BRANCH  18  19
ATOM     19  C   UNL     1      10.107  16.071  -1.224  1.00  0.00     0.000 C 
BRANCH  19  20
ATOM     20  C   UNL     1      10.765  16.865  -0.082  1.00  0.00     0.006 C 
BRANCH  20  21
ATOM     21  C   UNL     1      12.179  17.337  -0.446  1.00  0.00     0.053 C 
BRANCH  21  22
ATOM     22  C   UNL     1      13.125  17.203   0.707  1.00  0.00     0.041 C 
ATOM     23  O   UNL     1      14.365  17.123   0.504  1.00  0.00    -0.550 OA
ATOM     24  O   UNL     1      12.640  17.200   2.009  1.00  0.00    -0.550 OA
ENDBRANCH  21  22
ENDBRANCH  20  21
ENDBRANCH  19  20
ENDBRANCH  18  19
ENDBRANCH  17  18
ENDBRANCH  16  17
ENDBRANCH  15  16
ENDBRANCH  14  15
ENDBRANCH  13  14
ENDBRANCH   1  13
TORSDOF 20
ENDMDL
MODEL 7
REMARK VINA RESULT:    -3.306      4.928     10.588
REMARK INTER + INTRA:          -9.222
REMARK INTER:                  -7.692
REMARK INTRA:                  -1.530
REMARK UNBOUND:                -2.050
REMARK SMILES CCCCCCCCCCCCCCCCCCCCCC(=O)[O-]
REMARK SMILES IDX 12 1 11 2 10 3 9 4 8 5 7 6 6 7 5 8 4 9 3 10 2 11 1 12 13 13
REMARK SMILES IDX 14 14 15 15 16 16 17 17 18 18 19 19 20 20 21 21 22 22 23 23
REMARK SMILES IDX 24 24
REMARK H PARENT
REMARK Flexibility Score: inf
ROOT
ATOM      1  C   UNL     1      13.896   9.227  -2.166  1.00  0.00     0.000 C 
ENDROOT
BRANCH   1   2
ATOM      2  C   UNL     1      13.203   8.245  -3.125  1.00  0.00     0.000 C 
BRANCH   2   3
ATOM      3  C   UNL     1      11.680   8.195  -2.927  1.00  0.00     0.000 C 
BRANCH   3   4
ATOM      4  C   UNL     1      11.331   7.797  -1.487  1.00  0.00    -0.000 C 
BRANCH   4   5
ATOM      5  C   UNL     1      10.341   6.627  -1.461  1.00  0.00    -0.000 C 
BRANCH   5   6
ATOM      6  C   UNL     1      10.864   5.489  -0.575  1.00  0.00    -0.000 C 
BRANCH   6   7
ATOM      7  C   UNL     1      12.341   5.196  -0.869  1.00  0.00    -0.000 C 
BRANCH   7   8
ATOM      8  C   UNL     1      12.561   4.556  -2.250  1.00  0.00    -0.000 C 
BRANCH   8   9
ATOM      9  C   UNL     1      13.482   3.318  -2.219  1.00  0.00    -0.000 C 
BRANCH   9  10
ATOM     10  C   UNL     1      14.581   3.439  -1.149  1.00  0.00    -0.000 C 
BRANCH  10  11
ATOM     11  C   UNL     1      15.858   2.672  -1.522  1.00  0.00    -0.003 C 
ATOM     12  C   UNL     1      15.572   1.265  -2.046  1.00  0.00     0.004 C 
ENDBRANCH  10  11
ENDBRANCH   9  10
ENDBRANCH   8   9
ENDBRANCH   7   8
ENDBRANCH   6   7
ENDBRANCH   5   6
ENDBRANCH   4   5
ENDBRANCH   3   4
ENDBRANCH   2   3
ENDBRANCH   1   2
BRANCH   1  13
ATOM     13  C   UNL     1      14.702  10.307  -2.909  1.00  0.00     0.000 C 
BRANCH  13  14
ATOM     14  C   UNL     1      14.349  11.730  -2.445  1.00  0.00     0.000 C 
BRANCH  14  15
ATOM     15  C   UNL     1      13.059  12.262  -3.089  1.00  0.00     0.000 C 
BRANCH  15  16
ATOM     16  C   UNL     1      11.962  12.467  -2.034  1.00  0.00     0.000 C 
BRANCH  16  17
ATOM     17  C   UNL     1      12.190  13.725  -1.179  1.00  0.00     0.000 C 
BRANCH  17  18
ATOM     18  C   UNL     1      13.100  14.755  -1.873  1.00  0.00     0.000 C 
BRANCH  18  19
ATOM     19  C   UNL     1      14.139  15.363  -0.917  1.00  0.00     0.000 C 
BRANCH  19  20
ATOM     20  C   UNL     1      14.364  16.865  -1.163  1.00  0.00     0.006 C 
BRANCH  20  21
ATOM     21  C   UNL     1      14.342  17.674   0.141  1.00  0.00     0.053 C 
BRANCH  21  22
ATOM     22  C   UNL     1      13.017  17.578   0.833  1.00  0.00     0.041 C 
ATOM     23  O   UNL     1      11.967  17.950   0.246  1.00  0.00    -0.550 OA
ATOM     24  O   UNL     1      12.938  17.047   2.114  1.00  0.00    -0.550 OA
ENDBRANCH  21  22
ENDBRANCH  20  21
ENDBRANCH  19  20
ENDBRANCH  18  19
ENDBRANCH  17  18
ENDBRANCH  16  17
ENDBRANCH  15  16
ENDBRANCH  14  15
ENDBRANCH  13  14
ENDBRANCH   1  13
TORSDOF 20
ENDMDL
MODEL 8
REMARK VINA RESULT:    -3.291      2.603      4.753
REMARK INTER + INTRA:          -9.188
REMARK INTER:                  -8.145
REMARK INTRA:                  -1.042
REMARK UNBOUND:                -2.050
REMARK SMILES CCCCCCCCCCCCCCCCCCCCCC(=O)[O-]
REMARK SMILES IDX 12 1 11 2 10 3 9 4 8 5 7 6 6 7 5 8 4 9 3 10 2 11 1 12 13 13
REMARK SMILES IDX 14 14 15 15 16 16 17 17 18 18 19 19 20 20 21 21 22 22 23 23
REMARK SMILES IDX 24 24
REMARK H PARENT
REMARK Flexibility Score: inf
ROOT
ATOM      1  C   UNL     1      12.610   5.142  -1.423  1.00  0.00     0.000 C 
ENDROOT
BRANCH   1   2
ATOM      2  C   UNL     1      11.976   6.541  -1.511  1.00  0.00     0.000 C 
BRANCH   2   3
ATOM      3  C   UNL     1      10.561   6.591  -0.915  1.00  0.00     0.000 C 
BRANCH   3   4
ATOM      4  C   UNL     1       9.659   7.523  -1.733  1.00  0.00    -0.000 C 
BRANCH   4   5
ATOM      5  C   UNL     1      10.474   8.639  -2.398  1.00  0.00    -0.000 C 
BRANCH   5   6
ATOM      6  C   UNL     1      10.175   9.995  -1.749  1.00  0.00    -0.000 C 
BRANCH   6   7
ATOM      7  C   UNL     1      11.469  10.694  -1.308  1.00  0.00    -0.000 C 
BRANCH   7   8
ATOM      8  C   UNL     1      11.918  11.793  -2.287  1.00  0.00    -0.000 C 
BRANCH   8   9
ATOM      9  C   UNL     1      12.081  13.179  -1.627  1.00  0.00    -0.000 C 
BRANCH   9  10
ATOM     10  C   UNL     1      13.176  14.020  -2.306  1.00  0.00    -0.000 C 
BRANCH  10  11
ATOM     11  C   UNL     1      13.901  14.952  -1.324  1.00  0.00    -0.003 C 
ATOM     12  C   UNL     1      12.940  15.827  -0.519  1.00  0.00     0.004 C 
ENDBRANCH  10  11
ENDBRANCH   9  10
ENDBRANCH   8   9
ENDBRANCH   7   8
ENDBRANCH   6   7
ENDBRANCH   5   6
ENDBRANCH   4   5
ENDBRANCH   3   4
ENDBRANCH   2   3
ENDBRANCH   1   2
BRANCH   1  13
ATOM     13  C   UNL     1      12.060   4.178  -2.488  1.00  0.00     0.000 C 
BRANCH  13  14
ATOM     14  C   UNL     1      12.984   2.971  -2.724  1.00  0.00     0.000 C 
BRANCH  14  15
ATOM     15  C   UNL     1      14.457   3.374  -2.893  1.00  0.00     0.000 C 
BRANCH  15  16
ATOM     16  C   UNL     1      15.325   2.762  -1.783  1.00  0.00     0.000 C 
BRANCH  16  17
ATOM     17  C   UNL     1      15.372   1.227  -1.848  1.00  0.00     0.000 C 
BRANCH  17  18
ATOM     18  C   UNL     1      16.513   0.707  -2.742  1.00  0.00     0.000 C 
BRANCH  18  19
ATOM     19  C   UNL     1      17.779   1.574  -2.646  1.00  0.00     0.000 C 
BRANCH  19  20
ATOM     20  C   UNL     1      19.071   0.760  -2.837  1.00  0.00     0.006 C 
BRANCH  20  21
ATOM     21  C   UNL     1      20.328   1.628  -2.689  1.00  0.00     0.053 C 
BRANCH  21  22
ATOM     22  C   UNL     1      21.467   0.862  -2.091  1.00  0.00     0.041 C 
ATOM     23  O   UNL     1      22.432   0.495  -2.812  1.00  0.00    -0.550 OA
ATOM     24  O   UNL     1      21.479   0.581  -0.730  1.00  0.00    -0.550 OA
ENDBRANCH  21  22
ENDBRANCH  20  21
ENDBRANCH  19  20
ENDBRANCH  18  19
ENDBRANCH  17  18
ENDBRANCH  16  17
ENDBRANCH  15  16
ENDBRANCH  14  15
ENDBRANCH  13  14
ENDBRANCH   1  13
TORSDOF 20
ENDMDL
MODEL 9
REMARK VINA RESULT:    -3.266      4.922     11.242
REMARK INTER + INTRA:          -9.134
REMARK INTER:                  -8.047
REMARK INTRA:                  -1.087
REMARK UNBOUND:                -2.050
REMARK SMILES CCCCCCCCCCCCCCCCCCCCCC(=O)[O-]
REMARK SMILES IDX 12 1 11 2 10 3 9 4 8 5 7 6 6 7 5 8 4 9 3 10 2 11 1 12 13 13
REMARK SMILES IDX 14 14 15 15 16 16 17 17 18 18 19 19 20 20 21 21 22 22 23 23
REMARK SMILES IDX 24 24
REMARK H PARENT
REMARK Flexibility Score: inf
ROOT
ATOM      1  C   UNL     1      12.418   4.580  -1.287  1.00  0.00     0.000 C 
ENDROOT
BRANCH   1   2
ATOM      2  C   UNL     1      12.136   3.766  -2.561  1.00  0.00     0.000 C 
BRANCH   2   3
ATOM      3  C   UNL     1      13.217   2.713  -2.845  1.00  0.00     0.000 C 
BRANCH   3   4
ATOM      4  C   UNL     1      14.606   3.359  -2.899  1.00  0.00    -0.000 C 
BRANCH   4   5
ATOM      5  C   UNL     1      15.546   2.739  -1.858  1.00  0.00    -0.000 C 
BRANCH   5   6
ATOM      6  C   UNL     1      15.486   1.208  -1.913  1.00  0.00    -0.000 C 
BRANCH   6   7
ATOM      7  C   UNL     1      16.589   0.643  -2.818  1.00  0.00    -0.000 C 
BRANCH   7   8
ATOM      8  C   UNL     1      17.830   1.550  -2.885  1.00  0.00    -0.000 C 
BRANCH   8   9
ATOM      9  C   UNL     1      19.165   0.777  -2.827  1.00  0.00    -0.000 C 
BRANCH   9  10
ATOM     10  C   UNL     1      20.382   1.718  -2.847  1.00  0.00    -0.000 C 
BRANCH  10  11
ATOM     11  C   UNL     1      21.703   0.982  -2.577  1.00  0.00    -0.003 C 
ATOM     12  C   UNL     1      21.956   0.746  -1.087  1.00  0.00     0.004 C 
ENDBRANCH  10  11
ENDBRANCH   9  10
ENDBRANCH   8   9
ENDBRANCH   7   8
ENDBRANCH   6   7
ENDBRANCH   5   6
ENDBRANCH   4   5
ENDBRANCH   3   4
ENDBRANCH   2   3
ENDBRANCH   1   2
BRANCH   1  13
ATOM     13  C   UNL     1      12.178   6.087  -1.484  1.00  0.00     0.000 C 
BRANCH  13  14
ATOM     14  C   UNL     1      10.871   6.567  -0.830  1.00  0.00     0.000 C 
BRANCH  14  15
ATOM     15  C   UNL     1       9.719   6.706  -1.837  1.00  0.00     0.000 C 
BRANCH  15  16
ATOM     16  C   UNL     1       9.681   8.120  -2.435  1.00  0.00     0.000 C 
BRANCH  16  17
ATOM     17  C   UNL     1      10.508   9.129  -1.622  1.00  0.00     0.000 C 
BRANCH  17  18
ATOM     18  C   UNL     1      10.397  10.564  -2.171  1.00  0.00     0.000 C 
BRANCH  18  19
ATOM     19  C   UNL     1      11.487  11.494  -1.615  1.00  0.00     0.000 C 
BRANCH  19  20
ATOM     20  C   UNL     1      10.951  12.467  -0.550  1.00  0.00     0.006 C 
BRANCH  20  21
ATOM     21  C   UNL     1      10.345  13.731  -1.174  1.00  0.00     0.053 C 
BRANCH  21  22
ATOM     22  C   UNL     1       8.908  13.907  -0.792  1.00  0.00     0.041 C 
ATOM     23  O   UNL     1       8.455  15.054  -0.537  1.00  0.00    -0.550 OA
ATOM     24  O   UNL     1       8.059  12.808  -0.749  1.00  0.00    -0.550 OA
ENDBRANCH  21  22
ENDBRANCH  20  21
ENDBRANCH  19  20
ENDBRANCH  18  19
ENDBRANCH  17  18
ENDBRANCH  16  17
ENDBRANCH  15  16
ENDBRANCH  14  15
ENDBRANCH  13  14
ENDBRANCH   1  13
TORSDOF 20
ENDMDL
