MODEL 1
REMARK VINA RESULT:    30.699      0.000      0.000
REMARK INTER + INTRA:          33.346
REMARK INTER:                  33.391
REMARK INTRA:                  -0.045
REMARK UNBOUND:                -0.045
REMARK SMILES C[C@@H]1[C@H]2C3=CC[C@@H]4[C@@]5(C)CC[C@H](O)C(C)(C)[C@H]5CC[C@@]4(C)[C@]3(C)CC[C@@]2(C(=O)[O-])CC[C@@H]1C
REMARK SMILES IDX 26 1 30 2 25 3 3 4 31 5 24 6 4 7 2 8 32 9 22 10 5 11 1 12
REMARK SMILES IDX 33 13 23 14 20 15 6 16 7 17 19 18 21 19 8 20 18 21 17 22
REMARK SMILES IDX 10 23 9 24 14 25 11 26 12 27 15 28 16 29 27 30 28 31 29 32
REMARK SMILES IDX 13 33
REMARK H PARENT 13 34
REMARK Flexibility Score: inf
ROOT
ATOM      1  C   UNL     1       9.549 -33.485  13.023  1.00  0.00     0.017 C 
ATOM      2  C   UNL     1      10.565 -33.899  11.875  1.00  0.00     0.014 C 
ATOM      3  C   UNL     1       8.660 -32.297  12.446  1.00  0.00     0.014 C 
ATOM      4  C   UNL     1      10.245 -33.183  14.432  1.00  0.00     0.030 C 
ATOM      5  C   UNL     1      11.955 -33.224  12.029  1.00  0.00     0.004 C 
ATOM      6  C   UNL     1       8.025 -31.356  13.488  1.00  0.00     0.013 C 
ATOM      7  C   UNL     1       9.486 -32.095  15.232  1.00  0.00    -0.063 C 
ATOM      8  C   UNL     1      11.802 -32.977  14.538  1.00  0.00    -0.003 C 
ATOM      9  C   UNL     1      12.615 -33.597  13.352  1.00  0.00    -0.011 C 
ATOM     10  C   UNL     1       9.054 -30.785  14.526  1.00  0.00    -0.006 C 
ATOM     11  C   UNL     1       8.775 -32.530  16.316  1.00  0.00    -0.027 C 
ATOM     12  C   UNL     1      12.361 -33.431  15.924  1.00  0.00     0.008 C 
ATOM     13  C   UNL     1      12.823 -35.125  13.485  1.00  0.00     0.008 C 
ATOM     14  C   UNL     1      10.231 -30.095  13.723  1.00  0.00     0.017 C 
ATOM     15  C   UNL     1       8.422 -29.662  15.573  1.00  0.00    -0.020 C 
ATOM     16  C   UNL     1       7.709 -31.706  16.959  1.00  0.00     0.032 C 
ATOM     17  C   UNL     1       8.221 -30.249  17.023  1.00  0.00     0.006 C 
ATOM     18  C   UNL     1       9.331 -28.385  15.740  1.00  0.00     0.008 C 
ATOM     19  C   UNL     1       7.075 -29.137  14.965  1.00  0.00     0.012 C 
ATOM     20  C   UNL     1       7.501 -29.326  18.095  1.00  0.00    -0.025 C 
ATOM     21  C   UNL     1       9.206 -27.603  17.048  1.00  0.00     0.005 C 
ATOM     22  C   UNL     1       7.888 -27.784  17.876  1.00  0.00     0.003 C 
ATOM     23  C   UNL     1       7.908 -29.776  19.552  1.00  0.00     0.010 C 
ATOM     24  C   UNL     1       5.938 -29.523  18.007  1.00  0.00     0.012 C 
ATOM     25  C   UNL     1       7.998 -26.915  19.215  1.00  0.00    -0.006 C 
ATOM     26  C   UNL     1       9.188 -29.126  20.060  1.00  0.00     0.033 C 
ATOM     27  C   UNL     1       8.959 -27.616  20.274  1.00  0.00     0.120 C 
ATOM     28  C   UNL     1       6.563 -26.665  19.789  1.00  0.00     0.014 C 
ATOM     29  C   UNL     1       8.567 -25.497  18.895  1.00  0.00     0.014 C 
ENDROOT
BRANCH   1  30
ATOM     30  C   UNL     1       8.620 -34.721  13.228  1.00  0.00     0.048 C 
ATOM     31  O   UNL     1       8.423 -35.123  14.410  1.00  0.00    -0.550 OA
ATOM     32  O   UNL     1       7.704 -35.125  12.250  1.00  0.00    -0.550 OA
ENDBRANCH   1  30
BRANCH  27  33
ATOM     33  O   UNL     1       8.511 -27.378  21.585  1.00  0.00    -0.393 OA
ATOM     34  H   UNL     1       7.809 -26.679  21.537  1.00  0.00     0.210 HD
ENDBRANCH  27  33
TORSDOF 2
ENDMDL
