MODEL 1
REMARK VINA RESULT:    -1.183      0.000      0.000
REMARK INTER + INTRA:           2.096
REMARK INTER:                  -1.806
REMARK INTRA:                   3.901
REMARK UNBOUND:                 3.901
REMARK SMILES CC1=CCC[C@@H](C)C(=O)C[C@H](C(C)C)C(=O)C1
REMARK SMILES IDX 8 1 9 2 6 3 7 4 5 5 4 6 3 7 2 8 1 9 10 11 11 12 15 13 16 14
REMARK SMILES IDX 17 15 12 17 13 18 14 19
REMARK H PARENT
REMARK Flexibility Score: 70.00
ROOT
ATOM      1  C   UNL     1      -4.130  -5.078 -17.078  1.00  0.00     0.136 C 
ATOM      2  O   UNL     1      -5.300  -5.416 -16.975  1.00  0.00    -0.299 OA
ENDROOT
BRANCH   1   3
ATOM      3  C   UNL     1      -3.565  -4.021 -16.149  1.00  0.00     0.053 C 
ATOM      4  C   UNL     1      -4.612  -2.924 -15.934  1.00  0.00     0.016 C 
BRANCH   3   5
ATOM      5  C   UNL     1      -2.256  -3.412 -16.702  1.00  0.00     0.015 C 
BRANCH   5   6
ATOM      6  C   UNL     1      -1.003  -4.214 -16.319  1.00  0.00     0.028 C 
BRANCH   6   7
ATOM      7  C   UNL     1      -0.972  -4.510 -14.838  1.00  0.00    -0.028 C 
ATOM      8  C   UNL     1      -1.068  -5.736 -14.276  1.00  0.00    -0.070 CG0
ATOM      9  C   UNL     1      -1.014  -5.830 -12.772  1.00  0.00     0.039 C 
ATOM     10  G   UNL     1      -1.263  -7.007 -15.081  1.00  0.00     0.000 G0
ENDBRANCH   6   7
ENDBRANCH   5   6
ENDBRANCH   3   5
ENDBRANCH   1   3
BRANCH   1  11
ATOM     11  C   UNL     1      -3.267  -5.738 -18.123  1.00  0.00     0.087 C 
BRANCH  11  12
ATOM     12  C   UNL     1      -2.331  -6.807 -17.507  1.00  0.00     0.066 C 
BRANCH  12  13
ATOM     13  C   UNL     1      -2.488  -6.863 -15.996  1.00  0.00     0.140 C 
ATOM     14  O   UNL     1      -3.605  -6.838 -15.499  1.00  0.00    -0.299 OA
BRANCH  13  15
ATOM     15  C   UNL     1      -1.293  -7.005 -15.089  1.00  0.00     0.106 CG0
ATOM     16  G   UNL     1      -1.072  -5.739 -14.283  1.00  0.00     0.000 G0
ENDBRANCH  13  15
ENDBRANCH  12  13
BRANCH  12  17
ATOM     17  C   UNL     1      -2.517  -8.230 -18.124  1.00  0.00    -0.006 C 
ATOM     18  C   UNL     1      -1.536  -9.280 -17.573  1.00  0.00     0.008 C 
ATOM     19  C   UNL     1      -3.963  -8.730 -17.972  1.00  0.00     0.008 C 
ENDBRANCH  12  17
ENDBRANCH  11  12
ENDBRANCH   1  11
TORSDOF 1
ENDMDL
MODEL 2
REMARK VINA RESULT:     0.438      1.698      3.823
REMARK INTER + INTRA:           4.569
REMARK INTER:                  -2.053
REMARK INTRA:                   6.623
REMARK UNBOUND:                 3.901
REMARK SMILES CC1=CCC[C@@H](C)C(=O)C[C@H](C(C)C)C(=O)C1
REMARK SMILES IDX 8 1 9 2 6 3 7 4 5 5 4 6 3 7 2 8 1 9 10 11 11 12 15 13 16 14
REMARK SMILES IDX 17 15 12 17 13 18 14 19
REMARK H PARENT
REMARK Flexibility Score: 70.00
ROOT
ATOM      1  C   UNL     1      -3.225  -5.830 -15.169  1.00  0.00     0.136 C 
ATOM      2  O   UNL     1      -3.978  -6.282 -14.318  1.00  0.00    -0.299 OA
ENDROOT
BRANCH   1   3
ATOM      3  C   UNL     1      -3.727  -5.613 -16.582  1.00  0.00     0.053 C 
ATOM      4  C   UNL     1      -4.452  -4.266 -16.660  1.00  0.00     0.016 C 
BRANCH   3   5
ATOM      5  C   UNL     1      -4.666  -6.753 -17.039  1.00  0.00     0.015 C 
BRANCH   5   6
ATOM      6  C   UNL     1      -3.919  -7.945 -17.659  1.00  0.00     0.028 C 
BRANCH   6   7
ATOM      7  C   UNL     1      -3.049  -8.637 -16.636  1.00  0.00    -0.028 C 
ATOM      8  C   UNL     1      -1.725  -8.430 -16.457  1.00  0.00    -0.070 CG0
ATOM      9  C   UNL     1      -1.026  -9.218 -15.377  1.00  0.00     0.039 C 
ATOM     10  G   UNL     1      -0.909  -7.475 -17.308  1.00  0.00     0.000 G0
ENDBRANCH   6   7
ENDBRANCH   5   6
ENDBRANCH   3   5
ENDBRANCH   1   3
BRANCH   1  11
ATOM     11  C   UNL     1      -1.811  -5.481 -14.783  1.00  0.00     0.087 C 
BRANCH  11  12
ATOM     12  C   UNL     1      -0.937  -5.157 -16.021  1.00  0.00     0.066 C 
BRANCH  12  13
ATOM     13  C   UNL     1      -1.322  -6.032 -17.202  1.00  0.00     0.140 C 
ATOM     14  O   UNL     1      -1.969  -5.558 -18.125  1.00  0.00    -0.299 OA
BRANCH  13  15
ATOM     15  C   UNL     1      -0.875  -7.468 -17.292  1.00  0.00     0.106 CG0
ATOM     16  G   UNL     1      -1.753  -8.362 -16.437  1.00  0.00     0.000 G0
ENDBRANCH  13  15
ENDBRANCH  12  13
BRANCH  12  17
ATOM     17  C   UNL     1      -0.970  -3.649 -16.429  1.00  0.00    -0.006 C 
ATOM     18  C   UNL     1      -1.109  -3.419 -17.945  1.00  0.00     0.008 C 
ATOM     19  C   UNL     1      -2.068  -2.880 -15.676  1.00  0.00     0.008 C 
ENDBRANCH  12  17
ENDBRANCH  11  12
ENDBRANCH   1  11
TORSDOF 1
ENDMDL
