MODEL 1
REMARK VINA RESULT:    -3.391      0.000      0.000
REMARK INTER + INTRA:          -4.027
REMARK INTER:                  -3.985
REMARK INTRA:                  -0.042
REMARK UNBOUND:                -0.042
REMARK SMILES O=C([O-])CCC(=O)[O-]
REMARK SMILES IDX 4 1 2 2 1 3 3 4 5 5 6 6 7 7 8 8
REMARK H PARENT
REMARK Flexibility Score: inf
ROOT
ATOM      1  C   UNL     1       5.489  20.227   1.162  1.00  0.00     0.059 C 
ENDROOT
BRANCH   1   2
ATOM      2  C   UNL     1       6.572  19.475   1.873  1.00  0.00     0.042 C 
ATOM      3  O   UNL     1       7.560  19.029   1.232  1.00  0.00    -0.550 OA
ATOM      4  O   UNL     1       6.469  19.231   3.236  1.00  0.00    -0.550 OA
ENDBRANCH   1   2
BRANCH   1   5
ATOM      5  C   UNL     1       5.440  19.872  -0.328  1.00  0.00     0.059 C 
BRANCH   5   6
ATOM      6  C   UNL     1       5.020  21.044  -1.161  1.00  0.00     0.042 C 
ATOM      7  O   UNL     1       3.848  21.496  -1.073  1.00  0.00    -0.550 OA
ATOM      8  O   UNL     1       5.934  21.663  -2.005  1.00  0.00    -0.550 OA
ENDBRANCH   5   6
ENDBRANCH   1   5
TORSDOF 3
ENDMDL
MODEL 2
REMARK VINA RESULT:    -3.310      1.189      4.284
REMARK INTER + INTRA:          -3.932
REMARK INTER:                  -3.902
REMARK INTRA:                  -0.030
REMARK UNBOUND:                -0.042
REMARK SMILES O=C([O-])CCC(=O)[O-]
REMARK SMILES IDX 4 1 2 2 1 3 3 4 5 5 6 6 7 7 8 8
REMARK H PARENT
REMARK Flexibility Score: inf
ROOT
ATOM      1  C   UNL     1       5.195  20.233   0.504  1.00  0.00     0.059 C 
ENDROOT
BRANCH   1   2
ATOM      2  C   UNL     1       4.849  20.453  -0.937  1.00  0.00     0.042 C 
ATOM      3  O   UNL     1       4.360  19.516  -1.622  1.00  0.00    -0.550 OA
ATOM      4  O   UNL     1       5.104  21.681  -1.534  1.00  0.00    -0.550 OA
ENDBRANCH   1   2
BRANCH   1   5
ATOM      5  C   UNL     1       6.401  19.302   0.659  1.00  0.00     0.059 C 
BRANCH   5   6
ATOM      6  C   UNL     1       6.714  19.038   2.100  1.00  0.00     0.042 C 
ATOM      7  O   UNL     1       7.320  17.985   2.434  1.00  0.00    -0.550 OA
ATOM      8  O   UNL     1       6.374  19.973   3.069  1.00  0.00    -0.550 OA
ENDBRANCH   5   6
ENDBRANCH   1   5
TORSDOF 3
ENDMDL
MODEL 3
REMARK VINA RESULT:    -3.176      7.123      8.150
REMARK INTER + INTRA:          -3.775
REMARK INTER:                  -3.724
REMARK INTRA:                  -0.051
REMARK UNBOUND:                -0.042
REMARK SMILES O=C([O-])CCC(=O)[O-]
REMARK SMILES IDX 4 1 2 2 1 3 3 4 5 5 6 6 7 7 8 8
REMARK H PARENT
REMARK Flexibility Score: inf
ROOT
ATOM      1  C   UNL     1       4.226  13.659  -0.724  1.00  0.00     0.059 C 
ENDROOT
BRANCH   1   2
ATOM      2  C   UNL     1       2.851  13.210  -0.335  1.00  0.00     0.042 C 
ATOM      3  O   UNL     1       1.970  14.057  -0.030  1.00  0.00    -0.550 OA
ATOM      4  O   UNL     1       2.554  11.855  -0.271  1.00  0.00    -0.550 OA
ENDBRANCH   1   2
BRANCH   1   5
ATOM      5  C   UNL     1       5.226  12.499  -0.700  1.00  0.00     0.059 C 
BRANCH   5   6
ATOM      6  C   UNL     1       6.555  12.926  -0.156  1.00  0.00     0.042 C 
ATOM      7  O   UNL     1       6.618  13.594   0.910  1.00  0.00    -0.550 OA
ATOM      8  O   UNL     1       7.726  12.553  -0.804  1.00  0.00    -0.550 OA
ENDBRANCH   5   6
ENDBRANCH   1   5
TORSDOF 3
ENDMDL
MODEL 4
REMARK VINA RESULT:    -3.135      7.081      7.736
REMARK INTER + INTRA:          -3.727
REMARK INTER:                  -3.668
REMARK INTRA:                  -0.059
REMARK UNBOUND:                -0.042
REMARK SMILES O=C([O-])CCC(=O)[O-]
REMARK SMILES IDX 4 1 2 2 1 3 3 4 5 5 6 6 7 7 8 8
REMARK H PARENT
REMARK Flexibility Score: inf
ROOT
ATOM      1  C   UNL     1       5.383  12.482  -0.691  1.00  0.00     0.059 C 
ENDROOT
BRANCH   1   2
ATOM      2  C   UNL     1       6.666  12.888  -0.032  1.00  0.00     0.042 C 
ATOM      3  O   UNL     1       6.647  13.600   1.007  1.00  0.00    -0.550 OA
ATOM      4  O   UNL     1       7.883  12.516  -0.588  1.00  0.00    -0.550 OA
ENDBRANCH   1   2
BRANCH   1   5
ATOM      5  C   UNL     1       4.376  13.635  -0.724  1.00  0.00     0.059 C 
BRANCH   5   6
ATOM      6  C   UNL     1       3.000  13.178  -0.347  1.00  0.00     0.042 C 
ATOM      7  O   UNL     1       2.721  11.949  -0.339  1.00  0.00    -0.550 OA
ATOM      8  O   UNL     1       2.038  14.104   0.036  1.00  0.00    -0.550 OA
ENDBRANCH   5   6
ENDBRANCH   1   5
TORSDOF 3
ENDMDL
MODEL 5
REMARK VINA RESULT:    -2.994      1.728      4.384
REMARK INTER + INTRA:          -3.561
REMARK INTER:                  -3.480
REMARK INTRA:                  -0.081
REMARK UNBOUND:                -0.042
REMARK SMILES O=C([O-])CCC(=O)[O-]
REMARK SMILES IDX 4 1 2 2 1 3 3 4 5 5 6 6 7 7 8 8
REMARK H PARENT
REMARK Flexibility Score: inf
ROOT
ATOM      1  C   UNL     1       6.551  18.727   0.760  1.00  0.00     0.059 C 
ENDROOT
BRANCH   1   2
ATOM      2  C   UNL     1       5.728  19.936   0.439  1.00  0.00     0.042 C 
ATOM      3  O   UNL     1       4.836  20.326   1.238  1.00  0.00    -0.550 OA
ATOM      4  O   UNL     1       5.918  20.608  -0.761  1.00  0.00    -0.550 OA
ENDBRANCH   1   2
BRANCH   1   5
ATOM      5  C   UNL     1       7.768  19.084   1.619  1.00  0.00     0.059 C 
BRANCH   5   6
ATOM      6  C   UNL     1       7.395  19.258   3.060  1.00  0.00     0.042 C 
ATOM      7  O   UNL     1       7.680  20.326   3.663  1.00  0.00    -0.550 OA
ATOM      8  O   UNL     1       6.697  18.257   3.725  1.00  0.00    -0.550 OA
ENDBRANCH   5   6
ENDBRANCH   1   5
TORSDOF 3
ENDMDL
MODEL 6
REMARK VINA RESULT:    -2.941     14.802     15.657
REMARK INTER + INTRA:          -3.498
REMARK INTER:                  -3.404
REMARK INTRA:                  -0.094
REMARK UNBOUND:                -0.042
REMARK SMILES O=C([O-])CCC(=O)[O-]
REMARK SMILES IDX 4 1 2 2 1 3 3 4 5 5 6 6 7 7 8 8
REMARK H PARENT
REMARK Flexibility Score: inf
ROOT
ATOM      1  C   UNL     1      -8.427  15.881  -5.343  1.00  0.00     0.059 C 
ENDROOT
BRANCH   1   2
ATOM      2  C   UNL     1      -7.373  15.138  -6.105  1.00  0.00     0.042 C 
ATOM      3  O   UNL     1      -6.327  14.746  -5.524  1.00  0.00    -0.550 OA
ATOM      4  O   UNL     1      -7.528  14.913  -7.467  1.00  0.00    -0.550 OA
ENDBRANCH   1   2
BRANCH   1   5
ATOM      5  C   UNL     1      -8.769  15.179  -4.025  1.00  0.00     0.059 C 
BRANCH   5   6
ATOM      6  C   UNL     1      -8.285  15.959  -2.841  1.00  0.00     0.042 C 
ATOM      7  O   UNL     1      -7.418  15.467  -2.071  1.00  0.00    -0.550 OA
ATOM      8  O   UNL     1      -8.759  17.245  -2.612  1.00  0.00    -0.550 OA
ENDBRANCH   5   6
ENDBRANCH   1   5
TORSDOF 3
ENDMDL
MODEL 7
REMARK VINA RESULT:    -2.926     14.765     15.422
REMARK INTER + INTRA:          -3.480
REMARK INTER:                  -3.390
REMARK INTRA:                  -0.091
REMARK UNBOUND:                -0.042
REMARK SMILES O=C([O-])CCC(=O)[O-]
REMARK SMILES IDX 4 1 2 2 1 3 3 4 5 5 6 6 7 7 8 8
REMARK H PARENT
REMARK Flexibility Score: inf
ROOT
ATOM      1  C   UNL     1      -8.715  15.124  -4.058  1.00  0.00     0.059 C 
ENDROOT
BRANCH   1   2
ATOM      2  C   UNL     1      -8.225  15.909  -2.880  1.00  0.00     0.042 C 
ATOM      3  O   UNL     1      -7.341  15.430  -2.122  1.00  0.00    -0.550 OA
ATOM      4  O   UNL     1      -8.774  17.153  -2.597  1.00  0.00    -0.550 OA
ENDBRANCH   1   2
BRANCH   1   5
ATOM      5  C   UNL     1      -8.446  15.857  -5.376  1.00  0.00     0.059 C 
BRANCH   5   6
ATOM      6  C   UNL     1      -7.387  15.171  -6.184  1.00  0.00     0.042 C 
ATOM      7  O   UNL     1      -6.308  14.815  -5.642  1.00  0.00    -0.550 OA
ATOM      8  O   UNL     1      -7.609  14.888  -7.526  1.00  0.00    -0.550 OA
ENDBRANCH   5   6
ENDBRANCH   1   5
TORSDOF 3
ENDMDL
MODEL 8
REMARK VINA RESULT:    -2.914     12.597     13.202
REMARK INTER + INTRA:          -3.467
REMARK INTER:                  -3.436
REMARK INTRA:                  -0.031
REMARK UNBOUND:                -0.042
REMARK SMILES O=C([O-])CCC(=O)[O-]
REMARK SMILES IDX 4 1 2 2 1 3 3 4 5 5 6 6 7 7 8 8
REMARK H PARENT
REMARK Flexibility Score: inf
ROOT
ATOM      1  C   UNL     1      -6.480  17.744   3.800  1.00  0.00     0.059 C 
ENDROOT
BRANCH   1   2
ATOM      2  C   UNL     1      -6.657  18.987   4.617  1.00  0.00     0.042 C 
ATOM      3  O   UNL     1      -6.215  19.039   5.796  1.00  0.00    -0.550 OA
ATOM      4  O   UNL     1      -7.345  20.073   4.092  1.00  0.00    -0.550 OA
ENDBRANCH   1   2
BRANCH   1   5
ATOM      5  C   UNL     1      -6.351  18.064   2.307  1.00  0.00     0.059 C 
BRANCH   5   6
ATOM      6  C   UNL     1      -6.533  16.841   1.462  1.00  0.00     0.042 C 
ATOM      7  O   UNL     1      -5.675  15.919   1.490  1.00  0.00    -0.550 OA
ATOM      8  O   UNL     1      -7.669  16.700   0.675  1.00  0.00    -0.550 OA
ENDBRANCH   5   6
ENDBRANCH   1   5
TORSDOF 3
ENDMDL
MODEL 9
REMARK VINA RESULT:    -2.911      1.935      2.764
REMARK INTER + INTRA:          -3.464
REMARK INTER:                  -3.356
REMARK INTRA:                  -0.107
REMARK UNBOUND:                -0.042
REMARK SMILES O=C([O-])CCC(=O)[O-]
REMARK SMILES IDX 4 1 2 2 1 3 3 4 5 5 6 6 7 7 8 8
REMARK H PARENT
REMARK Flexibility Score: inf
ROOT
ATOM      1  C   UNL     1       7.649  19.034   2.150  1.00  0.00     0.059 C 
ENDROOT
BRANCH   1   2
ATOM      2  C   UNL     1       7.322  18.030   3.211  1.00  0.00     0.042 C 
ATOM      3  O   UNL     1       6.553  18.337   4.160  1.00  0.00    -0.550 OA
ATOM      4  O   UNL     1       7.899  16.766   3.175  1.00  0.00    -0.550 OA
ENDBRANCH   1   2
BRANCH   1   5
ATOM      5  C   UNL     1       6.915  18.730   0.840  1.00  0.00     0.059 C 
BRANCH   5   6
ATOM      6  C   UNL     1       5.752  19.651   0.631  1.00  0.00     0.042 C 
ATOM      7  O   UNL     1       5.177  19.701  -0.488  1.00  0.00    -0.550 OA
ATOM      8  O   UNL     1       5.277  20.425   1.683  1.00  0.00    -0.550 OA
ENDBRANCH   5   6
ENDBRANCH   1   5
TORSDOF 3
ENDMDL
