MODEL 1
REMARK VINA RESULT:    -5.404      0.000      0.000
REMARK INTER + INTRA:         -10.214
REMARK INTER:                  -8.247
REMARK INTRA:                  -1.967
REMARK UNBOUND:                -1.967
REMARK SMILES CC(=O)CCC=C(C)CCC=C(C)CCC=C(C)C
REMARK SMILES IDX 10 1 11 2 12 3 13 4 14 5 15 6 16 7 18 8 17 9 19 10 9 11 7 12
REMARK SMILES IDX 6 13 8 14 5 15 4 16 2 17 3 18 1 19
REMARK H PARENT
REMARK Flexibility Score: inf
ROOT
ATOM      1  C   UNL     1      17.584  14.235  26.410  1.00  0.00     0.032 C 
ENDROOT
BRANCH   1   2
ATOM      2  C   UNL     1      17.148  15.469  25.657  1.00  0.00    -0.028 C 
ATOM      3  C   UNL     1      16.882  15.511  24.331  1.00  0.00    -0.077 C 
ATOM      4  C   UNL     1      16.913  14.272  23.468  1.00  0.00     0.039 C 
BRANCH   3   5
ATOM      5  C   UNL     1      16.500  16.831  23.694  1.00  0.00     0.034 C 
BRANCH   5   6
ATOM      6  C   UNL     1      15.008  16.881  23.339  1.00  0.00     0.032 C 
BRANCH   6   7
ATOM      7  C   UNL     1      14.366  18.177  23.775  1.00  0.00    -0.028 C 
ATOM      8  C   UNL     1      13.471  20.452  23.541  1.00  0.00     0.039 C 
ATOM      9  C   UNL     1      14.064  19.201  22.948  1.00  0.00    -0.080 C 
ATOM     10  C   UNL     1      14.286  19.117  21.456  1.00  0.00     0.039 C 
ENDBRANCH   6   7
ENDBRANCH   5   6
ENDBRANCH   3   5
ENDBRANCH   1   2
BRANCH   1  11
ATOM     11  C   UNL     1      19.114  14.117  26.451  1.00  0.00     0.034 C 
BRANCH  11  12
ATOM     12  C   UNL     1      19.648  13.185  25.377  1.00  0.00    -0.077 C 
ATOM     13  C   UNL     1      20.586  13.565  24.480  1.00  0.00    -0.028 C 
ATOM     14  C   UNL     1      19.127  11.772  25.314  1.00  0.00     0.039 C 
BRANCH  13  15
ATOM     15  C   UNL     1      21.173  14.953  24.414  1.00  0.00     0.035 C 
BRANCH  15  16
ATOM     16  C   UNL     1      20.366  15.852  23.472  1.00  0.00     0.079 C 
BRANCH  16  17
ATOM     17  C   UNL     1      20.150  17.211  24.085  1.00  0.00     0.130 C 
ATOM     18  O   UNL     1      20.186  17.335  25.300  1.00  0.00    -0.300 OA
ATOM     19  C   UNL     1      19.902  18.422  23.235  1.00  0.00     0.087 C 
ENDBRANCH  16  17
ENDBRANCH  15  16
ENDBRANCH  13  15
ENDBRANCH  11  12
ENDBRANCH   1  11
TORSDOF 9
ENDMDL
MODEL 2
REMARK VINA RESULT:    -5.338      1.198      1.696
REMARK INTER + INTRA:         -10.113
REMARK INTER:                  -8.223
REMARK INTRA:                  -1.890
REMARK UNBOUND:                -1.967
REMARK SMILES CC(=O)CCC=C(C)CCC=C(C)CCC=C(C)C
REMARK SMILES IDX 10 1 11 2 12 3 13 4 14 5 15 6 16 7 18 8 17 9 19 10 9 11 7 12
REMARK SMILES IDX 6 13 8 14 5 15 4 16 2 17 3 18 1 19
REMARK H PARENT
REMARK Flexibility Score: inf
ROOT
ATOM      1  C   UNL     1      17.594  13.596  24.022  1.00  0.00     0.032 C 
ENDROOT
BRANCH   1   2
ATOM      2  C   UNL     1      16.748  14.826  24.252  1.00  0.00    -0.028 C 
ATOM      3  C   UNL     1      16.449  15.341  25.467  1.00  0.00    -0.077 C 
ATOM      4  C   UNL     1      17.022  14.770  26.742  1.00  0.00     0.039 C 
BRANCH   3   5
ATOM      5  C   UNL     1      15.546  16.554  25.555  1.00  0.00     0.034 C 
BRANCH   5   6
ATOM      6  C   UNL     1      14.485  16.555  24.447  1.00  0.00     0.032 C 
BRANCH   6   7
ATOM      7  C   UNL     1      13.820  17.904  24.300  1.00  0.00    -0.028 C 
ATOM      8  C   UNL     1      13.465  20.169  23.421  1.00  0.00     0.039 C 
ATOM      9  C   UNL     1      14.194  18.851  23.413  1.00  0.00    -0.080 C 
ATOM     10  C   UNL     1      15.300  18.618  22.411  1.00  0.00     0.039 C 
ENDBRANCH   6   7
ENDBRANCH   5   6
ENDBRANCH   3   5
ENDBRANCH   1   2
BRANCH   1  11
ATOM     11  C   UNL     1      19.061  13.968  23.766  1.00  0.00     0.034 C 
BRANCH  11  12
ATOM     12  C   UNL     1      19.935  13.734  24.986  1.00  0.00    -0.077 C 
ATOM     13  C   UNL     1      20.900  14.600  25.372  1.00  0.00    -0.028 C 
ATOM     14  C   UNL     1      19.712  12.495  25.815  1.00  0.00     0.039 C 
BRANCH  13  15
ATOM     15  C   UNL     1      21.245  15.862  24.621  1.00  0.00     0.035 C 
BRANCH  15  16
ATOM     16  C   UNL     1      20.404  17.046  25.111  1.00  0.00     0.079 C 
BRANCH  16  17
ATOM     17  C   UNL     1      19.931  17.881  23.950  1.00  0.00     0.130 C 
ATOM     18  O   UNL     1      20.669  18.736  23.485  1.00  0.00    -0.300 OA
ATOM     19  C   UNL     1      18.574  17.679  23.344  1.00  0.00     0.087 C 
ENDBRANCH  16  17
ENDBRANCH  15  16
ENDBRANCH  13  15
ENDBRANCH  11  12
ENDBRANCH   1  11
TORSDOF 9
ENDMDL
MODEL 3
REMARK VINA RESULT:    -5.314      1.566      2.366
REMARK INTER + INTRA:         -10.077
REMARK INTER:                  -7.782
REMARK INTRA:                  -2.295
REMARK UNBOUND:                -1.967
REMARK SMILES CC(=O)CCC=C(C)CCC=C(C)CCC=C(C)C
REMARK SMILES IDX 10 1 11 2 12 3 13 4 14 5 15 6 16 7 18 8 17 9 19 10 9 11 7 12
REMARK SMILES IDX 6 13 8 14 5 15 4 16 2 17 3 18 1 19
REMARK H PARENT
REMARK Flexibility Score: inf
ROOT
ATOM      1  C   UNL     1      17.597  14.279  26.481  1.00  0.00     0.032 C 
ENDROOT
BRANCH   1   2
ATOM      2  C   UNL     1      17.023  15.449  25.717  1.00  0.00    -0.028 C 
ATOM      3  C   UNL     1      16.698  15.428  24.404  1.00  0.00    -0.077 C 
ATOM      4  C   UNL     1      16.800  14.172  23.573  1.00  0.00     0.039 C 
BRANCH   3   5
ATOM      5  C   UNL     1      16.176  16.691  23.751  1.00  0.00     0.034 C 
BRANCH   5   6
ATOM      6  C   UNL     1      14.914  17.213  24.449  1.00  0.00     0.032 C 
BRANCH   6   7
ATOM      7  C   UNL     1      13.817  16.175  24.488  1.00  0.00    -0.028 C 
ATOM      8  C   UNL     1      12.227  14.598  25.495  1.00  0.00     0.039 C 
ATOM      9  C   UNL     1      13.280  15.667  25.618  1.00  0.00    -0.080 C 
ATOM     10  C   UNL     1      13.691  16.152  26.989  1.00  0.00     0.039 C 
ENDBRANCH   6   7
ENDBRANCH   5   6
ENDBRANCH   3   5
ENDBRANCH   1   2
BRANCH   1  11
ATOM     11  C   UNL     1      19.129  14.254  26.396  1.00  0.00     0.034 C 
BRANCH  11  12
ATOM     12  C   UNL     1      19.631  13.266  25.358  1.00  0.00    -0.077 C 
ATOM     13  C   UNL     1      20.555  13.592  24.425  1.00  0.00    -0.028 C 
ATOM     14  C   UNL     1      19.095  11.858  25.373  1.00  0.00     0.039 C 
BRANCH  13  15
ATOM     15  C   UNL     1      21.154  14.969  24.281  1.00  0.00     0.035 C 
BRANCH  15  16
ATOM     16  C   UNL     1      20.274  15.867  23.405  1.00  0.00     0.079 C 
BRANCH  16  17
ATOM     17  C   UNL     1      20.011  17.185  24.087  1.00  0.00     0.130 C 
ATOM     18  O   UNL     1      20.272  17.309  25.274  1.00  0.00    -0.300 OA
ATOM     19  C   UNL     1      19.446  18.355  23.338  1.00  0.00     0.087 C 
ENDBRANCH  16  17
ENDBRANCH  15  16
ENDBRANCH  13  15
ENDBRANCH  11  12
ENDBRANCH   1  11
TORSDOF 9
ENDMDL
MODEL 4
REMARK VINA RESULT:    -5.175      2.623      5.996
REMARK INTER + INTRA:          -9.865
REMARK INTER:                  -7.936
REMARK INTRA:                  -1.929
REMARK UNBOUND:                -1.967
REMARK SMILES CC(=O)CCC=C(C)CCC=C(C)CCC=C(C)C
REMARK SMILES IDX 10 1 11 2 12 3 13 4 14 5 15 6 16 7 18 8 17 9 19 10 9 11 7 12
REMARK SMILES IDX 6 13 8 14 5 15 4 16 2 17 3 18 1 19
REMARK H PARENT
REMARK Flexibility Score: inf
ROOT
ATOM      1  C   UNL     1      14.819  16.136  26.195  1.00  0.00     0.032 C 
ENDROOT
BRANCH   1   2
ATOM      2  C   UNL     1      15.547  15.602  24.983  1.00  0.00    -0.028 C 
ATOM      3  C   UNL     1      16.654  14.825  25.029  1.00  0.00    -0.077 C 
ATOM      4  C   UNL     1      17.233  14.330  26.332  1.00  0.00     0.039 C 
BRANCH   3   5
ATOM      5  C   UNL     1      17.313  14.400  23.733  1.00  0.00     0.034 C 
BRANCH   5   6
ATOM      6  C   UNL     1      18.816  14.706  23.731  1.00  0.00     0.032 C 
BRANCH   6   7
ATOM      7  C   UNL     1      19.102  16.138  23.345  1.00  0.00    -0.028 C 
ATOM      8  C   UNL     1      19.894  18.445  23.630  1.00  0.00     0.039 C 
ATOM      9  C   UNL     1      19.726  17.037  24.137  1.00  0.00    -0.080 C 
ATOM     10  C   UNL     1      20.272  16.665  25.496  1.00  0.00     0.039 C 
ENDBRANCH   6   7
ENDBRANCH   5   6
ENDBRANCH   3   5
ENDBRANCH   1   2
BRANCH   1  11
ATOM     11  C   UNL     1      13.452  16.719  25.812  1.00  0.00     0.034 C 
BRANCH  11  12
ATOM     12  C   UNL     1      12.618  15.744  24.999  1.00  0.00    -0.077 C 
ATOM     13  C   UNL     1      12.277  15.971  23.710  1.00  0.00    -0.028 C 
ATOM     14  C   UNL     1      12.163  14.460  25.644  1.00  0.00     0.039 C 
BRANCH  13  15
ATOM     15  C   UNL     1      12.643  17.223  22.952  1.00  0.00     0.035 C 
BRANCH  15  16
ATOM     16  C   UNL     1      13.704  16.934  21.885  1.00  0.00     0.079 C 
BRANCH  16  17
ATOM     17  C   UNL     1      14.625  18.114  21.714  1.00  0.00     0.130 C 
ATOM     18  O   UNL     1      14.464  18.870  20.768  1.00  0.00    -0.300 OA
ATOM     19  C   UNL     1      15.732  18.390  22.688  1.00  0.00     0.087 C 
ENDBRANCH  16  17
ENDBRANCH  15  16
ENDBRANCH  13  15
ENDBRANCH  11  12
ENDBRANCH   1  11
TORSDOF 9
ENDMDL
MODEL 5
REMARK VINA RESULT:    -5.152      2.577      5.901
REMARK INTER + INTRA:          -9.830
REMARK INTER:                  -8.172
REMARK INTRA:                  -1.657
REMARK UNBOUND:                -1.967
REMARK SMILES CC(=O)CCC=C(C)CCC=C(C)CCC=C(C)C
REMARK SMILES IDX 10 1 11 2 12 3 13 4 14 5 15 6 16 7 18 8 17 9 19 10 9 11 7 12
REMARK SMILES IDX 6 13 8 14 5 15 4 16 2 17 3 18 1 19
REMARK H PARENT
REMARK Flexibility Score: inf
ROOT
ATOM      1  C   UNL     1      16.308  15.444  26.578  1.00  0.00     0.032 C 
ENDROOT
BRANCH   1   2
ATOM      2  C   UNL     1      17.450  15.945  25.726  1.00  0.00    -0.028 C 
ATOM      3  C   UNL     1      17.826  15.405  24.544  1.00  0.00    -0.077 C 
ATOM      4  C   UNL     1      17.063  14.271  23.902  1.00  0.00     0.039 C 
BRANCH   3   5
ATOM      5  C   UNL     1      19.024  15.978  23.816  1.00  0.00     0.034 C 
BRANCH   5   6
ATOM      6  C   UNL     1      19.286  17.437  24.212  1.00  0.00     0.032 C 
BRANCH   6   7
ATOM      7  C   UNL     1      19.953  18.214  23.101  1.00  0.00    -0.028 C 
ATOM      8  C   UNL     1      21.796  19.257  21.858  1.00  0.00     0.039 C 
ATOM      9  C   UNL     1      21.285  18.416  22.998  1.00  0.00    -0.080 C 
ATOM     10  C   UNL     1      22.265  17.810  23.974  1.00  0.00     0.039 C 
ENDBRANCH   6   7
ENDBRANCH   5   6
ENDBRANCH   3   5
ENDBRANCH   1   2
BRANCH   1  11
ATOM     11  C   UNL     1      15.089  16.373  26.480  1.00  0.00     0.034 C 
BRANCH  11  12
ATOM     12  C   UNL     1      14.136  15.957  25.374  1.00  0.00    -0.077 C 
ATOM     13  C   UNL     1      14.121  16.552  24.159  1.00  0.00    -0.028 C 
ATOM     14  C   UNL     1      13.177  14.823  25.627  1.00  0.00     0.039 C 
BRANCH  13  15
ATOM     15  C   UNL     1      15.008  17.712  23.781  1.00  0.00     0.035 C 
BRANCH  15  16
ATOM     16  C   UNL     1      14.758  18.152  22.334  1.00  0.00     0.079 C 
BRANCH  16  17
ATOM     17  C   UNL     1      13.798  19.312  22.287  1.00  0.00     0.130 C 
ATOM     18  O   UNL     1      13.239  19.587  21.236  1.00  0.00    -0.300 OA
ATOM     19  C   UNL     1      13.504  20.134  23.507  1.00  0.00     0.087 C 
ENDBRANCH  16  17
ENDBRANCH  15  16
ENDBRANCH  13  15
ENDBRANCH  11  12
ENDBRANCH   1  11
TORSDOF 9
ENDMDL
MODEL 6
REMARK VINA RESULT:    -5.151      2.247      6.280
REMARK INTER + INTRA:          -9.827
REMARK INTER:                  -7.794
REMARK INTRA:                  -2.033
REMARK UNBOUND:                -1.967
REMARK SMILES CC(=O)CCC=C(C)CCC=C(C)CCC=C(C)C
REMARK SMILES IDX 10 1 11 2 12 3 13 4 14 5 15 6 16 7 18 8 17 9 19 10 9 11 7 12
REMARK SMILES IDX 6 13 8 14 5 15 4 16 2 17 3 18 1 19
REMARK H PARENT
REMARK Flexibility Score: inf
ROOT
ATOM      1  C   UNL     1      17.160  14.293  26.368  1.00  0.00     0.032 C 
ENDROOT
BRANCH   1   2
ATOM      2  C   UNL     1      18.628  14.195  26.710  1.00  0.00    -0.028 C 
ATOM      3  C   UNL     1      19.451  13.205  26.297  1.00  0.00    -0.077 C 
ATOM      4  C   UNL     1      18.989  12.118  25.357  1.00  0.00     0.039 C 
BRANCH   3   5
ATOM      5  C   UNL     1      20.895  13.204  26.755  1.00  0.00     0.034 C 
BRANCH   5   6
ATOM      6  C   UNL     1      21.615  14.503  26.370  1.00  0.00     0.032 C 
BRANCH   6   7
ATOM      7  C   UNL     1      21.585  14.747  24.879  1.00  0.00    -0.028 C 
ATOM      8  C   UNL     1      20.997  15.882  22.782  1.00  0.00     0.039 C 
ATOM      9  C   UNL     1      20.986  15.802  24.286  1.00  0.00    -0.080 C 
ATOM     10  C   UNL     1      20.329  16.904  25.085  1.00  0.00     0.039 C 
ENDBRANCH   6   7
ENDBRANCH   5   6
ENDBRANCH   3   5
ENDBRANCH   1   2
BRANCH   1  11
ATOM     11  C   UNL     1      16.822  15.651  25.737  1.00  0.00     0.034 C 
BRANCH  11  12
ATOM     12  C   UNL     1      16.425  15.523  24.277  1.00  0.00    -0.077 C 
ATOM     13  C   UNL     1      15.452  16.276  23.715  1.00  0.00    -0.028 C 
ATOM     14  C   UNL     1      17.154  14.531  23.408  1.00  0.00     0.039 C 
BRANCH  13  15
ATOM     15  C   UNL     1      14.628  17.288  24.473  1.00  0.00     0.035 C 
BRANCH  15  16
ATOM     16  C   UNL     1      13.197  16.786  24.689  1.00  0.00     0.079 C 
BRANCH  16  17
ATOM     17  C   UNL     1      13.103  15.963  25.948  1.00  0.00     0.130 C 
ATOM     18  O   UNL     1      13.624  16.374  26.974  1.00  0.00    -0.300 OA
ATOM     19  C   UNL     1      12.374  14.652  25.973  1.00  0.00     0.087 C 
ENDBRANCH  16  17
ENDBRANCH  15  16
ENDBRANCH  13  15
ENDBRANCH  11  12
ENDBRANCH   1  11
TORSDOF 9
ENDMDL
MODEL 7
REMARK VINA RESULT:    -5.118      2.388      5.858
REMARK INTER + INTRA:          -9.778
REMARK INTER:                  -8.203
REMARK INTRA:                  -1.575
REMARK UNBOUND:                -1.967
REMARK SMILES CC(=O)CCC=C(C)CCC=C(C)CCC=C(C)C
REMARK SMILES IDX 10 1 11 2 12 3 13 4 14 5 15 6 16 7 18 8 17 9 19 10 9 11 7 12
REMARK SMILES IDX 6 13 8 14 5 15 4 16 2 17 3 18 1 19
REMARK H PARENT
REMARK Flexibility Score: inf
ROOT
ATOM      1  C   UNL     1      16.230  14.374  24.993  1.00  0.00     0.032 C 
ENDROOT
BRANCH   1   2
ATOM      2  C   UNL     1      17.408  14.151  24.074  1.00  0.00    -0.028 C 
ATOM      3  C   UNL     1      18.504  13.422  24.387  1.00  0.00    -0.077 C 
ATOM      4  C   UNL     1      18.619  12.668  25.690  1.00  0.00     0.039 C 
BRANCH   3   5
ATOM      5  C   UNL     1      19.636  13.320  23.386  1.00  0.00     0.034 C 
BRANCH   5   6
ATOM      6  C   UNL     1      20.715  14.381  23.637  1.00  0.00     0.032 C 
BRANCH   6   7
ATOM      7  C   UNL     1      20.253  15.764  23.241  1.00  0.00    -0.028 C 
ATOM      8  C   UNL     1      19.453  18.063  23.564  1.00  0.00     0.039 C 
ATOM      9  C   UNL     1      19.951  16.751  24.112  1.00  0.00    -0.080 C 
ATOM     10  C   UNL     1      20.116  16.582  25.604  1.00  0.00     0.039 C 
ENDBRANCH   6   7
ENDBRANCH   5   6
ENDBRANCH   3   5
ENDBRANCH   1   2
BRANCH   1  11
ATOM     11  C   UNL     1      16.283  15.765  25.640  1.00  0.00     0.034 C 
BRANCH  11  12
ATOM     12  C   UNL     1      14.933  16.460  25.621  1.00  0.00    -0.077 C 
ATOM     13  C   UNL     1      14.525  17.236  24.590  1.00  0.00    -0.028 C 
ATOM     14  C   UNL     1      13.998  16.268  26.786  1.00  0.00     0.039 C 
BRANCH  13  15
ATOM     15  C   UNL     1      15.369  17.532  23.375  1.00  0.00     0.035 C 
BRANCH  15  16
ATOM     16  C   UNL     1      14.892  18.803  22.666  1.00  0.00     0.079 C 
BRANCH  16  17
ATOM     17  C   UNL     1      14.000  18.461  21.501  1.00  0.00     0.130 C 
ATOM     18  O   UNL     1      13.473  19.360  20.863  1.00  0.00    -0.300 OA
ATOM     19  C   UNL     1      13.752  17.037  21.097  1.00  0.00     0.087 C 
ENDBRANCH  16  17
ENDBRANCH  15  16
ENDBRANCH  13  15
ENDBRANCH  11  12
ENDBRANCH   1  11
TORSDOF 9
ENDMDL
MODEL 8
REMARK VINA RESULT:    -5.097      1.597      2.164
REMARK INTER + INTRA:          -9.745
REMARK INTER:                  -7.754
REMARK INTRA:                  -1.991
REMARK UNBOUND:                -1.967
REMARK SMILES CC(=O)CCC=C(C)CCC=C(C)CCC=C(C)C
REMARK SMILES IDX 10 1 11 2 12 3 13 4 14 5 15 6 16 7 18 8 17 9 19 10 9 11 7 12
REMARK SMILES IDX 6 13 8 14 5 15 4 16 2 17 3 18 1 19
REMARK H PARENT
REMARK Flexibility Score: inf
ROOT
ATOM      1  C   UNL     1      17.960  14.420  26.688  1.00  0.00     0.032 C 
ENDROOT
BRANCH   1   2
ATOM      2  C   UNL     1      16.781  15.352  26.842  1.00  0.00    -0.028 C 
ATOM      3  C   UNL     1      15.706  15.379  26.021  1.00  0.00    -0.077 C 
ATOM      4  C   UNL     1      15.536  14.393  24.891  1.00  0.00     0.039 C 
BRANCH   3   5
ATOM      5  C   UNL     1      14.615  16.401  26.264  1.00  0.00     0.034 C 
BRANCH   5   6
ATOM      6  C   UNL     1      13.610  16.447  25.106  1.00  0.00     0.032 C 
BRANCH   6   7
ATOM      7  C   UNL     1      13.302  17.863  24.679  1.00  0.00    -0.028 C 
ATOM      8  C   UNL     1      13.623  19.994  23.503  1.00  0.00     0.039 C 
ATOM      9  C   UNL     1      14.028  18.572  23.788  1.00  0.00    -0.080 C 
ATOM     10  C   UNL     1      15.212  17.975  23.064  1.00  0.00     0.039 C 
ENDBRANCH   6   7
ENDBRANCH   5   6
ENDBRANCH   3   5
ENDBRANCH   1   2
BRANCH   1  11
ATOM     11  C   UNL     1      19.135  15.116  25.988  1.00  0.00     0.034 C 
BRANCH  11  12
ATOM     12  C   UNL     1      19.086  14.948  24.479  1.00  0.00    -0.077 C 
ATOM     13  C   UNL     1      18.954  15.994  23.631  1.00  0.00    -0.028 C 
ATOM     14  C   UNL     1      19.208  13.564  23.896  1.00  0.00     0.039 C 
BRANCH  13  15
ATOM     15  C   UNL     1      18.797  17.426  24.080  1.00  0.00     0.035 C 
BRANCH  15  16
ATOM     16  C   UNL     1      20.010  18.269  23.674  1.00  0.00     0.079 C 
BRANCH  16  17
ATOM     17  C   UNL     1      21.240  17.831  24.426  1.00  0.00     0.130 C 
ATOM     18  O   UNL     1      22.193  17.379  23.807  1.00  0.00    -0.300 OA
ATOM     19  C   UNL     1      21.328  17.945  25.919  1.00  0.00     0.087 C 
ENDBRANCH  16  17
ENDBRANCH  15  16
ENDBRANCH  13  15
ENDBRANCH  11  12
ENDBRANCH   1  11
TORSDOF 9
ENDMDL
MODEL 9
REMARK VINA RESULT:    -5.092      2.297      6.641
REMARK INTER + INTRA:          -9.738
REMARK INTER:                  -7.929
REMARK INTRA:                  -1.810
REMARK UNBOUND:                -1.967
REMARK SMILES CC(=O)CCC=C(C)CCC=C(C)CCC=C(C)C
REMARK SMILES IDX 10 1 11 2 12 3 13 4 14 5 15 6 16 7 18 8 17 9 19 10 9 11 7 12
REMARK SMILES IDX 6 13 8 14 5 15 4 16 2 17 3 18 1 19
REMARK H PARENT
REMARK Flexibility Score: inf
ROOT
ATOM      1  C   UNL     1      16.043  15.504  26.685  1.00  0.00     0.032 C 
ENDROOT
BRANCH   1   2
ATOM      2  C   UNL     1      17.259  15.820  25.845  1.00  0.00    -0.028 C 
ATOM      3  C   UNL     1      17.570  15.210  24.678  1.00  0.00    -0.077 C 
ATOM      4  C   UNL     1      16.660  14.187  24.041  1.00  0.00     0.039 C 
BRANCH   3   5
ATOM      5  C   UNL     1      18.849  15.591  23.962  1.00  0.00     0.034 C 
BRANCH   5   6
ATOM      6  C   UNL     1      19.777  14.384  23.774  1.00  0.00     0.032 C 
BRANCH   6   7
ATOM      7  C   UNL     1      20.669  14.163  24.973  1.00  0.00    -0.028 C 
ATOM      8  C   UNL     1      21.375  13.212  27.125  1.00  0.00     0.039 C 
ATOM      9  C   UNL     1      20.414  13.284  25.967  1.00  0.00    -0.080 C 
ATOM     10  C   UNL     1      19.215  12.366  25.937  1.00  0.00     0.039 C 
ENDBRANCH   6   7
ENDBRANCH   5   6
ENDBRANCH   3   5
ENDBRANCH   1   2
BRANCH   1  11
ATOM     11  C   UNL     1      14.952  16.570  26.511  1.00  0.00     0.034 C 
BRANCH  11  12
ATOM     12  C   UNL     1      13.858  16.124  25.557  1.00  0.00    -0.077 C 
ATOM     13  C   UNL     1      13.702  16.655  24.323  1.00  0.00    -0.028 C 
ATOM     14  C   UNL     1      12.915  15.031  25.991  1.00  0.00     0.039 C 
BRANCH  13  15
ATOM     15  C   UNL     1      14.558  17.770  23.773  1.00  0.00     0.035 C 
BRANCH  15  16
ATOM     16  C   UNL     1      13.703  18.972  23.360  1.00  0.00     0.079 C 
BRANCH  16  17
ATOM     17  C   UNL     1      13.749  19.172  21.868  1.00  0.00     0.130 C 
ATOM     18  O   UNL     1      14.830  19.268  21.308  1.00  0.00    -0.300 OA
ATOM     19  C   UNL     1      12.494  19.245  21.049  1.00  0.00     0.087 C 
ENDBRANCH  16  17
ENDBRANCH  15  16
ENDBRANCH  13  15
ENDBRANCH  11  12
ENDBRANCH   1  11
TORSDOF 9
ENDMDL
