MODEL 1
REMARK VINA RESULT:    -3.635      0.000      0.000
REMARK INTER + INTRA:          -6.207
REMARK INTER:                  -5.547
REMARK INTRA:                  -0.660
REMARK UNBOUND:                -0.660
REMARK SMILES O=C([O-])CCCCCCCCC(=O)[O-]
REMARK SMILES IDX 7 1 6 2 5 3 4 4 2 5 1 6 3 7 8 8 9 9 10 10 11 11 12 12 13 13
REMARK SMILES IDX 14 14
REMARK H PARENT
REMARK Flexibility Score: inf
ROOT
ATOM      1  C   UNL     1      26.396  21.817  59.834  1.00  0.00     0.000 C 
ENDROOT
BRANCH   1   2
ATOM      2  C   UNL     1      27.113  21.351  61.111  1.00  0.00     0.000 C 
BRANCH   2   3
ATOM      3  C   UNL     1      26.596  22.111  62.338  1.00  0.00     0.006 C 
BRANCH   3   4
ATOM      4  C   UNL     1      26.672  21.240  63.596  1.00  0.00     0.053 C 
BRANCH   4   5
ATOM      5  C   UNL     1      25.466  20.362  63.698  1.00  0.00     0.041 C 
ATOM      6  O   UNL     1      25.582  19.166  64.075  1.00  0.00    -0.550 OA
ATOM      7  O   UNL     1      24.205  20.877  63.422  1.00  0.00    -0.550 OA
ENDBRANCH   4   5
ENDBRANCH   3   4
ENDBRANCH   2   3
ENDBRANCH   1   2
BRANCH   1   8
ATOM      8  C   UNL     1      24.880  21.982  60.031  1.00  0.00     0.000 C 
BRANCH   8   9
ATOM      9  C   UNL     1      24.061  21.183  59.003  1.00  0.00     0.000 C 
BRANCH   9  10
ATOM     10  C   UNL     1      24.598  21.340  57.570  1.00  0.00     0.006 C 
BRANCH  10  11
ATOM     11  C   UNL     1      24.844  19.992  56.880  1.00  0.00     0.053 C 
BRANCH  11  12
ATOM     12  C   UNL     1      26.271  19.573  57.047  1.00  0.00     0.041 C 
ATOM     13  O   UNL     1      27.147  19.970  56.235  1.00  0.00    -0.550 OA
ATOM     14  O   UNL     1      26.641  18.784  58.129  1.00  0.00    -0.550 OA
ENDBRANCH  11  12
ENDBRANCH  10  11
ENDBRANCH   9  10
ENDBRANCH   8   9
ENDBRANCH   1   8
TORSDOF 9
ENDMDL
MODEL 2
REMARK VINA RESULT:    -3.602      1.433      5.649
REMARK INTER + INTRA:          -6.157
REMARK INTER:                  -5.603
REMARK INTRA:                  -0.554
REMARK UNBOUND:                -0.660
REMARK SMILES O=C([O-])CCCCCCCCC(=O)[O-]
REMARK SMILES IDX 7 1 6 2 5 3 4 4 2 5 1 6 3 7 8 8 9 9 10 10 11 11 12 12 13 13
REMARK SMILES IDX 14 14
REMARK H PARENT
REMARK Flexibility Score: inf
ROOT
ATOM      1  C   UNL     1      24.445  21.918  59.780  1.00  0.00     0.000 C 
ENDROOT
BRANCH   1   2
ATOM      2  C   UNL     1      24.597  21.583  58.288  1.00  0.00     0.000 C 
BRANCH   2   3
ATOM      3  C   UNL     1      24.013  20.200  57.974  1.00  0.00     0.006 C 
BRANCH   3   4
ATOM      4  C   UNL     1      24.806  19.508  56.862  1.00  0.00     0.053 C 
BRANCH   4   5
ATOM      5  C   UNL     1      26.265  19.499  57.187  1.00  0.00     0.041 C 
ATOM      6  O   UNL     1      26.673  18.982  58.260  1.00  0.00    -0.550 OA
ATOM      7  O   UNL     1      27.183  20.019  56.282  1.00  0.00    -0.550 OA
ENDBRANCH   4   5
ENDBRANCH   3   4
ENDBRANCH   2   3
ENDBRANCH   1   2
BRANCH   1   8
ATOM      8  C   UNL     1      23.110  21.428  60.366  1.00  0.00     0.000 C 
BRANCH   8   9
ATOM      9  C   UNL     1      23.055  21.558  61.897  1.00  0.00     0.000 C 
BRANCH   9  10
ATOM     10  C   UNL     1      24.414  21.943  62.506  1.00  0.00     0.006 C 
BRANCH  10  11
ATOM     11  C   UNL     1      24.810  21.045  63.685  1.00  0.00     0.053 C 
BRANCH  11  12
ATOM     12  C   UNL     1      26.046  20.268  63.357  1.00  0.00     0.041 C 
ATOM     13  O   UNL     1      26.516  19.444  64.185  1.00  0.00    -0.550 OA
ATOM     14  O   UNL     1      26.650  20.417  62.115  1.00  0.00    -0.550 OA
ENDBRANCH  11  12
ENDBRANCH  10  11
ENDBRANCH   9  10
ENDBRANCH   8   9
ENDBRANCH   1   8
TORSDOF 9
ENDMDL
MODEL 3
REMARK VINA RESULT:    -3.581      1.685      2.072
REMARK INTER + INTRA:          -6.125
REMARK INTER:                  -5.720
REMARK INTRA:                  -0.405
REMARK UNBOUND:                -0.660
REMARK SMILES O=C([O-])CCCCCCCCC(=O)[O-]
REMARK SMILES IDX 7 1 6 2 5 3 4 4 2 5 1 6 3 7 8 8 9 9 10 10 11 11 12 12 13 13
REMARK SMILES IDX 14 14
REMARK H PARENT
REMARK Flexibility Score: inf
ROOT
ATOM      1  C   UNL     1      27.718  22.019  59.830  1.00  0.00     0.000 C 
ENDROOT
BRANCH   1   2
ATOM      2  C   UNL     1      27.052  21.134  60.895  1.00  0.00     0.000 C 
BRANCH   2   3
ATOM      3  C   UNL     1      26.590  21.973  62.094  1.00  0.00     0.006 C 
BRANCH   3   4
ATOM      4  C   UNL     1      26.721  21.184  63.400  1.00  0.00     0.053 C 
BRANCH   4   5
ATOM      5  C   UNL     1      25.483  20.385  63.655  1.00  0.00     0.041 C 
ATOM      6  O   UNL     1      25.542  19.130  63.726  1.00  0.00    -0.550 OA
ATOM      7  O   UNL     1      24.270  21.030  63.863  1.00  0.00    -0.550 OA
ENDBRANCH   4   5
ENDBRANCH   3   4
ENDBRANCH   2   3
ENDBRANCH   1   2
BRANCH   1   8
ATOM      8  C   UNL     1      27.154  21.778  58.420  1.00  0.00     0.000 C 
BRANCH   8   9
ATOM      9  C   UNL     1      26.091  20.666  58.392  1.00  0.00     0.000 C 
BRANCH   9  10
ATOM     10  C   UNL     1      26.369  19.613  57.306  1.00  0.00     0.006 C 
BRANCH  10  11
ATOM     11  C   UNL     1      25.602  19.888  56.006  1.00  0.00     0.053 C 
BRANCH  11  12
ATOM     12  C   UNL     1      24.545  18.849  55.794  1.00  0.00     0.041 C 
ATOM     13  O   UNL     1      24.019  18.270  56.780  1.00  0.00    -0.550 OA
ATOM     14  O   UNL     1      24.106  18.558  54.509  1.00  0.00    -0.550 OA
ENDBRANCH  11  12
ENDBRANCH  10  11
ENDBRANCH   9  10
ENDBRANCH   8   9
ENDBRANCH   1   8
TORSDOF 9
ENDMDL
MODEL 4
REMARK VINA RESULT:    -3.540      1.384      2.081
REMARK INTER + INTRA:          -6.062
REMARK INTER:                  -5.620
REMARK INTRA:                  -0.441
REMARK UNBOUND:                -0.660
REMARK SMILES O=C([O-])CCCCCCCCC(=O)[O-]
REMARK SMILES IDX 7 1 6 2 5 3 4 4 2 5 1 6 3 7 8 8 9 9 10 10 11 11 12 12 13 13
REMARK SMILES IDX 14 14
REMARK H PARENT
REMARK Flexibility Score: inf
ROOT
ATOM      1  C   UNL     1      23.300  21.230  60.445  1.00  0.00     0.000 C 
ENDROOT
BRANCH   1   2
ATOM      2  C   UNL     1      22.956  21.841  61.811  1.00  0.00     0.000 C 
BRANCH   2   3
ATOM      3  C   UNL     1      24.227  22.125  62.621  1.00  0.00     0.006 C 
BRANCH   3   4
ATOM      4  C   UNL     1      24.376  21.132  63.778  1.00  0.00     0.053 C 
BRANCH   4   5
ATOM      5  C   UNL     1      25.671  20.393  63.670  1.00  0.00     0.041 C 
ATOM      6  O   UNL     1      25.680  19.136  63.602  1.00  0.00    -0.550 OA
ATOM      7  O   UNL     1      26.868  21.095  63.598  1.00  0.00    -0.550 OA
ENDBRANCH   4   5
ENDBRANCH   3   4
ENDBRANCH   2   3
ENDBRANCH   1   2
BRANCH   1   8
ATOM      8  C   UNL     1      24.565  21.842  59.821  1.00  0.00     0.000 C 
BRANCH   8   9
ATOM      9  C   UNL     1      24.694  21.527  58.321  1.00  0.00     0.000 C 
BRANCH   9  10
ATOM     10  C   UNL     1      24.001  20.211  57.932  1.00  0.00     0.006 C 
BRANCH  10  11
ATOM     11  C   UNL     1      24.805  19.399  56.908  1.00  0.00     0.053 C 
BRANCH  11  12
ATOM     12  C   UNL     1      26.267  19.461  57.226  1.00  0.00     0.041 C 
ATOM     13  O   UNL     1      26.701  18.984  58.307  1.00  0.00    -0.550 OA
ATOM     14  O   UNL     1      27.155  20.000  56.304  1.00  0.00    -0.550 OA
ENDBRANCH  11  12
ENDBRANCH  10  11
ENDBRANCH   9  10
ENDBRANCH   8   9
ENDBRANCH   1   8
TORSDOF 9
ENDMDL
MODEL 5
REMARK VINA RESULT:    -3.469      1.370      1.830
REMARK INTER + INTRA:          -5.954
REMARK INTER:                  -5.505
REMARK INTRA:                  -0.448
REMARK UNBOUND:                -0.660
REMARK SMILES O=C([O-])CCCCCCCCC(=O)[O-]
REMARK SMILES IDX 7 1 6 2 5 3 4 4 2 5 1 6 3 7 8 8 9 9 10 10 11 11 12 12 13 13
REMARK SMILES IDX 14 14
REMARK H PARENT
REMARK Flexibility Score: inf
ROOT
ATOM      1  C   UNL     1      26.026  22.016  59.409  1.00  0.00     0.000 C 
ENDROOT
BRANCH   1   2
ATOM      2  C   UNL     1      25.664  21.877  60.896  1.00  0.00     0.000 C 
BRANCH   2   3
ATOM      3  C   UNL     1      26.798  21.199  61.675  1.00  0.00     0.006 C 
BRANCH   3   4
ATOM      4  C   UNL     1      26.585  21.334  63.185  1.00  0.00     0.053 C 
BRANCH   4   5
ATOM      5  C   UNL     1      25.451  20.467  63.633  1.00  0.00     0.041 C 
ATOM      6  O   UNL     1      25.612  19.224  63.750  1.00  0.00    -0.550 OA
ATOM      7  O   UNL     1      24.229  21.039  63.968  1.00  0.00    -0.550 OA
ENDBRANCH   4   5
ENDBRANCH   3   4
ENDBRANCH   2   3
ENDBRANCH   1   2
BRANCH   1   8
ATOM      8  C   UNL     1      27.159  21.069  58.982  1.00  0.00     0.000 C 
BRANCH   8   9
ATOM      9  C   UNL     1      26.641  19.826  58.238  1.00  0.00     0.000 C 
BRANCH   9  10
ATOM     10  C   UNL     1      25.318  20.089  57.499  1.00  0.00     0.006 C 
BRANCH  10  11
ATOM     11  C   UNL     1      25.402  19.765  56.002  1.00  0.00     0.053 C 
BRANCH  11  12
ATOM     12  C   UNL     1      26.367  20.686  55.323  1.00  0.00     0.041 C 
ATOM     13  O   UNL     1      25.972  21.789  54.860  1.00  0.00    -0.550 OA
ATOM     14  O   UNL     1      27.712  20.348  55.244  1.00  0.00    -0.550 OA
ENDBRANCH  11  12
ENDBRANCH  10  11
ENDBRANCH   9  10
ENDBRANCH   8   9
ENDBRANCH   1   8
TORSDOF 9
ENDMDL
MODEL 6
REMARK VINA RESULT:    -3.462      1.182      6.474
REMARK INTER + INTRA:          -5.943
REMARK INTER:                  -5.442
REMARK INTRA:                  -0.501
REMARK UNBOUND:                -0.660
REMARK SMILES O=C([O-])CCCCCCCCC(=O)[O-]
REMARK SMILES IDX 7 1 6 2 5 3 4 4 2 5 1 6 3 7 8 8 9 9 10 10 11 11 12 12 13 13
REMARK SMILES IDX 14 14
REMARK H PARENT
REMARK Flexibility Score: inf
ROOT
ATOM      1  C   UNL     1      25.360  21.432  59.140  1.00  0.00     0.000 C 
ENDROOT
BRANCH   1   2
ATOM      2  C   UNL     1      24.764  21.145  57.754  1.00  0.00     0.000 C 
BRANCH   2   3
ATOM      3  C   UNL     1      25.215  19.773  57.236  1.00  0.00     0.006 C 
BRANCH   3   4
ATOM      4  C   UNL     1      25.306  19.764  55.708  1.00  0.00     0.053 C 
BRANCH   4   5
ATOM      5  C   UNL     1      26.426  20.640  55.245  1.00  0.00     0.041 C 
ATOM      6  O   UNL     1      27.621  20.265  55.378  1.00  0.00    -0.550 OA
ATOM      7  O   UNL     1      26.151  21.851  54.622  1.00  0.00    -0.550 OA
ENDBRANCH   4   5
ENDBRANCH   3   4
ENDBRANCH   2   3
ENDBRANCH   1   2
BRANCH   1   8
ATOM      8  C   UNL     1      26.869  21.142  59.210  1.00  0.00     0.000 C 
BRANCH   8   9
ATOM      9  C   UNL     1      27.383  21.039  60.656  1.00  0.00     0.000 C 
BRANCH   9  10
ATOM     10  C   UNL     1      26.386  21.608  61.679  1.00  0.00     0.006 C 
BRANCH  10  11
ATOM     11  C   UNL     1      26.691  21.159  63.114  1.00  0.00     0.053 C 
BRANCH  11  12
ATOM     12  C   UNL     1      25.554  20.353  63.660  1.00  0.00     0.041 C 
ATOM     13  O   UNL     1      25.648  19.100  63.744  1.00  0.00    -0.550 OA
ATOM     14  O   UNL     1      24.410  20.991  64.124  1.00  0.00    -0.550 OA
ENDBRANCH  11  12
ENDBRANCH  10  11
ENDBRANCH   9  10
ENDBRANCH   8   9
ENDBRANCH   1   8
TORSDOF 9
ENDMDL
MODEL 7
REMARK VINA RESULT:    -3.444      1.856      6.138
REMARK INTER + INTRA:          -5.916
REMARK INTER:                  -5.516
REMARK INTRA:                  -0.400
REMARK UNBOUND:                -0.660
REMARK SMILES O=C([O-])CCCCCCCCC(=O)[O-]
REMARK SMILES IDX 7 1 6 2 5 3 4 4 2 5 1 6 3 7 8 8 9 9 10 10 11 11 12 12 13 13
REMARK SMILES IDX 14 14
REMARK H PARENT
REMARK Flexibility Score: inf
ROOT
ATOM      1  C   UNL     1      26.369  20.692  58.424  1.00  0.00     0.000 C 
ENDROOT
BRANCH   1   2
ATOM      2  C   UNL     1      26.610  19.609  57.361  1.00  0.00     0.000 C 
BRANCH   2   3
ATOM      3  C   UNL     1      25.807  19.902  56.088  1.00  0.00     0.006 C 
BRANCH   3   4
ATOM      4  C   UNL     1      24.306  19.966  56.387  1.00  0.00     0.053 C 
BRANCH   4   5
ATOM      5  C   UNL     1      23.738  18.588  56.513  1.00  0.00     0.041 C 
ATOM      6  O   UNL     1      22.958  18.308  57.460  1.00  0.00    -0.550 OA
ATOM      7  O   UNL     1      24.032  17.625  55.556  1.00  0.00    -0.550 OA
ENDBRANCH   4   5
ENDBRANCH   3   4
ENDBRANCH   2   3
ENDBRANCH   1   2
BRANCH   1   8
ATOM      8  C   UNL     1      27.357  20.604  59.598  1.00  0.00     0.000 C 
BRANCH   8   9
ATOM      9  C   UNL     1      27.333  21.859  60.486  1.00  0.00     0.000 C 
BRANCH   9  10
ATOM     10  C   UNL     1      26.133  21.880  61.447  1.00  0.00     0.006 C 
BRANCH  10  11
ATOM     11  C   UNL     1      26.541  21.653  62.908  1.00  0.00     0.053 C 
BRANCH  11  12
ATOM     12  C   UNL     1      25.720  20.558  63.515  1.00  0.00     0.041 C 
ATOM     13  O   UNL     1      24.632  20.826  64.091  1.00  0.00    -0.550 OA
ATOM     14  O   UNL     1      26.132  19.236  63.402  1.00  0.00    -0.550 OA
ENDBRANCH  11  12
ENDBRANCH  10  11
ENDBRANCH   9  10
ENDBRANCH   8   9
ENDBRANCH   1   8
TORSDOF 9
ENDMDL
MODEL 8
REMARK VINA RESULT:    -3.431      1.724      6.034
REMARK INTER + INTRA:          -5.896
REMARK INTER:                  -5.466
REMARK INTRA:                  -0.430
REMARK UNBOUND:                -0.660
REMARK SMILES O=C([O-])CCCCCCCCC(=O)[O-]
REMARK SMILES IDX 7 1 6 2 5 3 4 4 2 5 1 6 3 7 8 8 9 9 10 10 11 11 12 12 13 13
REMARK SMILES IDX 14 14
REMARK H PARENT
REMARK Flexibility Score: inf
ROOT
ATOM      1  C   UNL     1      27.170  21.898  58.389  1.00  0.00     0.000 C 
ENDROOT
BRANCH   1   2
ATOM      2  C   UNL     1      26.158  20.744  58.318  1.00  0.00     0.000 C 
BRANCH   2   3
ATOM      3  C   UNL     1      26.580  19.707  57.270  1.00  0.00     0.006 C 
BRANCH   3   4
ATOM      4  C   UNL     1      25.658  19.754  56.048  1.00  0.00     0.053 C 
BRANCH   4   5
ATOM      5  C   UNL     1      24.272  19.335  56.421  1.00  0.00     0.041 C 
ATOM      6  O   UNL     1      23.359  20.194  56.532  1.00  0.00    -0.550 OA
ATOM      7  O   UNL     1      23.977  17.989  56.600  1.00  0.00    -0.550 OA
ENDBRANCH   4   5
ENDBRANCH   3   4
ENDBRANCH   2   3
ENDBRANCH   1   2
BRANCH   1   8
ATOM      8  C   UNL     1      27.769  22.078  59.793  1.00  0.00     0.000 C 
BRANCH   8   9
ATOM      9  C   UNL     1      27.017  21.268  60.864  1.00  0.00     0.000 C 
BRANCH   9  10
ATOM     10  C   UNL     1      26.622  22.122  62.080  1.00  0.00     0.006 C 
BRANCH  10  11
ATOM     11  C   UNL     1      26.627  21.324  63.390  1.00  0.00     0.053 C 
BRANCH  11  12
ATOM     12  C   UNL     1      25.416  20.447  63.471  1.00  0.00     0.041 C 
ATOM     13  O   UNL     1      25.534  19.228  63.760  1.00  0.00    -0.550 OA
ATOM     14  O   UNL     1      24.152  20.990  63.274  1.00  0.00    -0.550 OA
ENDBRANCH  11  12
ENDBRANCH  10  11
ENDBRANCH   9  10
ENDBRANCH   8   9
ENDBRANCH   1   8
TORSDOF 9
ENDMDL
MODEL 9
REMARK VINA RESULT:    -2.738      2.947      4.358
REMARK INTER + INTRA:          -4.839
REMARK INTER:                  -3.847
REMARK INTRA:                  -0.992
REMARK UNBOUND:                -0.660
REMARK SMILES O=C([O-])CCCCCCCCC(=O)[O-]
REMARK SMILES IDX 7 1 6 2 5 3 4 4 2 5 1 6 3 7 8 8 9 9 10 10 11 11 12 12 13 13
REMARK SMILES IDX 14 14
REMARK H PARENT
REMARK Flexibility Score: inf
ROOT
ATOM      1  C   UNL     1      26.695  20.268  55.795  1.00  0.00     0.000 C 
ENDROOT
BRANCH   1   2
ATOM      2  C   UNL     1      26.412  21.740  56.128  1.00  0.00     0.000 C 
BRANCH   2   3
ATOM      3  C   UNL     1      26.839  22.069  57.564  1.00  0.00     0.006 C 
BRANCH   3   4
ATOM      4  C   UNL     1      27.035  20.792  58.386  1.00  0.00     0.053 C 
BRANCH   4   5
ATOM      5  C   UNL     1      27.539  21.122  59.755  1.00  0.00     0.041 C 
ATOM      6  O   UNL     1      27.040  20.561  60.766  1.00  0.00    -0.550 OA
ATOM      7  O   UNL     1      28.592  22.015  59.913  1.00  0.00    -0.550 OA
ENDBRANCH   4   5
ENDBRANCH   3   4
ENDBRANCH   2   3
ENDBRANCH   1   2
BRANCH   1   8
ATOM      8  C   UNL     1      25.455  19.529  55.266  1.00  0.00     0.000 C 
BRANCH   8   9
ATOM      9  C   UNL     1      24.236  20.455  55.117  1.00  0.00     0.000 C 
BRANCH   9  10
ATOM     10  C   UNL     1      23.059  20.030  56.012  1.00  0.00     0.006 C 
BRANCH  10  11
ATOM     11  C   UNL     1      23.503  19.649  57.430  1.00  0.00     0.053 C 
BRANCH  11  12
ATOM     12  C   UNL     1      23.426  20.837  58.338  1.00  0.00     0.041 C 
ATOM     13  O   UNL     1      23.009  21.942  57.902  1.00  0.00    -0.550 OA
ATOM     14  O   UNL     1      23.768  20.710  59.678  1.00  0.00    -0.550 OA
ENDBRANCH  11  12
ENDBRANCH  10  11
ENDBRANCH   9  10
ENDBRANCH   8   9
ENDBRANCH   1   8
TORSDOF 9
ENDMDL
