MODEL 1
REMARK VINA RESULT:    -4.005      0.000      0.000
REMARK INTER + INTRA:          -7.049
REMARK INTER:                  -6.112
REMARK INTRA:                  -0.937
REMARK UNBOUND:                -0.937
REMARK SMILES O=C([O-])CCCCCCCCC(=O)[O-]
REMARK SMILES IDX 7 1 6 2 5 3 4 4 2 5 1 6 3 7 8 8 9 9 10 10 11 11 12 12 13 13
REMARK SMILES IDX 14 14
REMARK H PARENT
REMARK Flexibility Score: inf
ROOT
ATOM      1  C   UNL     1     114.314 109.335 121.371  1.00  0.00     0.000 C 
ENDROOT
BRANCH   1   2
ATOM      2  C   UNL     1     113.125 110.115 120.789  1.00  0.00     0.000 C 
BRANCH   2   3
ATOM      3  C   UNL     1     111.970 110.190 121.799  1.00  0.00     0.006 C 
BRANCH   3   4
ATOM      4  C   UNL     1     111.965 111.512 122.579  1.00  0.00     0.053 C 
BRANCH   4   5
ATOM      5  C   UNL     1     111.661 112.680 121.692  1.00  0.00     0.041 C 
ATOM      6  O   UNL     1     110.657 112.656 120.933  1.00  0.00    -0.550 OA
ATOM      7  O   UNL     1     112.469 113.809 121.728  1.00  0.00    -0.550 OA
ENDBRANCH   4   5
ENDBRANCH   3   4
ENDBRANCH   2   3
ENDBRANCH   1   2
BRANCH   1   8
ATOM      8  C   UNL     1     115.611 110.158 121.394  1.00  0.00     0.000 C 
BRANCH   8   9
ATOM      9  C   UNL     1     115.676 111.127 122.587  1.00  0.00     0.000 C 
BRANCH   9  10
ATOM     10  C   UNL     1     115.912 112.582 122.153  1.00  0.00     0.006 C 
BRANCH  10  11
ATOM     11  C   UNL     1     115.721 112.789 120.644  1.00  0.00     0.053 C 
BRANCH  11  12
ATOM     12  C   UNL     1     116.171 114.159 120.245  1.00  0.00     0.041 C 
ATOM     13  O   UNL     1     115.336 115.003 119.827  1.00  0.00    -0.550 OA
ATOM     14  O   UNL     1     117.506 114.518 120.379  1.00  0.00    -0.550 OA
ENDBRANCH  11  12
ENDBRANCH  10  11
ENDBRANCH   9  10
ENDBRANCH   8   9
ENDBRANCH   1   8
TORSDOF 9
ENDMDL
MODEL 2
REMARK VINA RESULT:    -3.891      1.434      2.541
REMARK INTER + INTRA:          -6.875
REMARK INTER:                  -6.022
REMARK INTRA:                  -0.853
REMARK UNBOUND:                -0.937
REMARK SMILES O=C([O-])CCCCCCCCC(=O)[O-]
REMARK SMILES IDX 7 1 6 2 5 3 4 4 2 5 1 6 3 7 8 8 9 9 10 10 11 11 12 12 13 13
REMARK SMILES IDX 14 14
REMARK H PARENT
REMARK Flexibility Score: inf
ROOT
ATOM      1  C   UNL     1     111.918 109.741 121.929  1.00  0.00     0.000 C 
ENDROOT
BRANCH   1   2
ATOM      2  C   UNL     1     111.558 110.996 122.739  1.00  0.00     0.000 C 
BRANCH   2   3
ATOM      3  C   UNL     1     111.974 112.271 121.990  1.00  0.00     0.006 C 
BRANCH   3   4
ATOM      4  C   UNL     1     110.786 112.956 121.303  1.00  0.00     0.053 C 
BRANCH   4   5
ATOM      5  C   UNL     1     110.745 112.660 119.836  1.00  0.00     0.041 C 
ATOM      6  O   UNL     1     111.813 112.582 119.175  1.00  0.00    -0.550 OA
ATOM      7  O   UNL     1     109.528 112.438 119.205  1.00  0.00    -0.550 OA
ENDBRANCH   4   5
ENDBRANCH   3   4
ENDBRANCH   2   3
ENDBRANCH   1   2
BRANCH   1   8
ATOM      8  C   UNL     1     113.164 109.937 121.051  1.00  0.00     0.000 C 
BRANCH   8   9
ATOM      9  C   UNL     1     114.430 109.328 121.677  1.00  0.00     0.000 C 
BRANCH   9  10
ATOM     10  C   UNL     1     115.647 110.262 121.575  1.00  0.00     0.006 C 
BRANCH  10  11
ATOM     11  C   UNL     1     115.428 111.414 120.584  1.00  0.00     0.053 C 
BRANCH  11  12
ATOM     12  C   UNL     1     115.552 112.732 121.281  1.00  0.00     0.041 C 
ATOM     13  O   UNL     1     116.266 112.837 122.313  1.00  0.00    -0.550 OA
ATOM     14  O   UNL     1     114.918 113.854 120.765  1.00  0.00    -0.550 OA
ENDBRANCH  11  12
ENDBRANCH  10  11
ENDBRANCH   9  10
ENDBRANCH   8   9
ENDBRANCH   1   8
TORSDOF 9
ENDMDL
MODEL 3
REMARK VINA RESULT:    -3.863      0.490      4.450
REMARK INTER + INTRA:          -6.833
REMARK INTER:                  -5.995
REMARK INTRA:                  -0.838
REMARK UNBOUND:                -0.937
REMARK SMILES O=C([O-])CCCCCCCCC(=O)[O-]
REMARK SMILES IDX 7 1 6 2 5 3 4 4 2 5 1 6 3 7 8 8 9 9 10 10 11 11 12 12 13 13
REMARK SMILES IDX 14 14
REMARK H PARENT
REMARK Flexibility Score: inf
ROOT
ATOM      1  C   UNL     1     115.752 110.206 121.493  1.00  0.00     0.000 C 
ENDROOT
BRANCH   1   2
ATOM      2  C   UNL     1     115.934 111.253 122.603  1.00  0.00     0.000 C 
BRANCH   2   3
ATOM      3  C   UNL     1     115.736 112.674 122.054  1.00  0.00     0.006 C 
BRANCH   3   4
ATOM      4  C   UNL     1     116.213 112.808 120.602  1.00  0.00     0.053 C 
BRANCH   4   5
ATOM      5  C   UNL     1     116.361 114.242 120.195  1.00  0.00     0.041 C 
ATOM      6  O   UNL     1     115.348 114.920 119.882  1.00  0.00    -0.550 OA
ATOM      7  O   UNL     1     117.615 114.839 120.194  1.00  0.00    -0.550 OA
ENDBRANCH   4   5
ENDBRANCH   3   4
ENDBRANCH   2   3
ENDBRANCH   1   2
BRANCH   1   8
ATOM      8  C   UNL     1     114.528 109.305 121.723  1.00  0.00     0.000 C 
BRANCH   8   9
ATOM      9  C   UNL     1     113.305 109.748 120.901  1.00  0.00     0.000 C 
BRANCH   9  10
ATOM     10  C   UNL     1     112.078 110.039 121.780  1.00  0.00     0.006 C 
BRANCH  10  11
ATOM     11  C   UNL     1     112.136 111.425 122.437  1.00  0.00     0.053 C 
BRANCH  11  12
ATOM     12  C   UNL     1     111.688 112.477 121.473  1.00  0.00     0.041 C 
ATOM     13  O   UNL     1     110.493 112.873 121.476  1.00  0.00    -0.550 OA
ATOM     14  O   UNL     1     112.603 113.056 120.602  1.00  0.00    -0.550 OA
ENDBRANCH  11  12
ENDBRANCH  10  11
ENDBRANCH   9  10
ENDBRANCH   8   9
ENDBRANCH   1   8
TORSDOF 9
ENDMDL
MODEL 4
REMARK VINA RESULT:    -3.812      1.838      3.114
REMARK INTER + INTRA:          -6.755
REMARK INTER:                  -5.614
REMARK INTRA:                  -1.141
REMARK UNBOUND:                -0.937
REMARK SMILES O=C([O-])CCCCCCCCC(=O)[O-]
REMARK SMILES IDX 7 1 6 2 5 3 4 4 2 5 1 6 3 7 8 8 9 9 10 10 11 11 12 12 13 13
REMARK SMILES IDX 14 14
REMARK H PARENT
REMARK Flexibility Score: inf
ROOT
ATOM      1  C   UNL     1     112.156 110.021 121.621  1.00  0.00     0.000 C 
ENDROOT
BRANCH   1   2
ATOM      2  C   UNL     1     111.885 111.331 122.377  1.00  0.00     0.000 C 
BRANCH   2   3
ATOM      3  C   UNL     1     112.011 112.541 121.440  1.00  0.00     0.006 C 
BRANCH   3   4
ATOM      4  C   UNL     1     113.341 113.283 121.624  1.00  0.00     0.053 C 
BRANCH   4   5
ATOM      5  C   UNL     1     114.113 113.368 120.343  1.00  0.00     0.041 C 
ATOM      6  O   UNL     1     115.188 114.021 120.292  1.00  0.00    -0.550 OA
ATOM      7  O   UNL     1     113.661 112.698 119.213  1.00  0.00    -0.550 OA
ENDBRANCH   4   5
ENDBRANCH   3   4
ENDBRANCH   2   3
ENDBRANCH   1   2
BRANCH   1   8
ATOM      8  C   UNL     1     113.562 109.462 121.886  1.00  0.00     0.000 C 
BRANCH   8   9
ATOM      9  C   UNL     1     114.494 109.603 120.670  1.00  0.00     0.000 C 
BRANCH   9  10
ATOM     10  C   UNL     1     115.812 110.312 121.016  1.00  0.00     0.006 C 
BRANCH  10  11
ATOM     11  C   UNL     1     115.915 110.682 122.502  1.00  0.00     0.053 C 
BRANCH  11  12
ATOM     12  C   UNL     1     117.031 111.654 122.721  1.00  0.00     0.041 C 
ATOM     13  O   UNL     1     116.779 112.866 122.952  1.00  0.00    -0.550 OA
ATOM     14  O   UNL     1     118.347 111.213 122.719  1.00  0.00    -0.550 OA
ENDBRANCH  11  12
ENDBRANCH  10  11
ENDBRANCH   9  10
ENDBRANCH   8   9
ENDBRANCH   1   8
TORSDOF 9
ENDMDL
MODEL 5
REMARK VINA RESULT:    -3.797      1.990      4.944
REMARK INTER + INTRA:          -6.732
REMARK INTER:                  -6.037
REMARK INTRA:                  -0.695
REMARK UNBOUND:                -0.937
REMARK SMILES O=C([O-])CCCCCCCCC(=O)[O-]
REMARK SMILES IDX 7 1 6 2 5 3 4 4 2 5 1 6 3 7 8 8 9 9 10 10 11 11 12 12 13 13
REMARK SMILES IDX 14 14
REMARK H PARENT
REMARK Flexibility Score: inf
ROOT
ATOM      1  C   UNL     1     112.989 109.986 120.760  1.00  0.00     0.000 C 
ENDROOT
BRANCH   1   2
ATOM      2  C   UNL     1     114.371 109.343 120.959  1.00  0.00     0.000 C 
BRANCH   2   3
ATOM      3  C   UNL     1     115.465 110.416 121.064  1.00  0.00     0.006 C 
BRANCH   3   4
ATOM      4  C   UNL     1     116.009 110.554 122.492  1.00  0.00     0.053 C 
BRANCH   4   5
ATOM      5  C   UNL     1     116.826 111.798 122.658  1.00  0.00     0.041 C 
ATOM      6  O   UNL     1     117.995 111.731 123.121  1.00  0.00    -0.550 OA
ATOM      7  O   UNL     1     116.309 113.027 122.271  1.00  0.00    -0.550 OA
ENDBRANCH   4   5
ENDBRANCH   3   4
ENDBRANCH   2   3
ENDBRANCH   1   2
BRANCH   1   8
ATOM      8  C   UNL     1     112.115 109.919 122.022  1.00  0.00     0.000 C 
BRANCH   8   9
ATOM      9  C   UNL     1     111.782 111.311 122.586  1.00  0.00     0.000 C 
BRANCH   9  10
ATOM     10  C   UNL     1     111.983 112.430 121.551  1.00  0.00     0.006 C 
BRANCH  10  11
ATOM     11  C   UNL     1     110.658 112.970 120.997  1.00  0.00     0.053 C 
BRANCH  11  12
ATOM     12  C   UNL     1     110.460 112.517 119.586  1.00  0.00     0.041 C 
ATOM     13  O   UNL     1     111.415 112.561 118.767  1.00  0.00    -0.550 OA
ATOM     14  O   UNL     1     109.234 112.001 119.186  1.00  0.00    -0.550 OA
ENDBRANCH  11  12
ENDBRANCH  10  11
ENDBRANCH   9  10
ENDBRANCH   8   9
ENDBRANCH   1   8
TORSDOF 9
ENDMDL
MODEL 6
REMARK VINA RESULT:    -3.792      1.580      2.144
REMARK INTER + INTRA:          -6.724
REMARK INTER:                  -6.037
REMARK INTRA:                  -0.687
REMARK UNBOUND:                -0.937
REMARK SMILES O=C([O-])CCCCCCCCC(=O)[O-]
REMARK SMILES IDX 7 1 6 2 5 3 4 4 2 5 1 6 3 7 8 8 9 9 10 10 11 11 12 12 13 13
REMARK SMILES IDX 14 14
REMARK H PARENT
REMARK Flexibility Score: inf
ROOT
ATOM      1  C   UNL     1     113.034 109.959 120.698  1.00  0.00     0.000 C 
ENDROOT
BRANCH   1   2
ATOM      2  C   UNL     1     112.138 109.844 121.941  1.00  0.00     0.000 C 
BRANCH   2   3
ATOM      3  C   UNL     1     111.694 111.231 122.428  1.00  0.00     0.006 C 
BRANCH   3   4
ATOM      4  C   UNL     1     111.687 112.269 121.298  1.00  0.00     0.053 C 
BRANCH   4   5
ATOM      5  C   UNL     1     112.563 113.442 121.614  1.00  0.00     0.041 C 
ATOM      6  O   UNL     1     112.072 114.480 122.128  1.00  0.00    -0.550 OA
ATOM      7  O   UNL     1     113.929 113.375 121.371  1.00  0.00    -0.550 OA
ENDBRANCH   4   5
ENDBRANCH   3   4
ENDBRANCH   2   3
ENDBRANCH   1   2
BRANCH   1   8
ATOM      8  C   UNL     1     114.425 109.342 120.910  1.00  0.00     0.000 C 
BRANCH   8   9
ATOM      9  C   UNL     1     115.058 109.754 122.250  1.00  0.00     0.000 C 
BRANCH   9  10
ATOM     10  C   UNL     1     116.518 110.209 122.098  1.00  0.00     0.006 C 
BRANCH  10  11
ATOM     11  C   UNL     1     116.767 111.609 122.676  1.00  0.00     0.053 C 
BRANCH  11  12
ATOM     12  C   UNL     1     117.411 112.489 121.652  1.00  0.00     0.041 C 
ATOM     13  O   UNL     1     118.360 113.249 121.978  1.00  0.00    -0.550 OA
ATOM     14  O   UNL     1     116.996 112.434 120.328  1.00  0.00    -0.550 OA
ENDBRANCH  11  12
ENDBRANCH  10  11
ENDBRANCH   9  10
ENDBRANCH   8   9
ENDBRANCH   1   8
TORSDOF 9
ENDMDL
MODEL 7
REMARK VINA RESULT:    -3.764      2.322      3.601
REMARK INTER + INTRA:          -6.681
REMARK INTER:                  -5.748
REMARK INTRA:                  -0.933
REMARK UNBOUND:                -0.937
REMARK SMILES O=C([O-])CCCCCCCCC(=O)[O-]
REMARK SMILES IDX 7 1 6 2 5 3 4 4 2 5 1 6 3 7 8 8 9 9 10 10 11 11 12 12 13 13
REMARK SMILES IDX 14 14
REMARK H PARENT
REMARK Flexibility Score: inf
ROOT
ATOM      1  C   UNL     1     111.851 111.499 122.378  1.00  0.00     0.000 C 
ENDROOT
BRANCH   1   2
ATOM      2  C   UNL     1     111.923 112.422 121.151  1.00  0.00     0.000 C 
BRANCH   2   3
ATOM      3  C   UNL     1     110.521 112.886 120.730  1.00  0.00     0.006 C 
BRANCH   3   4
ATOM      4  C   UNL     1     110.243 112.623 119.244  1.00  0.00     0.053 C 
BRANCH   4   5
ATOM      5  C   UNL     1     109.390 111.408 119.044  1.00  0.00     0.041 C 
ATOM      6  O   UNL     1     108.172 111.531 118.752  1.00  0.00    -0.550 OA
ATOM      7  O   UNL     1     109.949 110.141 119.148  1.00  0.00    -0.550 OA
ENDBRANCH   4   5
ENDBRANCH   3   4
ENDBRANCH   2   3
ENDBRANCH   1   2
BRANCH   1   8
ATOM      8  C   UNL     1     112.136 110.029 122.033  1.00  0.00     0.000 C 
BRANCH   8   9
ATOM      9  C   UNL     1     113.048 109.876 120.803  1.00  0.00     0.000 C 
BRANCH   9  10
ATOM     10  C   UNL     1     114.464 109.406 121.174  1.00  0.00     0.006 C 
BRANCH  10  11
ATOM     11  C   UNL     1     115.538 110.456 120.858  1.00  0.00     0.053 C 
BRANCH  11  12
ATOM     12  C   UNL     1     115.561 111.513 121.916  1.00  0.00     0.041 C 
ATOM     13  O   UNL     1     115.503 112.730 121.597  1.00  0.00    -0.550 OA
ATOM     14  O   UNL     1     115.598 111.154 123.257  1.00  0.00    -0.550 OA
ENDBRANCH  11  12
ENDBRANCH  10  11
ENDBRANCH   9  10
ENDBRANCH   8   9
ENDBRANCH   1   8
TORSDOF 9
ENDMDL
MODEL 8
REMARK VINA RESULT:    -3.761      1.883      4.506
REMARK INTER + INTRA:          -6.677
REMARK INTER:                  -5.846
REMARK INTRA:                  -0.831
REMARK UNBOUND:                -0.937
REMARK SMILES O=C([O-])CCCCCCCCC(=O)[O-]
REMARK SMILES IDX 7 1 6 2 5 3 4 4 2 5 1 6 3 7 8 8 9 9 10 10 11 11 12 12 13 13
REMARK SMILES IDX 14 14
REMARK H PARENT
REMARK Flexibility Score: inf
ROOT
ATOM      1  C   UNL     1     114.284 109.374 120.584  1.00  0.00     0.000 C 
ENDROOT
BRANCH   1   2
ATOM      2  C   UNL     1     115.489 110.313 120.746  1.00  0.00     0.000 C 
BRANCH   2   3
ATOM      3  C   UNL     1     115.967 110.345 122.205  1.00  0.00     0.006 C 
BRANCH   3   4
ATOM      4  C   UNL     1     117.473 110.620 122.318  1.00  0.00     0.053 C 
BRANCH   4   5
ATOM      5  C   UNL     1     117.750 112.017 122.780  1.00  0.00     0.041 C 
ATOM      6  O   UNL     1     118.652 112.237 123.630  1.00  0.00    -0.550 OA
ATOM      7  O   UNL     1     117.034 113.082 122.246  1.00  0.00    -0.550 OA
ENDBRANCH   4   5
ENDBRANCH   3   4
ENDBRANCH   2   3
ENDBRANCH   1   2
BRANCH   1   8
ATOM      8  C   UNL     1     113.399 109.321 121.839  1.00  0.00     0.000 C 
BRANCH   8   9
ATOM      9  C   UNL     1     112.010 109.941 121.610  1.00  0.00     0.000 C 
BRANCH   9  10
ATOM     10  C   UNL     1     111.831 111.276 122.351  1.00  0.00     0.006 C 
BRANCH  10  11
ATOM     11  C   UNL     1     111.543 112.447 121.401  1.00  0.00     0.053 C 
BRANCH  11  12
ATOM     12  C   UNL     1     112.787 112.845 120.673  1.00  0.00     0.041 C 
ATOM     13  O   UNL     1     112.906 112.604 119.443  1.00  0.00    -0.550 OA
ATOM     14  O   UNL     1     113.796 113.526 121.342  1.00  0.00    -0.550 OA
ENDBRANCH  11  12
ENDBRANCH  10  11
ENDBRANCH   9  10
ENDBRANCH   8   9
ENDBRANCH   1   8
TORSDOF 9
ENDMDL
MODEL 9
REMARK VINA RESULT:    -3.754      2.144      2.624
REMARK INTER + INTRA:          -6.666
REMARK INTER:                  -5.956
REMARK INTRA:                  -0.709
REMARK UNBOUND:                -0.937
REMARK SMILES O=C([O-])CCCCCCCCC(=O)[O-]
REMARK SMILES IDX 7 1 6 2 5 3 4 4 2 5 1 6 3 7 8 8 9 9 10 10 11 11 12 12 13 13
REMARK SMILES IDX 14 14
REMARK H PARENT
REMARK Flexibility Score: inf
ROOT
ATOM      1  C   UNL     1     114.333 109.448 121.634  1.00  0.00     0.000 C 
ENDROOT
BRANCH   1   2
ATOM      2  C   UNL     1     113.180 110.013 120.789  1.00  0.00     0.000 C 
BRANCH   2   3
ATOM      3  C   UNL     1     111.896 110.133 121.624  1.00  0.00     0.006 C 
BRANCH   3   4
ATOM      4  C   UNL     1     111.914 111.360 122.545  1.00  0.00     0.053 C 
BRANCH   4   5
ATOM      5  C   UNL     1     111.871 112.639 121.769  1.00  0.00     0.041 C 
ATOM      6  O   UNL     1     110.789 113.041 121.267  1.00  0.00    -0.550 OA
ATOM      7  O   UNL     1     113.021 113.406 121.626  1.00  0.00    -0.550 OA
ENDBRANCH   4   5
ENDBRANCH   3   4
ENDBRANCH   2   3
ENDBRANCH   1   2
BRANCH   1   8
ATOM      8  C   UNL     1     115.570 110.360 121.636  1.00  0.00     0.000 C 
BRANCH   8   9
ATOM      9  C   UNL     1     115.655 111.237 122.897  1.00  0.00     0.000 C 
BRANCH   9  10
ATOM     10  C   UNL     1     116.629 112.415 122.731  1.00  0.00     0.006 C 
BRANCH  10  11
ATOM     11  C   UNL     1     117.880 112.040 121.924  1.00  0.00     0.053 C 
BRANCH  11  12
ATOM     12  C   UNL     1     118.959 111.546 122.834  1.00  0.00     0.041 C 
ATOM     13  O   UNL     1     119.249 112.186 123.879  1.00  0.00    -0.550 OA
ATOM     14  O   UNL     1     119.612 110.353 122.554  1.00  0.00    -0.550 OA
ENDBRANCH  11  12
ENDBRANCH  10  11
ENDBRANCH   9  10
ENDBRANCH   8   9
ENDBRANCH   1   8
TORSDOF 9
ENDMDL
