MODEL 1
REMARK VINA RESULT:    15.394      0.000      0.000
REMARK INTER + INTRA:          20.007
REMARK INTER:                  20.343
REMARK INTRA:                  -0.336
REMARK UNBOUND:                -0.336
REMARK SMILES CC(C)=CCC[C@@H](C(=O)[O-])[C@@H]1CC[C@@]2(C)C3=C(CC[C@]12C)[C@]1(C)CC[C@@H](O)C(C)(C)[C@@H]1CC3
REMARK SMILES IDX 6 1 7 2 8 3 9 4 10 5 11 6 12 7 20 8 13 9 14 10 19 11 21 12
REMARK SMILES IDX 15 13 16 14 18 15 17 16 33 17 22 18 32 19 31 20 24 21 23 22
REMARK SMILES IDX 28 23 25 24 26 25 29 26 30 27 27 28 5 30 4 31 2 32 1 33 3 34
REMARK H PARENT 27 29
REMARK Flexibility Score: inf
ROOT
ATOM      1  C   UNL     1      77.674  17.142   2.229  1.00  0.00     0.014 C 
ENDROOT
BRANCH   1   2
ATOM      2  C   UNL     1      78.261  15.702   2.231  1.00  0.00     0.039 C 
BRANCH   2   3
ATOM      3  C   UNL     1      78.197  15.093   0.849  1.00  0.00     0.045 C 
ATOM      4  O   UNL     1      79.219  15.019   0.120  1.00  0.00    -0.550 OA
ATOM      5  O   UNL     1      76.981  14.648   0.348  1.00  0.00    -0.550 OA
ENDBRANCH   2   3
BRANCH   2   6
ATOM      6  C   UNL     1      79.636  15.581   2.989  1.00  0.00     0.004 C 
ATOM      7  C   UNL     1      80.336  14.194   2.987  1.00  0.00     0.006 C 
ATOM      8  C   UNL     1      79.709  16.058   4.485  1.00  0.00    -0.020 C 
ATOM      9  C   UNL     1      80.833  13.933   4.419  1.00  0.00     0.012 C 
ATOM     10  C   UNL     1      79.887  14.748   5.310  1.00  0.00    -0.006 C 
ATOM     11  C   UNL     1      78.528  16.836   5.098  1.00  0.00     0.012 C 
ATOM     12  C   UNL     1      80.968  17.002   4.574  1.00  0.00     0.012 C 
ATOM     13  C   UNL     1      78.603  13.886   5.524  1.00  0.00     0.017 C 
ATOM     14  C   UNL     1      80.356  15.116   6.708  1.00  0.00    -0.064 C 
ATOM     15  C   UNL     1      78.729  17.063   6.629  1.00  0.00     0.032 C 
ATOM     16  C   UNL     1      79.718  16.127   7.376  1.00  0.00    -0.064 C 
ATOM     17  C   UNL     1      81.324  14.238   7.452  1.00  0.00     0.032 C 
ATOM     18  C   UNL     1      80.159  16.473   8.829  1.00  0.00    -0.008 C 
ATOM     19  C   UNL     1      80.704  13.892   8.792  1.00  0.00     0.009 C 
ATOM     20  C   UNL     1      80.489  15.155   9.696  1.00  0.00     0.007 C 
ATOM     21  C   UNL     1      81.389  17.413   8.656  1.00  0.00     0.014 C 
ATOM     22  C   UNL     1      79.009  17.258   9.525  1.00  0.00     0.016 C 
ATOM     23  C   UNL     1      81.550  15.341  10.892  1.00  0.00    -0.006 C 
ATOM     24  C   UNL     1      82.196  17.637   9.924  1.00  0.00     0.033 C 
ATOM     25  C   UNL     1      82.706  16.299  10.472  1.00  0.00     0.120 C 
ATOM     26  C   UNL     1      80.837  15.866  12.177  1.00  0.00     0.014 C 
ATOM     27  C   UNL     1      82.203  13.997  11.324  1.00  0.00     0.014 C 
BRANCH  25  28
ATOM     28  O   UNL     1      83.622  16.508  11.524  1.00  0.00    -0.393 OA
ATOM     29  H   UNL     1      83.955  15.625  11.830  1.00  0.00     0.210 HD
ENDBRANCH  25  28
ENDBRANCH   2   6
ENDBRANCH   1   2
BRANCH   1  30
ATOM     30  C   UNL     1      78.402  18.151   1.326  1.00  0.00     0.028 C 
BRANCH  30  31
ATOM     31  C   UNL     1      77.852  19.539   1.551  1.00  0.00    -0.028 C 
ATOM     32  C   UNL     1      76.751  20.040   0.943  1.00  0.00    -0.080 C 
ATOM     33  C   UNL     1      76.280  21.432   1.275  1.00  0.00     0.039 C 
ATOM     34  C   UNL     1      75.991  19.265  -0.105  1.00  0.00     0.039 C 
ENDBRANCH  30  31
ENDBRANCH   1  30
TORSDOF 6
ENDMDL
MODEL 2
REMARK VINA RESULT:    17.543      0.996      1.753
REMARK INTER + INTRA:          22.847
REMARK INTER:                  22.195
REMARK INTRA:                   0.652
REMARK UNBOUND:                -0.336
REMARK SMILES CC(C)=CCC[C@@H](C(=O)[O-])[C@@H]1CC[C@@]2(C)C3=C(CC[C@]12C)[C@]1(C)CC[C@@H](O)C(C)(C)[C@@H]1CC3
REMARK SMILES IDX 6 1 7 2 8 3 9 4 10 5 11 6 12 7 20 8 13 9 14 10 19 11 21 12
REMARK SMILES IDX 15 13 16 14 18 15 17 16 33 17 22 18 32 19 31 20 24 21 23 22
REMARK SMILES IDX 28 23 25 24 26 25 29 26 30 27 27 28 5 30 4 31 2 32 1 33 3 34
REMARK H PARENT 27 29
REMARK Flexibility Score: inf
ROOT
ATOM      1  C   UNL     1      77.663  17.168   2.296  1.00  0.00     0.014 C 
ENDROOT
BRANCH   1   2
ATOM      2  C   UNL     1      78.331  15.767   2.200  1.00  0.00     0.039 C 
BRANCH   2   3
ATOM      3  C   UNL     1      78.323  15.263   0.776  1.00  0.00     0.045 C 
ATOM      4  O   UNL     1      77.245  14.993   0.185  1.00  0.00    -0.550 OA
ATOM      5  O   UNL     1      79.524  15.046   0.114  1.00  0.00    -0.550 OA
ENDBRANCH   2   3
BRANCH   2   6
ATOM      6  C   UNL     1      79.698  15.664   2.975  1.00  0.00     0.004 C 
ATOM      7  C   UNL     1      80.433  14.296   2.953  1.00  0.00     0.006 C 
ATOM      8  C   UNL     1      79.739  16.110   4.482  1.00  0.00    -0.020 C 
ATOM      9  C   UNL     1      80.917  14.016   4.386  1.00  0.00     0.012 C 
ATOM     10  C   UNL     1      79.939  14.787   5.280  1.00  0.00    -0.006 C 
ATOM     11  C   UNL     1      78.530  16.844   5.095  1.00  0.00     0.012 C 
ATOM     12  C   UNL     1      80.971  17.083   4.608  1.00  0.00     0.012 C 
ATOM     13  C   UNL     1      78.675  13.888   5.459  1.00  0.00     0.017 C 
ATOM     14  C   UNL     1      80.379  15.136   6.693  1.00  0.00    -0.064 C 
ATOM     15  C   UNL     1      78.704  17.042   6.633  1.00  0.00     0.032 C 
ATOM     16  C   UNL     1      79.707  16.116   7.373  1.00  0.00    -0.064 C 
ATOM     17  C   UNL     1      81.359  14.266   7.431  1.00  0.00     0.032 C 
ATOM     18  C   UNL     1      80.120  16.440   8.839  1.00  0.00    -0.008 C 
ATOM     19  C   UNL     1      80.730  13.875   8.755  1.00  0.00     0.009 C 
ATOM     20  C   UNL     1      80.472  15.113   9.682  1.00  0.00     0.007 C 
ATOM     21  C   UNL     1      81.328  17.414   8.704  1.00  0.00     0.014 C 
ATOM     22  C   UNL     1      78.940  17.180   9.536  1.00  0.00     0.016 C 
ATOM     23  C   UNL     1      81.511  15.299  10.896  1.00  0.00    -0.006 C 
ATOM     24  C   UNL     1      82.112  17.631   9.988  1.00  0.00     0.033 C 
ATOM     25  C   UNL     1      82.648  16.295  10.514  1.00  0.00     0.120 C 
ATOM     26  C   UNL     1      80.768  15.778  12.183  1.00  0.00     0.014 C 
ATOM     27  C   UNL     1      82.192  13.963  11.308  1.00  0.00     0.014 C 
BRANCH  25  28
ATOM     28  O   UNL     1      83.544  16.504  11.583  1.00  0.00    -0.393 OA
ATOM     29  H   UNL     1      84.137  17.264  11.350  1.00  0.00     0.210 HD
ENDBRANCH  25  28
ENDBRANCH   2   6
ENDBRANCH   1   2
BRANCH   1  30
ATOM     30  C   UNL     1      78.415  18.308   1.591  1.00  0.00     0.028 C 
BRANCH  30  31
ATOM     31  C   UNL     1      79.904  18.132   1.763  1.00  0.00    -0.028 C 
ATOM     32  C   UNL     1      80.813  19.132   1.692  1.00  0.00    -0.080 C 
ATOM     33  C   UNL     1      82.273  18.835   1.915  1.00  0.00     0.039 C 
ATOM     34  C   UNL     1      80.420  20.547   1.347  1.00  0.00     0.039 C 
ENDBRANCH  30  31
ENDBRANCH   1  30
TORSDOF 6
ENDMDL
