MODEL 1
REMARK VINA RESULT:    -5.436      0.000      0.000
REMARK INTER + INTRA:         -10.987
REMARK INTER:                 -10.203
REMARK INTRA:                  -0.784
REMARK UNBOUND:                -0.784
REMARK SMILES O=C([O-])CCCCCCCCCCCCCCC(=O)[O-]
REMARK SMILES IDX 10 1 9 2 8 3 7 4 6 5 5 6 4 7 2 8 1 9 3 10 11 11 12 12 13 13
REMARK SMILES IDX 14 14 15 15 16 16 17 17 18 18 19 19 20 20
REMARK H PARENT
REMARK Flexibility Score: inf
ROOT
ATOM      1  C   UNL     1       7.289  -0.548  17.537  1.00  0.00     0.000 C 
ENDROOT
BRANCH   1   2
ATOM      2  C   UNL     1       6.688   0.688  18.228  1.00  0.00     0.000 C 
BRANCH   2   3
ATOM      3  C   UNL     1       7.718   1.445  19.083  1.00  0.00     0.000 C 
BRANCH   3   4
ATOM      4  C   UNL     1       7.165   2.758  19.667  1.00  0.00     0.000 C 
BRANCH   4   5
ATOM      5  C   UNL     1       8.048   3.999  19.441  1.00  0.00     0.000 C 
BRANCH   5   6
ATOM      6  C   UNL     1       8.825   4.420  20.701  1.00  0.00     0.006 C 
BRANCH   6   7
ATOM      7  C   UNL     1       8.094   4.023  21.990  1.00  0.00     0.053 C 
BRANCH   7   8
ATOM      8  C   UNL     1       7.266   5.148  22.532  1.00  0.00     0.041 C 
ATOM      9  O   UNL     1       6.687   5.030  23.644  1.00  0.00    -0.550 OA
ATOM     10  O   UNL     1       7.154   6.336  21.820  1.00  0.00    -0.550 OA
ENDBRANCH   7   8
ENDBRANCH   6   7
ENDBRANCH   5   6
ENDBRANCH   4   5
ENDBRANCH   3   4
ENDBRANCH   2   3
ENDBRANCH   1   2
BRANCH   1  11
ATOM     11  C   UNL     1       8.696  -0.889  18.059  1.00  0.00     0.000 C 
BRANCH  11  12
ATOM     12  C   UNL     1       9.440  -1.881  17.148  1.00  0.00     0.000 C 
BRANCH  12  13
ATOM     13  C   UNL     1       8.716  -3.235  17.032  1.00  0.00     0.000 C 
BRANCH  13  14
ATOM     14  C   UNL     1       9.599  -4.322  16.398  1.00  0.00     0.000 C 
BRANCH  14  15
ATOM     15  C   UNL     1      10.633  -3.752  15.416  1.00  0.00     0.000 C 
BRANCH  15  16
ATOM     16  C   UNL     1      12.050  -4.224  15.775  1.00  0.00     0.006 C 
BRANCH  16  17
ATOM     17  C   UNL     1      12.997  -3.051  16.062  1.00  0.00     0.053 C 
BRANCH  17  18
ATOM     18  C   UNL     1      14.326  -3.523  16.568  1.00  0.00     0.041 C 
ATOM     19  O   UNL     1      14.598  -4.752  16.585  1.00  0.00    -0.550 OA
ATOM     20  O   UNL     1      15.276  -2.601  16.988  1.00  0.00    -0.550 OA
ENDBRANCH  17  18
ENDBRANCH  16  17
ENDBRANCH  15  16
ENDBRANCH  14  15
ENDBRANCH  13  14
ENDBRANCH  12  13
ENDBRANCH  11  12
ENDBRANCH   1  11
TORSDOF 15
ENDMDL
MODEL 2
REMARK VINA RESULT:    -5.427      1.687      9.012
REMARK INTER + INTRA:         -10.970
REMARK INTER:                  -9.537
REMARK INTRA:                  -1.433
REMARK UNBOUND:                -0.784
REMARK SMILES O=C([O-])CCCCCCCCCCCCCCC(=O)[O-]
REMARK SMILES IDX 10 1 9 2 8 3 7 4 6 5 5 6 4 7 2 8 1 9 3 10 11 11 12 12 13 13
REMARK SMILES IDX 14 14 15 15 16 16 17 17 18 18 19 19 20 20
REMARK H PARENT
REMARK Flexibility Score: inf
ROOT
ATOM      1  C   UNL     1       6.404   0.004  17.246  1.00  0.00     0.000 C 
ENDROOT
BRANCH   1   2
ATOM      2  C   UNL     1       7.288  -0.227  18.483  1.00  0.00     0.000 C 
BRANCH   2   3
ATOM      3  C   UNL     1       8.631  -0.889  18.132  1.00  0.00     0.000 C 
BRANCH   3   4
ATOM      4  C   UNL     1       8.495  -2.000  17.075  1.00  0.00     0.000 C 
BRANCH   4   5
ATOM      5  C   UNL     1       8.973  -3.394  17.523  1.00  0.00     0.000 C 
BRANCH   5   6
ATOM      6  C   UNL     1       9.330  -4.314  16.342  1.00  0.00     0.006 C 
BRANCH   6   7
ATOM      7  C   UNL     1      10.230  -3.614  15.315  1.00  0.00     0.053 C 
BRANCH   7   8
ATOM      8  C   UNL     1      11.609  -3.375  15.851  1.00  0.00     0.041 C 
ATOM      9  O   UNL     1      12.029  -2.199  16.017  1.00  0.00    -0.550 OA
ATOM     10  O   UNL     1      12.419  -4.450  16.193  1.00  0.00    -0.550 OA
ENDBRANCH   7   8
ENDBRANCH   6   7
ENDBRANCH   5   6
ENDBRANCH   4   5
ENDBRANCH   3   4
ENDBRANCH   2   3
ENDBRANCH   1   2
BRANCH   1  11
ATOM     11  C   UNL     1       5.288   1.033  17.503  1.00  0.00     0.000 C 
BRANCH  11  12
ATOM     12  C   UNL     1       5.213   2.110  16.407  1.00  0.00     0.000 C 
BRANCH  12  13
ATOM     13  C   UNL     1       6.471   2.997  16.362  1.00  0.00     0.000 C 
BRANCH  13  14
ATOM     14  C   UNL     1       6.723   3.729  17.690  1.00  0.00     0.000 C 
BRANCH  14  15
ATOM     15  C   UNL     1       8.177   3.605  18.172  1.00  0.00     0.000 C 
BRANCH  15  16
ATOM     16  C   UNL     1       8.233   3.119  19.627  1.00  0.00     0.006 C 
BRANCH  16  17
ATOM     17  C   UNL     1       7.240   3.866  20.528  1.00  0.00     0.053 C 
BRANCH  17  18
ATOM     18  C   UNL     1       7.877   5.044  21.199  1.00  0.00     0.041 C 
ATOM     19  O   UNL     1       9.056   4.965  21.634  1.00  0.00    -0.550 OA
ATOM     20  O   UNL     1       7.180   6.240  21.312  1.00  0.00    -0.550 OA
ENDBRANCH  17  18
ENDBRANCH  16  17
ENDBRANCH  15  16
ENDBRANCH  14  15
ENDBRANCH  13  14
ENDBRANCH  12  13
ENDBRANCH  11  12
ENDBRANCH   1  11
TORSDOF 15
ENDMDL
MODEL 3
REMARK VINA RESULT:    -5.419      4.649      8.053
REMARK INTER + INTRA:         -10.956
REMARK INTER:                  -8.471
REMARK INTRA:                  -2.485
REMARK UNBOUND:                -0.784
REMARK SMILES O=C([O-])CCCCCCCCCCCCCCC(=O)[O-]
REMARK SMILES IDX 10 1 9 2 8 3 7 4 6 5 5 6 4 7 2 8 1 9 3 10 11 11 12 12 13 13
REMARK SMILES IDX 14 14 15 15 16 16 17 17 18 18 19 19 20 20
REMARK H PARENT
REMARK Flexibility Score: inf
ROOT
ATOM      1  C   UNL     1       4.707   0.470  14.936  1.00  0.00     0.000 C 
ENDROOT
BRANCH   1   2
ATOM      2  C   UNL     1       5.060  -0.976  14.549  1.00  0.00     0.000 C 
BRANCH   2   3
ATOM      3  C   UNL     1       6.551  -1.294  14.754  1.00  0.00     0.000 C 
BRANCH   3   4
ATOM      4  C   UNL     1       7.467  -0.091  14.465  1.00  0.00     0.000 C 
BRANCH   4   5
ATOM      5  C   UNL     1       8.695  -0.399  13.588  1.00  0.00     0.000 C 
BRANCH   5   6
ATOM      6  C   UNL     1       8.615  -1.775  12.905  1.00  0.00     0.006 C 
BRANCH   6   7
ATOM      7  C   UNL     1       8.383  -1.658  11.393  1.00  0.00     0.053 C 
BRANCH   7   8
ATOM      8  C   UNL     1       6.986  -2.040  11.010  1.00  0.00     0.041 C 
ATOM      9  O   UNL     1       6.035  -1.236  11.198  1.00  0.00    -0.550 OA
ATOM     10  O   UNL     1       6.737  -3.274  10.422  1.00  0.00    -0.550 OA
ENDBRANCH   7   8
ENDBRANCH   6   7
ENDBRANCH   5   6
ENDBRANCH   4   5
ENDBRANCH   3   4
ENDBRANCH   2   3
ENDBRANCH   1   2
BRANCH   1  11
ATOM     11  C   UNL     1       3.750   0.542  16.139  1.00  0.00     0.000 C 
BRANCH  11  12
ATOM     12  C   UNL     1       4.485   0.789  17.467  1.00  0.00     0.000 C 
BRANCH  12  13
ATOM     13  C   UNL     1       5.705   1.715  17.304  1.00  0.00     0.000 C 
BRANCH  13  14
ATOM     14  C   UNL     1       6.901   1.270  18.161  1.00  0.00     0.000 C 
BRANCH  14  15
ATOM     15  C   UNL     1       7.029  -0.258  18.257  1.00  0.00     0.000 C 
BRANCH  15  16
ATOM     16  C   UNL     1       8.486  -0.701  18.059  1.00  0.00     0.006 C 
BRANCH  16  17
ATOM     17  C   UNL     1       8.601  -2.202  17.762  1.00  0.00     0.053 C 
BRANCH  17  18
ATOM     18  C   UNL     1       9.529  -2.472  16.617  1.00  0.00     0.041 C 
ATOM     19  O   UNL     1       9.337  -3.464  15.865  1.00  0.00    -0.550 OA
ATOM     20  O   UNL     1      10.585  -1.607  16.360  1.00  0.00    -0.550 OA
ENDBRANCH  17  18
ENDBRANCH  16  17
ENDBRANCH  15  16
ENDBRANCH  14  15
ENDBRANCH  13  14
ENDBRANCH  12  13
ENDBRANCH  11  12
ENDBRANCH   1  11
TORSDOF 15
ENDMDL
MODEL 4
REMARK VINA RESULT:    -5.388      4.954      6.357
REMARK INTER + INTRA:         -10.898
REMARK INTER:                  -8.727
REMARK INTRA:                  -2.171
REMARK UNBOUND:                -0.784
REMARK SMILES O=C([O-])CCCCCCCCCCCCCCC(=O)[O-]
REMARK SMILES IDX 10 1 9 2 8 3 7 4 6 5 5 6 4 7 2 8 1 9 3 10 11 11 12 12 13 13
REMARK SMILES IDX 14 14 15 15 16 16 17 17 18 18 19 19 20 20
REMARK H PARENT
REMARK Flexibility Score: inf
ROOT
ATOM      1  C   UNL     1       8.627  -0.586  18.206  1.00  0.00     0.000 C 
ENDROOT
BRANCH   1   2
ATOM      2  C   UNL     1       7.140  -0.313  18.490  1.00  0.00     0.000 C 
BRANCH   2   3
ATOM      3  C   UNL     1       6.668   1.035  17.919  1.00  0.00     0.000 C 
BRANCH   3   4
ATOM      4  C   UNL     1       7.785   2.094  17.879  1.00  0.00     0.000 C 
BRANCH   4   5
ATOM      5  C   UNL     1       8.037   2.729  16.498  1.00  0.00     0.000 C 
BRANCH   5   6
ATOM      6  C   UNL     1       7.702   4.230  16.459  1.00  0.00     0.006 C 
BRANCH   6   7
ATOM      7  C   UNL     1       7.408   4.794  17.855  1.00  0.00     0.053 C 
BRANCH   7   8
ATOM      8  C   UNL     1       6.988   6.231  17.801  1.00  0.00     0.041 C 
ATOM      9  O   UNL     1       5.930   6.604  18.373  1.00  0.00    -0.550 OA
ATOM     10  O   UNL     1       7.779   7.164  17.141  1.00  0.00    -0.550 OA
ENDBRANCH   7   8
ENDBRANCH   6   7
ENDBRANCH   5   6
ENDBRANCH   4   5
ENDBRANCH   3   4
ENDBRANCH   2   3
ENDBRANCH   1   2
BRANCH   1  11
ATOM     11  C   UNL     1       8.867  -1.987  17.616  1.00  0.00     0.000 C 
BRANCH  11  12
ATOM     12  C   UNL     1       8.027  -2.248  16.353  1.00  0.00     0.000 C 
BRANCH  12  13
ATOM     13  C   UNL     1       8.454  -1.364  15.166  1.00  0.00     0.000 C 
BRANCH  13  14
ATOM     14  C   UNL     1       7.291  -0.529  14.606  1.00  0.00     0.000 C 
BRANCH  14  15
ATOM     15  C   UNL     1       5.916  -1.139  14.917  1.00  0.00     0.000 C 
BRANCH  15  16
ATOM     16  C   UNL     1       4.819  -0.065  14.886  1.00  0.00     0.006 C 
BRANCH  16  17
ATOM     17  C   UNL     1       5.316   1.255  14.281  1.00  0.00     0.053 C 
BRANCH  17  18
ATOM     18  C   UNL     1       4.671   1.538  12.959  1.00  0.00     0.041 C 
ATOM     19  O   UNL     1       4.073   2.629  12.766  1.00  0.00    -0.550 OA
ATOM     20  O   UNL     1       4.760   0.610  11.930  1.00  0.00    -0.550 OA
ENDBRANCH  17  18
ENDBRANCH  16  17
ENDBRANCH  15  16
ENDBRANCH  14  15
ENDBRANCH  13  14
ENDBRANCH  12  13
ENDBRANCH  11  12
ENDBRANCH   1  11
TORSDOF 15
ENDMDL
MODEL 5
REMARK VINA RESULT:    -5.366      0.845      9.819
REMARK INTER + INTRA:         -10.855
REMARK INTER:                 -10.100
REMARK INTRA:                  -0.755
REMARK UNBOUND:                -0.784
REMARK SMILES O=C([O-])CCCCCCCCCCCCCCC(=O)[O-]
REMARK SMILES IDX 10 1 9 2 8 3 7 4 6 5 5 6 4 7 2 8 1 9 3 10 11 11 12 12 13 13
REMARK SMILES IDX 14 14 15 15 16 16 17 17 18 18 19 19 20 20
REMARK H PARENT
REMARK Flexibility Score: inf
ROOT
ATOM      1  C   UNL     1       8.640  -2.018  18.065  1.00  0.00     0.000 C 
ENDROOT
BRANCH   1   2
ATOM      2  C   UNL     1       8.700  -2.583  16.636  1.00  0.00     0.000 C 
BRANCH   2   3
ATOM      3  C   UNL     1       9.517  -3.884  16.550  1.00  0.00     0.000 C 
BRANCH   3   4
ATOM      4  C   UNL     1      10.772  -3.747  15.670  1.00  0.00     0.000 C 
BRANCH   4   5
ATOM      5  C   UNL     1      11.552  -2.430  15.841  1.00  0.00     0.000 C 
BRANCH   5   6
ATOM      6  C   UNL     1      13.063  -2.648  16.032  1.00  0.00     0.006 C 
BRANCH   6   7
ATOM      7  C   UNL     1      13.431  -4.137  16.080  1.00  0.00     0.053 C 
BRANCH   7   8
ATOM      8  C   UNL     1      14.744  -4.367  16.765  1.00  0.00     0.041 C 
ATOM      9  O   UNL     1      15.342  -3.411  17.326  1.00  0.00    -0.550 OA
ATOM     10  O   UNL     1      15.294  -5.642  16.807  1.00  0.00    -0.550 OA
ENDBRANCH   7   8
ENDBRANCH   6   7
ENDBRANCH   5   6
ENDBRANCH   4   5
ENDBRANCH   3   4
ENDBRANCH   2   3
ENDBRANCH   1   2
BRANCH   1  11
ATOM     11  C   UNL     1       8.517  -0.484  18.088  1.00  0.00     0.000 C 
BRANCH  11  12
ATOM     12  C   UNL     1       7.132  -0.008  18.560  1.00  0.00     0.000 C 
BRANCH  12  13
ATOM     13  C   UNL     1       6.806   1.422  18.091  1.00  0.00     0.000 C 
BRANCH  13  14
ATOM     14  C   UNL     1       7.869   2.442  18.528  1.00  0.00     0.000 C 
BRANCH  14  15
ATOM     15  C   UNL     1       7.582   3.045  19.912  1.00  0.00     0.000 C 
BRANCH  15  16
ATOM     16  C   UNL     1       8.626   4.112  20.273  1.00  0.00     0.006 C 
BRANCH  16  17
ATOM     17  C   UNL     1       8.560   4.511  21.753  1.00  0.00     0.053 C 
BRANCH  17  18
ATOM     18  C   UNL     1       7.417   5.440  22.027  1.00  0.00     0.041 C 
ATOM     19  O   UNL     1       7.162   6.382  21.232  1.00  0.00    -0.550 OA
ATOM     20  O   UNL     1       6.615   5.245  23.144  1.00  0.00    -0.550 OA
ENDBRANCH  17  18
ENDBRANCH  16  17
ENDBRANCH  15  16
ENDBRANCH  14  15
ENDBRANCH  13  14
ENDBRANCH  12  13
ENDBRANCH  11  12
ENDBRANCH   1  11
TORSDOF 15
ENDMDL
MODEL 6
REMARK VINA RESULT:    -5.364      4.479      5.837
REMARK INTER + INTRA:         -10.853
REMARK INTER:                  -9.247
REMARK INTRA:                  -1.605
REMARK UNBOUND:                -0.784
REMARK SMILES O=C([O-])CCCCCCCCCCCCCCC(=O)[O-]
REMARK SMILES IDX 10 1 9 2 8 3 7 4 6 5 5 6 4 7 2 8 1 9 3 10 11 11 12 12 13 13
REMARK SMILES IDX 14 14 15 15 16 16 17 17 18 18 19 19 20 20
REMARK H PARENT
REMARK Flexibility Score: inf
ROOT
ATOM      1  C   UNL     1       8.649  -0.664  18.064  1.00  0.00     0.000 C 
ENDROOT
BRANCH   1   2
ATOM      2  C   UNL     1       7.315   0.017  18.411  1.00  0.00     0.000 C 
BRANCH   2   3
ATOM      3  C   UNL     1       7.053   1.270  17.558  1.00  0.00     0.000 C 
BRANCH   3   4
ATOM      4  C   UNL     1       6.309   2.376  18.329  1.00  0.00     0.000 C 
BRANCH   4   5
ATOM      5  C   UNL     1       7.210   3.454  18.959  1.00  0.00     0.000 C 
BRANCH   5   6
ATOM      6  C   UNL     1       7.514   3.189  20.444  1.00  0.00     0.006 C 
BRANCH   6   7
ATOM      7  C   UNL     1       8.418   4.270  21.052  1.00  0.00     0.053 C 
BRANCH   7   8
ATOM      8  C   UNL     1       7.672   5.148  22.010  1.00  0.00     0.041 C 
ATOM      9  O   UNL     1       7.647   4.868  23.238  1.00  0.00    -0.550 OA
ATOM     10  O   UNL     1       7.028   6.290  21.552  1.00  0.00    -0.550 OA
ENDBRANCH   7   8
ENDBRANCH   6   7
ENDBRANCH   5   6
ENDBRANCH   4   5
ENDBRANCH   3   4
ENDBRANCH   2   3
ENDBRANCH   1   2
BRANCH   1  11
ATOM     11  C   UNL     1       8.496  -2.179  17.839  1.00  0.00     0.000 C 
BRANCH  11  12
ATOM     12  C   UNL     1       8.421  -2.551  16.349  1.00  0.00     0.000 C 
BRANCH  12  13
ATOM     13  C   UNL     1       8.642  -1.340  15.425  1.00  0.00     0.000 C 
BRANCH  13  14
ATOM     14  C   UNL     1       7.538  -1.198  14.364  1.00  0.00     0.000 C 
BRANCH  14  15
ATOM     15  C   UNL     1       6.125  -1.286  14.961  1.00  0.00     0.000 C 
BRANCH  15  16
ATOM     16  C   UNL     1       5.324  -0.010  14.665  1.00  0.00     0.006 C 
BRANCH  16  17
ATOM     17  C   UNL     1       3.859  -0.128  15.106  1.00  0.00     0.053 C 
BRANCH  17  18
ATOM     18  C   UNL     1       3.530   0.838  16.203  1.00  0.00     0.041 C 
ATOM     19  O   UNL     1       3.388   0.430  17.386  1.00  0.00    -0.550 OA
ATOM     20  O   UNL     1       3.413   2.193  15.923  1.00  0.00    -0.550 OA
ENDBRANCH  17  18
ENDBRANCH  16  17
ENDBRANCH  15  16
ENDBRANCH  14  15
ENDBRANCH  13  14
ENDBRANCH  12  13
ENDBRANCH  11  12
ENDBRANCH   1  11
TORSDOF 15
ENDMDL
MODEL 7
REMARK VINA RESULT:    -5.306     10.576     13.845
REMARK INTER + INTRA:         -10.744
REMARK INTER:                  -8.661
REMARK INTRA:                  -2.083
REMARK UNBOUND:                -0.784
REMARK SMILES O=C([O-])CCCCCCCCCCCCCCC(=O)[O-]
REMARK SMILES IDX 10 1 9 2 8 3 7 4 6 5 5 6 4 7 2 8 1 9 3 10 11 11 12 12 13 13
REMARK SMILES IDX 14 14 15 15 16 16 17 17 18 18 19 19 20 20
REMARK H PARENT
REMARK Flexibility Score: inf
ROOT
ATOM      1  C   UNL     1      15.794   1.177   9.266  1.00  0.00     0.000 C 
ENDROOT
BRANCH   1   2
ATOM      2  C   UNL     1      14.755   1.031   8.141  1.00  0.00     0.000 C 
BRANCH   2   3
ATOM      3  C   UNL     1      13.343   0.741   8.676  1.00  0.00     0.000 C 
BRANCH   3   4
ATOM      4  C   UNL     1      12.715  -0.522   8.057  1.00  0.00     0.000 C 
BRANCH   4   5
ATOM      5  C   UNL     1      13.659  -1.357   7.172  1.00  0.00     0.000 C 
BRANCH   5   6
ATOM      6  C   UNL     1      14.066  -2.691   7.822  1.00  0.00     0.006 C 
BRANCH   6   7
ATOM      7  C   UNL     1      15.578  -2.775   8.072  1.00  0.00     0.053 C 
BRANCH   7   8
ATOM      8  C   UNL     1      16.129  -4.123   7.722  1.00  0.00     0.041 C 
ATOM      9  O   UNL     1      16.090  -4.534   6.532  1.00  0.00    -0.550 OA
ATOM     10  O   UNL     1      16.709  -4.915   8.705  1.00  0.00    -0.550 OA
ENDBRANCH   7   8
ENDBRANCH   6   7
ENDBRANCH   5   6
ENDBRANCH   4   5
ENDBRANCH   3   4
ENDBRANCH   2   3
ENDBRANCH   1   2
BRANCH   1  11
ATOM     11  C   UNL     1      15.397   0.407  10.538  1.00  0.00     0.000 C 
BRANCH  11  12
ATOM     12  C   UNL     1      15.625   1.226  11.820  1.00  0.00     0.000 C 
BRANCH  12  13
ATOM     13  C   UNL     1      16.002   2.689  11.528  1.00  0.00     0.000 C 
BRANCH  13  14
ATOM     14  C   UNL     1      14.916   3.680  11.979  1.00  0.00     0.000 C 
BRANCH  14  15
ATOM     15  C   UNL     1      13.643   3.597  11.123  1.00  0.00     0.000 C 
BRANCH  15  16
ATOM     16  C   UNL     1      13.743   4.519   9.899  1.00  0.00     0.006 C 
BRANCH  16  17
ATOM     17  C   UNL     1      12.578   4.316   8.922  1.00  0.00     0.053 C 
BRANCH  17  18
ATOM     18  C   UNL     1      12.988   4.583   7.505  1.00  0.00     0.041 C 
ATOM     19  O   UNL     1      14.116   4.207   7.091  1.00  0.00    -0.550 OA
ATOM     20  O   UNL     1      12.111   5.217   6.636  1.00  0.00    -0.550 OA
ENDBRANCH  17  18
ENDBRANCH  16  17
ENDBRANCH  15  16
ENDBRANCH  14  15
ENDBRANCH  13  14
ENDBRANCH  12  13
ENDBRANCH  11  12
ENDBRANCH   1  11
TORSDOF 15
ENDMDL
MODEL 8
REMARK VINA RESULT:    -5.257      2.720      4.121
REMARK INTER + INTRA:         -10.651
REMARK INTER:                  -8.512
REMARK INTRA:                  -2.139
REMARK UNBOUND:                -0.784
REMARK SMILES O=C([O-])CCCCCCCCCCCCCCC(=O)[O-]
REMARK SMILES IDX 10 1 9 2 8 3 7 4 6 5 5 6 4 7 2 8 1 9 3 10 11 11 12 12 13 13
REMARK SMILES IDX 14 14 15 15 16 16 17 17 18 18 19 19 20 20
REMARK H PARENT
REMARK Flexibility Score: inf
ROOT
ATOM      1  C   UNL     1       6.194   2.245  15.215  1.00  0.00     0.000 C 
ENDROOT
BRANCH   1   2
ATOM      2  C   UNL     1       7.540   2.960  15.009  1.00  0.00     0.000 C 
BRANCH   2   3
ATOM      3  C   UNL     1       7.995   3.732  16.259  1.00  0.00     0.000 C 
BRANCH   3   4
ATOM      4  C   UNL     1       6.897   3.835  17.334  1.00  0.00     0.000 C 
BRANCH   4   5
ATOM      5  C   UNL     1       7.369   4.357  18.704  1.00  0.00     0.000 C 
BRANCH   5   6
ATOM      6  C   UNL     1       6.995   3.418  19.864  1.00  0.00     0.006 C 
BRANCH   6   7
ATOM      7  C   UNL     1       8.083   3.372  20.945  1.00  0.00     0.053 C 
BRANCH   7   8
ATOM      8  C   UNL     1       8.053   4.588  21.820  1.00  0.00     0.041 C 
ATOM      9  O   UNL     1       6.956   5.138  22.103  1.00  0.00    -0.550 OA
ATOM     10  O   UNL     1       9.234   5.097  22.346  1.00  0.00    -0.550 OA
ENDBRANCH   7   8
ENDBRANCH   6   7
ENDBRANCH   5   6
ENDBRANCH   4   5
ENDBRANCH   3   4
ENDBRANCH   2   3
ENDBRANCH   1   2
BRANCH   1  11
ATOM     11  C   UNL     1       6.207   0.799  14.687  1.00  0.00     0.000 C 
BRANCH  11  12
ATOM     12  C   UNL     1       6.058  -0.242  15.810  1.00  0.00     0.000 C 
BRANCH  12  13
ATOM     13  C   UNL     1       5.816   0.403  17.187  1.00  0.00     0.000 C 
BRANCH  13  14
ATOM     14  C   UNL     1       6.862  -0.023  18.230  1.00  0.00     0.000 C 
BRANCH  14  15
ATOM     15  C   UNL     1       8.294   0.361  17.828  1.00  0.00     0.000 C 
BRANCH  15  16
ATOM     16  C   UNL     1       9.236  -0.846  17.935  1.00  0.00     0.006 C 
BRANCH  16  17
ATOM     17  C   UNL     1       8.496  -2.179  17.757  1.00  0.00     0.053 C 
BRANCH  17  18
ATOM     18  C   UNL     1       8.908  -2.878  16.496  1.00  0.00     0.041 C 
ATOM     19  O   UNL     1       8.887  -2.266  15.396  1.00  0.00    -0.550 OA
ATOM     20  O   UNL     1       9.347  -4.194  16.544  1.00  0.00    -0.550 OA
ENDBRANCH  17  18
ENDBRANCH  16  17
ENDBRANCH  15  16
ENDBRANCH  14  15
ENDBRANCH  13  14
ENDBRANCH  12  13
ENDBRANCH  11  12
ENDBRANCH   1  11
TORSDOF 15
ENDMDL
MODEL 9
REMARK VINA RESULT:    -5.241      4.196      8.576
REMARK INTER + INTRA:         -10.621
REMARK INTER:                  -8.878
REMARK INTRA:                  -1.743
REMARK UNBOUND:                -0.784
REMARK SMILES O=C([O-])CCCCCCCCCCCCCCC(=O)[O-]
REMARK SMILES IDX 10 1 9 2 8 3 7 4 6 5 5 6 4 7 2 8 1 9 3 10 11 11 12 12 13 13
REMARK SMILES IDX 14 14 15 15 16 16 17 17 18 18 19 19 20 20
REMARK H PARENT
REMARK Flexibility Score: inf
ROOT
ATOM      1  C   UNL     1       8.213   0.395  17.762  1.00  0.00     0.000 C 
ENDROOT
BRANCH   1   2
ATOM      2  C   UNL     1       8.712  -0.975  18.252  1.00  0.00     0.000 C 
BRANCH   2   3
ATOM      3  C   UNL     1       9.150  -1.892  17.097  1.00  0.00     0.000 C 
BRANCH   3   4
ATOM      4  C   UNL     1       8.034  -2.128  16.063  1.00  0.00     0.000 C 
BRANCH   4   5
ATOM      5  C   UNL     1       8.278  -1.497  14.679  1.00  0.00     0.000 C 
BRANCH   5   6
ATOM      6  C   UNL     1       7.042  -0.765  14.127  1.00  0.00     0.006 C 
BRANCH   6   7
ATOM      7  C   UNL     1       5.764  -1.130  14.893  1.00  0.00     0.053 C 
BRANCH   7   8
ATOM      8  C   UNL     1       4.879   0.060  15.104  1.00  0.00     0.041 C 
ATOM      9  O   UNL     1       5.086   1.125  14.463  1.00  0.00    -0.550 OA
ATOM     10  O   UNL     1       3.810  -0.014  15.989  1.00  0.00    -0.550 OA
ENDBRANCH   7   8
ENDBRANCH   6   7
ENDBRANCH   5   6
ENDBRANCH   4   5
ENDBRANCH   3   4
ENDBRANCH   2   3
ENDBRANCH   1   2
BRANCH   1  11
ATOM     11  C   UNL     1       6.778   0.700  18.225  1.00  0.00     0.000 C 
BRANCH  11  12
ATOM     12  C   UNL     1       6.316   2.112  17.828  1.00  0.00     0.000 C 
BRANCH  12  13
ATOM     13  C   UNL     1       7.331   2.834  16.922  1.00  0.00     0.000 C 
BRANCH  13  14
ATOM     14  C   UNL     1       7.651   4.255  17.412  1.00  0.00     0.000 C 
BRANCH  14  15
ATOM     15  C   UNL     1       6.839   4.654  18.654  1.00  0.00     0.000 C 
BRANCH  15  16
ATOM     16  C   UNL     1       7.766   4.986  19.833  1.00  0.00     0.006 C 
BRANCH  16  17
ATOM     17  C   UNL     1       7.525   4.067  21.038  1.00  0.00     0.053 C 
BRANCH  17  18
ATOM     18  C   UNL     1       8.104   4.639  22.296  1.00  0.00     0.041 C 
ATOM     19  O   UNL     1       9.239   5.184  22.281  1.00  0.00    -0.550 OA
ATOM     20  O   UNL     1       7.375   4.598  23.477  1.00  0.00    -0.550 OA
ENDBRANCH  17  18
ENDBRANCH  16  17
ENDBRANCH  15  16
ENDBRANCH  14  15
ENDBRANCH  13  14
ENDBRANCH  12  13
ENDBRANCH  11  12
ENDBRANCH   1  11
TORSDOF 15
ENDMDL
