MODEL 1
REMARK VINA RESULT:    -3.776      0.000      0.000
REMARK INTER + INTRA:          -5.793
REMARK INTER:                  -5.542
REMARK INTRA:                  -0.251
REMARK UNBOUND:                -0.251
REMARK SMILES O=C([O-])CCCCCCCC(=O)[O-]
REMARK SMILES IDX 7 1 6 2 5 3 4 4 2 5 1 6 3 7 8 8 9 9 10 10 11 11 12 12 13 13
REMARK H PARENT
REMARK Flexibility Score: inf
ROOT
ATOM      1  C   UNL     1      -6.843  20.244  14.119  1.00  0.00     0.000 C 
ENDROOT
BRANCH   1   2
ATOM      2  C   UNL     1      -8.196  20.768  14.624  1.00  0.00     0.000 C 
BRANCH   2   3
ATOM      3  C   UNL     1      -8.120  22.223  15.121  1.00  0.00     0.006 C 
BRANCH   3   4
ATOM      4  C   UNL     1      -8.906  23.184  14.222  1.00  0.00     0.053 C 
BRANCH   4   5
ATOM      5  C   UNL     1      -8.199  24.493  14.054  1.00  0.00     0.041 C 
ATOM      6  O   UNL     1      -8.632  25.348  13.237  1.00  0.00    -0.550 OA
ATOM      7  O   UNL     1      -7.040  24.756  14.773  1.00  0.00    -0.550 OA
ENDBRANCH   4   5
ENDBRANCH   3   4
ENDBRANCH   2   3
ENDBRANCH   1   2
BRANCH   1   8
ATOM      8  C   UNL     1      -6.172  19.284  15.114  1.00  0.00     0.000 C 
BRANCH   8   9
ATOM      9  C   UNL     1      -4.642  19.370  15.011  1.00  0.00     0.006 C 
BRANCH   9  10
ATOM     10  C   UNL     1      -4.128  18.949  13.628  1.00  0.00     0.053 C 
BRANCH  10  11
ATOM     11  C   UNL     1      -3.409  17.637  13.678  1.00  0.00     0.041 C 
ATOM     12  O   UNL     1      -3.651  16.816  14.602  1.00  0.00    -0.550 OA
ATOM     13  O   UNL     1      -2.494  17.306  12.686  1.00  0.00    -0.550 OA
ENDBRANCH  10  11
ENDBRANCH   9  10
ENDBRANCH   8   9
ENDBRANCH   1   8
TORSDOF 8
ENDMDL
MODEL 2
REMARK VINA RESULT:    -3.616      1.844      2.869
REMARK INTER + INTRA:          -5.558
REMARK INTER:                  -5.414
REMARK INTRA:                  -0.144
REMARK UNBOUND:                -0.251
REMARK SMILES O=C([O-])CCCCCCCC(=O)[O-]
REMARK SMILES IDX 7 1 6 2 5 3 4 4 2 5 1 6 3 7 8 8 9 9 10 10 11 11 12 12 13 13
REMARK H PARENT
REMARK Flexibility Score: inf
ROOT
ATOM      1  C   UNL     1      -4.731  19.027  13.647  1.00  0.00     0.000 C 
ENDROOT
BRANCH   1   2
ATOM      2  C   UNL     1      -5.624  19.403  14.839  1.00  0.00     0.000 C 
BRANCH   2   3
ATOM      3  C   UNL     1      -6.149  20.848  14.754  1.00  0.00     0.006 C 
BRANCH   3   4
ATOM      4  C   UNL     1      -7.665  20.900  14.529  1.00  0.00     0.053 C 
BRANCH   4   5
ATOM      5  C   UNL     1      -8.167  22.309  14.449  1.00  0.00     0.041 C 
ATOM      6  O   UNL     1      -9.404  22.542  14.438  1.00  0.00    -0.550 OA
ATOM      7  O   UNL     1      -7.269  23.364  14.349  1.00  0.00    -0.550 OA
ENDBRANCH   4   5
ENDBRANCH   3   4
ENDBRANCH   2   3
ENDBRANCH   1   2
BRANCH   1   8
ATOM      8  C   UNL     1      -3.292  18.693  14.069  1.00  0.00     0.000 C 
BRANCH   8   9
ATOM      9  C   UNL     1      -2.861  17.326  13.515  1.00  0.00     0.006 C 
BRANCH   9  10
ATOM     10  C   UNL     1      -2.146  17.446  12.164  1.00  0.00     0.053 C 
BRANCH  10  11
ATOM     11  C   UNL     1      -1.481  16.162  11.772  1.00  0.00     0.041 C 
ATOM     12  O   UNL     1      -0.299  15.923  12.134  1.00  0.00    -0.550 OA
ATOM     13  O   UNL     1      -2.179  15.214  11.034  1.00  0.00    -0.550 OA
ENDBRANCH  10  11
ENDBRANCH   9  10
ENDBRANCH   8   9
ENDBRANCH   1   8
TORSDOF 8
ENDMDL
MODEL 3
REMARK VINA RESULT:    -3.458      4.031      9.019
REMARK INTER + INTRA:          -5.326
REMARK INTER:                  -4.902
REMARK INTRA:                  -0.424
REMARK UNBOUND:                -0.251
REMARK SMILES O=C([O-])CCCCCCCC(=O)[O-]
REMARK SMILES IDX 7 1 6 2 5 3 4 4 2 5 1 6 3 7 8 8 9 9 10 10 11 11 12 12 13 13
REMARK H PARENT
REMARK Flexibility Score: inf
ROOT
ATOM      1  C   UNL     1      -1.756  16.256  11.574  1.00  0.00     0.000 C 
ENDROOT
BRANCH   1   2
ATOM      2  C   UNL     1      -0.613  15.230  11.580  1.00  0.00     0.000 C 
BRANCH   2   3
ATOM      3  C   UNL     1      -1.044  13.865  12.146  1.00  0.00     0.006 C 
BRANCH   3   4
ATOM      4  C   UNL     1      -2.559  13.649  12.048  1.00  0.00     0.053 C 
BRANCH   4   5
ATOM      5  C   UNL     1      -2.912  12.666  10.974  1.00  0.00     0.041 C 
ATOM      6  O   UNL     1      -2.263  12.646   9.895  1.00  0.00    -0.550 OA
ATOM      7  O   UNL     1      -3.981  11.797  11.149  1.00  0.00    -0.550 OA
ENDBRANCH   4   5
ENDBRANCH   3   4
ENDBRANCH   2   3
ENDBRANCH   1   2
BRANCH   1   8
ATOM      8  C   UNL     1      -1.592  17.331  12.660  1.00  0.00     0.000 C 
BRANCH   8   9
ATOM      9  C   UNL     1      -2.841  17.405  13.551  1.00  0.00     0.006 C 
BRANCH   9  10
ATOM     10  C   UNL     1      -3.695  18.644  13.252  1.00  0.00     0.053 C 
BRANCH  10  11
ATOM     11  C   UNL     1      -4.864  18.749  14.182  1.00  0.00     0.041 C 
ATOM     12  O   UNL     1      -5.122  17.814  14.985  1.00  0.00    -0.550 OA
ATOM     13  O   UNL     1      -5.649  19.896  14.186  1.00  0.00    -0.550 OA
ENDBRANCH  10  11
ENDBRANCH   9  10
ENDBRANCH   8   9
ENDBRANCH   1   8
TORSDOF 8
ENDMDL
MODEL 4
REMARK VINA RESULT:    -3.422      4.531      7.117
REMARK INTER + INTRA:          -5.274
REMARK INTER:                  -4.856
REMARK INTRA:                  -0.417
REMARK UNBOUND:                -0.251
REMARK SMILES O=C([O-])CCCCCCCC(=O)[O-]
REMARK SMILES IDX 7 1 6 2 5 3 4 4 2 5 1 6 3 7 8 8 9 9 10 10 11 11 12 12 13 13
REMARK H PARENT
REMARK Flexibility Score: inf
ROOT
ATOM      1  C   UNL     1      -1.739  16.402  11.857  1.00  0.00     0.000 C 
ENDROOT
BRANCH   1   2
ATOM      2  C   UNL     1      -0.877  17.209  12.840  1.00  0.00     0.000 C 
BRANCH   2   3
ATOM      3  C   UNL     1      -1.645  18.383  13.476  1.00  0.00     0.006 C 
BRANCH   3   4
ATOM      4  C   UNL     1      -3.029  18.578  12.847  1.00  0.00     0.053 C 
BRANCH   4   5
ATOM      5  C   UNL     1      -4.127  18.375  13.845  1.00  0.00     0.041 C 
ATOM      6  O   UNL     1      -4.147  17.341  14.564  1.00  0.00    -0.550 OA
ATOM      7  O   UNL     1      -5.149  19.309  13.956  1.00  0.00    -0.550 OA
ENDBRANCH   4   5
ENDBRANCH   3   4
ENDBRANCH   2   3
ENDBRANCH   1   2
BRANCH   1   8
ATOM      8  C   UNL     1      -2.075  14.997  12.380  1.00  0.00     0.000 C 
BRANCH   8   9
ATOM      9  C   UNL     1      -1.624  13.919  11.384  1.00  0.00     0.006 C 
BRANCH   9  10
ATOM     10  C   UNL     1      -2.786  13.391  10.534  1.00  0.00     0.053 C 
BRANCH  10  11
ATOM     11  C   UNL     1      -3.379  12.145  11.116  1.00  0.00     0.041 C 
ATOM     12  O   UNL     1      -2.899  11.018  10.825  1.00  0.00    -0.550 OA
ATOM     13  O   UNL     1      -4.442  12.231  12.007  1.00  0.00    -0.550 OA
ENDBRANCH  10  11
ENDBRANCH   9  10
ENDBRANCH   8   9
ENDBRANCH   1   8
TORSDOF 8
ENDMDL
MODEL 5
REMARK VINA RESULT:    -3.414      4.610      7.453
REMARK INTER + INTRA:          -5.261
REMARK INTER:                  -4.912
REMARK INTRA:                  -0.349
REMARK UNBOUND:                -0.251
REMARK SMILES O=C([O-])CCCCCCCC(=O)[O-]
REMARK SMILES IDX 7 1 6 2 5 3 4 4 2 5 1 6 3 7 8 8 9 9 10 10 11 11 12 12 13 13
REMARK H PARENT
REMARK Flexibility Score: inf
ROOT
ATOM      1  C   UNL     1      -1.829  16.251  11.616  1.00  0.00     0.000 C 
ENDROOT
BRANCH   1   2
ATOM      2  C   UNL     1      -1.032  16.831  12.794  1.00  0.00     0.000 C 
BRANCH   2   3
ATOM      3  C   UNL     1      -1.609  18.165  13.301  1.00  0.00     0.006 C 
BRANCH   3   4
ATOM      4  C   UNL     1      -3.002  18.449  12.726  1.00  0.00     0.053 C 
BRANCH   4   5
ATOM      5  C   UNL     1      -4.070  18.329  13.769  1.00  0.00     0.041 C 
ATOM      6  O   UNL     1      -4.947  19.225  13.884  1.00  0.00    -0.550 OA
ATOM      7  O   UNL     1      -4.076  17.245  14.637  1.00  0.00    -0.550 OA
ENDBRANCH   4   5
ENDBRANCH   3   4
ENDBRANCH   2   3
ENDBRANCH   1   2
BRANCH   1   8
ATOM      8  C   UNL     1      -1.584  14.747  11.419  1.00  0.00     0.000 C 
BRANCH   8   9
ATOM      9  C   UNL     1      -2.623  14.142  10.464  1.00  0.00     0.006 C 
BRANCH   9  10
ATOM     10  C   UNL     1      -2.806  12.635  10.684  1.00  0.00     0.053 C 
BRANCH  10  11
ATOM     11  C   UNL     1      -1.771  11.838   9.951  1.00  0.00     0.041 C 
ATOM     12  O   UNL     1      -0.939  11.140  10.588  1.00  0.00    -0.550 OA
ATOM     13  O   UNL     1      -1.746  11.841   8.561  1.00  0.00    -0.550 OA
ENDBRANCH  10  11
ENDBRANCH   9  10
ENDBRANCH   8   9
ENDBRANCH   1   8
TORSDOF 8
ENDMDL
MODEL 6
REMARK VINA RESULT:    -3.376      4.600      9.301
REMARK INTER + INTRA:          -5.206
REMARK INTER:                  -4.847
REMARK INTRA:                  -0.359
REMARK UNBOUND:                -0.251
REMARK SMILES O=C([O-])CCCCCCCC(=O)[O-]
REMARK SMILES IDX 7 1 6 2 5 3 4 4 2 5 1 6 3 7 8 8 9 9 10 10 11 11 12 12 13 13
REMARK H PARENT
REMARK Flexibility Score: inf
ROOT
ATOM      1  C   UNL     1      -1.815  16.272  11.596  1.00  0.00     0.000 C 
ENDROOT
BRANCH   1   2
ATOM      2  C   UNL     1      -1.914  14.750  11.783  1.00  0.00     0.000 C 
BRANCH   2   3
ATOM      3  C   UNL     1      -2.614  14.052  10.604  1.00  0.00     0.006 C 
BRANCH   3   4
ATOM      4  C   UNL     1      -2.179  12.589  10.455  1.00  0.00     0.053 C 
BRANCH   4   5
ATOM      5  C   UNL     1      -3.172  11.649  11.066  1.00  0.00     0.041 C 
ATOM      6  O   UNL     1      -2.985  10.405  11.010  1.00  0.00    -0.550 OA
ATOM      7  O   UNL     1      -4.324  12.144  11.663  1.00  0.00    -0.550 OA
ENDBRANCH   4   5
ENDBRANCH   3   4
ENDBRANCH   2   3
ENDBRANCH   1   2
BRANCH   1   8
ATOM      8  C   UNL     1      -0.878  16.934  12.618  1.00  0.00     0.000 C 
BRANCH   8   9
ATOM      9  C   UNL     1      -1.614  18.023  13.412  1.00  0.00     0.006 C 
BRANCH   9  10
ATOM     10  C   UNL     1      -2.968  18.382  12.787  1.00  0.00     0.053 C 
BRANCH  10  11
ATOM     11  C   UNL     1      -4.083  18.279  13.781  1.00  0.00     0.041 C 
ATOM     12  O   UNL     1      -4.157  17.285  14.550  1.00  0.00    -0.550 OA
ATOM     13  O   UNL     1      -5.023  19.298  13.880  1.00  0.00    -0.550 OA
ENDBRANCH  10  11
ENDBRANCH   9  10
ENDBRANCH   8   9
ENDBRANCH   1   8
TORSDOF 8
ENDMDL
MODEL 7
REMARK VINA RESULT:    -3.371      4.925      7.601
REMARK INTER + INTRA:          -5.198
REMARK INTER:                  -4.830
REMARK INTRA:                  -0.369
REMARK UNBOUND:                -0.251
REMARK SMILES O=C([O-])CCCCCCCC(=O)[O-]
REMARK SMILES IDX 7 1 6 2 5 3 4 4 2 5 1 6 3 7 8 8 9 9 10 10 11 11 12 12 13 13
REMARK H PARENT
REMARK Flexibility Score: inf
ROOT
ATOM      1  C   UNL     1      -2.057  14.668  11.661  1.00  0.00     0.000 C 
ENDROOT
BRANCH   1   2
ATOM      2  C   UNL     1      -1.819  16.155  11.357  1.00  0.00     0.000 C 
BRANCH   2   3
ATOM      3  C   UNL     1      -1.644  17.000  12.632  1.00  0.00     0.006 C 
BRANCH   3   4
ATOM      4  C   UNL     1      -2.541  18.244  12.629  1.00  0.00     0.053 C 
BRANCH   4   5
ATOM      5  C   UNL     1      -3.689  18.105  13.581  1.00  0.00     0.041 C 
ATOM      6  O   UNL     1      -4.593  18.980  13.616  1.00  0.00    -0.550 OA
ATOM      7  O   UNL     1      -3.741  17.027  14.456  1.00  0.00    -0.550 OA
ENDBRANCH   4   5
ENDBRANCH   3   4
ENDBRANCH   2   3
ENDBRANCH   1   2
BRANCH   1   8
ATOM      8  C   UNL     1      -2.701  13.919  10.484  1.00  0.00     0.000 C 
BRANCH   8   9
ATOM      9  C   UNL     1      -3.113  12.498  10.897  1.00  0.00     0.006 C 
BRANCH   9  10
ATOM     10  C   UNL     1      -3.105  12.311  12.420  1.00  0.00     0.053 C 
BRANCH  10  11
ATOM     11  C   UNL     1      -4.430  11.828  12.926  1.00  0.00     0.041 C 
ATOM     12  O   UNL     1      -5.334  11.494  12.116  1.00  0.00    -0.550 OA
ATOM     13  O   UNL     1      -4.654  11.717  14.293  1.00  0.00    -0.550 OA
ENDBRANCH  10  11
ENDBRANCH   9  10
ENDBRANCH   8   9
ENDBRANCH   1   8
TORSDOF 8
ENDMDL
MODEL 8
REMARK VINA RESULT:    -3.246      4.674      9.863
REMARK INTER + INTRA:          -5.015
REMARK INTER:                  -4.656
REMARK INTRA:                  -0.359
REMARK UNBOUND:                -0.251
REMARK SMILES O=C([O-])CCCCCCCC(=O)[O-]
REMARK SMILES IDX 7 1 6 2 5 3 4 4 2 5 1 6 3 7 8 8 9 9 10 10 11 11 12 12 13 13
REMARK H PARENT
REMARK Flexibility Score: inf
ROOT
ATOM      1  C   UNL     1      -0.832  15.179  11.640  1.00  0.00     0.000 C 
ENDROOT
BRANCH   1   2
ATOM      2  C   UNL     1      -2.118  14.362  11.845  1.00  0.00     0.000 C 
BRANCH   2   3
ATOM      3  C   UNL     1      -2.651  13.757  10.534  1.00  0.00     0.006 C 
BRANCH   3   4
ATOM      4  C   UNL     1      -2.440  12.239  10.469  1.00  0.00     0.053 C 
BRANCH   4   5
ATOM      5  C   UNL     1      -1.386  11.867   9.473  1.00  0.00     0.041 C 
ATOM      6  O   UNL     1      -0.185  11.750   9.834  1.00  0.00    -0.550 OA
ATOM      7  O   UNL     1      -1.722  11.686   8.137  1.00  0.00    -0.550 OA
ENDBRANCH   4   5
ENDBRANCH   3   4
ENDBRANCH   2   3
ENDBRANCH   1   2
BRANCH   1   8
ATOM      8  C   UNL     1      -0.892  16.556  12.317  1.00  0.00     0.000 C 
BRANCH   8   9
ATOM      9  C   UNL     1      -2.148  16.684  13.192  1.00  0.00     0.006 C 
BRANCH   9  10
ATOM     10  C   UNL     1      -2.878  18.015  12.969  1.00  0.00     0.053 C 
BRANCH  10  11
ATOM     11  C   UNL     1      -4.048  18.167  13.893  1.00  0.00     0.041 C 
ATOM     12  O   UNL     1      -4.296  17.281  14.753  1.00  0.00    -0.550 OA
ATOM     13  O   UNL     1      -4.845  19.303  13.825  1.00  0.00    -0.550 OA
ENDBRANCH  10  11
ENDBRANCH   9  10
ENDBRANCH   8   9
ENDBRANCH   1   8
TORSDOF 8
ENDMDL
MODEL 9
REMARK VINA RESULT:    -3.164      2.222      3.430
REMARK INTER + INTRA:          -4.895
REMARK INTER:                  -4.692
REMARK INTRA:                  -0.202
REMARK UNBOUND:                -0.251
REMARK SMILES O=C([O-])CCCCCCCC(=O)[O-]
REMARK SMILES IDX 7 1 6 2 5 3 4 4 2 5 1 6 3 7 8 8 9 9 10 10 11 11 12 12 13 13
REMARK H PARENT
REMARK Flexibility Score: inf
ROOT
ATOM      1  C   UNL     1      -8.160  22.979  14.100  1.00  0.00     0.000 C 
ENDROOT
BRANCH   1   2
ATOM      2  C   UNL     1      -9.032  24.231  14.281  1.00  0.00     0.000 C 
BRANCH   2   3
ATOM      3  C   UNL     1      -8.502  25.442  13.490  1.00  0.00     0.006 C 
BRANCH   3   4
ATOM      4  C   UNL     1      -8.481  26.721  14.335  1.00  0.00     0.053 C 
BRANCH   4   5
ATOM      5  C   UNL     1      -8.664  27.946  13.493  1.00  0.00     0.041 C 
ATOM      6  O   UNL     1      -9.723  28.110  12.833  1.00  0.00    -0.550 OA
ATOM      7  O   UNL     1      -7.648  28.890  13.408  1.00  0.00    -0.550 OA
ENDBRANCH   4   5
ENDBRANCH   3   4
ENDBRANCH   2   3
ENDBRANCH   1   2
BRANCH   1   8
ATOM      8  C   UNL     1      -8.871  21.694  14.551  1.00  0.00     0.000 C 
BRANCH   8   9
ATOM      9  C   UNL     1      -7.865  20.680  15.116  1.00  0.00     0.006 C 
BRANCH   9  10
ATOM     10  C   UNL     1      -6.514  20.737  14.392  1.00  0.00     0.053 C 
BRANCH  10  11
ATOM     11  C   UNL     1      -5.748  19.459  14.545  1.00  0.00     0.041 C 
ATOM     12  O   UNL     1      -6.272  18.471  15.125  1.00  0.00    -0.550 OA
ATOM     13  O   UNL     1      -4.467  19.348  14.019  1.00  0.00    -0.550 OA
ENDBRANCH  10  11
ENDBRANCH   9  10
ENDBRANCH   8   9
ENDBRANCH   1   8
TORSDOF 8
ENDMDL
