MODEL 1
REMARK VINA RESULT:     1.289      0.000      0.000
REMARK INTER + INTRA:           1.405
REMARK INTER:                   1.891
REMARK INTRA:                  -0.486
REMARK UNBOUND:                -0.486
REMARK SMILES Cc1cc2c(C(C)C)c(O)c(O)c(C=O)c2c(O)c1-c1c(C)cc2c(C(C)C)c(O)c(O)c(C=O)c2c1O
REMARK SMILES IDX 1 1 2 2 3 3 4 4 16 5 13 6 11 7 9 8 5 9 17 10 19 11 20 12
REMARK SMILES IDX 37 13 21 14 36 15 23 16 22 17 24 18 33 19 25 20 31 21 29 22
REMARK SMILES IDX 38 23 34 25 35 26 26 27 27 28 28 29 32 30 30 32 18 34 6 36
REMARK SMILES IDX 7 37 8 38 14 39 15 40 10 41 12 43
REMARK H PARENT 38 24 32 31 30 33 18 35 10 42 12 44
REMARK Flexibility Score: inf
ROOT
ATOM      1  C   UNL     1      19.664  13.134   2.434  1.00  0.00     0.045 C 
ATOM      2  C   UNL     1      19.444  11.917   1.569  1.00  0.00    -0.039 A 
ATOM      3  C   UNL     1      19.984  10.693   1.960  1.00  0.00     0.013 A 
ATOM      4  C   UNL     1      19.792   9.515   1.211  1.00  0.00    -0.006 A 
ATOM      5  C   UNL     1      19.104   9.602  -0.040  1.00  0.00     0.039 A 
ATOM      6  C   UNL     1      19.007   8.434  -0.855  1.00  0.00     0.072 A 
ATOM      7  C   UNL     1      19.656   7.249  -0.460  1.00  0.00     0.169 A 
ATOM      8  C   UNL     1      20.332   7.177   0.755  1.00  0.00     0.162 A 
ATOM      9  C   UNL     1      20.302   8.258   1.668  1.00  0.00     0.008 A 
ATOM     10  C   UNL     1      18.566  10.863  -0.446  1.00  0.00     0.132 A 
ATOM     11  C   UNL     1      18.724  12.005   0.369  1.00  0.00     0.031 A 
ENDROOT
BRANCH  11  12
ATOM     12  C   UNL     1      18.157  13.313  -0.051  1.00  0.00     0.031 A 
ATOM     13  C   UNL     1      16.762  13.526  -0.011  1.00  0.00     0.132 A 
ATOM     14  C   UNL     1      19.011  14.329  -0.508  1.00  0.00    -0.039 A 
ATOM     15  C   UNL     1      16.211  14.796  -0.369  1.00  0.00     0.039 A 
ATOM     16  C   UNL     1      18.473  15.550  -0.913  1.00  0.00     0.013 A 
ATOM     17  C   UNL     1      20.498  14.100  -0.642  1.00  0.00     0.045 C 
ATOM     18  C   UNL     1      17.094  15.835  -0.799  1.00  0.00    -0.006 A 
ATOM     19  C   UNL     1      14.805  15.049  -0.355  1.00  0.00     0.072 A 
ATOM     20  C   UNL     1      16.578  17.122  -1.144  1.00  0.00     0.008 A 
ATOM     21  C   UNL     1      14.306  16.275  -0.842  1.00  0.00     0.169 A 
ATOM     22  C   UNL     1      15.182  17.276  -1.274  1.00  0.00     0.162 A 
BRANCH  13  23
ATOM     23  O   UNL     1      15.925  12.469   0.363  1.00  0.00    -0.507 OA
ATOM     24  H   UNL     1      15.180  12.103  -0.216  1.00  0.00     0.293 HD
ENDBRANCH  13  23
BRANCH  19  25
ATOM     25  C   UNL     1      13.840  14.061   0.167  1.00  0.00     0.264 C 
ATOM     26  O   UNL     1      13.278  13.241  -0.606  1.00  0.00    -0.298 OA
ENDBRANCH  19  25
BRANCH  20  27
ATOM     27  C   UNL     1      17.503  18.328  -1.394  1.00  0.00     0.017 C 
ATOM     28  C   UNL     1      17.782  19.080  -0.089  1.00  0.00     0.012 C 
ATOM     29  C   UNL     1      18.813  17.969  -2.124  1.00  0.00     0.012 C 
ENDBRANCH  20  27
BRANCH  21  30
ATOM     30  O   UNL     1      12.934  16.549  -0.878  1.00  0.00    -0.504 OA
ATOM     31  H   UNL     1      12.427  16.809  -1.712  1.00  0.00     0.293 HD
ENDBRANCH  21  30
BRANCH  22  32
ATOM     32  O   UNL     1      14.659  18.446  -1.831  1.00  0.00    -0.504 OA
ATOM     33  H   UNL     1      14.997  19.370  -1.594  1.00  0.00     0.293 HD
ENDBRANCH  22  32
ENDBRANCH  11  12
BRANCH  10  34
ATOM     34  O   UNL     1      17.885  10.987  -1.662  1.00  0.00    -0.507 OA
ATOM     35  H   UNL     1      18.340  11.030  -2.565  1.00  0.00     0.293 HD
ENDBRANCH  10  34
BRANCH   9  36
ATOM     36  C   UNL     1      20.734   7.990   3.124  1.00  0.00     0.017 C 
ATOM     37  C   UNL     1      22.260   7.909   3.336  1.00  0.00     0.012 C 
ATOM     38  C   UNL     1      19.984   6.805   3.749  1.00  0.00     0.012 C 
ENDBRANCH   9  36
BRANCH   6  39
ATOM     39  C   UNL     1      18.250   8.423  -2.123  1.00  0.00     0.264 C 
ATOM     40  O   UNL     1      17.004   8.242  -2.124  1.00  0.00    -0.298 OA
ENDBRANCH   6  39
BRANCH   8  41
ATOM     41  O   UNL     1      21.031   5.993   1.021  1.00  0.00    -0.504 OA
ATOM     42  H   UNL     1      21.993   5.962   1.330  1.00  0.00     0.293 HD
ENDBRANCH   8  41
BRANCH   7  43
ATOM     43  O   UNL     1      19.633   6.092  -1.248  1.00  0.00    -0.504 OA
ATOM     44  H   UNL     1      20.382   5.413  -1.282  1.00  0.00     0.293 HD
ENDBRANCH   7  43
TORSDOF 11
ENDMDL
MODEL 2
REMARK VINA RESULT:     2.491      2.601      4.124
REMARK INTER + INTRA:           3.169
REMARK INTER:                  -0.957
REMARK INTRA:                   4.127
REMARK UNBOUND:                -0.486
REMARK SMILES Cc1cc2c(C(C)C)c(O)c(O)c(C=O)c2c(O)c1-c1c(C)cc2c(C(C)C)c(O)c(O)c(C=O)c2c1O
REMARK SMILES IDX 1 1 2 2 3 3 4 4 16 5 13 6 11 7 9 8 5 9 17 10 19 11 20 12
REMARK SMILES IDX 37 13 21 14 36 15 23 16 22 17 24 18 33 19 25 20 31 21 29 22
REMARK SMILES IDX 38 23 34 25 35 26 26 27 27 28 28 29 32 30 30 32 18 34 6 36
REMARK SMILES IDX 7 37 8 38 14 39 15 40 10 41 12 43
REMARK H PARENT 38 24 32 31 30 33 18 35 10 42 12 44
REMARK Flexibility Score: inf
ROOT
ATOM      1  C   UNL     1      19.908  14.581  -2.124  1.00  0.00     0.045 C 
ATOM      2  C   UNL     1      19.949  13.124  -1.732  1.00  0.00    -0.039 A 
ATOM      3  C   UNL     1      21.109  12.385  -1.962  1.00  0.00     0.013 A 
ATOM      4  C   UNL     1      21.220  11.030  -1.595  1.00  0.00    -0.006 A 
ATOM      5  C   UNL     1      20.072  10.368  -1.059  1.00  0.00     0.039 A 
ATOM      6  C   UNL     1      20.146   8.968  -0.791  1.00  0.00     0.072 A 
ATOM      7  C   UNL     1      21.308   8.250  -1.135  1.00  0.00     0.169 A 
ATOM      8  C   UNL     1      22.417   8.902  -1.667  1.00  0.00     0.162 A 
ATOM      9  C   UNL     1      22.445  10.313  -1.782  1.00  0.00     0.008 A 
ATOM     10  C   UNL     1      18.878  11.124  -0.839  1.00  0.00     0.132 A 
ATOM     11  C   UNL     1      18.832  12.498  -1.159  1.00  0.00     0.031 A 
ENDROOT
BRANCH  11  12
ATOM     12  C   UNL     1      17.593  13.285  -0.923  1.00  0.00     0.031 A 
ATOM     13  C   UNL     1      17.648  14.490  -0.191  1.00  0.00     0.132 A 
ATOM     14  C   UNL     1      16.364  12.815  -1.412  1.00  0.00    -0.039 A 
ATOM     15  C   UNL     1      16.470  15.277   0.002  1.00  0.00     0.039 A 
ATOM     16  C   UNL     1      15.203  13.550  -1.176  1.00  0.00     0.013 A 
ATOM     17  C   UNL     1      16.262  11.487  -2.125  1.00  0.00     0.045 C 
ATOM     18  C   UNL     1      15.231  14.806  -0.531  1.00  0.00    -0.006 A 
ATOM     19  C   UNL     1      16.481  16.496   0.749  1.00  0.00     0.072 A 
ATOM     20  C   UNL     1      14.038  15.577  -0.373  1.00  0.00     0.008 A 
ATOM     21  C   UNL     1      15.268  17.164   1.020  1.00  0.00     0.169 A 
ATOM     22  C   UNL     1      14.062  16.682   0.504  1.00  0.00     0.162 A 
BRANCH  13  23
ATOM     23  O   UNL     1      18.869  14.892   0.363  1.00  0.00    -0.507 OA
ATOM     24  H   UNL     1      19.070  14.893   1.355  1.00  0.00     0.293 HD
ENDBRANCH  13  23
BRANCH  19  25
ATOM     25  C   UNL     1      17.735  17.095   1.247  1.00  0.00     0.264 C 
ATOM     26  O   UNL     1      17.976  18.318   1.073  1.00  0.00    -0.298 OA
ENDBRANCH  19  25
BRANCH  20  27
ATOM     27  C   UNL     1      12.737  15.224  -1.118  1.00  0.00     0.017 C 
ATOM     28  C   UNL     1      12.371  16.319  -2.125  1.00  0.00     0.012 C 
ATOM     29  C   UNL     1      12.758  13.835  -1.785  1.00  0.00     0.012 C 
ENDBRANCH  20  27
BRANCH  21  30
ATOM     30  O   UNL     1      15.231  18.342   1.776  1.00  0.00    -0.504 OA
ATOM     31  H   UNL     1      15.474  18.397   2.755  1.00  0.00     0.293 HD
ENDBRANCH  21  30
BRANCH  22  32
ATOM     32  O   UNL     1      12.867  17.314   0.859  1.00  0.00    -0.504 OA
ATOM     33  H   UNL     1      11.983  16.826   0.929  1.00  0.00     0.293 HD
ENDBRANCH  22  32
ENDBRANCH  11  12
BRANCH  10  34
ATOM     34  O   UNL     1      17.735  10.511  -0.314  1.00  0.00    -0.507 OA
ATOM     35  H   UNL     1      16.876  11.002  -0.100  1.00  0.00     0.293 HD
ENDBRANCH  10  34
BRANCH   9  36
ATOM     36  C   UNL     1      23.808  10.995  -2.013  1.00  0.00     0.017 C 
ATOM     37  C   UNL     1      24.933  10.517  -1.070  1.00  0.00     0.012 C 
ATOM     38  C   UNL     1      23.696  12.524  -2.077  1.00  0.00     0.012 C 
ENDBRANCH   9  36
BRANCH   6  39
ATOM     39  C   UNL     1      19.031   8.227  -0.168  1.00  0.00     0.264 C 
ATOM     40  O   UNL     1      19.242   7.431   0.785  1.00  0.00    -0.298 OA
ENDBRANCH   6  39
BRANCH   8  41
ATOM     41  O   UNL     1      23.490   8.098  -2.071  1.00  0.00    -0.504 OA
ATOM     42  H   UNL     1      24.442   8.224  -1.753  1.00  0.00     0.293 HD
ENDBRANCH   8  41
BRANCH   7  43
ATOM     43  O   UNL     1      21.412   6.867  -0.940  1.00  0.00    -0.504 OA
ATOM     44  H   UNL     1      21.249   6.179  -1.662  1.00  0.00     0.293 HD
ENDBRANCH   7  43
TORSDOF 11
ENDMDL
MODEL 3
REMARK VINA RESULT:     3.170      6.152      9.691
REMARK INTER + INTRA:           4.167
REMARK INTER:                   3.216
REMARK INTRA:                   0.950
REMARK UNBOUND:                -0.486
REMARK SMILES Cc1cc2c(C(C)C)c(O)c(O)c(C=O)c2c(O)c1-c1c(C)cc2c(C(C)C)c(O)c(O)c(C=O)c2c1O
REMARK SMILES IDX 1 1 2 2 3 3 4 4 16 5 13 6 11 7 9 8 5 9 17 10 19 11 20 12
REMARK SMILES IDX 37 13 21 14 36 15 23 16 22 17 24 18 33 19 25 20 31 21 29 22
REMARK SMILES IDX 38 23 34 25 35 26 26 27 27 28 28 29 32 30 30 32 18 34 6 36
REMARK SMILES IDX 7 37 8 38 14 39 15 40 10 41 12 43
REMARK H PARENT 38 24 32 31 30 33 18 35 10 42 12 44
REMARK Flexibility Score: inf
ROOT
ATOM      1  C   UNL     1      17.493  14.079   6.388  1.00  0.00     0.045 C 
ATOM      2  C   UNL     1      18.146  14.236   5.036  1.00  0.00    -0.039 A 
ATOM      3  C   UNL     1      17.372  14.111   3.883  1.00  0.00     0.013 A 
ATOM      4  C   UNL     1      17.916  14.273   2.594  1.00  0.00    -0.006 A 
ATOM      5  C   UNL     1      19.325  14.477   2.464  1.00  0.00     0.039 A 
ATOM      6  C   UNL     1      19.897  14.528   1.157  1.00  0.00     0.072 A 
ATOM      7  C   UNL     1      19.086  14.295   0.029  1.00  0.00     0.169 A 
ATOM      8  C   UNL     1      17.717  14.088   0.167  1.00  0.00     0.162 A 
ATOM      9  C   UNL     1      17.087  14.204   1.429  1.00  0.00     0.008 A 
ATOM     10  C   UNL     1      20.119  14.589   3.649  1.00  0.00     0.132 A 
ATOM     11  C   UNL     1      19.521  14.487   4.923  1.00  0.00     0.031 A 
ENDROOT
BRANCH  11  12
ATOM     12  C   UNL     1      20.346  14.611   6.154  1.00  0.00     0.031 A 
ATOM     13  C   UNL     1      20.444  13.528   7.053  1.00  0.00     0.132 A 
ATOM     14  C   UNL     1      21.008  15.818   6.431  1.00  0.00    -0.039 A 
ATOM     15  C   UNL     1      21.271  13.623   8.215  1.00  0.00     0.039 A 
ATOM     16  C   UNL     1      21.770  15.934   7.593  1.00  0.00     0.013 A 
ATOM     17  C   UNL     1      20.852  17.021   5.530  1.00  0.00     0.045 C 
ATOM     18  C   UNL     1      21.970  14.843   8.468  1.00  0.00    -0.006 A 
ATOM     19  C   UNL     1      21.388  12.554   9.157  1.00  0.00     0.072 A 
ATOM     20  C   UNL     1      22.821  14.965   9.610  1.00  0.00     0.008 A 
ATOM     21  C   UNL     1      22.113  12.747  10.352  1.00  0.00     0.169 A 
ATOM     22  C   UNL     1      22.778  13.952  10.592  1.00  0.00     0.162 A 
BRANCH  13  23
ATOM     23  O   UNL     1      19.703  12.368   6.801  1.00  0.00    -0.507 OA
ATOM     24  H   UNL     1      18.780  12.363   6.388  1.00  0.00     0.293 HD
ENDBRANCH  13  23
BRANCH  19  25
ATOM     25  C   UNL     1      20.776  11.232   8.917  1.00  0.00     0.264 C 
ATOM     26  O   UNL     1      19.559  11.033   9.169  1.00  0.00    -0.298 OA
ENDBRANCH  19  25
BRANCH  20  27
ATOM     27  C   UNL     1      23.760  16.170   9.799  1.00  0.00     0.017 C 
ATOM     28  C   UNL     1      23.690  16.696  11.237  1.00  0.00     0.012 C 
ATOM     29  C   UNL     1      25.217  15.898   9.374  1.00  0.00     0.012 C 
ENDBRANCH  20  27
BRANCH  21  30
ATOM     30  O   UNL     1      22.223  11.737  11.316  1.00  0.00    -0.504 OA
ATOM     31  H   UNL     1      23.090  11.460  11.754  1.00  0.00     0.293 HD
ENDBRANCH  21  30
BRANCH  22  32
ATOM     32  O   UNL     1      23.415  14.147  11.820  1.00  0.00    -0.504 OA
ATOM     33  H   UNL     1      24.417  14.265  11.911  1.00  0.00     0.293 HD
ENDBRANCH  22  32
ENDBRANCH  11  12
BRANCH  10  34
ATOM     34  O   UNL     1      21.501  14.790   3.562  1.00  0.00    -0.507 OA
ATOM     35  H   UNL     1      21.940  15.701   3.528  1.00  0.00     0.293 HD
ENDBRANCH  10  34
BRANCH   9  36
ATOM     36  C   UNL     1      15.551  14.340   1.463  1.00  0.00     0.017 C 
ATOM     37  C   UNL     1      14.790  13.217   0.728  1.00  0.00     0.012 C 
ATOM     38  C   UNL     1      15.078  15.743   1.057  1.00  0.00     0.012 C 
ENDBRANCH   9  36
BRANCH   6  39
ATOM     39  C   UNL     1      21.330  14.809   0.937  1.00  0.00     0.264 C 
ATOM     40  O   UNL     1      22.118  13.890   0.592  1.00  0.00    -0.298 OA
ENDBRANCH   6  39
BRANCH   8  41
ATOM     41  O   UNL     1      17.006  13.767  -0.997  1.00  0.00    -0.504 OA
ATOM     42  H   UNL     1      16.666  12.839  -1.213  1.00  0.00     0.293 HD
ENDBRANCH   8  41
BRANCH   7  43
ATOM     43  O   UNL     1      19.608  14.285  -1.270  1.00  0.00    -0.504 OA
ATOM     44  H   UNL     1      20.558  14.024  -1.498  1.00  0.00     0.293 HD
ENDBRANCH   7  43
TORSDOF 11
ENDMDL
MODEL 4
REMARK VINA RESULT:     3.868      6.029      8.413
REMARK INTER + INTRA:           5.190
REMARK INTER:                   3.956
REMARK INTRA:                   1.235
REMARK UNBOUND:                -0.486
REMARK SMILES Cc1cc2c(C(C)C)c(O)c(O)c(C=O)c2c(O)c1-c1c(C)cc2c(C(C)C)c(O)c(O)c(C=O)c2c1O
REMARK SMILES IDX 1 1 2 2 3 3 4 4 16 5 13 6 11 7 9 8 5 9 17 10 19 11 20 12
REMARK SMILES IDX 37 13 21 14 36 15 23 16 22 17 24 18 33 19 25 20 31 21 29 22
REMARK SMILES IDX 38 23 34 25 35 26 26 27 27 28 28 29 32 30 30 32 18 34 6 36
REMARK SMILES IDX 7 37 8 38 14 39 15 40 10 41 12 43
REMARK H PARENT 38 24 32 31 30 33 18 35 10 42 12 44
REMARK Flexibility Score: inf
ROOT
ATOM      1  C   UNL     1      20.806  16.973   5.321  1.00  0.00     0.045 C 
ATOM      2  C   UNL     1      20.846  15.802   6.273  1.00  0.00    -0.039 A 
ATOM      3  C   UNL     1      21.565  15.911   7.463  1.00  0.00     0.013 A 
ATOM      4  C   UNL     1      21.619  14.866   8.405  1.00  0.00    -0.006 A 
ATOM      5  C   UNL     1      20.996  13.619   8.083  1.00  0.00     0.039 A 
ATOM      6  C   UNL     1      21.145  12.521   8.983  1.00  0.00     0.072 A 
ATOM      7  C   UNL     1      21.965  12.656  10.121  1.00  0.00     0.169 A 
ATOM      8  C   UNL     1      22.576  13.870  10.419  1.00  0.00     0.162 A 
ATOM      9  C   UNL     1      22.310  15.027   9.648  1.00  0.00     0.008 A 
ATOM     10  C   UNL     1      20.273  13.505   6.854  1.00  0.00     0.132 A 
ATOM     11  C   UNL     1      20.188  14.602   5.970  1.00  0.00     0.031 A 
ENDROOT
BRANCH  11  12
ATOM     12  C   UNL     1      19.429  14.484   4.696  1.00  0.00     0.031 A 
ATOM     13  C   UNL     1      20.103  14.575   3.459  1.00  0.00     0.132 A 
ATOM     14  C   UNL     1      18.038  14.305   4.728  1.00  0.00    -0.039 A 
ATOM     15  C   UNL     1      19.389  14.418   2.231  1.00  0.00     0.039 A 
ATOM     16  C   UNL     1      17.329  14.209   3.531  1.00  0.00     0.013 A 
ATOM     17  C   UNL     1      17.280  14.290   6.034  1.00  0.00     0.045 C 
ATOM     18  C   UNL     1      17.977  14.200   2.276  1.00  0.00    -0.006 A 
ATOM     19  C   UNL     1      20.031  14.516   0.958  1.00  0.00     0.072 A 
ATOM     20  C   UNL     1      17.237  14.019   1.068  1.00  0.00     0.008 A 
ATOM     21  C   UNL     1      19.259  14.484  -0.223  1.00  0.00     0.169 A 
ATOM     22  C   UNL     1      17.877  14.286  -0.162  1.00  0.00     0.162 A 
BRANCH  13  23
ATOM     23  O   UNL     1      21.477  14.844   3.453  1.00  0.00    -0.507 OA
ATOM     24  H   UNL     1      22.127  14.461   2.779  1.00  0.00     0.293 HD
ENDBRANCH  13  23
BRANCH  19  25
ATOM     25  C   UNL     1      21.496  14.644   0.831  1.00  0.00     0.264 C 
ATOM     26  O   UNL     1      22.209  13.638   0.573  1.00  0.00    -0.298 OA
ENDBRANCH  19  25
BRANCH  20  27
ATOM     27  C   UNL     1      15.766  13.561   1.076  1.00  0.00     0.017 C 
ATOM     28  C   UNL     1      14.820  14.765   1.100  1.00  0.00     0.012 C 
ATOM     29  C   UNL     1      15.408  12.592  -0.068  1.00  0.00     0.012 C 
ENDBRANCH  20  27
BRANCH  21  30
ATOM     30  O   UNL     1      19.845  14.612  -1.488  1.00  0.00    -0.504 OA
ATOM     31  H   UNL     1      20.838  14.709  -1.648  1.00  0.00     0.293 HD
ENDBRANCH  21  30
BRANCH  22  32
ATOM     32  O   UNL     1      17.127  14.344  -1.339  1.00  0.00    -0.504 OA
ATOM     33  H   UNL     1      16.373  15.005  -1.482  1.00  0.00     0.293 HD
ENDBRANCH  22  32
ENDBRANCH  11  12
BRANCH  10  34
ATOM     34  O   UNL     1      19.649  12.302   6.506  1.00  0.00    -0.507 OA
ATOM     35  H   UNL     1      19.455  11.554   7.159  1.00  0.00     0.293 HD
ENDBRANCH  10  34
BRANCH   9  36
ATOM     36  C   UNL     1      22.702  16.397  10.237  1.00  0.00     0.017 C 
ATOM     37  C   UNL     1      23.747  16.334  11.370  1.00  0.00     0.012 C 
ATOM     38  C   UNL     1      21.478  17.248  10.604  1.00  0.00     0.012 C 
ENDBRANCH   9  36
BRANCH   6  39
ATOM     39  C   UNL     1      20.472  11.226   8.760  1.00  0.00     0.264 C 
ATOM     40  O   UNL     1      19.282  11.050   9.131  1.00  0.00    -0.298 OA
ENDBRANCH   6  39
BRANCH   8  41
ATOM     41  O   UNL     1      23.451  13.886  11.513  1.00  0.00    -0.504 OA
ATOM     42  H   UNL     1      24.444  13.708  11.444  1.00  0.00     0.293 HD
ENDBRANCH   8  41
BRANCH   7  43
ATOM     43  O   UNL     1      22.184  11.594  11.007  1.00  0.00    -0.504 OA
ATOM     44  H   UNL     1      21.446  11.084  11.473  1.00  0.00     0.293 HD
ENDBRANCH   7  43
TORSDOF 11
ENDMDL
