MODEL 1
REMARK VINA RESULT:    -3.724      0.000      0.000
REMARK INTER + INTRA:          -6.058
REMARK INTER:                  -5.465
REMARK INTRA:                  -0.592
REMARK UNBOUND:                -0.592
REMARK SMILES O=C([O-])CCCCCCCC(=O)[O-]
REMARK SMILES IDX 7 1 6 2 5 3 4 4 2 5 1 6 3 7 8 8 9 9 10 10 11 11 12 12 13 13
REMARK H PARENT
REMARK Flexibility Score: inf
ROOT
ATOM      1  C   UNL     1      22.186  -0.213  41.651  1.00  0.00     0.000 C 
ENDROOT
BRANCH   1   2
ATOM      2  C   UNL     1      22.190  -0.422  40.126  1.00  0.00     0.000 C 
BRANCH   2   3
ATOM      3  C   UNL     1      22.177  -1.906  39.727  1.00  0.00     0.006 C 
BRANCH   3   4
ATOM      4  C   UNL     1      23.494  -2.612  40.076  1.00  0.00     0.053 C 
BRANCH   4   5
ATOM      5  C   UNL     1      24.279  -2.962  38.850  1.00  0.00     0.041 C 
ATOM      6  O   UNL     1      24.473  -2.101  37.952  1.00  0.00    -0.550 OA
ATOM      7  O   UNL     1      24.821  -4.234  38.710  1.00  0.00    -0.550 OA
ENDBRANCH   4   5
ENDBRANCH   3   4
ENDBRANCH   2   3
ENDBRANCH   1   2
BRANCH   1   8
ATOM      8  C   UNL     1      20.877  -0.609  42.362  1.00  0.00     0.000 C 
BRANCH   8   9
ATOM      9  C   UNL     1      20.921  -1.955  43.113  1.00  0.00     0.006 C 
BRANCH   9  10
ATOM     10  C   UNL     1      22.318  -2.360  43.607  1.00  0.00     0.053 C 
BRANCH  10  11
ATOM     11  C   UNL     1      22.414  -2.326  45.101  1.00  0.00     0.041 C 
ATOM     12  O   UNL     1      23.523  -2.505  45.671  1.00  0.00    -0.550 OA
ATOM     13  O   UNL     1      21.271  -2.128  45.867  1.00  0.00    -0.550 OA
ENDBRANCH  10  11
ENDBRANCH   9  10
ENDBRANCH   8   9
ENDBRANCH   1   8
TORSDOF 8
ENDMDL
MODEL 2
REMARK VINA RESULT:    -3.687      0.352      5.701
REMARK INTER + INTRA:          -6.003
REMARK INTER:                  -5.484
REMARK INTRA:                  -0.519
REMARK UNBOUND:                -0.592
REMARK SMILES O=C([O-])CCCCCCCC(=O)[O-]
REMARK SMILES IDX 7 1 6 2 5 3 4 4 2 5 1 6 3 7 8 8 9 9 10 10 11 11 12 12 13 13
REMARK H PARENT
REMARK Flexibility Score: inf
ROOT
ATOM      1  C   UNL     1      21.886  -0.083  41.681  1.00  0.00     0.000 C 
ENDROOT
BRANCH   1   2
ATOM      2  C   UNL     1      20.665  -0.867  42.196  1.00  0.00     0.000 C 
BRANCH   2   3
ATOM      3  C   UNL     1      20.815  -1.311  43.660  1.00  0.00     0.006 C 
BRANCH   3   4
ATOM      4  C   UNL     1      21.941  -2.338  43.842  1.00  0.00     0.053 C 
BRANCH   4   5
ATOM      5  C   UNL     1      22.383  -2.430  45.270  1.00  0.00     0.041 C 
ATOM      6  O   UNL     1      23.608  -2.505  45.552  1.00  0.00    -0.550 OA
ATOM      7  O   UNL     1      21.443  -2.406  46.292  1.00  0.00    -0.550 OA
ENDBRANCH   4   5
ENDBRANCH   3   4
ENDBRANCH   2   3
ENDBRANCH   1   2
BRANCH   1   8
ATOM      8  C   UNL     1      22.302  -0.397  40.231  1.00  0.00     0.000 C 
BRANCH   8   9
ATOM      9  C   UNL     1      22.237  -1.887  39.838  1.00  0.00     0.006 C 
BRANCH   9  10
ATOM     10  C   UNL     1      23.531  -2.670  40.109  1.00  0.00     0.053 C 
BRANCH  10  11
ATOM     11  C   UNL     1      24.261  -2.998  38.843  1.00  0.00     0.041 C 
ATOM     12  O   UNL     1      24.487  -2.099  37.990  1.00  0.00    -0.550 OA
ATOM     13  O   UNL     1      24.663  -4.303  38.589  1.00  0.00    -0.550 OA
ENDBRANCH  10  11
ENDBRANCH   9  10
ENDBRANCH   8   9
ENDBRANCH   1   8
TORSDOF 8
ENDMDL
MODEL 3
REMARK VINA RESULT:    -3.645     13.517     16.473
REMARK INTER + INTRA:          -5.942
REMARK INTER:                  -5.459
REMARK INTRA:                  -0.484
REMARK UNBOUND:                -0.592
REMARK SMILES O=C([O-])CCCCCCCC(=O)[O-]
REMARK SMILES IDX 7 1 6 2 5 3 4 4 2 5 1 6 3 7 8 8 9 9 10 10 11 11 12 12 13 13
REMARK H PARENT
REMARK Flexibility Score: inf
ROOT
ATOM      1  C   UNL     1      30.062  -9.425  31.127  1.00  0.00     0.000 C 
ENDROOT
BRANCH   1   2
ATOM      2  C   UNL     1      30.777  -8.063  31.155  1.00  0.00     0.000 C 
BRANCH   2   3
ATOM      3  C   UNL     1      30.384  -7.207  32.370  1.00  0.00     0.006 C 
BRANCH   3   4
ATOM      4  C   UNL     1      31.610  -6.677  33.126  1.00  0.00     0.053 C 
BRANCH   4   5
ATOM      5  C   UNL     1      32.073  -7.639  34.176  1.00  0.00     0.041 C 
ATOM      6  O   UNL     1      31.550  -8.781  34.267  1.00  0.00    -0.550 OA
ATOM      7  O   UNL     1      33.103  -7.284  35.039  1.00  0.00    -0.550 OA
ENDBRANCH   4   5
ENDBRANCH   3   4
ENDBRANCH   2   3
ENDBRANCH   1   2
BRANCH   1   8
ATOM      8  C   UNL     1      30.993 -10.653  31.117  1.00  0.00     0.000 C 
BRANCH   8   9
ATOM      9  C   UNL     1      32.501 -10.333  31.086  1.00  0.00     0.006 C 
BRANCH   9  10
ATOM     10  C   UNL     1      33.255 -10.951  29.899  1.00  0.00     0.053 C 
BRANCH  10  11
ATOM     11  C   UNL     1      34.300 -10.024  29.358  1.00  0.00     0.041 C 
ATOM     12  O   UNL     1      35.206 -10.461  28.600  1.00  0.00    -0.550 OA
ATOM     13  O   UNL     1      34.291  -8.681  29.715  1.00  0.00    -0.550 OA
ENDBRANCH  10  11
ENDBRANCH   9  10
ENDBRANCH   8   9
ENDBRANCH   1   8
TORSDOF 8
ENDMDL
MODEL 4
REMARK VINA RESULT:    -3.508      3.540      5.403
REMARK INTER + INTRA:          -5.741
REMARK INTER:                  -5.390
REMARK INTRA:                  -0.351
REMARK UNBOUND:                -0.592
REMARK SMILES O=C([O-])CCCCCCCC(=O)[O-]
REMARK SMILES IDX 7 1 6 2 5 3 4 4 2 5 1 6 3 7 8 8 9 9 10 10 11 11 12 12 13 13
REMARK H PARENT
REMARK Flexibility Score: inf
ROOT
ATOM      1  C   UNL     1      22.087   0.402  40.507  1.00  0.00     0.000 C 
ENDROOT
BRANCH   1   2
ATOM      2  C   UNL     1      22.153   1.163  41.843  1.00  0.00     0.000 C 
BRANCH   2   3
ATOM      3  C   UNL     1      22.968   2.463  41.750  1.00  0.00     0.006 C 
BRANCH   3   4
ATOM      4  C   UNL     1      22.366   3.586  42.606  1.00  0.00     0.053 C 
BRANCH   4   5
ATOM      5  C   UNL     1      23.253   3.941  43.759  1.00  0.00     0.041 C 
ATOM      6  O   UNL     1      22.758   4.385  44.829  1.00  0.00    -0.550 OA
ATOM      7  O   UNL     1      24.627   3.757  43.663  1.00  0.00    -0.550 OA
ENDBRANCH   4   5
ENDBRANCH   3   4
ENDBRANCH   2   3
ENDBRANCH   1   2
BRANCH   1   8
ATOM      8  C   UNL     1      20.831  -0.469  40.311  1.00  0.00     0.000 C 
BRANCH   8   9
ATOM      9  C   UNL     1      21.001  -1.958  40.679  1.00  0.00     0.006 C 
BRANCH   9  10
ATOM     10  C   UNL     1      21.155  -2.225  42.184  1.00  0.00     0.053 C 
BRANCH  10  11
ATOM     11  C   UNL     1      22.540  -2.674  42.532  1.00  0.00     0.041 C 
ATOM     12  O   UNL     1      22.794  -3.113  43.685  1.00  0.00    -0.550 OA
ATOM     13  O   UNL     1      23.560  -2.577  41.593  1.00  0.00    -0.550 OA
ENDBRANCH  10  11
ENDBRANCH   9  10
ENDBRANCH   8   9
ENDBRANCH   1   8
TORSDOF 8
ENDMDL
MODEL 5
REMARK VINA RESULT:    -3.497     13.464     14.581
REMARK INTER + INTRA:          -5.724
REMARK INTER:                  -5.283
REMARK INTRA:                  -0.441
REMARK UNBOUND:                -0.592
REMARK SMILES O=C([O-])CCCCCCCC(=O)[O-]
REMARK SMILES IDX 7 1 6 2 5 3 4 4 2 5 1 6 3 7 8 8 9 9 10 10 11 11 12 12 13 13
REMARK H PARENT
REMARK Flexibility Score: inf
ROOT
ATOM      1  C   UNL     1      29.383 -10.196  30.571  1.00  0.00     0.000 C 
ENDROOT
BRANCH   1   2
ATOM      2  C   UNL     1      28.079  -9.499  30.998  1.00  0.00     0.000 C 
BRANCH   2   3
ATOM      3  C   UNL     1      26.827 -10.148  30.385  1.00  0.00     0.006 C 
BRANCH   3   4
ATOM      4  C   UNL     1      26.128  -9.222  29.379  1.00  0.00     0.053 C 
BRANCH   4   5
ATOM      5  C   UNL     1      24.919  -8.568  29.973  1.00  0.00     0.041 C 
ATOM      6  O   UNL     1      24.452  -8.974  31.070  1.00  0.00    -0.550 OA
ATOM      7  O   UNL     1      24.323  -7.492  29.328  1.00  0.00    -0.550 OA
ENDBRANCH   4   5
ENDBRANCH   3   4
ENDBRANCH   2   3
ENDBRANCH   1   2
BRANCH   1   8
ATOM      8  C   UNL     1      30.489 -10.229  31.643  1.00  0.00     0.000 C 
BRANCH   8   9
ATOM      9  C   UNL     1      31.772  -9.451  31.286  1.00  0.00     0.006 C 
BRANCH   9  10
ATOM     10  C   UNL     1      31.659  -7.929  31.463  1.00  0.00     0.053 C 
BRANCH  10  11
ATOM     11  C   UNL     1      31.069  -7.563  32.790  1.00  0.00     0.041 C 
ATOM     12  O   UNL     1      29.983  -6.926  32.848  1.00  0.00    -0.550 OA
ATOM     13  O   UNL     1      31.733  -7.898  33.964  1.00  0.00    -0.550 OA
ENDBRANCH  10  11
ENDBRANCH   9  10
ENDBRANCH   8   9
ENDBRANCH   1   8
TORSDOF 8
ENDMDL
MODEL 6
REMARK VINA RESULT:    -3.482      3.764      5.209
REMARK INTER + INTRA:          -5.703
REMARK INTER:                  -5.346
REMARK INTRA:                  -0.358
REMARK UNBOUND:                -0.592
REMARK SMILES O=C([O-])CCCCCCCC(=O)[O-]
REMARK SMILES IDX 7 1 6 2 5 3 4 4 2 5 1 6 3 7 8 8 9 9 10 10 11 11 12 12 13 13
REMARK H PARENT
REMARK Flexibility Score: inf
ROOT
ATOM      1  C   UNL     1      19.956   1.295  44.577  1.00  0.00     0.000 C 
ENDROOT
BRANCH   1   2
ATOM      2  C   UNL     1      19.954   2.743  44.054  1.00  0.00     0.000 C 
BRANCH   2   3
ATOM      3  C   UNL     1      21.274   3.480  44.331  1.00  0.00     0.006 C 
BRANCH   3   4
ATOM      4  C   UNL     1      21.885   4.074  43.055  1.00  0.00     0.053 C 
BRANCH   4   5
ATOM      5  C   UNL     1      22.939   3.181  42.476  1.00  0.00     0.041 C 
ATOM      6  O   UNL     1      24.156   3.395  42.720  1.00  0.00    -0.550 OA
ATOM      7  O   UNL     1      22.576   2.096  41.689  1.00  0.00    -0.550 OA
ENDBRANCH   4   5
ENDBRANCH   3   4
ENDBRANCH   2   3
ENDBRANCH   1   2
BRANCH   1   8
ATOM      8  C   UNL     1      19.923   0.206  43.487  1.00  0.00     0.000 C 
BRANCH   8   9
ATOM      9  C   UNL     1      20.694  -1.086  43.827  1.00  0.00     0.006 C 
BRANCH   9  10
ATOM     10  C   UNL     1      20.969  -1.995  42.620  1.00  0.00     0.053 C 
BRANCH  10  11
ATOM     11  C   UNL     1      22.398  -2.440  42.571  1.00  0.00     0.041 C 
ATOM     12  O   UNL     1      23.162  -2.021  41.661  1.00  0.00    -0.550 OA
ATOM     13  O   UNL     1      22.879  -3.343  43.511  1.00  0.00    -0.550 OA
ENDBRANCH  10  11
ENDBRANCH   9  10
ENDBRANCH   8   9
ENDBRANCH   1   8
TORSDOF 8
ENDMDL
MODEL 7
REMARK VINA RESULT:    -3.458     13.243     14.529
REMARK INTER + INTRA:          -5.668
REMARK INTER:                  -5.398
REMARK INTRA:                  -0.269
REMARK UNBOUND:                -0.592
REMARK SMILES O=C([O-])CCCCCCCC(=O)[O-]
REMARK SMILES IDX 7 1 6 2 5 3 4 4 2 5 1 6 3 7 8 8 9 9 10 10 11 11 12 12 13 13
REMARK H PARENT
REMARK Flexibility Score: inf
ROOT
ATOM      1  C   UNL     1      28.645 -10.451  30.201  1.00  0.00     0.000 C 
ENDROOT
BRANCH   1   2
ATOM      2  C   UNL     1      29.232  -9.459  31.221  1.00  0.00     0.000 C 
BRANCH   2   3
ATOM      3  C   UNL     1      30.769  -9.439  31.217  1.00  0.00     0.006 C 
BRANCH   3   4
ATOM      4  C   UNL     1      31.331  -8.027  31.431  1.00  0.00     0.053 C 
BRANCH   4   5
ATOM      5  C   UNL     1      30.939  -7.469  32.765  1.00  0.00     0.041 C 
ATOM      6  O   UNL     1      30.103  -6.530  32.840  1.00  0.00    -0.550 OA
ATOM      7  O   UNL     1      31.476  -8.006  33.929  1.00  0.00    -0.550 OA
ENDBRANCH   4   5
ENDBRANCH   3   4
ENDBRANCH   2   3
ENDBRANCH   1   2
BRANCH   1   8
ATOM      8  C   UNL     1      27.531  -9.883  29.301  1.00  0.00     0.000 C 
BRANCH   8   9
ATOM      9  C   UNL     1      26.228  -9.500  30.032  1.00  0.00     0.006 C 
BRANCH   9  10
ATOM     10  C   UNL     1      25.179  -8.817  29.141  1.00  0.00     0.053 C 
BRANCH  10  11
ATOM     11  C   UNL     1      24.290  -7.901  29.926  1.00  0.00     0.041 C 
ATOM     12  O   UNL     1      23.720  -8.312  30.971  1.00  0.00    -0.550 OA
ATOM     13  O   UNL     1      24.066  -6.603  29.485  1.00  0.00    -0.550 OA
ENDBRANCH  10  11
ENDBRANCH   9  10
ENDBRANCH   8   9
ENDBRANCH   1   8
TORSDOF 8
ENDMDL
MODEL 8
REMARK VINA RESULT:    -3.453     13.540     15.166
REMARK INTER + INTRA:          -5.661
REMARK INTER:                  -5.168
REMARK INTRA:                  -0.493
REMARK UNBOUND:                -0.592
REMARK SMILES O=C([O-])CCCCCCCC(=O)[O-]
REMARK SMILES IDX 7 1 6 2 5 3 4 4 2 5 1 6 3 7 8 8 9 9 10 10 11 11 12 12 13 13
REMARK H PARENT
REMARK Flexibility Score: inf
ROOT
ATOM      1  C   UNL     1      29.996 -11.410  31.568  1.00  0.00     0.000 C 
ENDROOT
BRANCH   1   2
ATOM      2  C   UNL     1      31.088 -10.663  30.782  1.00  0.00     0.000 C 
BRANCH   2   3
ATOM      3  C   UNL     1      31.928  -9.728  31.668  1.00  0.00     0.006 C 
BRANCH   3   4
ATOM      4  C   UNL     1      31.485  -8.264  31.548  1.00  0.00     0.053 C 
BRANCH   4   5
ATOM      5  C   UNL     1      30.939  -7.741  32.841  1.00  0.00     0.041 C 
ATOM      6  O   UNL     1      29.977  -6.928  32.842  1.00  0.00    -0.550 OA
ATOM      7  O   UNL     1      31.476  -8.172  34.048  1.00  0.00    -0.550 OA
ENDBRANCH   4   5
ENDBRANCH   3   4
ENDBRANCH   2   3
ENDBRANCH   1   2
BRANCH   1   8
ATOM      8  C   UNL     1      28.560 -11.206  31.048  1.00  0.00     0.000 C 
BRANCH   8   9
ATOM      9  C   UNL     1      28.120  -9.735  30.896  1.00  0.00     0.006 C 
BRANCH   9  10
ATOM     10  C   UNL     1      26.598  -9.529  30.877  1.00  0.00     0.053 C 
BRANCH  10  11
ATOM     11  C   UNL     1      26.099  -9.170  29.511  1.00  0.00     0.041 C 
ATOM     12  O   UNL     1      26.733  -9.541  28.487  1.00  0.00    -0.550 OA
ATOM     13  O   UNL     1      24.952  -8.400  29.369  1.00  0.00    -0.550 OA
ENDBRANCH  10  11
ENDBRANCH   9  10
ENDBRANCH   8   9
ENDBRANCH   1   8
TORSDOF 8
ENDMDL
MODEL 9
REMARK VINA RESULT:    -3.361     13.456     15.307
REMARK INTER + INTRA:          -5.525
REMARK INTER:                  -4.956
REMARK INTRA:                  -0.570
REMARK UNBOUND:                -0.592
REMARK SMILES O=C([O-])CCCCCCCC(=O)[O-]
REMARK SMILES IDX 7 1 6 2 5 3 4 4 2 5 1 6 3 7 8 8 9 9 10 10 11 11 12 12 13 13
REMARK H PARENT
REMARK Flexibility Score: inf
ROOT
ATOM      1  C   UNL     1      30.373 -11.161  31.043  1.00  0.00     0.000 C 
ENDROOT
BRANCH   1   2
ATOM      2  C   UNL     1      29.777 -11.732  29.744  1.00  0.00     0.000 C 
BRANCH   2   3
ATOM      3  C   UNL     1      28.244 -11.629  29.693  1.00  0.00     0.006 C 
BRANCH   3   4
ATOM      4  C   UNL     1      27.773 -10.308  29.071  1.00  0.00     0.053 C 
BRANCH   4   5
ATOM      5  C   UNL     1      26.942  -9.508  30.028  1.00  0.00     0.041 C 
ATOM      6  O   UNL     1      27.258  -9.447  31.245  1.00  0.00    -0.550 OA
ATOM      7  O   UNL     1      25.834  -8.808  29.569  1.00  0.00    -0.550 OA
ENDBRANCH   4   5
ENDBRANCH   3   4
ENDBRANCH   2   3
ENDBRANCH   1   2
BRANCH   1   8
ATOM      8  C   UNL     1      31.823 -10.652  30.930  1.00  0.00     0.000 C 
BRANCH   8   9
ATOM      9  C   UNL     1      32.015  -9.148  31.215  1.00  0.00     0.006 C 
BRANCH   9  10
ATOM     10  C   UNL     1      30.708  -8.379  31.461  1.00  0.00     0.053 C 
BRANCH  10  11
ATOM     11  C   UNL     1      30.758  -7.583  32.728  1.00  0.00     0.041 C 
ATOM     12  O   UNL     1      30.119  -6.502  32.825  1.00  0.00    -0.550 OA
ATOM     13  O   UNL     1      31.537  -8.018  33.793  1.00  0.00    -0.550 OA
ENDBRANCH  10  11
ENDBRANCH   9  10
ENDBRANCH   8   9
ENDBRANCH   1   8
TORSDOF 8
ENDMDL
