MODEL 1
REMARK VINA RESULT:    -5.308      0.000      0.000
REMARK INTER + INTRA:          -6.912
REMARK INTER:                  -6.394
REMARK INTRA:                  -0.518
REMARK UNBOUND:                -0.518
REMARK SMILES CCCCc1oc(O)c2ccccc12
REMARK SMILES IDX 4 1 5 2 7 3 6 4 9 5 14 6 10 7 13 8 11 9 12 10 8 11 3 13 2 14
REMARK SMILES IDX 1 15
REMARK H PARENT 8 12
REMARK Flexibility Score: inf
ROOT
ATOM      1  C   UNL     1       6.237 -14.021  -3.800  1.00  0.00     0.076 C 
ENDROOT
BRANCH   1   2
ATOM      2  C   UNL     1       7.562 -14.505  -4.304  1.00  0.00     0.116 A 
ATOM      3  C   UNL     1       9.552 -15.301  -4.287  1.00  0.00     0.290 A 
ATOM      4  O   UNL     1       8.514 -14.999  -3.531  1.00  0.00    -0.430 OA
ATOM      5  C   UNL     1       9.278 -14.995  -5.599  1.00  0.00     0.066 A 
ATOM      6  C   UNL     1       8.009 -14.483  -5.614  1.00  0.00     0.027 A 
ATOM      7  C   UNL     1      10.040 -15.118  -6.760  1.00  0.00     0.016 A 
ATOM      8  C   UNL     1       7.406 -14.051  -6.795  1.00  0.00     0.012 A 
ATOM      9  C   UNL     1       9.458 -14.694  -7.969  1.00  0.00     0.001 A 
ATOM     10  C   UNL     1       8.148 -14.163  -7.986  1.00  0.00     0.001 A 
BRANCH   3  11
ATOM     11  O   UNL     1      10.738 -15.847  -3.809  1.00  0.00    -0.480 OA
ATOM     12  H   UNL     1      11.053 -15.645  -2.869  1.00  0.00     0.297 HD
ENDBRANCH   3  11
ENDBRANCH   1   2
BRANCH   1  13
ATOM     13  C   UNL     1       5.250 -15.190  -3.685  1.00  0.00     0.008 C 
BRANCH  13  14
ATOM     14  C   UNL     1       4.438 -15.404  -4.971  1.00  0.00    -0.003 C 
ATOM     15  C   UNL     1       3.825 -14.109  -5.504  1.00  0.00     0.004 C 
ENDBRANCH  13  14
ENDBRANCH   1  13
TORSDOF 4
ENDMDL
MODEL 2
REMARK VINA RESULT:    -5.268      2.050      4.716
REMARK INTER + INTRA:          -6.864
REMARK INTER:                  -6.334
REMARK INTRA:                  -0.531
REMARK UNBOUND:                -0.518
REMARK SMILES CCCCc1oc(O)c2ccccc12
REMARK SMILES IDX 4 1 5 2 7 3 6 4 9 5 14 6 10 7 13 8 11 9 12 10 8 11 3 13 2 14
REMARK SMILES IDX 1 15
REMARK H PARENT 8 12
REMARK Flexibility Score: inf
ROOT
ATOM      1  C   UNL     1       8.971 -15.962  -4.566  1.00  0.00     0.076 C 
ENDROOT
BRANCH   1   2
ATOM      2  C   UNL     1       7.856 -15.446  -5.422  1.00  0.00     0.116 A 
ATOM      3  C   UNL     1       6.804 -14.775  -7.165  1.00  0.00     0.290 A 
ATOM      4  O   UNL     1       7.949 -15.262  -6.729  1.00  0.00    -0.430 OA
ATOM      5  C   UNL     1       5.928 -14.630  -6.115  1.00  0.00     0.066 A 
ATOM      6  C   UNL     1       6.598 -15.055  -5.000  1.00  0.00     0.027 A 
ATOM      7  C   UNL     1       4.618 -14.157  -6.056  1.00  0.00     0.016 A 
ATOM      8  C   UNL     1       6.006 -15.034  -3.736  1.00  0.00     0.012 A 
ATOM      9  C   UNL     1       3.992 -14.127  -4.796  1.00  0.00     0.001 A 
ATOM     10  C   UNL     1       4.683 -14.563  -3.642  1.00  0.00     0.001 A 
BRANCH   3  11
ATOM     11  O   UNL     1       6.540 -14.461  -8.494  1.00  0.00    -0.480 OA
ATOM     12  H   UNL     1       5.805 -13.806  -8.729  1.00  0.00     0.297 HD
ENDBRANCH   3  11
ENDBRANCH   1   2
BRANCH   1  13
ATOM     13  C   UNL     1      10.174 -15.012  -4.622  1.00  0.00     0.008 C 
BRANCH  13  14
ATOM     14  C   UNL     1       9.884 -13.655  -3.962  1.00  0.00    -0.003 C 
ATOM     15  C   UNL     1       9.512 -13.786  -2.485  1.00  0.00     0.004 C 
ENDBRANCH  13  14
ENDBRANCH   1  13
TORSDOF 4
ENDMDL
MODEL 3
REMARK VINA RESULT:    -5.052      2.201      3.096
REMARK INTER + INTRA:          -6.604
REMARK INTER:                  -6.361
REMARK INTRA:                  -0.243
REMARK UNBOUND:                -0.518
REMARK SMILES CCCCc1oc(O)c2ccccc12
REMARK SMILES IDX 4 1 5 2 7 3 6 4 9 5 14 6 10 7 13 8 11 9 12 10 8 11 3 13 2 14
REMARK SMILES IDX 1 15
REMARK H PARENT 8 12
REMARK Flexibility Score: inf
ROOT
ATOM      1  C   UNL     1       5.472 -13.047  -4.787  1.00  0.00     0.076 C 
ENDROOT
BRANCH   1   2
ATOM      2  C   UNL     1       6.577 -14.047  -4.935  1.00  0.00     0.116 A 
ATOM      3  C   UNL     1       7.669 -15.747  -5.651  1.00  0.00     0.290 A 
ATOM      4  O   UNL     1       6.562 -15.047  -5.800  1.00  0.00    -0.430 OA
ATOM      5  C   UNL     1       8.439 -15.196  -4.653  1.00  0.00     0.066 A 
ATOM      6  C   UNL     1       7.743 -14.112  -4.192  1.00  0.00     0.027 A 
ATOM      7  C   UNL     1       9.673 -15.565  -4.122  1.00  0.00     0.016 A 
ATOM      8  C   UNL     1       8.231 -13.314  -3.157  1.00  0.00     0.012 A 
ATOM      9  C   UNL     1      10.194 -14.778  -3.077  1.00  0.00     0.001 A 
ATOM     10  C   UNL     1       9.476 -13.658  -2.597  1.00  0.00     0.001 A 
BRANCH   3  11
ATOM     11  O   UNL     1       7.992 -16.874  -6.399  1.00  0.00    -0.480 OA
ATOM     12  H   UNL     1       7.764 -16.918  -7.384  1.00  0.00     0.297 HD
ENDBRANCH   3  11
ENDBRANCH   1   2
BRANCH   1  13
ATOM     13  C   UNL     1       4.266 -13.452  -5.645  1.00  0.00     0.008 C 
BRANCH  13  14
ATOM     14  C   UNL     1       2.935 -13.320  -4.891  1.00  0.00    -0.003 C 
ATOM     15  C   UNL     1       2.947 -14.046  -3.545  1.00  0.00     0.004 C 
ENDBRANCH  13  14
ENDBRANCH   1  13
TORSDOF 4
ENDMDL
MODEL 4
REMARK VINA RESULT:    -4.936      2.531      3.946
REMARK INTER + INTRA:          -6.464
REMARK INTER:                  -5.943
REMARK INTRA:                  -0.522
REMARK UNBOUND:                -0.518
REMARK SMILES CCCCc1oc(O)c2ccccc12
REMARK SMILES IDX 4 1 5 2 7 3 6 4 9 5 14 6 10 7 13 8 11 9 12 10 8 11 3 13 2 14
REMARK SMILES IDX 1 15
REMARK H PARENT 8 12
REMARK Flexibility Score: inf
ROOT
ATOM      1  C   UNL     1       8.093 -15.220  -4.558  1.00  0.00     0.076 C 
ENDROOT
BRANCH   1   2
ATOM      2  C   UNL     1       8.118 -14.875  -6.015  1.00  0.00     0.116 A 
ATOM      3  C   UNL     1       7.428 -14.562  -8.020  1.00  0.00     0.290 A 
ATOM      4  O   UNL     1       7.053 -14.888  -6.799  1.00  0.00    -0.430 OA
ATOM      5  C   UNL     1       8.784 -14.329  -8.045  1.00  0.00     0.066 A 
ATOM      6  C   UNL     1       9.228 -14.532  -6.767  1.00  0.00     0.027 A 
ATOM      7  C   UNL     1       9.645 -13.970  -9.080  1.00  0.00     0.016 A 
ATOM      8  C   UNL     1      10.574 -14.391  -6.427  1.00  0.00     0.012 A 
ATOM      9  C   UNL     1      11.009 -13.817  -8.769  1.00  0.00     0.001 A 
ATOM     10  C   UNL     1      11.471 -14.028  -7.449  1.00  0.00     0.001 A 
BRANCH   3  11
ATOM     11  O   UNL     1       6.567 -14.473  -9.109  1.00  0.00    -0.480 OA
ATOM     12  H   UNL     1       5.596 -14.741  -9.017  1.00  0.00     0.297 HD
ENDBRANCH   3  11
ENDBRANCH   1   2
BRANCH   1  13
ATOM     13  C   UNL     1       7.992 -13.947  -3.708  1.00  0.00     0.008 C 
BRANCH  13  14
ATOM     14  C   UNL     1       9.295 -13.633  -2.960  1.00  0.00    -0.003 C 
ATOM     15  C   UNL     1      10.162 -14.874  -2.740  1.00  0.00     0.004 C 
ENDBRANCH  13  14
ENDBRANCH   1  13
TORSDOF 4
ENDMDL
MODEL 5
REMARK VINA RESULT:    -4.934      1.791      4.391
REMARK INTER + INTRA:          -6.461
REMARK INTER:                  -5.944
REMARK INTRA:                  -0.518
REMARK UNBOUND:                -0.518
REMARK SMILES CCCCc1oc(O)c2ccccc12
REMARK SMILES IDX 4 1 5 2 7 3 6 4 9 5 14 6 10 7 13 8 11 9 12 10 8 11 3 13 2 14
REMARK SMILES IDX 1 15
REMARK H PARENT 8 12
REMARK Flexibility Score: inf
ROOT
ATOM      1  C   UNL     1      10.589 -14.766  -6.622  1.00  0.00     0.076 C 
ENDROOT
BRANCH   1   2
ATOM      2  C   UNL     1       9.950 -14.346  -5.334  1.00  0.00     0.116 A 
ATOM      3  C   UNL     1       9.696 -13.997  -3.235  1.00  0.00     0.290 A 
ATOM      4  O   UNL     1      10.542 -14.419  -4.154  1.00  0.00    -0.430 OA
ATOM      5  C   UNL     1       8.507 -13.637  -3.825  1.00  0.00     0.066 A 
ATOM      6  C   UNL     1       8.665 -13.861  -5.165  1.00  0.00     0.027 A 
ATOM      7  C   UNL     1       7.317 -13.145  -3.291  1.00  0.00     0.016 A 
ATOM      8  C   UNL     1       7.638 -13.612  -6.076  1.00  0.00     0.012 A 
ATOM      9  C   UNL     1       6.263 -12.881  -4.185  1.00  0.00     0.001 A 
ATOM     10  C   UNL     1       6.422 -13.114  -5.571  1.00  0.00     0.001 A 
BRANCH   3  11
ATOM     11  O   UNL     1       9.982 -13.934  -1.875  1.00  0.00    -0.480 OA
ATOM     12  H   UNL     1      10.297 -14.757  -1.379  1.00  0.00     0.297 HD
ENDBRANCH   3  11
ENDBRANCH   1   2
BRANCH   1  13
ATOM     13  C   UNL     1      11.147 -13.545  -7.365  1.00  0.00     0.008 C 
BRANCH  13  14
ATOM     14  C   UNL     1      10.356 -13.220  -8.641  1.00  0.00    -0.003 C 
ATOM     15  C   UNL     1       9.614 -14.435  -9.199  1.00  0.00     0.004 C 
ENDBRANCH  13  14
ENDBRANCH   1  13
TORSDOF 4
ENDMDL
MODEL 6
REMARK VINA RESULT:    -4.926     10.405     12.021
REMARK INTER + INTRA:          -6.452
REMARK INTER:                  -6.229
REMARK INTRA:                  -0.223
REMARK UNBOUND:                -0.518
REMARK SMILES CCCCc1oc(O)c2ccccc12
REMARK SMILES IDX 4 1 5 2 7 3 6 4 9 5 14 6 10 7 13 8 11 9 12 10 8 11 3 13 2 14
REMARK SMILES IDX 1 15
REMARK H PARENT 8 12
REMARK Flexibility Score: inf
ROOT
ATOM      1  C   UNL     1       2.548 -22.685   2.077  1.00  0.00     0.076 C 
ENDROOT
BRANCH   1   2
ATOM      2  C   UNL     1       2.313 -23.630   0.939  1.00  0.00     0.116 A 
ATOM      3  C   UNL     1       1.994 -25.469  -0.115  1.00  0.00     0.290 A 
ATOM      4  O   UNL     1       2.152 -24.935   1.080  1.00  0.00    -0.430 OA
ATOM      5  C   UNL     1       2.056 -24.487  -1.076  1.00  0.00     0.066 A 
ATOM      6  C   UNL     1       2.262 -23.312  -0.407  1.00  0.00     0.027 A 
ATOM      7  C   UNL     1       1.955 -24.540  -2.465  1.00  0.00     0.016 A 
ATOM      8  C   UNL     1       2.388 -22.096  -1.080  1.00  0.00     0.012 A 
ATOM      9  C   UNL     1       2.075 -23.330  -3.174  1.00  0.00     0.001 A 
ATOM     10  C   UNL     1       2.290 -22.114  -2.484  1.00  0.00     0.001 A 
BRANCH   3  11
ATOM     11  O   UNL     1       1.797 -26.825  -0.349  1.00  0.00    -0.480 OA
ATOM     12  H   UNL     1       1.146 -27.354   0.217  1.00  0.00     0.297 HD
ENDBRANCH   3  11
ENDBRANCH   1   2
BRANCH   1  13
ATOM     13  C   UNL     1       1.278 -21.875   2.371  1.00  0.00     0.008 C 
BRANCH  13  14
ATOM     14  C   UNL     1       1.355 -21.123   3.707  1.00  0.00    -0.003 C 
ATOM     15  C   UNL     1       1.060 -19.630   3.561  1.00  0.00     0.004 C 
ENDBRANCH  13  14
ENDBRANCH   1  13
TORSDOF 4
ENDMDL
MODEL 7
REMARK VINA RESULT:    -4.775      8.999     10.630
REMARK INTER + INTRA:          -6.271
REMARK INTER:                  -6.046
REMARK INTRA:                  -0.225
REMARK UNBOUND:                -0.518
REMARK SMILES CCCCc1oc(O)c2ccccc12
REMARK SMILES IDX 4 1 5 2 7 3 6 4 9 5 14 6 10 7 13 8 11 9 12 10 8 11 3 13 2 14
REMARK SMILES IDX 1 15
REMARK H PARENT 8 12
REMARK Flexibility Score: inf
ROOT
ATOM      1  C   UNL     1       2.414 -23.421   1.398  1.00  0.00     0.076 C 
ENDROOT
BRANCH   1   2
ATOM      2  C   UNL     1       3.052 -22.942   0.131  1.00  0.00     0.116 A 
ATOM      3  C   UNL     1       4.526 -22.130  -1.198  1.00  0.00     0.290 A 
ATOM      4  O   UNL     1       4.294 -22.493   0.049  1.00  0.00    -0.430 OA
ATOM      5  C   UNL     1       3.403 -22.342  -1.963  1.00  0.00     0.066 A 
ATOM      6  C   UNL     1       2.459 -22.858  -1.117  1.00  0.00     0.027 A 
ATOM      7  C   UNL     1       3.143 -22.117  -3.313  1.00  0.00     0.016 A 
ATOM      8  C   UNL     1       1.177 -23.184  -1.560  1.00  0.00     0.012 A 
ATOM      9  C   UNL     1       1.860 -22.439  -3.792  1.00  0.00     0.001 A 
ATOM     10  C   UNL     1       0.882 -22.970  -2.920  1.00  0.00     0.001 A 
BRANCH   3  11
ATOM     11  O   UNL     1       5.734 -21.611  -1.652  1.00  0.00    -0.480 OA
ATOM     12  H   UNL     1       6.069 -20.719  -1.311  1.00  0.00     0.297 HD
ENDBRANCH   3  11
ENDBRANCH   1   2
BRANCH   1  13
ATOM     13  C   UNL     1       1.399 -22.390   1.909  1.00  0.00     0.008 C 
BRANCH  13  14
ATOM     14  C   UNL     1       1.816 -21.768   3.250  1.00  0.00    -0.003 C 
ATOM     15  C   UNL     1       1.315 -20.332   3.414  1.00  0.00     0.004 C 
ENDBRANCH  13  14
ENDBRANCH   1  13
TORSDOF 4
ENDMDL
MODEL 8
REMARK VINA RESULT:    -4.638     10.604     12.218
REMARK INTER + INTRA:          -6.105
REMARK INTER:                  -5.897
REMARK INTRA:                  -0.208
REMARK UNBOUND:                -0.518
REMARK SMILES CCCCc1oc(O)c2ccccc12
REMARK SMILES IDX 4 1 5 2 7 3 6 4 9 5 14 6 10 7 13 8 11 9 12 10 8 11 3 13 2 14
REMARK SMILES IDX 1 15
REMARK H PARENT 8 12
REMARK Flexibility Score: inf
ROOT
ATOM      1  C   UNL     1       2.168 -22.464   2.329  1.00  0.00     0.076 C 
ENDROOT
BRANCH   1   2
ATOM      2  C   UNL     1       2.112 -22.732   0.857  1.00  0.00     0.116 A 
ATOM      3  C   UNL     1       1.979 -22.365  -1.251  1.00  0.00     0.290 A 
ATOM      4  O   UNL     1       2.040 -21.788  -0.067  1.00  0.00    -0.430 OA
ATOM      5  C   UNL     1       2.009 -23.733  -1.106  1.00  0.00     0.066 A 
ATOM      6  C   UNL     1       2.090 -23.970   0.239  1.00  0.00     0.027 A 
ATOM      7  C   UNL     1       1.963 -24.767  -2.039  1.00  0.00     0.016 A 
ATOM      8  C   UNL     1       2.129 -25.266   0.754  1.00  0.00     0.012 A 
ATOM      9  C   UNL     1       2.003 -26.087  -1.552  1.00  0.00     0.001 A 
ATOM     10  C   UNL     1       2.085 -26.335  -0.162  1.00  0.00     0.001 A 
BRANCH   3  11
ATOM     11  O   UNL     1       1.896 -21.677  -2.457  1.00  0.00    -0.480 OA
ATOM     12  H   UNL     1       1.477 -22.113  -3.268  1.00  0.00     0.297 HD
ENDBRANCH   3  11
ENDBRANCH   1   2
BRANCH   1  13
ATOM     13  C   UNL     1       0.901 -21.731   2.788  1.00  0.00     0.008 C 
BRANCH  13  14
ATOM     14  C   UNL     1       1.179 -20.717   3.907  1.00  0.00    -0.003 C 
ATOM     15  C   UNL     1       0.875 -19.278   3.489  1.00  0.00     0.004 C 
ENDBRANCH  13  14
ENDBRANCH   1  13
TORSDOF 4
ENDMDL
MODEL 9
REMARK VINA RESULT:    -4.583      2.366      5.112
REMARK INTER + INTRA:          -6.039
REMARK INTER:                  -5.551
REMARK INTRA:                  -0.487
REMARK UNBOUND:                -0.518
REMARK SMILES CCCCc1oc(O)c2ccccc12
REMARK SMILES IDX 4 1 5 2 7 3 6 4 9 5 14 6 10 7 13 8 11 9 12 10 8 11 3 13 2 14
REMARK SMILES IDX 1 15
REMARK H PARENT 8 12
REMARK Flexibility Score: inf
ROOT
ATOM      1  C   UNL     1       9.262 -14.094  -8.587  1.00  0.00     0.076 C 
ENDROOT
BRANCH   1   2
ATOM      2  C   UNL     1       8.395 -14.452  -7.420  1.00  0.00     0.116 A 
ATOM      3  C   UNL     1       6.697 -15.157  -6.317  1.00  0.00     0.290 A 
ATOM      4  O   UNL     1       7.194 -14.996  -7.528  1.00  0.00    -0.430 OA
ATOM      5  C   UNL     1       7.597 -14.702  -5.380  1.00  0.00     0.066 A 
ATOM      6  C   UNL     1       8.680 -14.249  -6.081  1.00  0.00     0.027 A 
ATOM      7  C   UNL     1       7.539 -14.647  -3.988  1.00  0.00     0.016 A 
ATOM      8  C   UNL     1       9.792 -13.702  -5.441  1.00  0.00     0.012 A 
ATOM      9  C   UNL     1       8.647 -14.103  -3.312  1.00  0.00     0.001 A 
ATOM     10  C   UNL     1       9.767 -13.632  -4.035  1.00  0.00     0.001 A 
BRANCH   3  11
ATOM     11  O   UNL     1       5.448 -15.704  -6.046  1.00  0.00    -0.480 OA
ATOM     12  H   UNL     1       5.294 -16.235  -5.199  1.00  0.00     0.297 HD
ENDBRANCH   3  11
ENDBRANCH   1   2
BRANCH   1  13
ATOM     13  C   UNL     1      10.279 -15.210  -8.860  1.00  0.00     0.008 C 
BRANCH  13  14
ATOM     14  C   UNL     1      11.731 -14.718  -8.769  1.00  0.00    -0.003 C 
ATOM     15  C   UNL     1      11.830 -13.231  -8.431  1.00  0.00     0.004 C 
ENDBRANCH  13  14
ENDBRANCH   1  13
TORSDOF 4
ENDMDL
