MODEL 1
REMARK VINA RESULT:     0.880      0.000      0.000
REMARK INTER + INTRA:          18.825
REMARK INTER:                   1.240
REMARK INTRA:                  17.585
REMARK UNBOUND:                17.585
REMARK SMILES CC1=CCC(=C(C)C)C(=O)CC(C)=CCC1
REMARK SMILES IDX 12 1 14 2 13 3 15 4 16 5 2 6 1 7 3 8 11 10 9 11 10 12 5 13
REMARK SMILES IDX 6 14 7 15 8 16 4 17
REMARK H PARENT
REMARK Flexibility Score: 60.00
ROOT
ATOM      1  C   UNL     1      29.421  24.623  31.629  1.00  0.00    -0.070 C 
ATOM      2  C   UNL     1      29.361  24.226  30.325  1.00  0.00    -0.027 C 
ATOM      3  C   UNL     1      28.101  24.826  32.337  1.00  0.00     0.039 C 
ENDROOT
BRANCH   2   4
ATOM      4  C   UNL     1      30.456  23.981  29.294  1.00  0.00     0.032 C 
BRANCH   4   5
ATOM      5  C   UNL     1      31.658  24.932  29.304  1.00  0.00     0.034 C 
BRANCH   5   6
ATOM      6  C   UNL     1      33.059  24.336  29.106  1.00  0.00    -0.077 C 
ATOM      7  C   UNL     1      33.229  23.471  27.876  1.00  0.00     0.039 C 
ATOM      8  C   UNL     1      34.149  24.411  29.926  1.00  0.00    -0.023 CG0
ATOM      9  G   UNL     1      34.346  25.117  31.253  1.00  0.00     0.000 G0
ENDBRANCH   5   6
ENDBRANCH   4   5
ENDBRANCH   2   4
BRANCH   1  10
ATOM     10  C   UNL     1      30.677  24.876  32.449  1.00  0.00     0.111 C 
BRANCH  10  11
ATOM     11  C   UNL     1      31.911  24.861  31.598  1.00  0.00     0.163 C 
ATOM     12  O   UNL     1      31.790  24.934  30.346  1.00  0.00    -0.294 OA
BRANCH  11  13
ATOM     13  C   UNL     1      33.255  24.719  32.213  1.00  0.00    -0.002 C 
ATOM     14  C   UNL     1      33.408  24.352  33.519  1.00  0.00    -0.069 C 
ATOM     15  C   UNL     1      32.217  23.951  34.361  1.00  0.00     0.039 C 
ATOM     16  C   UNL     1      34.768  24.311  34.178  1.00  0.00     0.039 C 
BRANCH  13  17
ATOM     17  C   UNL     1      34.434  25.025  31.313  1.00  0.00     0.066 CG0
ATOM     18  G   UNL     1      34.254  24.445  29.924  1.00  0.00     0.000 G0
ENDBRANCH  13  17
ENDBRANCH  11  13
ENDBRANCH  10  11
ENDBRANCH   1  10
TORSDOF 0
ENDMDL
