MODEL 1
REMARK VINA RESULT:    -5.563      0.000      0.000
REMARK INTER + INTRA:          -5.888
REMARK INTER:                  -5.888
REMARK INTRA:                   0.000
REMARK UNBOUND:                 0.000
REMARK SMILES O=c1ccc2cc(O)c(O)cc2o1
REMARK SMILES IDX 4 1 3 2 2 3 1 4 13 5 12 6 11 7 9 8 7 9 6 10 5 11 8 12 10 14
REMARK H PARENT 8 13 10 15
REMARK Flexibility Score: inf
ROOT
ATOM      1  C   UNL     1      10.146  -7.220  -9.684  1.00  0.00     0.019 A 
ATOM      2  C   UNL     1       9.356  -7.911 -10.603  1.00  0.00     0.094 A 
ATOM      3  C   UNL     1       7.982  -8.025 -10.364  1.00  0.00     0.336 A 
ATOM      4  O   UNL     1       7.251  -8.644 -11.182  1.00  0.00    -0.246 OA
ATOM      5  O   UNL     1       7.440  -7.483  -9.276  1.00  0.00    -0.423 OA
ATOM      6  C   UNL     1       8.157  -6.817  -8.375  1.00  0.00     0.142 A 
ATOM      7  C   UNL     1       7.533  -6.268  -7.250  1.00  0.00     0.098 A 
ATOM      8  C   UNL     1       8.285  -5.565  -6.297  1.00  0.00     0.161 A 
ATOM      9  C   UNL     1       9.668  -5.410  -6.471  1.00  0.00     0.158 A 
ATOM     10  C   UNL     1      10.300  -5.958  -7.597  1.00  0.00     0.062 A 
ATOM     11  C   UNL     1       9.550  -6.661  -8.549  1.00  0.00     0.022 A 
ENDROOT
BRANCH   9  12
ATOM     12  O   UNL     1      10.408  -4.710  -5.519  1.00  0.00    -0.504 OA
ATOM     13  H   UNL     1      10.097  -3.815  -5.157  1.00  0.00     0.293 HD
ENDBRANCH   9  12
BRANCH   8  14
ATOM     14  O   UNL     1       7.665  -5.018  -5.176  1.00  0.00    -0.504 OA
ATOM     15  H   UNL     1       7.903  -5.318  -4.238  1.00  0.00     0.293 HD
ENDBRANCH   8  14
TORSDOF 2
ENDMDL
MODEL 2
REMARK VINA RESULT:    -5.399      1.247      2.298
REMARK INTER + INTRA:          -5.715
REMARK INTER:                  -5.715
REMARK INTRA:                   0.000
REMARK UNBOUND:                 0.000
REMARK SMILES O=c1ccc2cc(O)c(O)cc2o1
REMARK SMILES IDX 4 1 3 2 2 3 1 4 13 5 12 6 11 7 9 8 7 9 6 10 5 11 8 12 10 14
REMARK H PARENT 8 13 10 15
REMARK Flexibility Score: inf
ROOT
ATOM      1  C   UNL     1       7.616  -7.829  -9.241  1.00  0.00     0.019 A 
ATOM      2  C   UNL     1       8.331  -8.377 -10.306  1.00  0.00     0.094 A 
ATOM      3  C   UNL     1       9.702  -8.117 -10.408  1.00  0.00     0.336 A 
ATOM      4  O   UNL     1      10.366  -8.603 -11.361  1.00  0.00    -0.246 OA
ATOM      5  O   UNL     1      10.313  -7.357  -9.502  1.00  0.00    -0.423 OA
ATOM      6  C   UNL     1       9.668  -6.815  -8.471  1.00  0.00     0.142 A 
ATOM      7  C   UNL     1      10.362  -6.025  -7.549  1.00  0.00     0.098 A 
ATOM      8  C   UNL     1       9.688  -5.451  -6.461  1.00  0.00     0.161 A 
ATOM      9  C   UNL     1       8.312  -5.669  -6.294  1.00  0.00     0.158 A 
ATOM     10  C   UNL     1       7.610  -6.461  -7.216  1.00  0.00     0.062 A 
ATOM     11  C   UNL     1       8.284  -7.034  -8.303  1.00  0.00     0.022 A 
ENDROOT
BRANCH   9  12
ATOM     12  O   UNL     1       7.649  -5.096  -5.211  1.00  0.00    -0.504 OA
ATOM     13  H   UNL     1       6.989  -5.624  -4.652  1.00  0.00     0.293 HD
ENDBRANCH   9  12
BRANCH   8  14
ATOM     14  O   UNL     1      10.377  -4.664  -5.541  1.00  0.00    -0.504 OA
ATOM     15  H   UNL     1      10.798  -3.781  -5.808  1.00  0.00     0.293 HD
ENDBRANCH   8  14
TORSDOF 2
ENDMDL
MODEL 3
REMARK VINA RESULT:    -5.392     17.101     18.218
REMARK INTER + INTRA:          -5.707
REMARK INTER:                  -5.707
REMARK INTRA:                   0.000
REMARK UNBOUND:                 0.000
REMARK SMILES O=c1ccc2cc(O)c(O)cc2o1
REMARK SMILES IDX 4 1 3 2 2 3 1 4 13 5 12 6 11 7 9 8 7 9 6 10 5 11 8 12 10 14
REMARK H PARENT 8 13 10 15
REMARK Flexibility Score: inf
ROOT
ATOM      1  C   UNL     1      20.415  -1.073 -21.695  1.00  0.00     0.019 A 
ATOM      2  C   UNL     1      21.172  -0.389 -22.646  1.00  0.00     0.094 A 
ATOM      3  C   UNL     1      21.874   0.757 -22.258  1.00  0.00     0.336 A 
ATOM      4  O   UNL     1      22.564   1.388 -23.102  1.00  0.00    -0.246 OA
ATOM      5  O   UNL     1      21.819   1.187 -21.000  1.00  0.00    -0.423 OA
ATOM      6  C   UNL     1      21.109   0.565 -20.062  1.00  0.00     0.142 A 
ATOM      7  C   UNL     1      21.089   1.063 -18.755  1.00  0.00     0.098 A 
ATOM      8  C   UNL     1      20.342   0.412 -17.762  1.00  0.00     0.161 A 
ATOM      9  C   UNL     1      19.612  -0.743 -18.078  1.00  0.00     0.158 A 
ATOM     10  C   UNL     1      19.629  -1.248 -19.387  1.00  0.00     0.062 A 
ATOM     11  C   UNL     1      20.374  -0.597 -20.380  1.00  0.00     0.022 A 
ENDROOT
BRANCH   9  12
ATOM     12  O   UNL     1      18.873  -1.385 -17.086  1.00  0.00    -0.504 OA
ATOM     13  H   UNL     1      19.158  -1.363 -16.113  1.00  0.00     0.293 HD
ENDBRANCH   9  12
BRANCH   8  14
ATOM     14  O   UNL     1      20.320   0.907 -16.460  1.00  0.00    -0.504 OA
ATOM     15  H   UNL     1      19.757   1.710 -16.206  1.00  0.00     0.293 HD
ENDBRANCH   8  14
TORSDOF 2
ENDMDL
MODEL 4
REMARK VINA RESULT:    -5.148      1.599      2.070
REMARK INTER + INTRA:          -5.449
REMARK INTER:                  -5.449
REMARK INTRA:                   0.000
REMARK UNBOUND:                 0.000
REMARK SMILES O=c1ccc2cc(O)c(O)cc2o1
REMARK SMILES IDX 4 1 3 2 2 3 1 4 13 5 12 6 11 7 9 8 7 9 6 10 5 11 8 12 10 14
REMARK H PARENT 8 13 10 15
REMARK Flexibility Score: inf
ROOT
ATOM      1  C   UNL     1       8.748  -5.624  -8.667  1.00  0.00     0.019 A 
ATOM      2  C   UNL     1       8.719  -6.451  -9.791  1.00  0.00     0.094 A 
ATOM      3  C   UNL     1       8.321  -7.784  -9.641  1.00  0.00     0.336 A 
ATOM      4  O   UNL     1       8.287  -8.546 -10.643  1.00  0.00    -0.246 OA
ATOM      5  O   UNL     1       7.977  -8.254  -8.445  1.00  0.00    -0.423 OA
ATOM      6  C   UNL     1       7.991  -7.500  -7.348  1.00  0.00     0.142 A 
ATOM      7  C   UNL     1       7.619  -8.049  -6.117  1.00  0.00     0.098 A 
ATOM      8  C   UNL     1       7.633  -7.259  -4.958  1.00  0.00     0.161 A 
ATOM      9  C   UNL     1       8.020  -5.913  -5.031  1.00  0.00     0.158 A 
ATOM     10  C   UNL     1       8.395  -5.357  -6.264  1.00  0.00     0.062 A 
ATOM     11  C   UNL     1       8.382  -6.146  -7.422  1.00  0.00     0.022 A 
ENDROOT
BRANCH   9  12
ATOM     12  O   UNL     1       8.031  -5.134  -3.875  1.00  0.00    -0.504 OA
ATOM     13  H   UNL     1       8.271  -5.527  -2.973  1.00  0.00     0.293 HD
ENDBRANCH   9  12
BRANCH   8  14
ATOM     14  O   UNL     1       7.263  -7.803  -3.730  1.00  0.00    -0.504 OA
ATOM     15  H   UNL     1       7.896  -7.809  -2.939  1.00  0.00     0.293 HD
ENDBRANCH   8  14
TORSDOF 2
ENDMDL
MODEL 5
REMARK VINA RESULT:    -5.114     16.652     18.226
REMARK INTER + INTRA:          -5.412
REMARK INTER:                  -5.412
REMARK INTRA:                   0.000
REMARK UNBOUND:                 0.000
REMARK SMILES O=c1ccc2cc(O)c(O)cc2o1
REMARK SMILES IDX 4 1 3 2 2 3 1 4 13 5 12 6 11 7 9 8 7 9 6 10 5 11 8 12 10 14
REMARK H PARENT 8 13 10 15
REMARK Flexibility Score: inf
ROOT
ATOM      1  C   UNL     1      19.203  -1.165 -18.297  1.00  0.00     0.019 A 
ATOM      2  C   UNL     1      19.191  -0.547 -17.046  1.00  0.00     0.094 A 
ATOM      3  C   UNL     1      19.939   0.621 -16.860  1.00  0.00     0.336 A 
ATOM      4  O   UNL     1      19.940   1.194 -15.739  1.00  0.00    -0.246 OA
ATOM      5  O   UNL     1      20.649   1.133 -17.861  1.00  0.00    -0.423 OA
ATOM      6  C   UNL     1      20.689   0.576 -19.069  1.00  0.00     0.142 A 
ATOM      7  C   UNL     1      21.454   1.159 -20.084  1.00  0.00     0.098 A 
ATOM      8  C   UNL     1      21.499   0.575 -21.359  1.00  0.00     0.161 A 
ATOM      9  C   UNL     1      20.775  -0.597 -21.620  1.00  0.00     0.158 A 
ATOM     10  C   UNL     1      20.005  -1.187 -20.605  1.00  0.00     0.062 A 
ATOM     11  C   UNL     1      19.960  -0.605 -19.332  1.00  0.00     0.022 A 
ENDROOT
BRANCH   9  12
ATOM     12  O   UNL     1      20.825  -1.171 -22.889  1.00  0.00    -0.504 OA
ATOM     13  H   UNL     1      20.798  -0.605 -23.729  1.00  0.00     0.293 HD
ENDBRANCH   9  12
BRANCH   8  14
ATOM     14  O   UNL     1      22.261   1.154 -22.372  1.00  0.00    -0.504 OA
ATOM     15  H   UNL     1      23.274   1.150 -22.343  1.00  0.00     0.293 HD
ENDBRANCH   8  14
TORSDOF 2
ENDMDL
MODEL 6
REMARK VINA RESULT:    -5.097      1.954      2.692
REMARK INTER + INTRA:          -5.395
REMARK INTER:                  -5.395
REMARK INTRA:                   0.000
REMARK UNBOUND:                 0.000
REMARK SMILES O=c1ccc2cc(O)c(O)cc2o1
REMARK SMILES IDX 4 1 3 2 2 3 1 4 13 5 12 6 11 7 9 8 7 9 6 10 5 11 8 12 10 14
REMARK H PARENT 8 13 10 15
REMARK Flexibility Score: inf
ROOT
ATOM      1  C   UNL     1       7.998  -7.950  -8.537  1.00  0.00     0.019 A 
ATOM      2  C   UNL     1       8.348  -7.274  -9.706  1.00  0.00     0.094 A 
ATOM      3  C   UNL     1       8.715  -5.926  -9.626  1.00  0.00     0.336 A 
ATOM      4  O   UNL     1       9.036  -5.299 -10.670  1.00  0.00    -0.246 OA
ATOM      5  O   UNL     1       8.728  -5.300  -8.452  1.00  0.00    -0.423 OA
ATOM      6  C   UNL     1       8.401  -5.907  -7.314  1.00  0.00     0.142 A 
ATOM      7  C   UNL     1       8.433  -5.198  -6.109  1.00  0.00     0.098 A 
ATOM      8  C   UNL     1       8.089  -5.832  -4.906  1.00  0.00     0.161 A 
ATOM      9  C   UNL     1       7.711  -7.183  -4.909  1.00  0.00     0.158 A 
ATOM     10  C   UNL     1       7.676  -7.899  -6.115  1.00  0.00     0.062 A 
ATOM     11  C   UNL     1       8.020  -7.266  -7.317  1.00  0.00     0.022 A 
ENDROOT
BRANCH   9  12
ATOM     12  O   UNL     1       7.370  -7.806  -3.710  1.00  0.00    -0.504 OA
ATOM     13  H   UNL     1       7.286  -8.814  -3.640  1.00  0.00     0.293 HD
ENDBRANCH   9  12
BRANCH   8  14
ATOM     14  O   UNL     1       8.120  -5.127  -3.704  1.00  0.00    -0.504 OA
ATOM     15  H   UNL     1       7.438  -4.408  -3.493  1.00  0.00     0.293 HD
ENDBRANCH   8  14
TORSDOF 2
ENDMDL
MODEL 7
REMARK VINA RESULT:    -5.063      2.361      3.186
REMARK INTER + INTRA:          -5.359
REMARK INTER:                  -5.359
REMARK INTRA:                   0.000
REMARK UNBOUND:                 0.000
REMARK SMILES O=c1ccc2cc(O)c(O)cc2o1
REMARK SMILES IDX 4 1 3 2 2 3 1 4 13 5 12 6 11 7 9 8 7 9 6 10 5 11 8 12 10 14
REMARK H PARENT 8 13 10 15
REMARK Flexibility Score: inf
ROOT
ATOM      1  C   UNL     1      10.342  -8.504  -9.097  1.00  0.00     0.019 A 
ATOM      2  C   UNL     1      11.402  -7.863  -9.739  1.00  0.00     0.094 A 
ATOM      3  C   UNL     1      11.716  -6.548  -9.379  1.00  0.00     0.336 A 
ATOM      4  O   UNL     1      12.669  -5.952  -9.946  1.00  0.00    -0.246 OA
ATOM      5  O   UNL     1      11.014  -5.920  -8.439  1.00  0.00    -0.423 OA
ATOM      6  C   UNL     1       9.996  -6.495  -7.803  1.00  0.00     0.142 A 
ATOM      7  C   UNL     1       9.293  -5.786  -6.823  1.00  0.00     0.098 A 
ATOM      8  C   UNL     1       8.220  -6.387  -6.149  1.00  0.00     0.161 A 
ATOM      9  C   UNL     1       7.847  -7.704  -6.457  1.00  0.00     0.158 A 
ATOM     10  C   UNL     1       8.548  -8.420  -7.439  1.00  0.00     0.062 A 
ATOM     11  C   UNL     1       9.621  -7.820  -8.113  1.00  0.00     0.022 A 
ENDROOT
BRANCH   9  12
ATOM     12  O   UNL     1       6.780  -8.294  -5.783  1.00  0.00    -0.504 OA
ATOM     13  H   UNL     1       6.457  -9.227  -6.013  1.00  0.00     0.293 HD
ENDBRANCH   9  12
BRANCH   8  14
ATOM     14  O   UNL     1       7.519  -5.683  -5.173  1.00  0.00    -0.504 OA
ATOM     15  H   UNL     1       7.973  -4.992  -4.587  1.00  0.00     0.293 HD
ENDBRANCH   8  14
TORSDOF 2
ENDMDL
MODEL 8
REMARK VINA RESULT:    -5.029      1.990      2.503
REMARK INTER + INTRA:          -5.323
REMARK INTER:                  -5.323
REMARK INTRA:                   0.000
REMARK UNBOUND:                 0.000
REMARK SMILES O=c1ccc2cc(O)c(O)cc2o1
REMARK SMILES IDX 4 1 3 2 2 3 1 4 13 5 12 6 11 7 9 8 7 9 6 10 5 11 8 12 10 14
REMARK H PARENT 8 13 10 15
REMARK Flexibility Score: inf
ROOT
ATOM      1  C   UNL     1      10.999  -7.179  -8.320  1.00  0.00     0.019 A 
ATOM      2  C   UNL     1      11.531  -7.456  -9.579  1.00  0.00     0.094 A 
ATOM      3  C   UNL     1      10.821  -7.059 -10.717  1.00  0.00     0.336 A 
ATOM      4  O   UNL     1      11.285  -7.299 -11.863  1.00  0.00    -0.246 OA
ATOM      5  O   UNL     1       9.656  -6.428 -10.599  1.00  0.00    -0.423 OA
ATOM      6  C   UNL     1       9.112  -6.145  -9.417  1.00  0.00     0.142 A 
ATOM      7  C   UNL     1       7.883  -5.480  -9.354  1.00  0.00     0.098 A 
ATOM      8  C   UNL     1       7.306  -5.179  -8.111  1.00  0.00     0.161 A 
ATOM      9  C   UNL     1       7.961  -5.546  -6.927  1.00  0.00     0.158 A 
ATOM     10  C   UNL     1       9.194  -6.214  -6.984  1.00  0.00     0.062 A 
ATOM     11  C   UNL     1       9.771  -6.515  -8.225  1.00  0.00     0.022 A 
ENDROOT
BRANCH   9  12
ATOM     12  O   UNL     1       7.381  -5.243  -5.696  1.00  0.00    -0.504 OA
ATOM     13  H   UNL     1       7.475  -5.862  -4.898  1.00  0.00     0.293 HD
ENDBRANCH   9  12
BRANCH   8  14
ATOM     14  O   UNL     1       6.082  -4.517  -8.046  1.00  0.00    -0.504 OA
ATOM     15  H   UNL     1       6.027  -3.505  -8.024  1.00  0.00     0.293 HD
ENDBRANCH   8  14
TORSDOF 2
ENDMDL
MODEL 9
REMARK VINA RESULT:    -5.024      1.888      5.168
REMARK INTER + INTRA:          -5.318
REMARK INTER:                  -5.318
REMARK INTRA:                   0.000
REMARK UNBOUND:                 0.000
REMARK SMILES O=c1ccc2cc(O)c(O)cc2o1
REMARK SMILES IDX 4 1 3 2 2 3 1 4 13 5 12 6 11 7 9 8 7 9 6 10 5 11 8 12 10 14
REMARK H PARENT 8 13 10 15
REMARK Flexibility Score: inf
ROOT
ATOM      1  C   UNL     1       8.374  -8.368  -8.354  1.00  0.00     0.019 A 
ATOM      2  C   UNL     1       8.988  -7.620  -7.350  1.00  0.00     0.094 A 
ATOM      3  C   UNL     1       9.433  -6.326  -7.644  1.00  0.00     0.336 A 
ATOM      4  O   UNL     1       9.989  -5.635  -6.751  1.00  0.00    -0.246 OA
ATOM      5  O   UNL     1       9.272  -5.820  -8.864  1.00  0.00    -0.423 OA
ATOM      6  C   UNL     1       8.692  -6.500  -9.850  1.00  0.00     0.142 A 
ATOM      7  C   UNL     1       8.550  -5.916 -11.113  1.00  0.00     0.098 A 
ATOM      8  C   UNL     1       7.940  -6.628 -12.156  1.00  0.00     0.161 A 
ATOM      9  C   UNL     1       7.469  -7.930 -11.935  1.00  0.00     0.158 A 
ATOM     10  C   UNL     1       7.608  -8.522 -10.670  1.00  0.00     0.062 A 
ATOM     11  C   UNL     1       8.219  -7.811  -9.627  1.00  0.00     0.022 A 
ENDROOT
BRANCH   9  12
ATOM     12  O   UNL     1       6.863  -8.631 -12.976  1.00  0.00    -0.504 OA
ATOM     13  H   UNL     1       6.798  -8.243 -13.910  1.00  0.00     0.293 HD
ENDBRANCH   9  12
BRANCH   8  14
ATOM     14  O   UNL     1       7.798  -6.048 -13.415  1.00  0.00    -0.504 OA
ATOM     15  H   UNL     1       6.934  -5.600 -13.698  1.00  0.00     0.293 HD
ENDBRANCH   8  14
TORSDOF 2
ENDMDL
