MODEL 1
REMARK VINA RESULT:    -5.478      0.000      0.000
REMARK INTER + INTRA:          -5.959
REMARK INTER:                  -5.959
REMARK INTRA:                   0.000
REMARK UNBOUND:                 0.000
REMARK SMILES Cc1cc(O)c2c(c1)C(=O)c1cc(O)cc(O)c1C2=O
REMARK SMILES IDX 1 1 2 2 8 3 7 4 6 5 4 6 3 7 19 8 20 9 18 10 11 11 9 12 10 13
REMARK SMILES IDX 12 14 13 15 15 16 16 17 5 18 17 20 14 22
REMARK H PARENT 5 19 17 21 14 23
REMARK Flexibility Score: inf
ROOT
ATOM      1  C   UNL     1      39.552 -80.036  41.995  1.00  0.00     0.044 C 
ATOM      2  C   UNL     1      39.647 -79.447  40.618  1.00  0.00    -0.047 A 
ATOM      3  C   UNL     1      38.486 -79.187  39.882  1.00  0.00     0.016 A 
ATOM      4  C   UNL     1      38.565 -78.663  38.581  1.00  0.00     0.038 A 
ATOM      5  C   UNL     1      39.828 -78.396  38.007  1.00  0.00     0.076 A 
ATOM      6  C   UNL     1      41.002 -78.741  38.725  1.00  0.00     0.127 A 
ATOM      7  C   UNL     1      40.898 -79.242  40.026  1.00  0.00     0.050 A 
ATOM      8  C   UNL     1      39.870 -77.705  36.691  1.00  0.00     0.201 C 
ATOM      9  O   UNL     1      40.842 -76.957  36.406  1.00  0.00    -0.288 OA
ATOM     10  C   UNL     1      38.683 -77.748  35.797  1.00  0.00     0.076 A 
ATOM     11  C   UNL     1      37.422 -78.019  36.376  1.00  0.00     0.041 A 
ATOM     12  C   UNL     1      37.330 -78.396  37.806  1.00  0.00     0.194 C 
ATOM     13  O   UNL     1      36.201 -78.516  38.357  1.00  0.00    -0.289 OA
ATOM     14  C   UNL     1      36.260 -77.934  35.589  1.00  0.00     0.059 A 
ATOM     15  C   UNL     1      36.343 -77.596  34.236  1.00  0.00     0.120 A 
ATOM     16  C   UNL     1      37.588 -77.368  33.653  1.00  0.00     0.093 A 
ATOM     17  C   UNL     1      38.762 -77.468  34.408  1.00  0.00     0.131 A 
ENDROOT
BRANCH   6  18
ATOM     18  O   UNL     1      42.281 -78.638  38.174  1.00  0.00    -0.507 OA
ATOM     19  H   UNL     1      43.106 -78.418  38.714  1.00  0.00     0.293 HD
ENDBRANCH   6  18
BRANCH  17  20
ATOM     20  O   UNL     1      39.975 -77.316  33.735  1.00  0.00    -0.507 OA
ATOM     21  H   UNL     1      40.370 -76.418  33.490  1.00  0.00     0.293 HD
ENDBRANCH  17  20
BRANCH  15  22
ATOM     22  O   UNL     1      35.192 -77.498  33.457  1.00  0.00    -0.508 OA
ATOM     23  H   UNL     1      35.186 -77.771  32.481  1.00  0.00     0.293 HD
ENDBRANCH  15  22
TORSDOF 3
ENDMDL
MODEL 2
REMARK VINA RESULT:    -5.268      2.279      5.910
REMARK INTER + INTRA:          -5.730
REMARK INTER:                  -5.730
REMARK INTRA:                   0.000
REMARK UNBOUND:                 0.000
REMARK SMILES Cc1cc(O)c2c(c1)C(=O)c1cc(O)cc(O)c1C2=O
REMARK SMILES IDX 1 1 2 2 8 3 7 4 6 5 4 6 3 7 19 8 20 9 18 10 11 11 9 12 10 13
REMARK SMILES IDX 12 14 13 15 15 16 16 17 5 18 17 20 14 22
REMARK H PARENT 5 19 17 21 14 23
REMARK Flexibility Score: inf
ROOT
ATOM      1  C   UNL     1      44.123 -76.879  34.119  1.00  0.00     0.044 C 
ATOM      2  C   UNL     1      42.867 -77.073  34.917  1.00  0.00    -0.047 A 
ATOM      3  C   UNL     1      42.936 -77.518  36.242  1.00  0.00     0.016 A 
ATOM      4  C   UNL     1      41.765 -77.731  36.988  1.00  0.00     0.038 A 
ATOM      5  C   UNL     1      40.504 -77.494  36.398  1.00  0.00     0.076 A 
ATOM      6  C   UNL     1      40.438 -77.124  35.030  1.00  0.00     0.127 A 
ATOM      7  C   UNL     1      41.617 -76.900  34.314  1.00  0.00     0.050 A 
ATOM      8  C   UNL     1      39.296 -77.585  37.261  1.00  0.00     0.201 C 
ATOM      9  O   UNL     1      38.288 -76.875  37.004  1.00  0.00    -0.288 OA
ATOM     10  C   UNL     1      39.349 -78.367  38.523  1.00  0.00     0.076 A 
ATOM     11  C   UNL     1      40.614 -78.605  39.108  1.00  0.00     0.041 A 
ATOM     12  C   UNL     1      41.847 -78.209  38.388  1.00  0.00     0.194 C 
ATOM     13  O   UNL     1      42.970 -78.304  38.959  1.00  0.00    -0.289 OA
ATOM     14  C   UNL     1      40.696 -79.221  40.369  1.00  0.00     0.059 A 
ATOM     15  C   UNL     1      39.536 -79.613  41.043  1.00  0.00     0.120 A 
ATOM     16  C   UNL     1      38.290 -79.417  40.451  1.00  0.00     0.093 A 
ATOM     17  C   UNL     1      38.182 -78.826  39.188  1.00  0.00     0.131 A 
ENDROOT
BRANCH   6  18
ATOM     18  O   UNL     1      39.230 -77.007  34.337  1.00  0.00    -0.507 OA
ATOM     19  H   UNL     1      39.154 -76.612  33.411  1.00  0.00     0.293 HD
ENDBRANCH   6  18
BRANCH  17  20
ATOM     20  O   UNL     1      36.909 -78.746  38.621  1.00  0.00    -0.507 OA
ATOM     21  H   UNL     1      36.139 -79.345  38.889  1.00  0.00     0.293 HD
ENDBRANCH  17  20
BRANCH  15  22
ATOM     22  O   UNL     1      39.613 -80.211  42.299  1.00  0.00    -0.508 OA
ATOM     23  H   UNL     1      38.945 -80.913  42.595  1.00  0.00     0.293 HD
ENDBRANCH  15  22
TORSDOF 3
ENDMDL
MODEL 3
REMARK VINA RESULT:    -5.206     18.629     18.998
REMARK INTER + INTRA:          -5.662
REMARK INTER:                  -5.662
REMARK INTRA:                   0.000
REMARK UNBOUND:                 0.000
REMARK SMILES Cc1cc(O)c2c(c1)C(=O)c1cc(O)cc(O)c1C2=O
REMARK SMILES IDX 1 1 2 2 8 3 7 4 6 5 4 6 3 7 19 8 20 9 18 10 11 11 9 12 10 13
REMARK SMILES IDX 12 14 13 15 15 16 16 17 5 18 17 20 14 22
REMARK H PARENT 5 19 17 21 14 23
REMARK Flexibility Score: inf
ROOT
ATOM      1  C   UNL     1      42.116 -95.250  35.821  1.00  0.00     0.044 C 
ATOM      2  C   UNL     1      41.569 -95.240  34.423  1.00  0.00    -0.047 A 
ATOM      3  C   UNL     1      42.299 -95.814  33.377  1.00  0.00     0.016 A 
ATOM      4  C   UNL     1      41.809 -95.783  32.060  1.00  0.00     0.038 A 
ATOM      5  C   UNL     1      40.568 -95.167  31.787  1.00  0.00     0.076 A 
ATOM      6  C   UNL     1      39.874 -94.514  32.837  1.00  0.00     0.127 A 
ATOM      7  C   UNL     1      40.371 -94.574  34.142  1.00  0.00     0.050 A 
ATOM      8  C   UNL     1      40.013 -95.285  30.413  1.00  0.00     0.201 C 
ATOM      9  O   UNL     1      38.765 -95.293  30.240  1.00  0.00    -0.288 OA
ATOM     10  C   UNL     1      40.920 -95.581  29.274  1.00  0.00     0.076 A 
ATOM     11  C   UNL     1      42.163 -96.194  29.552  1.00  0.00     0.041 A 
ATOM     12  C   UNL     1      42.593 -96.388  30.957  1.00  0.00     0.194 C 
ATOM     13  O   UNL     1      43.640 -97.046  31.212  1.00  0.00    -0.289 OA
ATOM     14  C   UNL     1      42.988 -96.613  28.494  1.00  0.00     0.059 A 
ATOM     15  C   UNL     1      42.595 -96.415  27.167  1.00  0.00     0.120 A 
ATOM     16  C   UNL     1      41.389 -95.775  26.890  1.00  0.00     0.093 A 
ATOM     17  C   UNL     1      40.559 -95.329  27.924  1.00  0.00     0.131 A 
ENDROOT
BRANCH   6  18
ATOM     18  O   UNL     1      38.714 -93.765  32.623  1.00  0.00    -0.507 OA
ATOM     19  H   UNL     1      37.880 -94.138  32.190  1.00  0.00     0.293 HD
ENDBRANCH   6  18
BRANCH  17  20
ATOM     20  O   UNL     1      39.414 -94.615  27.569  1.00  0.00    -0.507 OA
ATOM     21  H   UNL     1      39.259 -93.646  27.816  1.00  0.00     0.293 HD
ENDBRANCH  17  20
BRANCH  15  22
ATOM     22  O   UNL     1      43.404 -96.842  26.117  1.00  0.00    -0.508 OA
ATOM     23  H   UNL     1      43.953 -97.692  26.180  1.00  0.00     0.293 HD
ENDBRANCH  15  22
TORSDOF 3
ENDMDL
MODEL 4
REMARK VINA RESULT:    -5.161     16.910     17.468
REMARK INTER + INTRA:          -5.614
REMARK INTER:                  -5.614
REMARK INTRA:                   0.000
REMARK UNBOUND:                 0.000
REMARK SMILES Cc1cc(O)c2c(c1)C(=O)c1cc(O)cc(O)c1C2=O
REMARK SMILES IDX 1 1 2 2 8 3 7 4 6 5 4 6 3 7 19 8 20 9 18 10 11 11 9 12 10 13
REMARK SMILES IDX 12 14 13 15 15 16 16 17 5 18 17 20 14 22
REMARK H PARENT 5 19 17 21 14 23
REMARK Flexibility Score: inf
ROOT
ATOM      1  C   UNL     1      44.044 -95.478  38.979  1.00  0.00     0.044 C 
ATOM      2  C   UNL     1      42.863 -95.379  38.058  1.00  0.00    -0.047 A 
ATOM      3  C   UNL     1      43.024 -95.579  36.683  1.00  0.00     0.016 A 
ATOM      4  C   UNL     1      41.930 -95.459  35.810  1.00  0.00     0.038 A 
ATOM      5  C   UNL     1      40.654 -95.134  36.321  1.00  0.00     0.076 A 
ATOM      6  C   UNL     1      40.515 -94.849  37.704  1.00  0.00     0.127 A 
ATOM      7  C   UNL     1      41.614 -94.994  38.557  1.00  0.00     0.050 A 
ATOM      8  C   UNL     1      39.495 -95.163  35.391  1.00  0.00     0.201 C 
ATOM      9  O   UNL     1      38.349 -95.451  35.826  1.00  0.00    -0.288 OA
ATOM     10  C   UNL     1      39.721 -95.038  33.927  1.00  0.00     0.076 A 
ATOM     11  C   UNL     1      41.000 -95.362  33.419  1.00  0.00     0.041 A 
ATOM     12  C   UNL     1      42.110 -95.666  34.353  1.00  0.00     0.194 C 
ATOM     13  O   UNL     1      43.217 -96.077  33.905  1.00  0.00    -0.289 OA
ATOM     14  C   UNL     1      41.214 -95.388  32.031  1.00  0.00     0.059 A 
ATOM     15  C   UNL     1      40.175 -95.083  31.147  1.00  0.00     0.120 A 
ATOM     16  C   UNL     1      38.924 -94.725  31.645  1.00  0.00     0.093 A 
ATOM     17  C   UNL     1      38.690 -94.670  33.024  1.00  0.00     0.131 A 
ENDROOT
BRANCH   6  18
ATOM     18  O   UNL     1      39.322 -94.387  38.263  1.00  0.00    -0.507 OA
ATOM     19  H   UNL     1      38.567 -94.995  38.551  1.00  0.00     0.293 HD
ENDBRANCH   6  18
BRANCH  17  20
ATOM     20  O   UNL     1      37.441 -94.213  33.447  1.00  0.00    -0.507 OA
ATOM     21  H   UNL     1      37.296 -93.692  34.302  1.00  0.00     0.293 HD
ENDBRANCH  17  20
BRANCH  15  22
ATOM     22  O   UNL     1      40.380 -95.122  29.770  1.00  0.00    -0.508 OA
ATOM     23  H   UNL     1      39.809 -94.580  29.132  1.00  0.00     0.293 HD
ENDBRANCH  15  22
TORSDOF 3
ENDMDL
MODEL 5
REMARK VINA RESULT:    -5.101     18.398     18.556
REMARK INTER + INTRA:          -5.548
REMARK INTER:                  -5.548
REMARK INTRA:                   0.000
REMARK UNBOUND:                 0.000
REMARK SMILES Cc1cc(O)c2c(c1)C(=O)c1cc(O)cc(O)c1C2=O
REMARK SMILES IDX 1 1 2 2 8 3 7 4 6 5 4 6 3 7 19 8 20 9 18 10 11 11 9 12 10 13
REMARK SMILES IDX 12 14 13 15 15 16 16 17 5 18 17 20 14 22
REMARK H PARENT 5 19 17 21 14 23
REMARK Flexibility Score: inf
ROOT
ATOM      1  C   UNL     1      43.486 -95.663  34.533  1.00  0.00     0.044 C 
ATOM      2  C   UNL     1      42.672 -95.651  33.272  1.00  0.00    -0.047 A 
ATOM      3  C   UNL     1      41.307 -95.346  33.317  1.00  0.00     0.016 A 
ATOM      4  C   UNL     1      40.531 -95.361  32.146  1.00  0.00     0.038 A 
ATOM      5  C   UNL     1      41.131 -95.688  30.910  1.00  0.00     0.076 A 
ATOM      6  C   UNL     1      42.494 -96.079  30.883  1.00  0.00     0.127 A 
ATOM      7  C   UNL     1      43.252 -96.037  32.058  1.00  0.00     0.050 A 
ATOM      8  C   UNL     1      40.315 -95.549  29.674  1.00  0.00     0.201 C 
ATOM      9  O   UNL     1      40.875 -95.262  28.583  1.00  0.00    -0.288 OA
ATOM     10  C   UNL     1      38.832 -95.562  29.764  1.00  0.00     0.076 A 
ATOM     11  C   UNL     1      38.236 -95.237  31.005  1.00  0.00     0.041 A 
ATOM     12  C   UNL     1      39.084 -95.043  32.204  1.00  0.00     0.194 C 
ATOM     13  O   UNL     1      38.571 -94.632  33.281  1.00  0.00    -0.289 OA
ATOM     14  C   UNL     1      36.840 -95.105  31.095  1.00  0.00     0.059 A 
ATOM     15  C   UNL     1      36.034 -95.306  29.971  1.00  0.00     0.120 A 
ATOM     16  C   UNL     1      36.615 -95.666  28.757  1.00  0.00     0.093 A 
ATOM     17  C   UNL     1      38.001 -95.824  28.645  1.00  0.00     0.131 A 
ENDROOT
BRANCH   6  18
ATOM     18  O   UNL     1      43.123 -96.548  29.728  1.00  0.00    -0.507 OA
ATOM     19  H   UNL     1      42.923 -97.446  29.308  1.00  0.00     0.293 HD
ENDBRANCH   6  18
BRANCH  17  20
ATOM     20  O   UNL     1      38.500 -96.275  27.421  1.00  0.00    -0.507 OA
ATOM     21  H   UNL     1      39.148 -95.746  26.853  1.00  0.00     0.293 HD
ENDBRANCH  17  20
BRANCH  15  22
ATOM     22  O   UNL     1      34.651 -95.163  30.055  1.00  0.00    -0.508 OA
ATOM     23  H   UNL     1      34.205 -94.795  30.887  1.00  0.00     0.293 HD
ENDBRANCH  15  22
TORSDOF 3
ENDMDL
MODEL 6
REMARK VINA RESULT:    -4.948     16.770     17.719
REMARK INTER + INTRA:          -5.382
REMARK INTER:                  -5.382
REMARK INTRA:                   0.000
REMARK UNBOUND:                 0.000
REMARK SMILES Cc1cc(O)c2c(c1)C(=O)c1cc(O)cc(O)c1C2=O
REMARK SMILES IDX 1 1 2 2 8 3 7 4 6 5 4 6 3 7 19 8 20 9 18 10 11 11 9 12 10 13
REMARK SMILES IDX 12 14 13 15 15 16 16 17 5 18 17 20 14 22
REMARK H PARENT 5 19 17 21 14 23
REMARK Flexibility Score: inf
ROOT
ATOM      1  C   UNL     1      43.217 -95.578  41.509  1.00  0.00     0.044 C 
ATOM      2  C   UNL     1      42.409 -95.494  40.246  1.00  0.00    -0.047 A 
ATOM      3  C   UNL     1      42.991 -95.818  39.016  1.00  0.00     0.016 A 
ATOM      4  C   UNL     1      42.252 -95.714  37.825  1.00  0.00     0.038 A 
ATOM      5  C   UNL     1      40.909 -95.279  37.867  1.00  0.00     0.076 A 
ATOM      6  C   UNL     1      40.352 -94.872  39.107  1.00  0.00     0.127 A 
ATOM      7  C   UNL     1      41.100 -95.003  40.281  1.00  0.00     0.050 A 
ATOM      8  C   UNL     1      40.116 -95.324  36.611  1.00  0.00     0.201 C 
ATOM      9  O   UNL     1      38.872 -95.513  36.662  1.00  0.00    -0.288 OA
ATOM     10  C   UNL     1      40.813 -95.336  35.298  1.00  0.00     0.076 A 
ATOM     11  C   UNL     1      42.159 -95.769  35.261  1.00  0.00     0.041 A 
ATOM     12  C   UNL     1      42.878 -96.053  36.525  1.00  0.00     0.194 C 
ATOM     13  O   UNL     1      44.035 -96.559  36.493  1.00  0.00    -0.289 OA
ATOM     14  C   UNL     1      42.809 -95.924  34.025  1.00  0.00     0.059 A 
ATOM     15  C   UNL     1      42.139 -95.640  32.831  1.00  0.00     0.120 A 
ATOM     16  C   UNL     1      40.827 -95.174  32.866  1.00  0.00     0.093 A 
ATOM     17  C   UNL     1      40.164 -94.990  34.085  1.00  0.00     0.131 A 
ENDROOT
BRANCH   6  18
ATOM     18  O   UNL     1      39.082 -94.300  39.212  1.00  0.00    -0.507 OA
ATOM     19  H   UNL     1      38.287 -94.603  38.667  1.00  0.00     0.293 HD
ENDBRANCH   6  18
BRANCH  17  20
ATOM     20  O   UNL     1      38.884 -94.434  34.044  1.00  0.00    -0.507 OA
ATOM     21  H   UNL     1      38.396 -94.093  34.862  1.00  0.00     0.293 HD
ENDBRANCH  17  20
BRANCH  15  22
ATOM     22  O   UNL     1      42.777 -95.806  31.604  1.00  0.00    -0.508 OA
ATOM     23  H   UNL     1      42.469 -95.311  30.774  1.00  0.00     0.293 HD
ENDBRANCH  15  22
TORSDOF 3
ENDMDL
MODEL 7
REMARK VINA RESULT:    -4.911      2.832      4.771
REMARK INTER + INTRA:          -5.341
REMARK INTER:                  -5.341
REMARK INTRA:                   0.000
REMARK UNBOUND:                 0.000
REMARK SMILES Cc1cc(O)c2c(c1)C(=O)c1cc(O)cc(O)c1C2=O
REMARK SMILES IDX 1 1 2 2 8 3 7 4 6 5 4 6 3 7 19 8 20 9 18 10 11 11 9 12 10 13
REMARK SMILES IDX 12 14 13 15 15 16 16 17 5 18 17 20 14 22
REMARK H PARENT 5 19 17 21 14 23
REMARK Flexibility Score: inf
ROOT
ATOM      1  C   UNL     1      33.177 -78.131  36.643  1.00  0.00     0.044 C 
ATOM      2  C   UNL     1      34.631 -78.018  36.288  1.00  0.00    -0.047 A 
ATOM      3  C   UNL     1      35.013 -77.674  34.987  1.00  0.00     0.016 A 
ATOM      4  C   UNL     1      36.371 -77.594  34.637  1.00  0.00     0.038 A 
ATOM      5  C   UNL     1      37.364 -77.862  35.605  1.00  0.00     0.076 A 
ATOM      6  C   UNL     1      36.970 -78.292  36.898  1.00  0.00     0.127 A 
ATOM      7  C   UNL     1      35.613 -78.346  37.229  1.00  0.00     0.050 A 
ATOM      8  C   UNL     1      38.785 -77.623  35.241  1.00  0.00     0.201 C 
ATOM      9  O   UNL     1      39.612 -77.287  36.130  1.00  0.00    -0.288 OA
ATOM     10  C   UNL     1      39.185 -77.596  33.810  1.00  0.00     0.076 A 
ATOM     11  C   UNL     1      38.188 -77.329  32.843  1.00  0.00     0.041 A 
ATOM     12  C   UNL     1      36.767 -77.235  33.254  1.00  0.00     0.194 C 
ATOM     13  O   UNL     1      35.891 -76.875  32.419  1.00  0.00    -0.289 OA
ATOM     14  C   UNL     1      38.549 -77.161  31.495  1.00  0.00     0.059 A 
ATOM     15  C   UNL     1      39.885 -77.268  31.101  1.00  0.00     0.120 A 
ATOM     16  C   UNL     1      40.865 -77.569  32.044  1.00  0.00     0.093 A 
ATOM     17  C   UNL     1      40.529 -77.764  33.389  1.00  0.00     0.131 A 
ENDROOT
BRANCH   6  18
ATOM     18  O   UNL     1      37.887 -78.709  37.867  1.00  0.00    -0.507 OA
ATOM     19  H   UNL     1      38.082 -78.190  38.711  1.00  0.00     0.293 HD
ENDBRANCH   6  18
BRANCH  17  20
ATOM     20  O   UNL     1      41.551 -78.153  34.257  1.00  0.00    -0.507 OA
ATOM     21  H   UNL     1      42.471 -77.735  34.261  1.00  0.00     0.293 HD
ENDBRANCH  17  20
BRANCH  15  22
ATOM     22  O   UNL     1      40.248 -77.087  29.768  1.00  0.00    -0.508 OA
ATOM     23  H   UNL     1      41.062 -76.542  29.508  1.00  0.00     0.293 HD
ENDBRANCH  15  22
TORSDOF 3
ENDMDL
MODEL 8
REMARK VINA RESULT:    -4.879      1.839      2.480
REMARK INTER + INTRA:          -5.307
REMARK INTER:                  -5.307
REMARK INTRA:                   0.000
REMARK UNBOUND:                 0.000
REMARK SMILES Cc1cc(O)c2c(c1)C(=O)c1cc(O)cc(O)c1C2=O
REMARK SMILES IDX 1 1 2 2 8 3 7 4 6 5 4 6 3 7 19 8 20 9 18 10 11 11 9 12 10 13
REMARK SMILES IDX 12 14 13 15 15 16 16 17 5 18 17 20 14 22
REMARK H PARENT 5 19 17 21 14 23
REMARK Flexibility Score: inf
ROOT
ATOM      1  C   UNL     1      38.862 -79.424  40.862  1.00  0.00     0.044 C 
ATOM      2  C   UNL     1      39.610 -78.937  39.655  1.00  0.00    -0.047 A 
ATOM      3  C   UNL     1      38.917 -78.576  38.495  1.00  0.00     0.016 A 
ATOM      4  C   UNL     1      39.610 -78.147  37.351  1.00  0.00     0.038 A 
ATOM      5  C   UNL     1      41.021 -78.076  37.369  1.00  0.00     0.076 A 
ATOM      6  C   UNL     1      41.721 -78.523  38.519  1.00  0.00     0.127 A 
ATOM      7  C   UNL     1      41.009 -78.928  39.652  1.00  0.00     0.050 A 
ATOM      8  C   UNL     1      41.710 -77.477  36.196  1.00  0.00     0.201 C 
ATOM      9  O   UNL     1      42.806 -76.877  36.352  1.00  0.00    -0.288 OA
ATOM     10  C   UNL     1      41.018 -77.424  34.882  1.00  0.00     0.076 A 
ATOM     11  C   UNL     1      39.606 -77.497  34.868  1.00  0.00     0.041 A 
ATOM     12  C   UNL     1      38.868 -77.773  36.123  1.00  0.00     0.194 C 
ATOM     13  O   UNL     1      37.607 -77.716  36.140  1.00  0.00    -0.289 OA
ATOM     14  C   UNL     1      38.909 -77.313  33.662  1.00  0.00     0.059 A 
ATOM     15  C   UNL     1      39.601 -77.071  32.472  1.00  0.00     0.120 A 
ATOM     16  C   UNL     1      40.994 -77.038  32.475  1.00  0.00     0.093 A 
ATOM     17  C   UNL     1      41.713 -77.240  33.659  1.00  0.00     0.131 A 
ENDROOT
BRANCH   6  18
ATOM     18  O   UNL     1      43.114 -78.616  38.565  1.00  0.00    -0.507 OA
ATOM     19  H   UNL     1      43.632 -79.416  38.229  1.00  0.00     0.293 HD
ENDBRANCH   6  18
BRANCH  17  20
ATOM     20  O   UNL     1      43.105 -77.284  33.566  1.00  0.00    -0.507 OA
ATOM     21  H   UNL     1      43.678 -76.475  33.363  1.00  0.00     0.293 HD
ENDBRANCH  17  20
BRANCH  15  22
ATOM     22  O   UNL     1      38.912 -76.875  31.277  1.00  0.00    -0.508 OA
ATOM     23  H   UNL     1      37.960 -76.529  31.264  1.00  0.00     0.293 HD
ENDBRANCH  15  22
TORSDOF 3
ENDMDL
MODEL 9
REMARK VINA RESULT:    -4.786     18.179     18.991
REMARK INTER + INTRA:          -5.205
REMARK INTER:                  -5.205
REMARK INTRA:                   0.000
REMARK UNBOUND:                 0.000
REMARK SMILES Cc1cc(O)c2c(c1)C(=O)c1cc(O)cc(O)c1C2=O
REMARK SMILES IDX 1 1 2 2 8 3 7 4 6 5 4 6 3 7 19 8 20 9 18 10 11 11 9 12 10 13
REMARK SMILES IDX 12 14 13 15 15 16 16 17 5 18 17 20 14 22
REMARK H PARENT 5 19 17 21 14 23
REMARK Flexibility Score: inf
ROOT
ATOM      1  C   UNL     1      34.902 -94.936  29.054  1.00  0.00     0.044 C 
ATOM      2  C   UNL     1      36.321 -95.254  29.425  1.00  0.00    -0.047 A 
ATOM      3  C   UNL     1      36.771 -95.043  30.733  1.00  0.00     0.016 A 
ATOM      4  C   UNL     1      38.105 -95.311  31.083  1.00  0.00     0.038 A 
ATOM      5  C   UNL     1      39.003 -95.797  30.108  1.00  0.00     0.076 A 
ATOM      6  C   UNL     1      38.563 -95.928  28.765  1.00  0.00     0.127 A 
ATOM      7  C   UNL     1      37.226 -95.675  28.445  1.00  0.00     0.050 A 
ATOM      8  C   UNL     1      40.362 -96.209  30.547  1.00  0.00     0.201 C 
ATOM      9  O   UNL     1      40.969 -97.125  29.931  1.00  0.00    -0.288 OA
ATOM     10  C   UNL     1      40.920 -95.675  31.817  1.00  0.00     0.076 A 
ATOM     11  C   UNL     1      40.018 -95.187  32.789  1.00  0.00     0.041 A 
ATOM     12  C   UNL     1      38.575 -95.078  32.469  1.00  0.00     0.194 C 
ATOM     13  O   UNL     1      37.750 -94.763  33.372  1.00  0.00    -0.289 OA
ATOM     14  C   UNL     1      40.495 -94.801  34.054  1.00  0.00     0.059 A 
ATOM     15  C   UNL     1      41.857 -94.884  34.353  1.00  0.00     0.120 A 
ATOM     16  C   UNL     1      42.755 -95.326  33.383  1.00  0.00     0.093 A 
ATOM     17  C   UNL     1      42.309 -95.696  32.110  1.00  0.00     0.131 A 
ENDROOT
BRANCH   6  18
ATOM     18  O   UNL     1      39.424 -96.268  27.719  1.00  0.00    -0.507 OA
ATOM     19  H   UNL     1      39.430 -97.175  27.273  1.00  0.00     0.293 HD
ENDBRANCH   6  18
BRANCH  17  20
ATOM     20  O   UNL     1      43.276 -96.041  31.164  1.00  0.00    -0.507 OA
ATOM     21  H   UNL     1      43.073 -96.561  30.321  1.00  0.00     0.293 HD
ENDBRANCH  17  20
BRANCH  15  22
ATOM     22  O   UNL     1      42.331 -94.515  35.610  1.00  0.00    -0.508 OA
ATOM     23  H   UNL     1      42.165 -93.590  35.990  1.00  0.00     0.293 HD
ENDBRANCH  15  22
TORSDOF 3
ENDMDL
