MODEL 1
REMARK VINA RESULT:    -6.709      0.000      0.000
REMARK INTER + INTRA:         -10.187
REMARK INTER:                  -9.258
REMARK INTRA:                  -0.929
REMARK UNBOUND:                -0.929
REMARK SMILES O=c1c(-c2ccc(O)cc2)coc2c([C@@H]3O[C@@H](CO)[C@@H](O)[C@H](O)[C@H]3O)c(O)ccc12
REMARK SMILES IDX 3 1 11 2 12 3 13 4 30 5 2 6 1 7 29 8 28 9 26 10 14 11 4 12
REMARK SMILES IDX 5 13 6 14 7 15 10 16 9 17 8 18 15 20 24 21 16 22 22 23 17 24
REMARK SMILES IDX 20 25 25 26 23 28 18 30 19 31 21 33 27 35
REMARK H PARENT 8 19 25 27 23 29 19 32 21 34 27 36
REMARK Flexibility Score: inf
ROOT
ATOM      1  C   UNL     1      30.913   8.588  34.027  1.00  0.00     0.065 A 
ATOM      2  C   UNL     1      30.881   9.817  33.448  1.00  0.00     0.208 A 
ATOM      3  O   UNL     1      30.808   9.938  32.131  1.00  0.00    -0.463 OA
ATOM      4  C   UNL     1      30.729   8.883  31.292  1.00  0.00     0.147 A 
ATOM      5  C   UNL     1      31.006   7.622  31.732  1.00  0.00     0.066 A 
ATOM      6  C   UNL     1      31.180   7.487  33.149  1.00  0.00     0.200 A 
ATOM      7  O   UNL     1      31.464   6.356  33.616  1.00  0.00    -0.288 OA
ATOM      8  C   UNL     1      31.290   6.664  30.793  1.00  0.00     0.020 A 
ATOM      9  C   UNL     1      31.210   7.067  29.375  1.00  0.00     0.047 A 
ATOM     10  C   UNL     1      30.186   8.074  28.894  1.00  0.00     0.125 A 
ATOM     11  C   UNL     1      30.112   9.142  30.010  1.00  0.00     0.069 A 
ENDROOT
BRANCH   1  12
ATOM     12  C   UNL     1      29.992   8.388  35.276  1.00  0.00    -0.011 A 
ATOM     13  C   UNL     1      30.450   7.548  36.337  1.00  0.00     0.013 A 
ATOM     14  C   UNL     1      31.301   8.140  37.301  1.00  0.00     0.047 A 
ATOM     15  C   UNL     1      31.472   9.525  37.241  1.00  0.00     0.115 A 
ATOM     16  C   UNL     1      29.511   9.537  35.876  1.00  0.00     0.013 A 
ATOM     17  C   UNL     1      30.417  10.242  36.696  1.00  0.00     0.047 A 
BRANCH  15  18
ATOM     18  O   UNL     1      32.743  10.098  37.360  1.00  0.00    -0.508 OA
ATOM     19  H   UNL     1      32.741  11.109  37.571  1.00  0.00     0.293 HD
ENDBRANCH  15  18
ENDBRANCH   1  12
BRANCH  11  20
ATOM     20  C   UNL     1      29.479  10.671  29.981  1.00  0.00     0.188 C 
ATOM     21  C   UNL     1      29.910  12.252  30.199  1.00  0.00     0.179 C 
ATOM     22  O   UNL     1      28.367  10.695  29.036  1.00  0.00    -0.362 OA
ATOM     23  C   UNL     1      28.669  12.940  30.991  1.00  0.00     0.177 C 
ATOM     24  C   UNL     1      27.692  11.963  28.772  1.00  0.00     0.176 C 
ATOM     25  C   UNL     1      27.424  12.769  30.066  1.00  0.00     0.177 C 
BRANCH  21  26
ATOM     26  O   UNL     1      31.145  12.531  30.798  1.00  0.00    -0.387 OA
ATOM     27  H   UNL     1      31.015  12.699  31.763  1.00  0.00     0.211 HD
ENDBRANCH  21  26
BRANCH  23  28
ATOM     28  O   UNL     1      28.527  14.294  31.552  1.00  0.00    -0.387 OA
ATOM     29  H   UNL     1      29.266  14.390  32.218  1.00  0.00     0.211 HD
ENDBRANCH  23  28
BRANCH  24  30
ATOM     30  C   UNL     1      26.418  11.901  27.845  1.00  0.00     0.191 C 
BRANCH  30  31
ATOM     31  O   UNL     1      25.379  11.174  28.408  1.00  0.00    -0.394 OA
ATOM     32  H   UNL     1      24.793  11.897  28.797  1.00  0.00     0.210 HD
ENDBRANCH  30  31
ENDBRANCH  24  30
BRANCH  25  33
ATOM     33  O   UNL     1      26.382  12.173  30.794  1.00  0.00    -0.388 OA
ATOM     34  H   UNL     1      26.578  12.190  31.765  1.00  0.00     0.211 HD
ENDBRANCH  25  33
ENDBRANCH  11  20
BRANCH  10  35
ATOM     35  O   UNL     1      30.461   6.657  28.512  1.00  0.00    -0.507 OA
ATOM     36  H   UNL     1      30.681   5.719  29.053  1.00  0.00     0.293 HD
ENDBRANCH  10  35
TORSDOF 9
ENDMDL
MODEL 2
REMARK VINA RESULT:    -6.474      3.556      7.417
REMARK INTER + INTRA:          -9.864
REMARK INTER:                  -8.155
REMARK INTRA:                  -1.708
REMARK UNBOUND:                -0.929
REMARK SMILES O=c1c(-c2ccc(O)cc2)coc2c([C@@H]3O[C@@H](CO)[C@@H](O)[C@H](O)[C@H]3O)c(O)ccc12
REMARK SMILES IDX 3 1 11 2 12 3 13 4 30 5 2 6 1 7 29 8 28 9 26 10 14 11 4 12
REMARK SMILES IDX 5 13 6 14 7 15 10 16 9 17 8 18 15 20 24 21 16 22 22 23 17 24
REMARK SMILES IDX 20 25 25 26 23 28 18 30 19 31 21 33 27 35
REMARK H PARENT 8 19 25 27 23 29 19 32 21 34 27 36
REMARK Flexibility Score: inf
ROOT
ATOM      1  C   UNL     1      28.926   9.120  26.448  1.00  0.00     0.065 A 
ATOM      2  C   UNL     1      27.885   9.986  26.554  1.00  0.00     0.208 A 
ATOM      3  O   UNL     1      27.747  10.741  27.634  1.00  0.00    -0.463 OA
ATOM      4  C   UNL     1      28.621  10.732  28.663  1.00  0.00     0.147 A 
ATOM      5  C   UNL     1      29.547   9.737  28.781  1.00  0.00     0.066 A 
ATOM      6  C   UNL     1      29.647   8.851  27.658  1.00  0.00     0.200 A 
ATOM      7  O   UNL     1      30.462   7.897  27.714  1.00  0.00    -0.288 OA
ATOM      8  C   UNL     1      30.135   9.551  30.006  1.00  0.00     0.020 A 
ATOM      9  C   UNL     1      29.760  10.489  31.081  1.00  0.00     0.047 A 
ATOM     10  C   UNL     1      29.453  11.944  30.793  1.00  0.00     0.125 A 
ATOM     11  C   UNL     1      28.669  11.938  29.461  1.00  0.00     0.069 A 
ENDROOT
BRANCH   1  12
ATOM     12  C   UNL     1      29.672   9.101  25.072  1.00  0.00    -0.011 A 
ATOM     13  C   UNL     1      29.060   9.745  23.953  1.00  0.00     0.013 A 
ATOM     14  C   UNL     1      29.267  11.140  23.826  1.00  0.00     0.047 A 
ATOM     15  C   UNL     1      30.192  11.732  24.688  1.00  0.00     0.115 A 
ATOM     16  C   UNL     1      30.991   9.515  25.081  1.00  0.00     0.013 A 
ATOM     17  C   UNL     1      31.209  10.907  25.144  1.00  0.00     0.047 A 
BRANCH  15  18
ATOM     18  O   UNL     1      29.899  12.936  25.339  1.00  0.00    -0.508 OA
ATOM     19  H   UNL     1      29.897  12.878  26.370  1.00  0.00     0.293 HD
ENDBRANCH  15  18
ENDBRANCH   1  12
BRANCH  11  20
ATOM     20  C   UNL     1      27.740  13.117  28.766  1.00  0.00     0.188 C 
ATOM     21  C   UNL     1      26.271  13.863  28.918  1.00  0.00     0.179 C 
ATOM     22  O   UNL     1      28.624  14.113  28.169  1.00  0.00    -0.362 OA
ATOM     23  C   UNL     1      25.733  14.082  27.400  1.00  0.00     0.177 C 
ATOM     24  C   UNL     1      28.038  15.304  27.560  1.00  0.00     0.176 C 
ATOM     25  C   UNL     1      26.800  14.974  26.692  1.00  0.00     0.177 C 
BRANCH  21  26
ATOM     26  O   UNL     1      25.307  13.276  29.746  1.00  0.00    -0.387 OA
ATOM     27  H   UNL     1      25.172  13.837  30.548  1.00  0.00     0.211 HD
ENDBRANCH  21  26
BRANCH  23  28
ATOM     28  O   UNL     1      24.442  14.593  26.909  1.00  0.00    -0.387 OA
ATOM     29  H   UNL     1      24.249  14.084  26.072  1.00  0.00     0.211 HD
ENDBRANCH  23  28
BRANCH  24  30
ATOM     30  C   UNL     1      29.033  16.276  26.817  1.00  0.00     0.191 C 
BRANCH  30  31
ATOM     31  O   UNL     1      30.075  15.604  26.195  1.00  0.00    -0.394 OA
ATOM     32  H   UNL     1      30.100  16.036  25.284  1.00  0.00     0.210 HD
ENDBRANCH  30  31
ENDBRANCH  24  30
BRANCH  25  33
ATOM     33  O   UNL     1      27.203  14.357  25.497  1.00  0.00    -0.388 OA
ATOM     34  H   UNL     1      26.541  13.676  25.213  1.00  0.00     0.211 HD
ENDBRANCH  25  33
ENDBRANCH  11  20
BRANCH  10  35
ATOM     35  O   UNL     1      30.462  11.283  31.674  1.00  0.00    -0.507 OA
ATOM     36  H   UNL     1      31.487  11.513  32.016  1.00  0.00     0.293 HD
ENDBRANCH  10  35
TORSDOF 9
ENDMDL
MODEL 3
REMARK VINA RESULT:    -6.445      5.118      9.044
REMARK INTER + INTRA:          -9.823
REMARK INTER:                  -8.647
REMARK INTRA:                  -1.176
REMARK UNBOUND:                -0.929
REMARK SMILES O=c1c(-c2ccc(O)cc2)coc2c([C@@H]3O[C@@H](CO)[C@@H](O)[C@H](O)[C@H]3O)c(O)ccc12
REMARK SMILES IDX 3 1 11 2 12 3 13 4 30 5 2 6 1 7 29 8 28 9 26 10 14 11 4 12
REMARK SMILES IDX 5 13 6 14 7 15 10 16 9 17 8 18 15 20 24 21 16 22 22 23 17 24
REMARK SMILES IDX 20 25 25 26 23 28 18 30 19 31 21 33 27 35
REMARK H PARENT 8 19 25 27 23 29 19 32 21 34 27 36
REMARK Flexibility Score: inf
ROOT
ATOM      1  C   UNL     1      28.975   9.133  22.295  1.00  0.00     0.065 A 
ATOM      2  C   UNL     1      28.416   9.989  23.190  1.00  0.00     0.208 A 
ATOM      3  O   UNL     1      28.586   9.806  24.490  1.00  0.00    -0.463 OA
ATOM      4  C   UNL     1      29.330   8.805  25.009  1.00  0.00     0.147 A 
ATOM      5  C   UNL     1      29.720   7.754  24.231  1.00  0.00     0.066 A 
ATOM      6  C   UNL     1      29.461   7.894  22.828  1.00  0.00     0.200 A 
ATOM      7  O   UNL     1      29.772   6.950  22.060  1.00  0.00    -0.288 OA
ATOM      8  C   UNL     1      30.123   6.606  24.863  1.00  0.00     0.020 A 
ATOM      9  C   UNL     1      30.161   6.627  26.338  1.00  0.00     0.047 A 
ATOM     10  C   UNL     1      30.535   7.879  27.104  1.00  0.00     0.125 A 
ATOM     11  C   UNL     1      29.874   9.041  26.328  1.00  0.00     0.069 A 
ENDROOT
BRANCH   1  12
ATOM     12  C   UNL     1      29.684   9.787  21.062  1.00  0.00    -0.011 A 
ATOM     13  C   UNL     1      29.765  11.212  20.995  1.00  0.00     0.013 A 
ATOM     14  C   UNL     1      30.834  11.825  21.691  1.00  0.00     0.047 A 
ATOM     15  C   UNL     1      31.816  10.989  22.225  1.00  0.00     0.115 A 
ATOM     16  C   UNL     1      30.948   9.315  20.758  1.00  0.00     0.013 A 
ATOM     17  C   UNL     1      32.002   9.780  21.571  1.00  0.00     0.047 A 
BRANCH  15  18
ATOM     18  O   UNL     1      32.295  11.182  23.526  1.00  0.00    -0.508 OA
ATOM     19  H   UNL     1      32.077  10.415  24.182  1.00  0.00     0.293 HD
ENDBRANCH  15  18
ENDBRANCH   1  12
BRANCH  11  20
ATOM     20  C   UNL     1      29.583  10.603  26.792  1.00  0.00     0.188 C 
ATOM     21  C   UNL     1      29.611  12.151  26.210  1.00  0.00     0.179 C 
ATOM     22  O   UNL     1      28.558  10.594  27.831  1.00  0.00    -0.362 OA
ATOM     23  C   UNL     1      30.198  13.063  27.421  1.00  0.00     0.177 C 
ATOM     24  C   UNL     1      28.067  11.868  28.349  1.00  0.00     0.176 C 
ATOM     25  C   UNL     1      29.209  12.877  28.614  1.00  0.00     0.177 C 
BRANCH  21  26
ATOM     26  O   UNL     1      30.261  12.395  24.995  1.00  0.00    -0.387 OA
ATOM     27  H   UNL     1      29.768  13.085  24.487  1.00  0.00     0.211 HD
ENDBRANCH  21  26
BRANCH  23  28
ATOM     28  O   UNL     1      30.551  14.492  27.455  1.00  0.00    -0.387 OA
ATOM     29  H   UNL     1      31.004  14.680  26.584  1.00  0.00     0.211 HD
ENDBRANCH  23  28
BRANCH  24  30
ATOM     30  C   UNL     1      27.058  11.792  29.560  1.00  0.00     0.191 C 
BRANCH  30  31
ATOM     31  O   UNL     1      27.643  11.292  30.715  1.00  0.00    -0.394 OA
ATOM     32  H   UNL     1      28.601  11.595  30.623  1.00  0.00     0.210 HD
ENDBRANCH  30  31
ENDBRANCH  24  30
BRANCH  25  33
ATOM     33  O   UNL     1      29.929  12.498  29.759  1.00  0.00    -0.388 OA
ATOM     34  H   UNL     1      29.847  13.184  30.468  1.00  0.00     0.211 HD
ENDBRANCH  25  33
ENDBRANCH  11  20
BRANCH  10  35
ATOM     35  O   UNL     1      31.119   6.505  27.074  1.00  0.00    -0.507 OA
ATOM     36  H   UNL     1      32.062   6.038  27.409  1.00  0.00     0.293 HD
ENDBRANCH  10  35
TORSDOF 9
ENDMDL
MODEL 4
REMARK VINA RESULT:    -6.365      4.060      6.730
REMARK INTER + INTRA:          -9.712
REMARK INTER:                  -8.987
REMARK INTRA:                  -0.725
REMARK UNBOUND:                -0.929
REMARK SMILES O=c1c(-c2ccc(O)cc2)coc2c([C@@H]3O[C@@H](CO)[C@@H](O)[C@H](O)[C@H]3O)c(O)ccc12
REMARK SMILES IDX 3 1 11 2 12 3 13 4 30 5 2 6 1 7 29 8 28 9 26 10 14 11 4 12
REMARK SMILES IDX 5 13 6 14 7 15 10 16 9 17 8 18 15 20 24 21 16 22 22 23 17 24
REMARK SMILES IDX 20 25 25 26 23 28 18 30 19 31 21 33 27 35
REMARK H PARENT 8 19 25 27 23 29 19 32 21 34 27 36
REMARK Flexibility Score: inf
ROOT
ATOM      1  C   UNL     1      29.782   8.923  29.191  1.00  0.00     0.065 A 
ATOM      2  C   UNL     1      29.498   8.703  27.881  1.00  0.00     0.208 A 
ATOM      3  O   UNL     1      29.240   9.719  27.070  1.00  0.00    -0.463 OA
ATOM      4  C   UNL     1      29.272  11.010  27.465  1.00  0.00     0.147 A 
ATOM      5  C   UNL     1      29.292  11.332  28.790  1.00  0.00     0.066 A 
ATOM      6  C   UNL     1      29.478  10.232  29.690  1.00  0.00     0.200 A 
ATOM      7  O   UNL     1      29.480  10.458  30.926  1.00  0.00    -0.288 OA
ATOM      8  C   UNL     1      28.937  12.608  29.144  1.00  0.00     0.020 A 
ATOM      9  C   UNL     1      28.623  13.547  28.050  1.00  0.00     0.047 A 
ATOM     10  C   UNL     1      29.347  13.488  26.721  1.00  0.00     0.125 A 
ATOM     11  C   UNL     1      29.526  11.981  26.424  1.00  0.00     0.069 A 
ENDROOT
BRANCH   1  12
ATOM     12  C   UNL     1      30.990   8.121  29.780  1.00  0.00    -0.011 A 
ATOM     13  C   UNL     1      31.181   8.112  31.196  1.00  0.00     0.013 A 
ATOM     14  C   UNL     1      30.438   7.161  31.937  1.00  0.00     0.047 A 
ATOM     15  C   UNL     1      29.730   6.198  31.216  1.00  0.00     0.115 A 
ATOM     16  C   UNL     1      31.116   6.807  29.367  1.00  0.00     0.013 A 
ATOM     17  C   UNL     1      30.245   5.875  29.969  1.00  0.00     0.047 A 
BRANCH  15  18
ATOM     18  O   UNL     1      28.411   5.875  31.552  1.00  0.00    -0.508 OA
ATOM     19  H   UNL     1      28.317   5.111  32.240  1.00  0.00     0.293 HD
ENDBRANCH  15  18
ENDBRANCH   1  12
BRANCH  11  20
ATOM     20  C   UNL     1      29.905  11.212  25.008  1.00  0.00     0.188 C 
ATOM     21  C   UNL     1      30.792   9.944  24.424  1.00  0.00     0.179 C 
ATOM     22  O   UNL     1      28.789  11.369  24.082  1.00  0.00    -0.362 OA
ATOM     23  C   UNL     1      31.442  10.471  23.030  1.00  0.00     0.177 C 
ATOM     24  C   UNL     1      28.851  10.704  22.783  1.00  0.00     0.176 C 
ATOM     25  C   UNL     1      30.238  10.847  22.112  1.00  0.00     0.177 C 
BRANCH  21  26
ATOM     26  O   UNL     1      31.741   9.351  25.265  1.00  0.00    -0.387 OA
ATOM     27  H   UNL     1      31.511   9.535  26.208  1.00  0.00     0.211 HD
ENDBRANCH  21  26
BRANCH  23  28
ATOM     28  O   UNL     1      32.409   9.827  22.125  1.00  0.00    -0.387 OA
ATOM     29  H   UNL     1      32.202  10.178  21.213  1.00  0.00     0.211 HD
ENDBRANCH  23  28
BRANCH  24  30
ATOM     30  C   UNL     1      27.678  11.017  21.776  1.00  0.00     0.191 C 
BRANCH  30  31
ATOM     31  O   UNL     1      27.273  12.343  21.819  1.00  0.00    -0.394 OA
ATOM     32  H   UNL     1      26.563  12.331  22.535  1.00  0.00     0.210 HD
ENDBRANCH  30  31
ENDBRANCH  24  30
BRANCH  25  33
ATOM     33  O   UNL     1      30.408  12.158  21.637  1.00  0.00    -0.388 OA
ATOM     34  H   UNL     1      30.719  12.757  22.363  1.00  0.00     0.211 HD
ENDBRANCH  25  33
ENDBRANCH  11  20
BRANCH  10  35
ATOM     35  O   UNL     1      29.199  14.570  27.739  1.00  0.00    -0.507 OA
ATOM     36  H   UNL     1      28.736  15.574  27.766  1.00  0.00     0.293 HD
ENDBRANCH  10  35
TORSDOF 9
ENDMDL
MODEL 5
REMARK VINA RESULT:    -6.335      5.342      8.934
REMARK INTER + INTRA:          -9.672
REMARK INTER:                  -9.008
REMARK INTRA:                  -0.664
REMARK UNBOUND:                -0.929
REMARK SMILES O=c1c(-c2ccc(O)cc2)coc2c([C@@H]3O[C@@H](CO)[C@@H](O)[C@H](O)[C@H]3O)c(O)ccc12
REMARK SMILES IDX 3 1 11 2 12 3 13 4 30 5 2 6 1 7 29 8 28 9 26 10 14 11 4 12
REMARK SMILES IDX 5 13 6 14 7 15 10 16 9 17 8 18 15 20 24 21 16 22 22 23 17 24
REMARK SMILES IDX 20 25 25 26 23 28 18 30 19 31 21 33 27 35
REMARK H PARENT 8 19 25 27 23 29 19 32 21 34 27 36
REMARK Flexibility Score: inf
ROOT
ATOM      1  C   UNL     1      29.071   9.542  26.708  1.00  0.00     0.065 A 
ATOM      2  C   UNL     1      28.709   9.824  25.429  1.00  0.00     0.208 A 
ATOM      3  O   UNL     1      28.610  11.080  25.021  1.00  0.00    -0.463 OA
ATOM      4  C   UNL     1      28.886  12.141  25.809  1.00  0.00     0.147 A 
ATOM      5  C   UNL     1      29.009  11.991  27.159  1.00  0.00     0.066 A 
ATOM      6  C   UNL     1      29.024  10.638  27.631  1.00  0.00     0.200 A 
ATOM      7  O   UNL     1      29.108  10.431  28.868  1.00  0.00    -0.288 OA
ATOM      8  C   UNL     1      28.901  13.113  27.940  1.00  0.00     0.020 A 
ATOM      9  C   UNL     1      28.723  14.403  27.245  1.00  0.00     0.047 A 
ATOM     10  C   UNL     1      29.379  14.680  25.909  1.00  0.00     0.125 A 
ATOM     11  C   UNL     1      29.275  13.353  25.122  1.00  0.00     0.069 A 
ENDROOT
BRANCH   1  12
ATOM     12  C   UNL     1      30.135   8.409  26.891  1.00  0.00    -0.011 A 
ATOM     13  C   UNL     1      30.056   7.575  28.048  1.00  0.00     0.013 A 
ATOM     14  C   UNL     1      29.174   6.469  27.982  1.00  0.00     0.047 A 
ATOM     15  C   UNL     1      28.600   6.180  26.742  1.00  0.00     0.115 A 
ATOM     16  C   UNL     1      30.319   7.558  25.816  1.00  0.00     0.013 A 
ATOM     17  C   UNL     1      29.337   6.563  25.630  1.00  0.00     0.047 A 
BRANCH  15  18
ATOM     18  O   UNL     1      27.237   5.886  26.632  1.00  0.00    -0.508 OA
ATOM     19  H   UNL     1      26.923   5.653  25.676  1.00  0.00     0.293 HD
ENDBRANCH  15  18
ENDBRANCH   1  12
BRANCH  11  20
ATOM     20  C   UNL     1      29.462  13.056  23.505  1.00  0.00     0.188 C 
ATOM     21  C   UNL     1      28.610  13.032  22.088  1.00  0.00     0.179 C 
ATOM     22  O   UNL     1      30.836  13.378  23.130  1.00  0.00    -0.362 OA
ATOM     23  C   UNL     1      29.161  11.742  21.267  1.00  0.00     0.177 C 
ATOM     24  C   UNL     1      31.227  13.274  21.727  1.00  0.00     0.176 C 
ATOM     25  C   UNL     1      30.687  11.988  21.057  1.00  0.00     0.177 C 
BRANCH  21  26
ATOM     26  O   UNL     1      27.212  13.068  22.150  1.00  0.00    -0.387 OA
ATOM     27  H   UNL     1      26.909  12.733  23.029  1.00  0.00     0.211 HD
ENDBRANCH  21  26
BRANCH  23  28
ATOM     28  O   UNL     1      28.705  11.153  19.997  1.00  0.00    -0.387 OA
ATOM     29  H   UNL     1      28.896  11.838  19.296  1.00  0.00     0.211 HD
ENDBRANCH  23  28
BRANCH  24  30
ATOM     30  C   UNL     1      32.754  13.507  21.405  1.00  0.00     0.191 C 
BRANCH  30  31
ATOM     31  O   UNL     1      33.098  14.851  21.375  1.00  0.00    -0.394 OA
ATOM     32  H   UNL     1      34.090  14.818  21.197  1.00  0.00     0.210 HD
ENDBRANCH  30  31
ENDBRANCH  24  30
BRANCH  25  33
ATOM     33  O   UNL     1      31.405  10.872  21.514  1.00  0.00    -0.388 OA
ATOM     34  H   UNL     1      31.070  10.576  22.398  1.00  0.00     0.211 HD
ENDBRANCH  25  33
ENDBRANCH  11  20
BRANCH  10  35
ATOM     35  O   UNL     1      29.462  15.366  27.232  1.00  0.00    -0.507 OA
ATOM     36  H   UNL     1      29.152  15.131  28.267  1.00  0.00     0.293 HD
ENDBRANCH  10  35
TORSDOF 9
ENDMDL
MODEL 6
REMARK VINA RESULT:    -6.257      3.512      8.443
REMARK INTER + INTRA:          -9.564
REMARK INTER:                  -8.766
REMARK INTRA:                  -0.797
REMARK UNBOUND:                -0.929
REMARK SMILES O=c1c(-c2ccc(O)cc2)coc2c([C@@H]3O[C@@H](CO)[C@@H](O)[C@H](O)[C@H]3O)c(O)ccc12
REMARK SMILES IDX 3 1 11 2 12 3 13 4 30 5 2 6 1 7 29 8 28 9 26 10 14 11 4 12
REMARK SMILES IDX 5 13 6 14 7 15 10 16 9 17 8 18 15 20 24 21 16 22 22 23 17 24
REMARK SMILES IDX 20 25 25 26 23 28 18 30 19 31 21 33 27 35
REMARK H PARENT 8 19 25 27 23 29 19 32 21 34 27 36
REMARK Flexibility Score: inf
ROOT
ATOM      1  C   UNL     1      29.052  11.254  25.152  1.00  0.00     0.065 A 
ATOM      2  C   UNL     1      28.627  11.642  26.383  1.00  0.00     0.208 A 
ATOM      3  O   UNL     1      28.684  10.805  27.408  1.00  0.00    -0.463 OA
ATOM      4  C   UNL     1      29.183   9.553  27.318  1.00  0.00     0.147 A 
ATOM      5  C   UNL     1      29.397   8.976  26.100  1.00  0.00     0.066 A 
ATOM      6  C   UNL     1      29.250   9.846  24.970  1.00  0.00     0.200 A 
ATOM      7  O   UNL     1      29.408   9.370  23.818  1.00  0.00    -0.288 OA
ATOM      8  C   UNL     1      29.526   7.612  26.052  1.00  0.00     0.020 A 
ATOM      9  C   UNL     1      29.485   6.887  27.337  1.00  0.00     0.047 A 
ATOM     10  C   UNL     1      30.058   7.486  28.605  1.00  0.00     0.125 A 
ATOM     11  C   UNL     1      29.689   8.986  28.548  1.00  0.00     0.069 A 
ENDROOT
BRANCH   1  12
ATOM     12  C   UNL     1      29.945  12.278  24.375  1.00  0.00    -0.011 A 
ATOM     13  C   UNL     1      30.365  11.951  23.049  1.00  0.00     0.013 A 
ATOM     14  C   UNL     1      29.459  12.242  22.001  1.00  0.00     0.047 A 
ATOM     15  C   UNL     1      28.321  12.984  22.324  1.00  0.00     0.115 A 
ATOM     16  C   UNL     1      29.486  13.580  24.323  1.00  0.00     0.013 A 
ATOM     17  C   UNL     1      28.445  13.841  23.407  1.00  0.00     0.047 A 
BRANCH  15  18
ATOM     18  O   UNL     1      27.060  12.610  21.846  1.00  0.00    -0.508 OA
ATOM     19  H   UNL     1      27.050  11.737  21.295  1.00  0.00     0.293 HD
ENDBRANCH  15  18
ENDBRANCH   1  12
BRANCH  11  20
ATOM     20  C   UNL     1      29.690  10.129  29.744  1.00  0.00     0.188 C 
ATOM     21  C   UNL     1      28.668  11.125  30.581  1.00  0.00     0.179 C 
ATOM     22  O   UNL     1      30.793   9.846  30.656  1.00  0.00    -0.362 OA
ATOM     23  C   UNL     1      29.470  12.527  30.756  1.00  0.00     0.177 C 
ATOM     24  C   UNL     1      30.955  10.674  31.847  1.00  0.00     0.176 C 
ATOM     25  C   UNL     1      30.769  12.181  31.548  1.00  0.00     0.177 C 
BRANCH  21  26
ATOM     26  O   UNL     1      27.369  11.311  30.093  1.00  0.00    -0.387 OA
ATOM     27  H   UNL     1      26.908  12.000  30.629  1.00  0.00     0.211 HD
ENDBRANCH  21  26
BRANCH  23  28
ATOM     28  O   UNL     1      29.030  13.816  31.317  1.00  0.00    -0.387 OA
ATOM     29  H   UNL     1      28.041  13.847  31.180  1.00  0.00     0.211 HD
ENDBRANCH  23  28
BRANCH  24  30
ATOM     30  C   UNL     1      32.240  10.404  32.722  1.00  0.00     0.191 C 
BRANCH  30  31
ATOM     31  O   UNL     1      32.833  11.572  33.179  1.00  0.00    -0.394 OA
ATOM     32  H   UNL     1      33.712  11.579  32.683  1.00  0.00     0.210 HD
ENDBRANCH  30  31
ENDBRANCH  24  30
BRANCH  25  33
ATOM     33  O   UNL     1      31.884  12.673  30.851  1.00  0.00    -0.388 OA
ATOM     34  H   UNL     1      31.770  12.550  29.874  1.00  0.00     0.211 HD
ENDBRANCH  25  33
ENDBRANCH  11  20
BRANCH  10  35
ATOM     35  O   UNL     1      30.356   6.224  27.863  1.00  0.00    -0.507 OA
ATOM     36  H   UNL     1      31.269   5.698  27.529  1.00  0.00     0.293 HD
ENDBRANCH  10  35
TORSDOF 9
ENDMDL
MODEL 7
REMARK VINA RESULT:    -6.229      4.238      8.538
REMARK INTER + INTRA:          -9.525
REMARK INTER:                  -8.476
REMARK INTRA:                  -1.049
REMARK UNBOUND:                -0.929
REMARK SMILES O=c1c(-c2ccc(O)cc2)coc2c([C@@H]3O[C@@H](CO)[C@@H](O)[C@H](O)[C@H]3O)c(O)ccc12
REMARK SMILES IDX 3 1 11 2 12 3 13 4 30 5 2 6 1 7 29 8 28 9 26 10 14 11 4 12
REMARK SMILES IDX 5 13 6 14 7 15 10 16 9 17 8 18 15 20 24 21 16 22 22 23 17 24
REMARK SMILES IDX 20 25 25 26 23 28 18 30 19 31 21 33 27 35
REMARK H PARENT 8 19 25 27 23 29 19 32 21 34 27 36
REMARK Flexibility Score: inf
ROOT
ATOM      1  C   UNL     1      28.901   9.624  23.082  1.00  0.00     0.065 A 
ATOM      2  C   UNL     1      28.246  10.201  24.123  1.00  0.00     0.208 A 
ATOM      3  O   UNL     1      28.366   9.710  25.347  1.00  0.00    -0.463 OA
ATOM      4  C   UNL     1      29.151   8.653  25.649  1.00  0.00     0.147 A 
ATOM      5  C   UNL     1      29.645   7.849  24.664  1.00  0.00     0.066 A 
ATOM      6  C   UNL     1      29.443   8.319  23.325  1.00  0.00     0.200 A 
ATOM      7  O   UNL     1      29.851   7.612  22.370  1.00  0.00    -0.288 OA
ATOM      8  C   UNL     1      30.093   6.603  25.019  1.00  0.00     0.020 A 
ATOM      9  C   UNL     1      30.060   6.259  26.454  1.00  0.00     0.047 A 
ATOM     10  C   UNL     1      30.314   7.300  27.524  1.00  0.00     0.125 A 
ATOM     11  C   UNL     1      29.615   8.582  27.017  1.00  0.00     0.069 A 
ENDROOT
BRANCH   1  12
ATOM     12  C   UNL     1      29.623  10.600  22.093  1.00  0.00    -0.011 A 
ATOM     13  C   UNL     1      29.604  12.000  22.377  1.00  0.00     0.013 A 
ATOM     14  C   UNL     1      30.590  12.485  23.270  1.00  0.00     0.047 A 
ATOM     15  C   UNL     1      31.602  11.601  23.650  1.00  0.00     0.115 A 
ATOM     16  C   UNL     1      30.930  10.291  21.768  1.00  0.00     0.013 A 
ATOM     17  C   UNL     1      31.907  10.602  22.737  1.00  0.00     0.047 A 
BRANCH  15  18
ATOM     18  O   UNL     1      32.000  11.496  24.987  1.00  0.00    -0.508 OA
ATOM     19  H   UNL     1      32.989  11.231  25.122  1.00  0.00     0.293 HD
ENDBRANCH  15  18
ENDBRANCH   1  12
BRANCH  11  20
ATOM     20  C   UNL     1      29.199   9.962  27.831  1.00  0.00     0.188 C 
ATOM     21  C   UNL     1      27.901  10.941  28.136  1.00  0.00     0.179 C 
ATOM     22  O   UNL     1      30.073  10.097  28.992  1.00  0.00    -0.362 OA
ATOM     23  C   UNL     1      28.477  12.460  28.085  1.00  0.00     0.177 C 
ATOM     24  C   UNL     1      29.847  11.202  29.920  1.00  0.00     0.176 C 
ATOM     25  C   UNL     1      29.574  12.539  29.191  1.00  0.00     0.177 C 
BRANCH  21  26
ATOM     26  O   UNL     1      26.748  10.781  27.359  1.00  0.00    -0.387 OA
ATOM     27  H   UNL     1      26.534  11.631  26.902  1.00  0.00     0.211 HD
ENDBRANCH  21  26
BRANCH  23  28
ATOM     28  O   UNL     1      27.773  13.750  28.171  1.00  0.00    -0.387 OA
ATOM     29  H   UNL     1      28.161  14.319  27.447  1.00  0.00     0.211 HD
ENDBRANCH  23  28
BRANCH  24  30
ATOM     30  C   UNL     1      30.903  11.371  31.081  1.00  0.00     0.191 C 
BRANCH  30  31
ATOM     31  O   UNL     1      31.030  12.687  31.502  1.00  0.00    -0.394 OA
ATOM     32  H   UNL     1      31.573  12.594  32.347  1.00  0.00     0.210 HD
ENDBRANCH  30  31
ENDBRANCH  24  30
BRANCH  25  33
ATOM     33  O   UNL     1      30.764  13.032  28.631  1.00  0.00    -0.388 OA
ATOM     34  H   UNL     1      30.662  13.170  27.655  1.00  0.00     0.211 HD
ENDBRANCH  25  33
ENDBRANCH  11  20
BRANCH  10  35
ATOM     35  O   UNL     1      30.989   6.009  27.195  1.00  0.00    -0.507 OA
ATOM     36  H   UNL     1      31.584   5.619  26.350  1.00  0.00     0.293 HD
ENDBRANCH  10  35
TORSDOF 9
ENDMDL
MODEL 8
REMARK VINA RESULT:    -6.154      2.145      3.124
REMARK INTER + INTRA:          -9.422
REMARK INTER:                  -8.514
REMARK INTRA:                  -0.908
REMARK UNBOUND:                -0.929
REMARK SMILES O=c1c(-c2ccc(O)cc2)coc2c([C@@H]3O[C@@H](CO)[C@@H](O)[C@H](O)[C@H]3O)c(O)ccc12
REMARK SMILES IDX 3 1 11 2 12 3 13 4 30 5 2 6 1 7 29 8 28 9 26 10 14 11 4 12
REMARK SMILES IDX 5 13 6 14 7 15 10 16 9 17 8 18 15 20 24 21 16 22 22 23 17 24
REMARK SMILES IDX 20 25 25 26 23 28 18 30 19 31 21 33 27 35
REMARK H PARENT 8 19 25 27 23 29 19 32 21 34 27 36
REMARK Flexibility Score: inf
ROOT
ATOM      1  C   UNL     1      30.506   9.478  30.990  1.00  0.00     0.065 A 
ATOM      2  C   UNL     1      30.229  10.770  30.674  1.00  0.00     0.208 A 
ATOM      3  O   UNL     1      29.702  11.076  29.498  1.00  0.00    -0.463 OA
ATOM      4  C   UNL     1      29.380  10.152  28.566  1.00  0.00     0.147 A 
ATOM      5  C   UNL     1      29.841   8.872  28.667  1.00  0.00     0.066 A 
ATOM      6  C   UNL     1      30.498   8.548  29.899  1.00  0.00     0.200 A 
ATOM      7  O   UNL     1      30.969   7.393  30.045  1.00  0.00    -0.288 OA
ATOM      8  C   UNL     1      29.821   8.094  27.538  1.00  0.00     0.020 A 
ATOM      9  C   UNL     1      29.242   8.691  26.319  1.00  0.00     0.047 A 
ATOM     10  C   UNL     1      28.076   9.656  26.386  1.00  0.00     0.125 A 
ATOM     11  C   UNL     1      28.349  10.537  27.627  1.00  0.00     0.069 A 
ENDROOT
BRANCH   1  12
ATOM     12  C   UNL     1      30.081   9.010  32.421  1.00  0.00    -0.011 A 
ATOM     13  C   UNL     1      30.965   8.161  33.156  1.00  0.00     0.013 A 
ATOM     14  C   UNL     1      32.004   8.793  33.881  1.00  0.00     0.047 A 
ATOM     15  C   UNL     1      31.968  10.186  33.971  1.00  0.00     0.115 A 
ATOM     16  C   UNL     1      29.682  10.001  33.299  1.00  0.00     0.013 A 
ATOM     17  C   UNL     1      30.711  10.766  33.889  1.00  0.00     0.047 A 
BRANCH  15  18
ATOM     18  O   UNL     1      33.123  10.949  33.769  1.00  0.00    -0.508 OA
ATOM     19  H   UNL     1      34.007  10.450  33.959  1.00  0.00     0.293 HD
ENDBRANCH  15  18
ENDBRANCH   1  12
BRANCH  11  20
ATOM     20  C   UNL     1      27.685  11.986  28.072  1.00  0.00     0.188 C 
ATOM     21  C   UNL     1      28.041  13.599  28.156  1.00  0.00     0.179 C 
ATOM     22  O   UNL     1      26.240  11.913  27.879  1.00  0.00    -0.362 OA
ATOM     23  C   UNL     1      27.380  14.121  29.546  1.00  0.00     0.177 C 
ATOM     24  C   UNL     1      25.434  13.105  28.127  1.00  0.00     0.176 C 
ATOM     25  C   UNL     1      25.850  13.839  29.425  1.00  0.00     0.177 C 
BRANCH  21  26
ATOM     26  O   UNL     1      29.376  13.995  28.018  1.00  0.00    -0.387 OA
ATOM     27  H   UNL     1      29.650  14.521  28.808  1.00  0.00     0.211 HD
ENDBRANCH  21  26
BRANCH  23  28
ATOM     28  O   UNL     1      27.461  15.434  30.207  1.00  0.00    -0.387 OA
ATOM     29  H   UNL     1      28.436  15.621  30.321  1.00  0.00     0.211 HD
ENDBRANCH  23  28
BRANCH  24  30
ATOM     30  C   UNL     1      23.870  12.928  28.030  1.00  0.00     0.191 C 
BRANCH  30  31
ATOM     31  O   UNL     1      23.429  11.732  28.577  1.00  0.00    -0.394 OA
ATOM     32  H   UNL     1      24.255  11.389  29.044  1.00  0.00     0.210 HD
ENDBRANCH  30  31
ENDBRANCH  24  30
BRANCH  25  33
ATOM     33  O   UNL     1      25.422  13.111  30.546  1.00  0.00    -0.388 OA
ATOM     34  H   UNL     1      25.634  12.149  30.442  1.00  0.00     0.211 HD
ENDBRANCH  25  33
ENDBRANCH  11  20
BRANCH  10  35
ATOM     35  O   UNL     1      28.258   8.343  25.698  1.00  0.00    -0.507 OA
ATOM     36  H   UNL     1      28.808   7.408  25.908  1.00  0.00     0.293 HD
ENDBRANCH  10  35
TORSDOF 9
ENDMDL
MODEL 9
REMARK VINA RESULT:    -6.127      5.533      8.537
REMARK INTER + INTRA:          -9.385
REMARK INTER:                  -8.686
REMARK INTRA:                  -0.699
REMARK UNBOUND:                -0.929
REMARK SMILES O=c1c(-c2ccc(O)cc2)coc2c([C@@H]3O[C@@H](CO)[C@@H](O)[C@H](O)[C@H]3O)c(O)ccc12
REMARK SMILES IDX 3 1 11 2 12 3 13 4 30 5 2 6 1 7 29 8 28 9 26 10 14 11 4 12
REMARK SMILES IDX 5 13 6 14 7 15 10 16 9 17 8 18 15 20 24 21 16 22 22 23 17 24
REMARK SMILES IDX 20 25 25 26 23 28 18 30 19 31 21 33 27 35
REMARK H PARENT 8 19 25 27 23 29 19 32 21 34 27 36
REMARK Flexibility Score: inf
ROOT
ATOM      1  C   UNL     1      29.688  11.661  27.354  1.00  0.00     0.065 A 
ATOM      2  C   UNL     1      30.440  11.781  26.229  1.00  0.00     0.208 A 
ATOM      3  O   UNL     1      30.691  10.722  25.474  1.00  0.00    -0.463 OA
ATOM      4  C   UNL     1      30.206   9.489  25.738  1.00  0.00     0.147 A 
ATOM      5  C   UNL     1      29.662   9.202  26.955  1.00  0.00     0.066 A 
ATOM      6  C   UNL     1      29.468  10.325  27.825  1.00  0.00     0.200 A 
ATOM      7  O   UNL     1      28.995  10.125  28.972  1.00  0.00    -0.288 OA
ATOM      8  C   UNL     1      29.546   7.883  27.309  1.00  0.00     0.020 A 
ATOM      9  C   UNL     1      29.964   6.879  26.311  1.00  0.00     0.047 A 
ATOM     10  C   UNL     1      29.766   7.108  24.826  1.00  0.00     0.125 A 
ATOM     11  C   UNL     1      30.082   8.604  24.601  1.00  0.00     0.069 A 
ENDROOT
BRANCH   1  12
ATOM     12  C   UNL     1      28.594  12.759  27.574  1.00  0.00    -0.011 A 
ATOM     13  C   UNL     1      29.012  14.102  27.826  1.00  0.00     0.013 A 
ATOM     14  C   UNL     1      29.312  14.901  26.696  1.00  0.00     0.047 A 
ATOM     15  C   UNL     1      29.000  14.379  25.440  1.00  0.00     0.115 A 
ATOM     16  C   UNL     1      27.601  12.839  26.615  1.00  0.00     0.013 A 
ATOM     17  C   UNL     1      27.950  13.474  25.404  1.00  0.00     0.047 A 
BRANCH  15  18
ATOM     18  O   UNL     1      29.911  14.462  24.380  1.00  0.00    -0.508 OA
ATOM     19  H   UNL     1      30.651  13.742  24.392  1.00  0.00     0.293 HD
ENDBRANCH  15  18
ENDBRANCH   1  12
BRANCH  11  20
ATOM     20  C   UNL     1      30.404   9.426  23.201  1.00  0.00     0.188 C 
ATOM     21  C   UNL     1      31.517   9.512  21.980  1.00  0.00     0.179 C 
ATOM     22  O   UNL     1      29.139   9.847  22.608  1.00  0.00    -0.362 OA
ATOM     23  C   UNL     1      31.685  11.095  21.652  1.00  0.00     0.177 C 
ATOM     24  C   UNL     1      29.157  10.525  21.315  1.00  0.00     0.176 C 
ATOM     25  C   UNL     1      30.270  11.596  21.225  1.00  0.00     0.177 C 
BRANCH  21  26
ATOM     26  O   UNL     1      32.748   8.869  22.153  1.00  0.00    -0.387 OA
ATOM     27  H   UNL     1      32.623   7.890  22.096  1.00  0.00     0.211 HD
ENDBRANCH  21  26
BRANCH  23  28
ATOM     28  O   UNL     1      32.611  11.787  20.741  1.00  0.00    -0.387 OA
ATOM     29  H   UNL     1      32.112  11.903  19.883  1.00  0.00     0.211 HD
ENDBRANCH  23  28
BRANCH  24  30
ATOM     30  C   UNL     1      27.773  11.072  20.790  1.00  0.00     0.191 C 
BRANCH  30  31
ATOM     31  O   UNL     1      27.105  11.837  21.734  1.00  0.00    -0.394 OA
ATOM     32  H   UNL     1      26.239  11.333  21.849  1.00  0.00     0.210 HD
ENDBRANCH  30  31
ENDBRANCH  24  30
BRANCH  25  33
ATOM     33  O   UNL     1      29.922  12.716  21.996  1.00  0.00    -0.388 OA
ATOM     34  H   UNL     1      30.216  12.602  22.935  1.00  0.00     0.211 HD
ENDBRANCH  25  33
ENDBRANCH  11  20
BRANCH  10  35
ATOM     35  O   UNL     1      29.288   6.038  25.752  1.00  0.00    -0.507 OA
ATOM     36  H   UNL     1      29.507   5.735  26.792  1.00  0.00     0.293 HD
ENDBRANCH  10  35
TORSDOF 9
ENDMDL
