MODEL 1
REMARK VINA RESULT:    -5.944      0.000      0.000
REMARK INTER + INTRA:         -17.770
REMARK INTER:                 -15.675
REMARK INTRA:                  -2.095
REMARK UNBOUND:                -2.095
REMARK SMILES CCCCCCCCCCCCCCCCCCCCCCCCCCCCCC(=O)[O-]
REMARK SMILES IDX 16 1 17 2 18 3 19 4 20 5 21 6 22 7 23 8 24 9 25 10 26 11
REMARK SMILES IDX 27 12 28 13 29 14 30 15 31 16 32 17 15 18 14 19 13 20 12 21
REMARK SMILES IDX 11 22 10 23 9 24 8 25 7 26 6 27 5 28 4 29 3 30 2 31 1 32
REMARK H PARENT
REMARK Flexibility Score: inf
ROOT
ATOM      1  C   UNL     1      15.433  18.675  42.401  1.00  0.00     0.000 C 
ENDROOT
BRANCH   1   2
ATOM      2  C   UNL     1      16.307  17.526  41.862  1.00  0.00     0.000 C 
BRANCH   2   3
ATOM      3  C   UNL     1      17.765  17.528  42.358  1.00  0.00     0.000 C 
BRANCH   3   4
ATOM      4  C   UNL     1      18.390  16.123  42.384  1.00  0.00     0.000 C 
BRANCH   4   5
ATOM      5  C   UNL     1      19.878  16.145  42.770  1.00  0.00     0.000 C 
BRANCH   5   6
ATOM      6  C   UNL     1      20.806  16.000  41.550  1.00  0.00     0.000 C 
BRANCH   6   7
ATOM      7  C   UNL     1      22.015  16.956  41.618  1.00  0.00     0.000 C 
BRANCH   7   8
ATOM      8  C   UNL     1      23.301  16.283  42.128  1.00  0.00     0.000 C 
BRANCH   8   9
ATOM      9  C   UNL     1      23.342  14.775  41.825  1.00  0.00     0.000 C 
BRANCH   9  10
ATOM     10  C   UNL     1      24.007  13.965  42.949  1.00  0.00     0.000 C 
BRANCH  10  11
ATOM     11  C   UNL     1      23.145  12.780  43.418  1.00  0.00     0.000 C 
BRANCH  11  12
ATOM     12  C   UNL     1      22.060  12.388  42.399  1.00  0.00     0.000 C 
BRANCH  12  13
ATOM     13  C   UNL     1      20.617  12.421  42.944  1.00  0.00     0.006 C 
BRANCH  13  14
ATOM     14  C   UNL     1      20.486  12.967  44.376  1.00  0.00     0.053 C 
BRANCH  14  15
ATOM     15  C   UNL     1      19.857  11.977  45.307  1.00  0.00     0.041 C 
ATOM     16  O   UNL     1      19.910  10.743  45.051  1.00  0.00    -0.550 OA
ATOM     17  O   UNL     1      19.199  12.417  46.450  1.00  0.00    -0.550 OA
ENDBRANCH  14  15
ENDBRANCH  13  14
ENDBRANCH  12  13
ENDBRANCH  11  12
ENDBRANCH  10  11
ENDBRANCH   9  10
ENDBRANCH   8   9
ENDBRANCH   7   8
ENDBRANCH   6   7
ENDBRANCH   5   6
ENDBRANCH   4   5
ENDBRANCH   3   4
ENDBRANCH   2   3
ENDBRANCH   1   2
BRANCH   1  18
ATOM     18  C   UNL     1      14.002  18.656  41.839  1.00  0.00     0.000 C 
BRANCH  18  19
ATOM     19  C   UNL     1      13.148  17.523  42.432  1.00  0.00     0.000 C 
BRANCH  19  20
ATOM     20  C   UNL     1      11.662  17.634  42.045  1.00  0.00     0.000 C 
BRANCH  20  21
ATOM     21  C   UNL     1      10.944  16.272  42.049  1.00  0.00     0.000 C 
BRANCH  21  22
ATOM     22  C   UNL     1       9.417  16.339  41.825  1.00  0.00     0.000 C 
BRANCH  22  23
ATOM     23  C   UNL     1       8.634  15.103  42.302  1.00  0.00     0.000 C 
BRANCH  23  24
ATOM     24  C   UNL     1       9.212  13.754  41.833  1.00  0.00    -0.000 C 
BRANCH  24  25
ATOM     25  C   UNL     1       8.469  12.528  42.412  1.00  0.00    -0.000 C 
BRANCH  25  26
ATOM     26  C   UNL     1       8.323  11.363  41.416  1.00  0.00    -0.000 C 
BRANCH  26  27
ATOM     27  C   UNL     1       8.518   9.993  42.088  1.00  0.00    -0.000 C 
BRANCH  27  28
ATOM     28  C   UNL     1       7.619   9.810  43.322  1.00  0.00    -0.000 C 
BRANCH  28  29
ATOM     29  C   UNL     1       8.422   9.566  44.609  1.00  0.00    -0.000 C 
BRANCH  29  30
ATOM     30  C   UNL     1       9.835   9.067  44.286  1.00  0.00    -0.000 C 
BRANCH  30  31
ATOM     31  C   UNL     1      10.773   9.258  45.484  1.00  0.00    -0.003 C 
ATOM     32  C   UNL     1      11.915   8.247  45.457  1.00  0.00     0.004 C 
ENDBRANCH  30  31
ENDBRANCH  29  30
ENDBRANCH  28  29
ENDBRANCH  27  28
ENDBRANCH  26  27
ENDBRANCH  25  26
ENDBRANCH  24  25
ENDBRANCH  23  24
ENDBRANCH  22  23
ENDBRANCH  21  22
ENDBRANCH  20  21
ENDBRANCH  19  20
ENDBRANCH  18  19
ENDBRANCH   1  18
TORSDOF 28
ENDMDL
MODEL 2
REMARK VINA RESULT:    -5.904      3.820     11.636
REMARK INTER + INTRA:         -17.664
REMARK INTER:                 -15.612
REMARK INTRA:                  -2.052
REMARK UNBOUND:                -2.095
REMARK SMILES CCCCCCCCCCCCCCCCCCCCCCCCCCCCCC(=O)[O-]
REMARK SMILES IDX 16 1 17 2 18 3 19 4 20 5 21 6 22 7 23 8 24 9 25 10 26 11
REMARK SMILES IDX 27 12 28 13 29 14 30 15 31 16 32 17 15 18 14 19 13 20 12 21
REMARK SMILES IDX 11 22 10 23 9 24 8 25 7 26 6 27 5 28 4 29 3 30 2 31 1 32
REMARK H PARENT
REMARK Flexibility Score: inf
ROOT
ATOM      1  C   UNL     1      15.359  18.454  41.617  1.00  0.00     0.000 C 
ENDROOT
BRANCH   1   2
ATOM      2  C   UNL     1      14.050  18.546  42.425  1.00  0.00     0.000 C 
BRANCH   2   3
ATOM      3  C   UNL     1      13.191  17.269  42.421  1.00  0.00     0.000 C 
BRANCH   3   4
ATOM      4  C   UNL     1      11.700  17.552  42.168  1.00  0.00     0.000 C 
BRANCH   4   5
ATOM      5  C   UNL     1      10.863  16.267  42.069  1.00  0.00     0.000 C 
BRANCH   5   6
ATOM      6  C   UNL     1       9.399  16.545  41.681  1.00  0.00     0.000 C 
BRANCH   6   7
ATOM      7  C   UNL     1       8.459  16.541  42.905  1.00  0.00     0.000 C 
BRANCH   7   8
ATOM      8  C   UNL     1       6.977  16.738  42.539  1.00  0.00     0.000 C 
BRANCH   8   9
ATOM      9  C   UNL     1       6.041  15.817  43.339  1.00  0.00     0.000 C 
BRANCH   9  10
ATOM     10  C   UNL     1       5.471  14.671  42.489  1.00  0.00     0.000 C 
BRANCH  10  11
ATOM     11  C   UNL     1       6.538  13.995  41.609  1.00  0.00     0.000 C 
BRANCH  11  12
ATOM     12  C   UNL     1       7.408  12.992  42.388  1.00  0.00     0.000 C 
BRANCH  12  13
ATOM     13  C   UNL     1       8.851  12.842  41.862  1.00  0.00     0.006 C 
BRANCH  13  14
ATOM     14  C   UNL     1       9.016  13.123  40.359  1.00  0.00     0.053 C 
BRANCH  14  15
ATOM     15  C   UNL     1       9.393  11.895  39.589  1.00  0.00     0.041 C 
ATOM     16  O   UNL     1      10.072  11.994  38.531  1.00  0.00    -0.550 OA
ATOM     17  O   UNL     1       8.983  10.642  40.032  1.00  0.00    -0.550 OA
ENDBRANCH  14  15
ENDBRANCH  13  14
ENDBRANCH  12  13
ENDBRANCH  11  12
ENDBRANCH  10  11
ENDBRANCH   9  10
ENDBRANCH   8   9
ENDBRANCH   7   8
ENDBRANCH   6   7
ENDBRANCH   5   6
ENDBRANCH   4   5
ENDBRANCH   3   4
ENDBRANCH   2   3
ENDBRANCH   1   2
BRANCH   1  18
ATOM     18  C   UNL     1      16.222  17.241  42.006  1.00  0.00     0.000 C 
BRANCH  18  19
ATOM     19  C   UNL     1      17.670  17.631  42.346  1.00  0.00     0.000 C 
BRANCH  19  20
ATOM     20  C   UNL     1      18.615  16.417  42.398  1.00  0.00     0.000 C 
BRANCH  20  21
ATOM     21  C   UNL     1      20.091  16.804  42.191  1.00  0.00     0.000 C 
BRANCH  21  22
ATOM     22  C   UNL     1      21.111  15.891  42.905  1.00  0.00     0.000 C 
BRANCH  22  23
ATOM     23  C   UNL     1      21.183  14.449  42.369  1.00  0.00     0.000 C 
BRANCH  23  24
ATOM     24  C   UNL     1      20.250  13.451  43.080  1.00  0.00    -0.000 C 
BRANCH  24  25
ATOM     25  C   UNL     1      20.363  12.006  42.540  1.00  0.00    -0.000 C 
BRANCH  25  26
ATOM     26  C   UNL     1      21.782  11.621  42.083  1.00  0.00    -0.000 C 
BRANCH  26  27
ATOM     27  C   UNL     1      22.023  10.103  42.144  1.00  0.00    -0.000 C 
BRANCH  27  28
ATOM     28  C   UNL     1      20.720   9.296  42.027  1.00  0.00    -0.000 C 
BRANCH  28  29
ATOM     29  C   UNL     1      20.718   8.345  40.821  1.00  0.00    -0.000 C 
BRANCH  29  30
ATOM     30  C   UNL     1      20.307   9.085  39.542  1.00  0.00    -0.000 C 
BRANCH  30  31
ATOM     31  C   UNL     1      18.839   9.522  39.607  1.00  0.00    -0.003 C 
ATOM     32  C   UNL     1      17.901   8.331  39.444  1.00  0.00     0.004 C 
ENDBRANCH  30  31
ENDBRANCH  29  30
ENDBRANCH  28  29
ENDBRANCH  27  28
ENDBRANCH  26  27
ENDBRANCH  25  26
ENDBRANCH  24  25
ENDBRANCH  23  24
ENDBRANCH  22  23
ENDBRANCH  21  22
ENDBRANCH  20  21
ENDBRANCH  19  20
ENDBRANCH  18  19
ENDBRANCH   1  18
TORSDOF 28
ENDMDL
MODEL 3
REMARK VINA RESULT:    -5.745      1.802      3.889
REMARK INTER + INTRA:         -17.245
REMARK INTER:                 -15.979
REMARK INTRA:                  -1.266
REMARK UNBOUND:                -2.095
REMARK SMILES CCCCCCCCCCCCCCCCCCCCCCCCCCCCCC(=O)[O-]
REMARK SMILES IDX 16 1 17 2 18 3 19 4 20 5 21 6 22 7 23 8 24 9 25 10 26 11
REMARK SMILES IDX 27 12 28 13 29 14 30 15 31 16 32 17 15 18 14 19 13 20 12 21
REMARK SMILES IDX 11 22 10 23 9 24 8 25 7 26 6 27 5 28 4 29 3 30 2 31 1 32
REMARK H PARENT
REMARK Flexibility Score: inf
ROOT
ATOM      1  C   UNL     1      10.852  16.283  42.068  1.00  0.00     0.000 C 
ENDROOT
BRANCH   1   2
ATOM      2  C   UNL     1      11.626  17.615  42.081  1.00  0.00     0.000 C 
BRANCH   2   3
ATOM      3  C   UNL     1      13.114  17.500  42.459  1.00  0.00     0.000 C 
BRANCH   3   4
ATOM      4  C   UNL     1      13.896  18.803  42.216  1.00  0.00     0.000 C 
BRANCH   4   5
ATOM      5  C   UNL     1      15.389  18.668  42.555  1.00  0.00     0.000 C 
BRANCH   5   6
ATOM      6  C   UNL     1      16.117  17.675  41.630  1.00  0.00     0.000 C 
BRANCH   6   7
ATOM      7  C   UNL     1      17.149  16.817  42.391  1.00  0.00     0.000 C 
BRANCH   7   8
ATOM      8  C   UNL     1      18.588  17.352  42.285  1.00  0.00     0.000 C 
BRANCH   8   9
ATOM      9  C   UNL     1      19.623  16.396  42.902  1.00  0.00     0.000 C 
BRANCH   9  10
ATOM     10  C   UNL     1      19.247  14.918  42.717  1.00  0.00     0.000 C 
BRANCH  10  11
ATOM     11  C   UNL     1      20.331  13.958  43.239  1.00  0.00     0.000 C 
BRANCH  11  12
ATOM     12  C   UNL     1      20.390  12.636  42.453  1.00  0.00     0.000 C 
BRANCH  12  13
ATOM     13  C   UNL     1      21.193  11.510  43.139  1.00  0.00     0.006 C 
BRANCH  13  14
ATOM     14  C   UNL     1      20.566  10.979  44.439  1.00  0.00     0.053 C 
BRANCH  14  15
ATOM     15  C   UNL     1      21.077   9.619  44.802  1.00  0.00     0.041 C 
ATOM     16  O   UNL     1      22.312   9.431  44.972  1.00  0.00    -0.550 OA
ATOM     17  O   UNL     1      20.191   8.557  44.939  1.00  0.00    -0.550 OA
ENDBRANCH  14  15
ENDBRANCH  13  14
ENDBRANCH  12  13
ENDBRANCH  11  12
ENDBRANCH  10  11
ENDBRANCH   9  10
ENDBRANCH   8   9
ENDBRANCH   7   8
ENDBRANCH   6   7
ENDBRANCH   5   6
ENDBRANCH   4   5
ENDBRANCH   3   4
ENDBRANCH   2   3
ENDBRANCH   1   2
BRANCH   1  18
ATOM     18  C   UNL     1       9.330  16.474  41.956  1.00  0.00     0.000 C 
BRANCH  18  19
ATOM     19  C   UNL     1       8.608  15.199  41.489  1.00  0.00     0.000 C 
BRANCH  19  20
ATOM     20  C   UNL     1       9.555  13.992  41.362  1.00  0.00     0.000 C 
BRANCH  20  21
ATOM     21  C   UNL     1       9.024  12.920  40.393  1.00  0.00     0.000 C 
BRANCH  21  22
ATOM     22  C   UNL     1       9.746  12.858  39.029  1.00  0.00     0.000 C 
BRANCH  22  23
ATOM     23  C   UNL     1      10.015  11.439  38.498  1.00  0.00     0.000 C 
BRANCH  23  24
ATOM     24  C   UNL     1       9.461  10.305  39.381  1.00  0.00    -0.000 C 
BRANCH  24  25
ATOM     25  C   UNL     1       8.060   9.813  38.951  1.00  0.00    -0.000 C 
BRANCH  25  26
ATOM     26  C   UNL     1       7.308   9.040  40.049  1.00  0.00    -0.000 C 
BRANCH  26  27
ATOM     27  C   UNL     1       8.264   8.328  41.021  1.00  0.00    -0.000 C 
BRANCH  27  28
ATOM     28  C   UNL     1       8.321   9.011  42.397  1.00  0.00    -0.000 C 
BRANCH  28  29
ATOM     29  C   UNL     1       9.332   8.350  43.346  1.00  0.00    -0.000 C 
BRANCH  29  30
ATOM     30  C   UNL     1       9.730   9.307  44.475  1.00  0.00    -0.000 C 
BRANCH  30  31
ATOM     31  C   UNL     1      10.460   8.561  45.598  1.00  0.00    -0.003 C 
ATOM     32  C   UNL     1      11.955   8.463  45.315  1.00  0.00     0.004 C 
ENDBRANCH  30  31
ENDBRANCH  29  30
ENDBRANCH  28  29
ENDBRANCH  27  28
ENDBRANCH  26  27
ENDBRANCH  25  26
ENDBRANCH  24  25
ENDBRANCH  23  24
ENDBRANCH  22  23
ENDBRANCH  21  22
ENDBRANCH  20  21
ENDBRANCH  19  20
ENDBRANCH  18  19
ENDBRANCH   1  18
TORSDOF 28
ENDMDL
MODEL 4
REMARK VINA RESULT:    -5.699      3.183     11.080
REMARK INTER + INTRA:         -17.124
REMARK INTER:                 -15.618
REMARK INTRA:                  -1.507
REMARK UNBOUND:                -2.095
REMARK SMILES CCCCCCCCCCCCCCCCCCCCCCCCCCCCCC(=O)[O-]
REMARK SMILES IDX 16 1 17 2 18 3 19 4 20 5 21 6 22 7 23 8 24 9 25 10 26 11
REMARK SMILES IDX 27 12 28 13 29 14 30 15 31 16 32 17 15 18 14 19 13 20 12 21
REMARK SMILES IDX 11 22 10 23 9 24 8 25 7 26 6 27 5 28 4 29 3 30 2 31 1 32
REMARK H PARENT
REMARK Flexibility Score: inf
ROOT
ATOM      1  C   UNL     1      16.288  17.310  42.007  1.00  0.00     0.000 C 
ENDROOT
BRANCH   1   2
ATOM      2  C   UNL     1      15.596  18.643  42.350  1.00  0.00     0.000 C 
BRANCH   2   3
ATOM      3  C   UNL     1      14.120  18.740  41.923  1.00  0.00     0.000 C 
BRANCH   3   4
ATOM      4  C   UNL     1      13.250  17.621  42.521  1.00  0.00     0.000 C 
BRANCH   4   5
ATOM      5  C   UNL     1      11.790  17.689  42.043  1.00  0.00     0.000 C 
BRANCH   5   6
ATOM      6  C   UNL     1      11.111  16.307  42.023  1.00  0.00     0.000 C 
BRANCH   6   7
ATOM      7  C   UNL     1       9.572  16.411  42.025  1.00  0.00     0.000 C 
BRANCH   7   8
ATOM      8  C   UNL     1       8.868  15.070  42.293  1.00  0.00     0.000 C 
BRANCH   8   9
ATOM      9  C   UNL     1       9.393  13.934  41.399  1.00  0.00     0.000 C 
BRANCH   9  10
ATOM     10  C   UNL     1       8.349  12.830  41.171  1.00  0.00     0.000 C 
BRANCH  10  11
ATOM     11  C   UNL     1       8.270  11.834  42.342  1.00  0.00     0.000 C 
BRANCH  11  12
ATOM     12  C   UNL     1       8.455  10.372  41.898  1.00  0.00     0.000 C 
BRANCH  12  13
ATOM     13  C   UNL     1       8.165   9.322  42.991  1.00  0.00     0.006 C 
BRANCH  13  14
ATOM     14  C   UNL     1       9.417   8.659  43.591  1.00  0.00     0.053 C 
BRANCH  14  15
ATOM     15  C   UNL     1       9.746   9.193  44.950  1.00  0.00     0.041 C 
ATOM     16  O   UNL     1       9.464   8.523  45.980  1.00  0.00    -0.550 OA
ATOM     17  O   UNL     1      10.352  10.438  45.081  1.00  0.00    -0.550 OA
ENDBRANCH  14  15
ENDBRANCH  13  14
ENDBRANCH  12  13
ENDBRANCH  11  12
ENDBRANCH  10  11
ENDBRANCH   9  10
ENDBRANCH   8   9
ENDBRANCH   7   8
ENDBRANCH   6   7
ENDBRANCH   5   6
ENDBRANCH   4   5
ENDBRANCH   3   4
ENDBRANCH   2   3
ENDBRANCH   1   2
BRANCH   1  18
ATOM     18  C   UNL     1      17.793  17.314  42.325  1.00  0.00     0.000 C 
BRANCH  18  19
ATOM     19  C   UNL     1      18.397  15.899  42.342  1.00  0.00     0.000 C 
BRANCH  19  20
ATOM     20  C   UNL     1      19.892  15.897  42.709  1.00  0.00     0.000 C 
BRANCH  20  21
ATOM     21  C   UNL     1      20.792  16.332  41.537  1.00  0.00     0.000 C 
BRANCH  21  22
ATOM     22  C   UNL     1      22.097  15.521  41.382  1.00  0.00     0.000 C 
BRANCH  22  23
ATOM     23  C   UNL     1      22.427  14.587  42.560  1.00  0.00     0.000 C 
BRANCH  23  24
ATOM     24  C   UNL     1      22.457  13.088  42.205  1.00  0.00    -0.000 C 
BRANCH  24  25
ATOM     25  C   UNL     1      21.177  12.328  42.622  1.00  0.00    -0.000 C 
BRANCH  25  26
ATOM     26  C   UNL     1      21.438  11.138  43.563  1.00  0.00    -0.000 C 
BRANCH  26  27
ATOM     27  C   UNL     1      20.813   9.833  43.041  1.00  0.00    -0.000 C 
BRANCH  27  28
ATOM     28  C   UNL     1      20.308   9.960  41.595  1.00  0.00    -0.000 C 
BRANCH  28  29
ATOM     29  C   UNL     1      21.085   9.066  40.616  1.00  0.00    -0.000 C 
BRANCH  29  30
ATOM     30  C   UNL     1      20.278   8.828  39.334  1.00  0.00    -0.000 C 
BRANCH  30  31
ATOM     31  C   UNL     1      18.829   9.298  39.501  1.00  0.00    -0.003 C 
ATOM     32  C   UNL     1      17.867   8.115  39.541  1.00  0.00     0.004 C 
ENDBRANCH  30  31
ENDBRANCH  29  30
ENDBRANCH  28  29
ENDBRANCH  27  28
ENDBRANCH  26  27
ENDBRANCH  25  26
ENDBRANCH  24  25
ENDBRANCH  23  24
ENDBRANCH  22  23
ENDBRANCH  21  22
ENDBRANCH  20  21
ENDBRANCH  19  20
ENDBRANCH  18  19
ENDBRANCH   1  18
TORSDOF 28
ENDMDL
MODEL 5
REMARK VINA RESULT:    -5.692      3.815     10.967
REMARK INTER + INTRA:         -17.104
REMARK INTER:                 -15.556
REMARK INTRA:                  -1.547
REMARK UNBOUND:                -2.095
REMARK SMILES CCCCCCCCCCCCCCCCCCCCCCCCCCCCCC(=O)[O-]
REMARK SMILES IDX 16 1 17 2 18 3 19 4 20 5 21 6 22 7 23 8 24 9 25 10 26 11
REMARK SMILES IDX 27 12 28 13 29 14 30 15 31 16 32 17 15 18 14 19 13 20 12 21
REMARK SMILES IDX 11 22 10 23 9 24 8 25 7 26 6 27 5 28 4 29 3 30 2 31 1 32
REMARK H PARENT
REMARK Flexibility Score: inf
ROOT
ATOM      1  C   UNL     1      18.622  16.960  42.145  1.00  0.00     0.000 C 
ENDROOT
BRANCH   1   2
ATOM      2  C   UNL     1      17.127  16.815  42.488  1.00  0.00     0.000 C 
BRANCH   2   3
ATOM      3  C   UNL     1      16.175  17.663  41.625  1.00  0.00     0.000 C 
BRANCH   3   4
ATOM      4  C   UNL     1      15.377  18.690  42.446  1.00  0.00     0.000 C 
BRANCH   4   5
ATOM      5  C   UNL     1      13.903  18.772  42.016  1.00  0.00     0.000 C 
BRANCH   5   6
ATOM      6  C   UNL     1      13.096  17.529  42.434  1.00  0.00     0.000 C 
BRANCH   6   7
ATOM      7  C   UNL     1      11.598  17.662  42.094  1.00  0.00     0.000 C 
BRANCH   7   8
ATOM      8  C   UNL     1      10.847  16.319  42.094  1.00  0.00     0.000 C 
BRANCH   8   9
ATOM      9  C   UNL     1       9.327  16.488  41.926  1.00  0.00     0.000 C 
BRANCH   9  10
ATOM     10  C   UNL     1       8.528  15.377  42.625  1.00  0.00     0.000 C 
BRANCH  10  11
ATOM     11  C   UNL     1       7.967  14.337  41.638  1.00  0.00     0.000 C 
BRANCH  11  12
ATOM     12  C   UNL     1       8.604  12.946  41.807  1.00  0.00     0.000 C 
BRANCH  12  13
ATOM     13  C   UNL     1       8.366  11.977  40.630  1.00  0.00     0.006 C 
BRANCH  13  14
ATOM     14  C   UNL     1       8.618  10.496  40.959  1.00  0.00     0.053 C 
BRANCH  14  15
ATOM     15  C   UNL     1       9.220   9.753  39.807  1.00  0.00     0.041 C 
ATOM     16  O   UNL     1       9.560  10.371  38.762  1.00  0.00    -0.550 OA
ATOM     17  O   UNL     1       9.394   8.375  39.882  1.00  0.00    -0.550 OA
ENDBRANCH  14  15
ENDBRANCH  13  14
ENDBRANCH  12  13
ENDBRANCH  11  12
ENDBRANCH  10  11
ENDBRANCH   9  10
ENDBRANCH   8   9
ENDBRANCH   7   8
ENDBRANCH   6   7
ENDBRANCH   5   6
ENDBRANCH   4   5
ENDBRANCH   3   4
ENDBRANCH   2   3
ENDBRANCH   1   2
BRANCH   1  18
ATOM     18  C   UNL     1      19.538  16.185  43.108  1.00  0.00     0.000 C 
BRANCH  18  19
ATOM     19  C   UNL     1      20.439  15.173  42.381  1.00  0.00     0.000 C 
BRANCH  19  20
ATOM     20  C   UNL     1      19.952  13.722  42.543  1.00  0.00     0.000 C 
BRANCH  20  21
ATOM     21  C   UNL     1      20.636  12.994  43.715  1.00  0.00     0.000 C 
BRANCH  21  22
ATOM     22  C   UNL     1      19.850  13.016  45.044  1.00  0.00     0.000 C 
BRANCH  22  23
ATOM     23  C   UNL     1      19.633  11.638  45.696  1.00  0.00     0.000 C 
BRANCH  23  24
ATOM     24  C   UNL     1      20.633  10.552  45.254  1.00  0.00    -0.000 C 
BRANCH  24  25
ATOM     25  C   UNL     1      20.038   9.125  45.258  1.00  0.00    -0.000 C 
BRANCH  25  26
ATOM     26  C   UNL     1      20.498   8.256  44.073  1.00  0.00    -0.000 C 
BRANCH  26  27
ATOM     27  C   UNL     1      20.278   8.952  42.719  1.00  0.00    -0.000 C 
BRANCH  27  28
ATOM     28  C   UNL     1      21.198   8.399  41.618  1.00  0.00    -0.000 C 
BRANCH  28  29
ATOM     29  C   UNL     1      21.061   9.163  40.293  1.00  0.00    -0.000 C 
BRANCH  29  30
ATOM     30  C   UNL     1      19.603   9.568  40.043  1.00  0.00    -0.000 C 
BRANCH  30  31
ATOM     31  C   UNL     1      18.849   8.469  39.286  1.00  0.00    -0.003 C 
ATOM     32  C   UNL     1      17.492   8.191  39.925  1.00  0.00     0.004 C 
ENDBRANCH  30  31
ENDBRANCH  29  30
ENDBRANCH  28  29
ENDBRANCH  27  28
ENDBRANCH  26  27
ENDBRANCH  25  26
ENDBRANCH  24  25
ENDBRANCH  23  24
ENDBRANCH  22  23
ENDBRANCH  21  22
ENDBRANCH  20  21
ENDBRANCH  19  20
ENDBRANCH  18  19
ENDBRANCH   1  18
TORSDOF 28
ENDMDL
MODEL 6
REMARK VINA RESULT:    -5.662      1.844      2.854
REMARK INTER + INTRA:         -17.027
REMARK INTER:                 -15.508
REMARK INTRA:                  -1.519
REMARK UNBOUND:                -2.095
REMARK SMILES CCCCCCCCCCCCCCCCCCCCCCCCCCCCCC(=O)[O-]
REMARK SMILES IDX 16 1 17 2 18 3 19 4 20 5 21 6 22 7 23 8 24 9 25 10 26 11
REMARK SMILES IDX 27 12 28 13 29 14 30 15 31 16 32 17 15 18 14 19 13 20 12 21
REMARK SMILES IDX 11 22 10 23 9 24 8 25 7 26 6 27 5 28 4 29 3 30 2 31 1 32
REMARK H PARENT
REMARK Flexibility Score: inf
ROOT
ATOM      1  C   UNL     1      13.141  17.839  42.740  1.00  0.00     0.000 C 
ENDROOT
BRANCH   1   2
ATOM      2  C   UNL     1      13.998  18.620  41.725  1.00  0.00     0.000 C 
BRANCH   2   3
ATOM      3  C   UNL     1      15.491  18.734  42.084  1.00  0.00     0.000 C 
BRANCH   3   4
ATOM      4  C   UNL     1      16.241  17.398  41.949  1.00  0.00     0.000 C 
BRANCH   4   5
ATOM      5  C   UNL     1      17.734  17.521  42.294  1.00  0.00     0.000 C 
BRANCH   5   6
ATOM      6  C   UNL     1      18.431  16.152  42.396  1.00  0.00     0.000 C 
BRANCH   6   7
ATOM      7  C   UNL     1      19.965  16.265  42.269  1.00  0.00     0.000 C 
BRANCH   7   8
ATOM      8  C   UNL     1      20.705  14.958  42.601  1.00  0.00     0.000 C 
BRANCH   8   9
ATOM      9  C   UNL     1      19.803  13.925  43.297  1.00  0.00     0.000 C 
BRANCH   9  10
ATOM     10  C   UNL     1      20.352  13.487  44.665  1.00  0.00     0.000 C 
BRANCH  10  11
ATOM     11  C   UNL     1      19.306  12.747  45.516  1.00  0.00     0.000 C 
BRANCH  11  12
ATOM     12  C   UNL     1      19.782  11.356  45.974  1.00  0.00     0.000 C 
BRANCH  12  13
ATOM     13  C   UNL     1      20.848  10.706  45.068  1.00  0.00     0.006 C 
BRANCH  13  14
ATOM     14  C   UNL     1      20.455   9.329  44.505  1.00  0.00     0.053 C 
BRANCH  14  15
ATOM     15  C   UNL     1      20.784   9.195  43.051  1.00  0.00     0.041 C 
ATOM     16  O   UNL     1      21.734   9.857  42.552  1.00  0.00    -0.550 OA
ATOM     17  O   UNL     1      20.033   8.349  42.242  1.00  0.00    -0.550 OA
ENDBRANCH  14  15
ENDBRANCH  13  14
ENDBRANCH  12  13
ENDBRANCH  11  12
ENDBRANCH  10  11
ENDBRANCH   9  10
ENDBRANCH   8   9
ENDBRANCH   7   8
ENDBRANCH   6   7
ENDBRANCH   5   6
ENDBRANCH   4   5
ENDBRANCH   3   4
ENDBRANCH   2   3
ENDBRANCH   1   2
BRANCH   1  18
ATOM     18  C   UNL     1      12.216  16.805  42.076  1.00  0.00     0.000 C 
BRANCH  18  19
ATOM     19  C   UNL     1      10.761  17.293  41.972  1.00  0.00     0.000 C 
BRANCH  19  20
ATOM     20  C   UNL     1       9.740  16.187  42.292  1.00  0.00     0.000 C 
BRANCH  20  21
ATOM     21  C   UNL     1      10.169  14.809  41.758  1.00  0.00     0.000 C 
BRANCH  21  22
ATOM     22  C   UNL     1       9.093  13.706  41.860  1.00  0.00     0.000 C 
BRANCH  22  23
ATOM     23  C   UNL     1       8.684  13.069  40.519  1.00  0.00     0.000 C 
BRANCH  23  24
ATOM     24  C   UNL     1       8.771  11.532  40.483  1.00  0.00    -0.000 C 
BRANCH  24  25
ATOM     25  C   UNL     1       8.512  10.865  41.854  1.00  0.00    -0.000 C 
BRANCH  25  26
ATOM     26  C   UNL     1       8.146   9.372  41.760  1.00  0.00    -0.000 C 
BRANCH  26  27
ATOM     27  C   UNL     1       8.499   8.603  43.045  1.00  0.00    -0.000 C 
BRANCH  27  28
ATOM     28  C   UNL     1       7.812   9.190  44.289  1.00  0.00    -0.000 C 
BRANCH  28  29
ATOM     29  C   UNL     1       8.644   9.008  45.566  1.00  0.00    -0.000 C 
BRANCH  29  30
ATOM     30  C   UNL     1      10.070   9.536  45.370  1.00  0.00    -0.000 C 
BRANCH  30  31
ATOM     31  C   UNL     1      11.107   8.497  45.810  1.00  0.00    -0.003 C 
ATOM     32  C   UNL     1      12.089   8.186  44.684  1.00  0.00     0.004 C 
ENDBRANCH  30  31
ENDBRANCH  29  30
ENDBRANCH  28  29
ENDBRANCH  27  28
ENDBRANCH  26  27
ENDBRANCH  25  26
ENDBRANCH  24  25
ENDBRANCH  23  24
ENDBRANCH  22  23
ENDBRANCH  21  22
ENDBRANCH  20  21
ENDBRANCH  19  20
ENDBRANCH  18  19
ENDBRANCH   1  18
TORSDOF 28
ENDMDL
MODEL 7
REMARK VINA RESULT:    -5.606      2.374      4.206
REMARK INTER + INTRA:         -16.879
REMARK INTER:                 -15.299
REMARK INTRA:                  -1.579
REMARK UNBOUND:                -2.095
REMARK SMILES CCCCCCCCCCCCCCCCCCCCCCCCCCCCCC(=O)[O-]
REMARK SMILES IDX 16 1 17 2 18 3 19 4 20 5 21 6 22 7 23 8 24 9 25 10 26 11
REMARK SMILES IDX 27 12 28 13 29 14 30 15 31 16 32 17 15 18 14 19 13 20 12 21
REMARK SMILES IDX 11 22 10 23 9 24 8 25 7 26 6 27 5 28 4 29 3 30 2 31 1 32
REMARK H PARENT
REMARK Flexibility Score: inf
ROOT
ATOM      1  C   UNL     1      17.678  17.484  42.342  1.00  0.00     0.000 C 
ENDROOT
BRANCH   1   2
ATOM      2  C   UNL     1      18.310  16.079  42.336  1.00  0.00     0.000 C 
BRANCH   2   3
ATOM      3  C   UNL     1      19.846  16.056  42.228  1.00  0.00     0.000 C 
BRANCH   3   4
ATOM      4  C   UNL     1      20.450  14.686  42.583  1.00  0.00     0.000 C 
BRANCH   4   5
ATOM      5  C   UNL     1      20.412  14.397  44.092  1.00  0.00     0.000 C 
BRANCH   5   6
ATOM      6  C   UNL     1      20.175  12.907  44.401  1.00  0.00     0.000 C 
BRANCH   6   7
ATOM      7  C   UNL     1      19.372  12.700  45.703  1.00  0.00     0.000 C 
BRANCH   7   8
ATOM      8  C   UNL     1      19.444  11.262  46.244  1.00  0.00     0.000 C 
BRANCH   8   9
ATOM      9  C   UNL     1      20.613  10.460  45.648  1.00  0.00     0.000 C 
BRANCH   9  10
ATOM     10  C   UNL     1      20.220   9.016  45.295  1.00  0.00     0.000 C 
BRANCH  10  11
ATOM     11  C   UNL     1      20.949   8.490  44.046  1.00  0.00     0.000 C 
BRANCH  11  12
ATOM     12  C   UNL     1      21.495   9.618  43.152  1.00  0.00     0.000 C 
BRANCH  12  13
ATOM     13  C   UNL     1      20.676   9.882  41.870  1.00  0.00     0.006 C 
BRANCH  13  14
ATOM     14  C   UNL     1      19.994   8.637  41.280  1.00  0.00     0.053 C 
BRANCH  14  15
ATOM     15  C   UNL     1      19.788   8.749  39.801  1.00  0.00     0.041 C 
ATOM     16  O   UNL     1      20.726   8.466  39.007  1.00  0.00    -0.550 OA
ATOM     17  O   UNL     1      18.566   9.181  39.299  1.00  0.00    -0.550 OA
ENDBRANCH  14  15
ENDBRANCH  13  14
ENDBRANCH  12  13
ENDBRANCH  11  12
ENDBRANCH  10  11
ENDBRANCH   9  10
ENDBRANCH   8   9
ENDBRANCH   7   8
ENDBRANCH   6   7
ENDBRANCH   5   6
ENDBRANCH   4   5
ENDBRANCH   3   4
ENDBRANCH   2   3
ENDBRANCH   1   2
BRANCH   1  18
ATOM     18  C   UNL     1      16.204  17.482  41.903  1.00  0.00     0.000 C 
BRANCH  18  19
ATOM     19  C   UNL     1      15.447  18.738  42.369  1.00  0.00     0.000 C 
BRANCH  19  20
ATOM     20  C   UNL     1      13.982  18.758  41.895  1.00  0.00     0.000 C 
BRANCH  20  21
ATOM     21  C   UNL     1      13.146  17.618  42.505  1.00  0.00     0.000 C 
BRANCH  21  22
ATOM     22  C   UNL     1      11.702  17.510  41.968  1.00  0.00     0.000 C 
BRANCH  22  23
ATOM     23  C   UNL     1      11.001  16.169  42.250  1.00  0.00     0.000 C 
BRANCH  23  24
ATOM     24  C   UNL     1       9.579  16.051  41.669  1.00  0.00    -0.000 C 
BRANCH  24  25
ATOM     25  C   UNL     1       8.468  16.051  42.745  1.00  0.00    -0.000 C 
BRANCH  25  26
ATOM     26  C   UNL     1       7.466  14.890  42.604  1.00  0.00    -0.000 C 
BRANCH  26  27
ATOM     27  C   UNL     1       8.121  13.619  42.038  1.00  0.00    -0.000 C 
BRANCH  27  28
ATOM     28  C   UNL     1       7.341  12.345  42.398  1.00  0.00    -0.000 C 
BRANCH  28  29
ATOM     29  C   UNL     1       8.163  11.066  42.184  1.00  0.00    -0.000 C 
BRANCH  29  30
ATOM     30  C   UNL     1       7.940  10.073  43.331  1.00  0.00    -0.000 C 
BRANCH  30  31
ATOM     31  C   UNL     1       9.266   9.461  43.796  1.00  0.00    -0.003 C 
ATOM     32  C   UNL     1       9.522   9.753  45.271  1.00  0.00     0.004 C 
ENDBRANCH  30  31
ENDBRANCH  29  30
ENDBRANCH  28  29
ENDBRANCH  27  28
ENDBRANCH  26  27
ENDBRANCH  25  26
ENDBRANCH  24  25
ENDBRANCH  23  24
ENDBRANCH  22  23
ENDBRANCH  21  22
ENDBRANCH  20  21
ENDBRANCH  19  20
ENDBRANCH  18  19
ENDBRANCH   1  18
TORSDOF 28
ENDMDL
MODEL 8
REMARK VINA RESULT:    -5.596      1.780      2.967
REMARK INTER + INTRA:         -16.852
REMARK INTER:                 -15.379
REMARK INTRA:                  -1.474
REMARK UNBOUND:                -2.095
REMARK SMILES CCCCCCCCCCCCCCCCCCCCCCCCCCCCCC(=O)[O-]
REMARK SMILES IDX 16 1 17 2 18 3 19 4 20 5 21 6 22 7 23 8 24 9 25 10 26 11
REMARK SMILES IDX 27 12 28 13 29 14 30 15 31 16 32 17 15 18 14 19 13 20 12 21
REMARK SMILES IDX 11 22 10 23 9 24 8 25 7 26 6 27 5 28 4 29 3 30 2 31 1 32
REMARK H PARENT
REMARK Flexibility Score: inf
ROOT
ATOM      1  C   UNL     1      15.881  17.528  41.571  1.00  0.00     0.000 C 
ENDROOT
BRANCH   1   2
ATOM      2  C   UNL     1      17.201  17.769  42.328  1.00  0.00     0.000 C 
BRANCH   2   3
ATOM      3  C   UNL     1      18.175  16.577  42.337  1.00  0.00     0.000 C 
BRANCH   3   4
ATOM      4  C   UNL     1      19.651  17.009  42.313  1.00  0.00     0.000 C 
BRANCH   4   5
ATOM      5  C   UNL     1      20.616  15.815  42.239  1.00  0.00     0.000 C 
BRANCH   5   6
ATOM      6  C   UNL     1      19.892  14.463  42.386  1.00  0.00     0.000 C 
BRANCH   6   7
ATOM      7  C   UNL     1      20.878  13.288  42.558  1.00  0.00     0.000 C 
BRANCH   7   8
ATOM      8  C   UNL     1      20.764  12.589  43.923  1.00  0.00     0.000 C 
BRANCH   8   9
ATOM      9  C   UNL     1      19.909  13.380  44.927  1.00  0.00     0.000 C 
BRANCH   9  10
ATOM     10  C   UNL     1      19.456  12.526  46.121  1.00  0.00     0.000 C 
BRANCH  10  11
ATOM     11  C   UNL     1      19.429  11.021  45.800  1.00  0.00     0.000 C 
BRANCH  11  12
ATOM     12  C   UNL     1      20.625  10.259  46.400  1.00  0.00     0.000 C 
BRANCH  12  13
ATOM     13  C   UNL     1      21.561   9.603  45.362  1.00  0.00     0.006 C 
BRANCH  13  14
ATOM     14  C   UNL     1      20.865   8.624  44.402  1.00  0.00     0.053 C 
BRANCH  14  15
ATOM     15  C   UNL     1      21.143   8.943  42.966  1.00  0.00     0.041 C 
ATOM     16  O   UNL     1      22.287   9.341  42.615  1.00  0.00    -0.550 OA
ATOM     17  O   UNL     1      20.135   8.815  42.016  1.00  0.00    -0.550 OA
ENDBRANCH  14  15
ENDBRANCH  13  14
ENDBRANCH  12  13
ENDBRANCH  11  12
ENDBRANCH  10  11
ENDBRANCH   9  10
ENDBRANCH   8   9
ENDBRANCH   7   8
ENDBRANCH   6   7
ENDBRANCH   5   6
ENDBRANCH   4   5
ENDBRANCH   3   4
ENDBRANCH   2   3
ENDBRANCH   1   2
BRANCH   1  18
ATOM     18  C   UNL     1      14.899  18.706  41.682  1.00  0.00     0.000 C 
BRANCH  18  19
ATOM     19  C   UNL     1      13.789  18.455  42.716  1.00  0.00     0.000 C 
BRANCH  19  20
ATOM     20  C   UNL     1      12.981  17.179  42.421  1.00  0.00     0.000 C 
BRANCH  20  21
ATOM     21  C   UNL     1      11.513  17.475  42.063  1.00  0.00     0.000 C 
BRANCH  21  22
ATOM     22  C   UNL     1      10.577  16.247  42.080  1.00  0.00     0.000 C 
BRANCH  22  23
ATOM     23  C   UNL     1       9.102  16.556  42.394  1.00  0.00     0.000 C 
BRANCH  23  24
ATOM     24  C   UNL     1       8.134  15.381  42.161  1.00  0.00    -0.000 C 
BRANCH  24  25
ATOM     25  C   UNL     1       8.749  14.225  41.340  1.00  0.00    -0.000 C 
BRANCH  25  26
ATOM     26  C   UNL     1       7.954  12.910  41.423  1.00  0.00    -0.000 C 
BRANCH  26  27
ATOM     27  C   UNL     1       8.476  11.981  42.533  1.00  0.00    -0.000 C 
BRANCH  27  28
ATOM     28  C   UNL     1       8.613  10.524  42.065  1.00  0.00    -0.000 C 
BRANCH  28  29
ATOM     29  C   UNL     1       8.827   9.545  43.229  1.00  0.00    -0.000 C 
BRANCH  29  30
ATOM     30  C   UNL     1       9.503  10.243  44.414  1.00  0.00    -0.000 C 
BRANCH  30  31
ATOM     31  C   UNL     1       9.872   9.235  45.509  1.00  0.00    -0.003 C 
ATOM     32  C   UNL     1      11.111   8.434  45.126  1.00  0.00     0.004 C 
ENDBRANCH  30  31
ENDBRANCH  29  30
ENDBRANCH  28  29
ENDBRANCH  27  28
ENDBRANCH  26  27
ENDBRANCH  25  26
ENDBRANCH  24  25
ENDBRANCH  23  24
ENDBRANCH  22  23
ENDBRANCH  21  22
ENDBRANCH  20  21
ENDBRANCH  19  20
ENDBRANCH  18  19
ENDBRANCH   1  18
TORSDOF 28
ENDMDL
MODEL 9
REMARK VINA RESULT:    -5.501      4.109     11.394
REMARK INTER + INTRA:         -16.602
REMARK INTER:                 -15.045
REMARK INTRA:                  -1.557
REMARK UNBOUND:                -2.095
REMARK SMILES CCCCCCCCCCCCCCCCCCCCCCCCCCCCCC(=O)[O-]
REMARK SMILES IDX 16 1 17 2 18 3 19 4 20 5 21 6 22 7 23 8 24 9 25 10 26 11
REMARK SMILES IDX 27 12 28 13 29 14 30 15 31 16 32 17 15 18 14 19 13 20 12 21
REMARK SMILES IDX 11 22 10 23 9 24 8 25 7 26 6 27 5 28 4 29 3 30 2 31 1 32
REMARK H PARENT
REMARK Flexibility Score: inf
ROOT
ATOM      1  C   UNL     1      13.300  17.317  42.404  1.00  0.00     0.000 C 
ENDROOT
BRANCH   1   2
ATOM      2  C   UNL     1      11.818  17.617  42.111  1.00  0.00     0.000 C 
BRANCH   2   3
ATOM      3  C   UNL     1      10.912  16.378  41.994  1.00  0.00     0.000 C 
BRANCH   3   4
ATOM      4  C   UNL     1       9.415  16.730  41.969  1.00  0.00     0.000 C 
BRANCH   4   5
ATOM      5  C   UNL     1       8.526  15.511  41.676  1.00  0.00     0.000 C 
BRANCH   5   6
ATOM      6  C   UNL     1       9.329  14.199  41.603  1.00  0.00     0.000 C 
BRANCH   6   7
ATOM      7  C   UNL     1       8.838  13.276  40.469  1.00  0.00     0.000 C 
BRANCH   7   8
ATOM      8  C   UNL     1       9.847  13.133  39.316  1.00  0.00     0.000 C 
BRANCH   8   9
ATOM      9  C   UNL     1       9.857  11.720  38.708  1.00  0.00     0.000 C 
BRANCH   9  10
ATOM     10  C   UNL     1       9.443  10.638  39.718  1.00  0.00     0.000 C 
BRANCH  10  11
ATOM     11  C   UNL     1       9.417   9.228  39.102  1.00  0.00     0.000 C 
BRANCH  11  12
ATOM     12  C   UNL     1       8.787   8.178  40.036  1.00  0.00     0.000 C 
BRANCH  12  13
ATOM     13  C   UNL     1       8.599   8.640  41.496  1.00  0.00     0.006 C 
BRANCH  13  14
ATOM     14  C   UNL     1       7.138   8.661  41.978  1.00  0.00     0.053 C 
BRANCH  14  15
ATOM     15  C   UNL     1       6.460   9.961  41.678  1.00  0.00     0.041 C 
ATOM     16  O   UNL     1       6.282  10.809  42.595  1.00  0.00    -0.550 OA
ATOM     17  O   UNL     1       6.011  10.232  40.390  1.00  0.00    -0.550 OA
ENDBRANCH  14  15
ENDBRANCH  13  14
ENDBRANCH  12  13
ENDBRANCH  11  12
ENDBRANCH  10  11
ENDBRANCH   9  10
ENDBRANCH   8   9
ENDBRANCH   7   8
ENDBRANCH   6   7
ENDBRANCH   5   6
ENDBRANCH   4   5
ENDBRANCH   3   4
ENDBRANCH   2   3
ENDBRANCH   1   2
BRANCH   1  18
ATOM     18  C   UNL     1      14.114  18.578  42.742  1.00  0.00     0.000 C 
BRANCH  18  19
ATOM     19  C   UNL     1      15.447  18.644  41.977  1.00  0.00     0.000 C 
BRANCH  19  20
ATOM     20  C   UNL     1      16.198  17.300  41.976  1.00  0.00     0.000 C 
BRANCH  20  21
ATOM     21  C   UNL     1      17.686  17.451  42.340  1.00  0.00     0.000 C 
BRANCH  21  22
ATOM     22  C   UNL     1      18.490  16.133  42.357  1.00  0.00     0.000 C 
BRANCH  22  23
ATOM     23  C   UNL     1      20.020  16.303  42.393  1.00  0.00     0.000 C 
BRANCH  23  24
ATOM     24  C   UNL     1      20.818  15.017  42.110  1.00  0.00    -0.000 C 
BRANCH  24  25
ATOM     25  C   UNL     1      20.281  13.777  42.862  1.00  0.00    -0.000 C 
BRANCH  25  26
ATOM     26  C   UNL     1      20.792  12.438  42.299  1.00  0.00    -0.000 C 
BRANCH  26  27
ATOM     27  C   UNL     1      21.126  11.428  43.410  1.00  0.00    -0.000 C 
BRANCH  27  28
ATOM     28  C   UNL     1      20.736   9.989  43.033  1.00  0.00    -0.000 C 
BRANCH  28  29
ATOM     29  C   UNL     1      20.719   9.758  41.515  1.00  0.00    -0.000 C 
BRANCH  29  30
ATOM     30  C   UNL     1      20.146   8.376  41.178  1.00  0.00    -0.000 C 
BRANCH  30  31
ATOM     31  C   UNL     1      19.203   8.451  39.972  1.00  0.00    -0.003 C 
ATOM     32  C   UNL     1      18.927   9.898  39.576  1.00  0.00     0.004 C 
ENDBRANCH  30  31
ENDBRANCH  29  30
ENDBRANCH  28  29
ENDBRANCH  27  28
ENDBRANCH  26  27
ENDBRANCH  25  26
ENDBRANCH  24  25
ENDBRANCH  23  24
ENDBRANCH  22  23
ENDBRANCH  21  22
ENDBRANCH  20  21
ENDBRANCH  19  20
ENDBRANCH  18  19
ENDBRANCH   1  18
TORSDOF 28
ENDMDL
