MODEL 1
REMARK VINA RESULT:    -3.703      0.000      0.000
REMARK INTER + INTRA:          -8.729
REMARK INTER:                  -6.951
REMARK INTRA:                  -1.778
REMARK UNBOUND:                -1.778
REMARK SMILES O=C([O-])CCCCCCCCCCCCCCC(=O)[O-]
REMARK SMILES IDX 10 1 9 2 8 3 7 4 6 5 5 6 4 7 2 8 1 9 3 10 11 11 12 12 13 13
REMARK SMILES IDX 14 14 15 15 16 16 17 17 18 18 19 19 20 20
REMARK H PARENT
REMARK Flexibility Score: inf
ROOT
ATOM      1  C   UNL     1       7.488  -6.681   7.552  1.00  0.00     0.000 C 
ENDROOT
BRANCH   1   2
ATOM      2  C   UNL     1       6.702  -7.604   6.604  1.00  0.00     0.000 C 
BRANCH   2   3
ATOM      3  C   UNL     1       7.029  -9.096   6.832  1.00  0.00     0.000 C 
BRANCH   3   4
ATOM      4  C   UNL     1       5.784  -9.981   7.035  1.00  0.00     0.000 C 
BRANCH   4   5
ATOM      5  C   UNL     1       5.432 -10.883   5.841  1.00  0.00     0.000 C 
BRANCH   5   6
ATOM      6  C   UNL     1       4.244 -10.350   5.022  1.00  0.00     0.006 C 
BRANCH   6   7
ATOM      7  C   UNL     1       4.702  -9.527   3.812  1.00  0.00     0.053 C 
BRANCH   7   8
ATOM      8  C   UNL     1       3.684  -9.547   2.712  1.00  0.00     0.041 C 
ATOM      9  O   UNL     1       2.937 -10.548   2.558  1.00  0.00    -0.550 OA
ATOM     10  O   UNL     1       3.537  -8.445   1.879  1.00  0.00    -0.550 OA
ENDBRANCH   7   8
ENDBRANCH   6   7
ENDBRANCH   5   6
ENDBRANCH   4   5
ENDBRANCH   3   4
ENDBRANCH   2   3
ENDBRANCH   1   2
BRANCH   1  11
ATOM     11  C   UNL     1       6.608  -6.127   8.694  1.00  0.00     0.000 C 
BRANCH  11  12
ATOM     12  C   UNL     1       6.547  -7.043   9.928  1.00  0.00     0.000 C 
BRANCH  12  13
ATOM     13  C   UNL     1       5.165  -7.687  10.125  1.00  0.00     0.000 C 
BRANCH  13  14
ATOM     14  C   UNL     1       4.016  -6.710   9.826  1.00  0.00     0.000 C 
BRANCH  14  15
ATOM     15  C   UNL     1       2.648  -7.413   9.768  1.00  0.00     0.000 C 
BRANCH  15  16
ATOM     16  C   UNL     1       2.750  -8.862   9.268  1.00  0.00     0.006 C 
BRANCH  16  17
ATOM     17  C   UNL     1       2.337  -9.013   7.797  1.00  0.00     0.053 C 
BRANCH  17  18
ATOM     18  C   UNL     1       0.995  -9.667   7.697  1.00  0.00     0.041 C 
ATOM     19  O   UNL     1       0.422 -10.100   8.731  1.00  0.00    -0.550 OA
ATOM     20  O   UNL     1       0.398  -9.842   6.455  1.00  0.00    -0.550 OA
ENDBRANCH  17  18
ENDBRANCH  16  17
ENDBRANCH  15  16
ENDBRANCH  14  15
ENDBRANCH  13  14
ENDBRANCH  12  13
ENDBRANCH  11  12
ENDBRANCH   1  11
TORSDOF 15
ENDMDL
MODEL 2
REMARK VINA RESULT:    -3.637      1.555      5.463
REMARK INTER + INTRA:          -8.604
REMARK INTER:                  -6.825
REMARK INTRA:                  -1.779
REMARK UNBOUND:                -1.778
REMARK SMILES O=C([O-])CCCCCCCCCCCCCCC(=O)[O-]
REMARK SMILES IDX 10 1 9 2 8 3 7 4 6 5 5 6 4 7 2 8 1 9 3 10 11 11 12 12 13 13
REMARK SMILES IDX 14 14 15 15 16 16 17 17 18 18 19 19 20 20
REMARK H PARENT
REMARK Flexibility Score: inf
ROOT
ATOM      1  C   UNL     1       4.216  -8.040   8.484  1.00  0.00     0.000 C 
ENDROOT
BRANCH   1   2
ATOM      2  C   UNL     1       3.500  -9.149   9.277  1.00  0.00     0.000 C 
BRANCH   2   3
ATOM      3  C   UNL     1       3.588 -10.522   8.575  1.00  0.00     0.000 C 
BRANCH   3   4
ATOM      4  C   UNL     1       2.231 -11.047   8.065  1.00  0.00     0.000 C 
BRANCH   4   5
ATOM      5  C   UNL     1       1.633 -10.256   6.890  1.00  0.00     0.000 C 
BRANCH   5   6
ATOM      6  C   UNL     1       0.107 -10.095   6.995  1.00  0.00     0.006 C 
BRANCH   6   7
ATOM      7  C   UNL     1      -0.423 -10.514   8.372  1.00  0.00     0.053 C 
BRANCH   7   8
ATOM      8  C   UNL     1      -0.908  -9.336   9.160  1.00  0.00     0.041 C 
ATOM      9  O   UNL     1      -0.095  -8.635   9.817  1.00  0.00    -0.550 OA
ATOM     10  O   UNL     1      -2.254  -8.991   9.140  1.00  0.00    -0.550 OA
ENDBRANCH   7   8
ENDBRANCH   6   7
ENDBRANCH   5   6
ENDBRANCH   4   5
ENDBRANCH   3   4
ENDBRANCH   2   3
ENDBRANCH   1   2
BRANCH   1  11
ATOM     11  C   UNL     1       5.564  -7.642   9.123  1.00  0.00     0.000 C 
BRANCH  11  12
ATOM     12  C   UNL     1       6.506  -6.893   8.165  1.00  0.00     0.000 C 
BRANCH  12  13
ATOM     13  C   UNL     1       7.376  -7.841   7.323  1.00  0.00     0.000 C 
BRANCH  13  14
ATOM     14  C   UNL     1       6.784  -8.095   5.926  1.00  0.00     0.000 C 
BRANCH  14  15
ATOM     15  C   UNL     1       6.215  -9.518   5.780  1.00  0.00     0.000 C 
BRANCH  15  16
ATOM     16  C   UNL     1       4.780  -9.526   5.233  1.00  0.00     0.006 C 
BRANCH  16  17
ATOM     17  C   UNL     1       4.478 -10.764   4.376  1.00  0.00     0.053 C 
BRANCH  17  18
ATOM     18  C   UNL     1       4.046 -10.356   3.003  1.00  0.00     0.041 C 
ATOM     19  O   UNL     1       4.839  -9.733   2.248  1.00  0.00    -0.550 OA
ATOM     20  O   UNL     1       2.751 -10.619   2.574  1.00  0.00    -0.550 OA
ENDBRANCH  17  18
ENDBRANCH  16  17
ENDBRANCH  15  16
ENDBRANCH  14  15
ENDBRANCH  13  14
ENDBRANCH  12  13
ENDBRANCH  11  12
ENDBRANCH   1  11
TORSDOF 15
ENDMDL
MODEL 3
REMARK VINA RESULT:    -3.616      3.319      5.455
REMARK INTER + INTRA:          -8.565
REMARK INTER:                  -6.556
REMARK INTRA:                  -2.009
REMARK UNBOUND:                -1.778
REMARK SMILES O=C([O-])CCCCCCCCCCCCCCC(=O)[O-]
REMARK SMILES IDX 10 1 9 2 8 3 7 4 6 5 5 6 4 7 2 8 1 9 3 10 11 11 12 12 13 13
REMARK SMILES IDX 14 14 15 15 16 16 17 17 18 18 19 19 20 20
REMARK H PARENT
REMARK Flexibility Score: inf
ROOT
ATOM      1  C   UNL     1       6.326  -8.429   3.953  1.00  0.00     0.000 C 
ENDROOT
BRANCH   1   2
ATOM      2  C   UNL     1       6.592  -7.990   5.405  1.00  0.00     0.000 C 
BRANCH   2   3
ATOM      3  C   UNL     1       7.583  -8.927   6.129  1.00  0.00     0.000 C 
BRANCH   3   4
ATOM      4  C   UNL     1       7.341  -9.033   7.648  1.00  0.00     0.000 C 
BRANCH   4   5
ATOM      5  C   UNL     1       8.305  -8.206   8.515  1.00  0.00     0.000 C 
BRANCH   5   6
ATOM      6  C   UNL     1       7.605  -7.047   9.245  1.00  0.00     0.006 C 
BRANCH   6   7
ATOM      7  C   UNL     1       7.128  -5.960   8.275  1.00  0.00     0.053 C 
BRANCH   7   8
ATOM      8  C   UNL     1       8.071  -4.796   8.240  1.00  0.00     0.041 C 
ATOM      9  O   UNL     1       7.625  -3.619   8.227  1.00  0.00    -0.550 OA
ATOM     10  O   UNL     1       9.443  -5.011   8.259  1.00  0.00    -0.550 OA
ENDBRANCH   7   8
ENDBRANCH   6   7
ENDBRANCH   5   6
ENDBRANCH   4   5
ENDBRANCH   3   4
ENDBRANCH   2   3
ENDBRANCH   1   2
BRANCH   1  11
ATOM     11  C   UNL     1       4.903  -8.995   3.765  1.00  0.00     0.000 C 
BRANCH  11  12
ATOM     12  C   UNL     1       4.821 -10.525   3.909  1.00  0.00     0.000 C 
BRANCH  12  13
ATOM     13  C   UNL     1       4.554 -10.973   5.355  1.00  0.00     0.000 C 
BRANCH  13  14
ATOM     14  C   UNL     1       3.465 -10.131   6.039  1.00  0.00     0.000 C 
BRANCH  14  15
ATOM     15  C   UNL     1       3.798  -9.821   7.510  1.00  0.00     0.000 C 
BRANCH  15  16
ATOM     16  C   UNL     1       3.863  -8.313   7.795  1.00  0.00     0.006 C 
BRANCH  16  17
ATOM     17  C   UNL     1       3.559  -7.973   9.261  1.00  0.00     0.053 C 
BRANCH  17  18
ATOM     18  C   UNL     1       2.182  -7.402   9.390  1.00  0.00     0.041 C 
ATOM     19  O   UNL     1       1.174  -8.150   9.280  1.00  0.00    -0.550 OA
ATOM     20  O   UNL     1       2.010  -6.037   9.582  1.00  0.00    -0.550 OA
ENDBRANCH  17  18
ENDBRANCH  16  17
ENDBRANCH  15  16
ENDBRANCH  14  15
ENDBRANCH  13  14
ENDBRANCH  12  13
ENDBRANCH  11  12
ENDBRANCH   1  11
TORSDOF 15
ENDMDL
MODEL 4
REMARK VINA RESULT:    -3.615     14.937     17.956
REMARK INTER + INTRA:          -8.563
REMARK INTER:                  -6.680
REMARK INTRA:                  -1.883
REMARK UNBOUND:                -1.778
REMARK SMILES O=C([O-])CCCCCCCCCCCCCCC(=O)[O-]
REMARK SMILES IDX 10 1 9 2 8 3 7 4 6 5 5 6 4 7 2 8 1 9 3 10 11 11 12 12 13 13
REMARK SMILES IDX 14 14 15 15 16 16 17 17 18 18 19 19 20 20
REMARK H PARENT
REMARK Flexibility Score: inf
ROOT
ATOM      1  C   UNL     1      -3.882  -9.269  -6.169  1.00  0.00     0.000 C 
ENDROOT
BRANCH   1   2
ATOM      2  C   UNL     1      -4.782 -10.004  -5.159  1.00  0.00     0.000 C 
BRANCH   2   3
ATOM      3  C   UNL     1      -6.110  -9.257  -4.906  1.00  0.00     0.000 C 
BRANCH   3   4
ATOM      4  C   UNL     1      -7.350 -10.173  -4.919  1.00  0.00     0.000 C 
BRANCH   4   5
ATOM      5  C   UNL     1      -8.661  -9.491  -4.492  1.00  0.00     0.000 C 
BRANCH   5   6
ATOM      6  C   UNL     1      -8.733  -9.236  -2.977  1.00  0.00     0.006 C 
BRANCH   6   7
ATOM      7  C   UNL     1      -9.053 -10.514  -2.192  1.00  0.00     0.053 C 
BRANCH   7   8
ATOM      8  C   UNL     1      -7.970 -10.847  -1.212  1.00  0.00     0.041 C 
ATOM      9  O   UNL     1      -6.798 -11.071  -1.614  1.00  0.00    -0.550 OA
ATOM     10  O   UNL     1      -8.247 -10.875   0.150  1.00  0.00    -0.550 OA
ENDBRANCH   7   8
ENDBRANCH   6   7
ENDBRANCH   5   6
ENDBRANCH   4   5
ENDBRANCH   3   4
ENDBRANCH   2   3
ENDBRANCH   1   2
BRANCH   1  11
ATOM     11  C   UNL     1      -4.563  -9.097  -7.544  1.00  0.00     0.000 C 
BRANCH  11  12
ATOM     12  C   UNL     1      -4.637 -10.396  -8.364  1.00  0.00     0.000 C 
BRANCH  12  13
ATOM     13  C   UNL     1      -5.872 -10.454  -9.278  1.00  0.00     0.000 C 
BRANCH  13  14
ATOM     14  C   UNL     1      -7.190 -10.422  -8.486  1.00  0.00     0.000 C 
BRANCH  14  15
ATOM     15  C   UNL     1      -8.101  -9.256  -8.908  1.00  0.00     0.000 C 
BRANCH  15  16
ATOM     16  C   UNL     1      -8.011  -8.059  -7.949  1.00  0.00     0.006 C 
BRANCH  16  17
ATOM     17  C   UNL     1      -7.842  -6.722  -8.683  1.00  0.00     0.053 C 
BRANCH  17  18
ATOM     18  C   UNL     1      -7.322  -5.676  -7.749  1.00  0.00     0.041 C 
ATOM     19  O   UNL     1      -8.043  -4.692  -7.434  1.00  0.00    -0.550 OA
ATOM     20  O   UNL     1      -6.023  -5.761  -7.262  1.00  0.00    -0.550 OA
ENDBRANCH  17  18
ENDBRANCH  16  17
ENDBRANCH  15  16
ENDBRANCH  14  15
ENDBRANCH  13  14
ENDBRANCH  12  13
ENDBRANCH  11  12
ENDBRANCH   1  11
TORSDOF 15
ENDMDL
MODEL 5
REMARK VINA RESULT:    -3.533     16.017     18.467
REMARK INTER + INTRA:          -8.409
REMARK INTER:                  -6.593
REMARK INTRA:                  -1.817
REMARK UNBOUND:                -1.778
REMARK SMILES O=C([O-])CCCCCCCCCCCCCCC(=O)[O-]
REMARK SMILES IDX 10 1 9 2 8 3 7 4 6 5 5 6 4 7 2 8 1 9 3 10 11 11 12 12 13 13
REMARK SMILES IDX 14 14 15 15 16 16 17 17 18 18 19 19 20 20
REMARK H PARENT
REMARK Flexibility Score: inf
ROOT
ATOM      1  C   UNL     1      -4.459  -9.633  -5.988  1.00  0.00     0.000 C 
ENDROOT
BRANCH   1   2
ATOM      2  C   UNL     1      -5.895  -9.148  -5.715  1.00  0.00     0.000 C 
BRANCH   2   3
ATOM      3  C   UNL     1      -6.618 -10.019  -4.664  1.00  0.00     0.000 C 
BRANCH   3   4
ATOM      4  C   UNL     1      -6.870  -9.297  -3.326  1.00  0.00     0.000 C 
BRANCH   4   5
ATOM      5  C   UNL     1      -8.069  -9.827  -2.522  1.00  0.00     0.000 C 
BRANCH   5   6
ATOM      6  C   UNL     1      -9.298 -10.110  -3.403  1.00  0.00     0.006 C 
BRANCH   6   7
ATOM      7  C   UNL     1     -10.101  -8.838  -3.697  1.00  0.00     0.053 C 
BRANCH   7   8
ATOM      8  C   UNL     1     -10.010  -8.447  -5.141  1.00  0.00     0.041 C 
ATOM      9  O   UNL     1     -10.045  -9.329  -6.039  1.00  0.00    -0.550 OA
ATOM     10  O   UNL     1      -9.922  -7.107  -5.496  1.00  0.00    -0.550 OA
ENDBRANCH   7   8
ENDBRANCH   6   7
ENDBRANCH   5   6
ENDBRANCH   4   5
ENDBRANCH   3   4
ENDBRANCH   2   3
ENDBRANCH   1   2
BRANCH   1  11
ATOM     11  C   UNL     1      -4.041  -9.422  -7.459  1.00  0.00     0.000 C 
BRANCH  11  12
ATOM     12  C   UNL     1      -4.532 -10.530  -8.407  1.00  0.00     0.000 C 
BRANCH  12  13
ATOM     13  C   UNL     1      -5.588 -10.033  -9.407  1.00  0.00     0.000 C 
BRANCH  13  14
ATOM     14  C   UNL     1      -7.010 -10.478  -9.027  1.00  0.00     0.000 C 
BRANCH  14  15
ATOM     15  C   UNL     1      -7.943  -9.286  -8.746  1.00  0.00     0.000 C 
BRANCH  15  16
ATOM     16  C   UNL     1      -7.241  -7.932  -8.925  1.00  0.00     0.006 C 
BRANCH  16  17
ATOM     17  C   UNL     1      -8.183  -6.740  -8.706  1.00  0.00     0.053 C 
BRANCH  17  18
ATOM     18  C   UNL     1      -7.562  -5.748  -7.774  1.00  0.00     0.041 C 
ATOM     19  O   UNL     1      -8.230  -4.764  -7.359  1.00  0.00    -0.550 OA
ATOM     20  O   UNL     1      -6.230  -5.882  -7.401  1.00  0.00    -0.550 OA
ENDBRANCH  17  18
ENDBRANCH  16  17
ENDBRANCH  15  16
ENDBRANCH  14  15
ENDBRANCH  13  14
ENDBRANCH  12  13
ENDBRANCH  11  12
ENDBRANCH   1  11
TORSDOF 15
ENDMDL
MODEL 6
REMARK VINA RESULT:    -3.505      0.980      4.891
REMARK INTER + INTRA:          -8.356
REMARK INTER:                  -6.660
REMARK INTRA:                  -1.696
REMARK UNBOUND:                -1.778
REMARK SMILES O=C([O-])CCCCCCCCCCCCCCC(=O)[O-]
REMARK SMILES IDX 10 1 9 2 8 3 7 4 6 5 5 6 4 7 2 8 1 9 3 10 11 11 12 12 13 13
REMARK SMILES IDX 14 14 15 15 16 16 17 17 18 18 19 19 20 20
REMARK H PARENT
REMARK Flexibility Score: inf
ROOT
ATOM      1  C   UNL     1       6.982  -6.807   7.721  1.00  0.00     0.000 C 
ENDROOT
BRANCH   1   2
ATOM      2  C   UNL     1       6.767  -5.838   8.898  1.00  0.00     0.000 C 
BRANCH   2   3
ATOM      3  C   UNL     1       5.870  -6.443  10.000  1.00  0.00     0.000 C 
BRANCH   3   4
ATOM      4  C   UNL     1       4.790  -7.404   9.465  1.00  0.00     0.000 C 
BRANCH   4   5
ATOM      5  C   UNL     1       3.345  -7.007   9.810  1.00  0.00     0.000 C 
BRANCH   5   6
ATOM      6  C   UNL     1       2.328  -8.112   9.474  1.00  0.00     0.006 C 
BRANCH   6   7
ATOM      7  C   UNL     1       2.279  -8.413   7.972  1.00  0.00     0.053 C 
BRANCH   7   8
ATOM      8  C   UNL     1       1.364  -9.559   7.666  1.00  0.00     0.041 C 
ATOM      9  O   UNL     1       1.000  -9.780   6.482  1.00  0.00    -0.550 OA
ATOM     10  O   UNL     1       0.942 -10.404   8.685  1.00  0.00    -0.550 OA
ENDBRANCH   7   8
ENDBRANCH   6   7
ENDBRANCH   5   6
ENDBRANCH   4   5
ENDBRANCH   3   4
ENDBRANCH   2   3
ENDBRANCH   1   2
BRANCH   1  11
ATOM     11  C   UNL     1       8.245  -7.676   7.903  1.00  0.00     0.000 C 
BRANCH  11  12
ATOM     12  C   UNL     1       8.084  -9.117   7.389  1.00  0.00     0.000 C 
BRANCH  12  13
ATOM     13  C   UNL     1       7.180  -9.974   8.291  1.00  0.00     0.000 C 
BRANCH  13  14
ATOM     14  C   UNL     1       5.908 -10.446   7.568  1.00  0.00     0.000 C 
BRANCH  14  15
ATOM     15  C   UNL     1       5.869  -9.997   6.096  1.00  0.00     0.000 C 
BRANCH  15  16
ATOM     16  C   UNL     1       4.438  -9.919   5.541  1.00  0.00     0.006 C 
BRANCH  16  17
ATOM     17  C   UNL     1       4.286 -10.631   4.190  1.00  0.00     0.053 C 
BRANCH  17  18
ATOM     18  C   UNL     1       4.284  -9.636   3.073  1.00  0.00     0.041 C 
ATOM     19  O   UNL     1       3.337  -9.617   2.242  1.00  0.00    -0.550 OA
ATOM     20  O   UNL     1       5.351  -8.759   2.919  1.00  0.00    -0.550 OA
ENDBRANCH  17  18
ENDBRANCH  16  17
ENDBRANCH  15  16
ENDBRANCH  14  15
ENDBRANCH  13  14
ENDBRANCH  12  13
ENDBRANCH  11  12
ENDBRANCH   1  11
TORSDOF 15
ENDMDL
MODEL 7
REMARK VINA RESULT:    -3.485      2.954      5.004
REMARK INTER + INTRA:          -8.320
REMARK INTER:                  -6.497
REMARK INTRA:                  -1.823
REMARK UNBOUND:                -1.778
REMARK SMILES O=C([O-])CCCCCCCCCCCCCCC(=O)[O-]
REMARK SMILES IDX 10 1 9 2 8 3 7 4 6 5 5 6 4 7 2 8 1 9 3 10 11 11 12 12 13 13
REMARK SMILES IDX 14 14 15 15 16 16 17 17 18 18 19 19 20 20
REMARK H PARENT
REMARK Flexibility Score: inf
ROOT
ATOM      1  C   UNL     1       4.907  -8.560   8.536  1.00  0.00     0.000 C 
ENDROOT
BRANCH   1   2
ATOM      2  C   UNL     1       3.368  -8.615   8.507  1.00  0.00     0.000 C 
BRANCH   2   3
ATOM      3  C   UNL     1       2.833 -10.063   8.490  1.00  0.00     0.000 C 
BRANCH   3   4
ATOM      4  C   UNL     1       2.031 -10.414   7.222  1.00  0.00     0.000 C 
BRANCH   4   5
ATOM      5  C   UNL     1       2.858 -11.046   6.090  1.00  0.00     0.000 C 
BRANCH   5   6
ATOM      6  C   UNL     1       3.621 -10.002   5.255  1.00  0.00     0.006 C 
BRANCH   6   7
ATOM      7  C   UNL     1       4.086 -10.570   3.908  1.00  0.00     0.053 C 
BRANCH   7   8
ATOM      8  C   UNL     1       4.355  -9.483   2.913  1.00  0.00     0.041 C 
ATOM      9  O   UNL     1       3.508  -9.219   2.019  1.00  0.00    -0.550 OA
ATOM     10  O   UNL     1       5.524  -8.737   2.994  1.00  0.00    -0.550 OA
ENDBRANCH   7   8
ENDBRANCH   6   7
ENDBRANCH   5   6
ENDBRANCH   4   5
ENDBRANCH   3   4
ENDBRANCH   2   3
ENDBRANCH   1   2
BRANCH   1  11
ATOM     11  C   UNL     1       5.542  -9.967   8.499  1.00  0.00     0.000 C 
BRANCH  11  12
ATOM     12  C   UNL     1       6.523 -10.172   7.332  1.00  0.00     0.000 C 
BRANCH  12  13
ATOM     13  C   UNL     1       7.091  -8.849   6.792  1.00  0.00     0.000 C 
BRANCH  13  14
ATOM     14  C   UNL     1       8.615  -8.750   6.969  1.00  0.00     0.000 C 
BRANCH  14  15
ATOM     15  C   UNL     1       9.030  -8.661   8.449  1.00  0.00     0.000 C 
BRANCH  15  16
ATOM     16  C   UNL     1       8.318  -7.522   9.194  1.00  0.00     0.006 C 
BRANCH  16  17
ATOM     17  C   UNL     1       8.751  -6.132   8.707  1.00  0.00     0.053 C 
BRANCH  17  18
ATOM     18  C   UNL     1       7.579  -5.203   8.672  1.00  0.00     0.041 C 
ATOM     19  O   UNL     1       6.467  -5.568   9.137  1.00  0.00    -0.550 OA
ATOM     20  O   UNL     1       7.702  -3.951   8.082  1.00  0.00    -0.550 OA
ENDBRANCH  17  18
ENDBRANCH  16  17
ENDBRANCH  15  16
ENDBRANCH  14  15
ENDBRANCH  13  14
ENDBRANCH  12  13
ENDBRANCH  11  12
ENDBRANCH   1  11
TORSDOF 15
ENDMDL
MODEL 8
REMARK VINA RESULT:    -3.465      3.015      5.841
REMARK INTER + INTRA:          -8.281
REMARK INTER:                  -6.523
REMARK INTRA:                  -1.759
REMARK UNBOUND:                -1.778
REMARK SMILES O=C([O-])CCCCCCCCCCCCCCC(=O)[O-]
REMARK SMILES IDX 10 1 9 2 8 3 7 4 6 5 5 6 4 7 2 8 1 9 3 10 11 11 12 12 13 13
REMARK SMILES IDX 14 14 15 15 16 16 17 17 18 18 19 19 20 20
REMARK H PARENT
REMARK Flexibility Score: inf
ROOT
ATOM      1  C   UNL     1       5.185  -9.537   3.356  1.00  0.00     0.000 C 
ENDROOT
BRANCH   1   2
ATOM      2  C   UNL     1       4.050 -10.030   4.272  1.00  0.00     0.000 C 
BRANCH   2   3
ATOM      3  C   UNL     1       4.556 -10.997   5.364  1.00  0.00     0.000 C 
BRANCH   3   4
ATOM      4  C   UNL     1       4.018 -10.680   6.773  1.00  0.00     0.000 C 
BRANCH   4   5
ATOM      5  C   UNL     1       2.712  -9.870   6.798  1.00  0.00     0.000 C 
BRANCH   5   6
ATOM      6  C   UNL     1       2.302  -9.443   8.218  1.00  0.00     0.006 C 
BRANCH   6   7
ATOM      7  C   UNL     1       2.928  -8.102   8.619  1.00  0.00     0.053 C 
BRANCH   7   8
ATOM      8  C   UNL     1       1.959  -7.241   9.370  1.00  0.00     0.041 C 
ATOM      9  O   UNL     1       2.143  -5.998   9.447  1.00  0.00    -0.550 OA
ATOM     10  O   UNL     1       0.833  -7.806   9.955  1.00  0.00    -0.550 OA
ENDBRANCH   7   8
ENDBRANCH   6   7
ENDBRANCH   5   6
ENDBRANCH   4   5
ENDBRANCH   3   4
ENDBRANCH   2   3
ENDBRANCH   1   2
BRANCH   1  11
ATOM     11  C   UNL     1       5.664  -8.118   3.731  1.00  0.00     0.000 C 
BRANCH  11  12
ATOM     12  C   UNL     1       6.839  -8.104   4.724  1.00  0.00     0.000 C 
BRANCH  12  13
ATOM     13  C   UNL     1       6.386  -7.902   6.180  1.00  0.00     0.000 C 
BRANCH  13  14
ATOM     14  C   UNL     1       7.303  -8.620   7.183  1.00  0.00     0.000 C 
BRANCH  14  15
ATOM     15  C   UNL     1       6.618  -8.855   8.541  1.00  0.00     0.000 C 
BRANCH  15  16
ATOM     16  C   UNL     1       7.117  -7.891   9.629  1.00  0.00     0.006 C 
BRANCH  16  17
ATOM     17  C   UNL     1       7.937  -6.726   9.058  1.00  0.00     0.053 C 
BRANCH  17  18
ATOM     18  C   UNL     1       7.142  -5.459   9.096  1.00  0.00     0.041 C 
ATOM     19  O   UNL     1       6.165  -5.348   9.883  1.00  0.00    -0.550 OA
ATOM     20  O   UNL     1       7.448  -4.419   8.227  1.00  0.00    -0.550 OA
ENDBRANCH  17  18
ENDBRANCH  16  17
ENDBRANCH  15  16
ENDBRANCH  14  15
ENDBRANCH  13  14
ENDBRANCH  12  13
ENDBRANCH  11  12
ENDBRANCH   1  11
TORSDOF 15
ENDMDL
MODEL 9
REMARK VINA RESULT:    -3.463      1.428      2.203
REMARK INTER + INTRA:          -8.278
REMARK INTER:                  -6.780
REMARK INTRA:                  -1.498
REMARK UNBOUND:                -1.778
REMARK SMILES O=C([O-])CCCCCCCCCCCCCCC(=O)[O-]
REMARK SMILES IDX 10 1 9 2 8 3 7 4 6 5 5 6 4 7 2 8 1 9 3 10 11 11 12 12 13 13
REMARK SMILES IDX 14 14 15 15 16 16 17 17 18 18 19 19 20 20
REMARK H PARENT
REMARK Flexibility Score: inf
ROOT
ATOM      1  C   UNL     1       6.743  -6.569   9.570  1.00  0.00     0.000 C 
ENDROOT
BRANCH   1   2
ATOM      2  C   UNL     1       7.224  -6.532   8.108  1.00  0.00     0.000 C 
BRANCH   2   3
ATOM      3  C   UNL     1       8.160  -7.713   7.768  1.00  0.00     0.000 C 
BRANCH   3   4
ATOM      4  C   UNL     1       7.545  -8.731   6.789  1.00  0.00     0.000 C 
BRANCH   4   5
ATOM      5  C   UNL     1       6.732  -8.112   5.640  1.00  0.00     0.000 C 
BRANCH   5   6
ATOM      6  C   UNL     1       5.691  -9.082   5.056  1.00  0.00     0.006 C 
BRANCH   6   7
ATOM      7  C   UNL     1       5.447  -8.836   3.562  1.00  0.00     0.053 C 
BRANCH   7   8
ATOM      8  C   UNL     1       4.159  -9.448   3.103  1.00  0.00     0.041 C 
ATOM      9  O   UNL     1       3.453 -10.114   3.905  1.00  0.00    -0.550 OA
ATOM     10  O   UNL     1       3.720  -9.252   1.799  1.00  0.00    -0.550 OA
ENDBRANCH   7   8
ENDBRANCH   6   7
ENDBRANCH   5   6
ENDBRANCH   4   5
ENDBRANCH   3   4
ENDBRANCH   2   3
ENDBRANCH   1   2
BRANCH   1  11
ATOM     11  C   UNL     1       5.231  -6.862   9.682  1.00  0.00     0.000 C 
BRANCH  11  12
ATOM     12  C   UNL     1       4.861  -8.326   9.388  1.00  0.00     0.000 C 
BRANCH  12  13
ATOM     13  C   UNL     1       3.932  -8.473   8.172  1.00  0.00     0.000 C 
BRANCH  13  14
ATOM     14  C   UNL     1       3.603  -9.943   7.860  1.00  0.00     0.000 C 
BRANCH  14  15
ATOM     15  C   UNL     1       2.740 -10.596   8.955  1.00  0.00     0.000 C 
BRANCH  15  16
ATOM     16  C   UNL     1       1.384 -11.084   8.424  1.00  0.00     0.006 C 
BRANCH  16  17
ATOM     17  C   UNL     1       0.715 -10.072   7.484  1.00  0.00     0.053 C 
BRANCH  17  18
ATOM     18  C   UNL     1      -0.690 -10.489   7.181  1.00  0.00     0.041 C 
ATOM     19  O   UNL     1      -1.528 -10.613   8.113  1.00  0.00    -0.550 OA
ATOM     20  O   UNL     1      -1.061 -10.788   5.877  1.00  0.00    -0.550 OA
ENDBRANCH  17  18
ENDBRANCH  16  17
ENDBRANCH  15  16
ENDBRANCH  14  15
ENDBRANCH  13  14
ENDBRANCH  12  13
ENDBRANCH  11  12
ENDBRANCH   1  11
TORSDOF 15
ENDMDL
