MODEL 1
REMARK VINA RESULT:    -4.509      0.000      0.000
REMARK INTER + INTRA:          -5.138
REMARK INTER:                  -4.904
REMARK INTRA:                  -0.234
REMARK UNBOUND:                -0.234
REMARK SMILES O=C([O-])c1ccccc1O
REMARK SMILES IDX 4 1 9 2 5 3 8 4 6 5 7 6 2 7 1 8 3 9 10 10
REMARK H PARENT 10 11
REMARK Flexibility Score: inf
ROOT
ATOM      1  C   UNL     1      -5.581  37.467  21.342  1.00  0.00     0.039 A 
ATOM      2  C   UNL     1      -6.144  38.046  20.175  1.00  0.00     0.124 A 
ATOM      3  C   UNL     1      -6.158  37.757  22.592  1.00  0.00     0.014 A 
ATOM      4  C   UNL     1      -7.218  38.938  20.294  1.00  0.00     0.047 A 
ATOM      5  C   UNL     1      -7.243  38.633  22.690  1.00  0.00     0.001 A 
ATOM      6  C   UNL     1      -7.765  39.230  21.544  1.00  0.00     0.004 A 
ENDROOT
BRANCH   1   7
ATOM      7  C   UNL     1      -4.384  36.600  21.298  1.00  0.00     0.075 C 
ATOM      8  O   UNL     1      -3.557  36.710  20.353  1.00  0.00    -0.545 OA
ATOM      9  O   UNL     1      -4.185  35.611  22.254  1.00  0.00    -0.545 OA
ENDBRANCH   1   7
BRANCH   2  10
ATOM     10  O   UNL     1      -5.695  37.735  18.891  1.00  0.00    -0.507 OA
ATOM     11  H   UNL     1      -6.238  37.906  18.055  1.00  0.00     0.293 HD
ENDBRANCH   2  10
TORSDOF 2
ENDMDL
MODEL 2
REMARK VINA RESULT:    -4.407      1.307      2.062
REMARK INTER + INTRA:          -5.027
REMARK INTER:                  -4.789
REMARK INTRA:                  -0.238
REMARK UNBOUND:                -0.234
REMARK SMILES O=C([O-])c1ccccc1O
REMARK SMILES IDX 4 1 9 2 5 3 8 4 6 5 7 6 2 7 1 8 3 9 10 10
REMARK H PARENT 10 11
REMARK Flexibility Score: inf
ROOT
ATOM      1  C   UNL     1      -5.292  37.888  21.450  1.00  0.00     0.039 A 
ATOM      2  C   UNL     1      -6.515  37.814  22.164  1.00  0.00     0.124 A 
ATOM      3  C   UNL     1      -4.993  39.062  20.732  1.00  0.00     0.014 A 
ATOM      4  C   UNL     1      -7.425  38.876  22.091  1.00  0.00     0.047 A 
ATOM      5  C   UNL     1      -5.903  40.121  20.688  1.00  0.00     0.001 A 
ATOM      6  C   UNL     1      -7.121  40.024  21.359  1.00  0.00     0.004 A 
ENDROOT
BRANCH   1   7
ATOM      7  C   UNL     1      -4.333  36.763  21.398  1.00  0.00     0.075 C 
ATOM      8  O   UNL     1      -3.628  36.579  20.370  1.00  0.00    -0.545 OA
ATOM      9  O   UNL     1      -4.243  35.856  22.447  1.00  0.00    -0.545 OA
ENDBRANCH   1   7
BRANCH   2  10
ATOM     10  O   UNL     1      -6.846  36.729  22.977  1.00  0.00    -0.507 OA
ATOM     11  H   UNL     1      -6.727  35.765  22.695  1.00  0.00     0.293 HD
ENDBRANCH   2  10
TORSDOF 2
ENDMDL
MODEL 3
REMARK VINA RESULT:    -4.271     13.129     14.267
REMARK INTER + INTRA:          -4.879
REMARK INTER:                  -4.632
REMARK INTRA:                  -0.247
REMARK UNBOUND:                -0.234
REMARK SMILES O=C([O-])c1ccccc1O
REMARK SMILES IDX 4 1 9 2 5 3 8 4 6 5 7 6 2 7 1 8 3 9 10 10
REMARK H PARENT 10 11
REMARK Flexibility Score: inf
ROOT
ATOM      1  C   UNL     1      -0.626  24.957  19.205  1.00  0.00     0.039 A 
ATOM      2  C   UNL     1       0.218  25.219  18.097  1.00  0.00     0.124 A 
ATOM      3  C   UNL     1      -1.696  24.055  19.048  1.00  0.00     0.014 A 
ATOM      4  C   UNL     1      -0.062  24.629  16.857  1.00  0.00     0.047 A 
ATOM      5  C   UNL     1      -1.948  23.458  17.810  1.00  0.00     0.001 A 
ATOM      6  C   UNL     1      -1.138  23.753  16.714  1.00  0.00     0.004 A 
ENDROOT
BRANCH   1   7
ATOM      7  C   UNL     1      -0.451  25.626  20.512  1.00  0.00     0.075 C 
ATOM      8  O   UNL     1      -1.412  26.247  21.040  1.00  0.00    -0.545 OA
ATOM      9  O   UNL     1       0.787  25.640  21.145  1.00  0.00    -0.545 OA
ENDBRANCH   1   7
BRANCH   2  10
ATOM     10  O   UNL     1       1.355  26.023  18.192  1.00  0.00    -0.507 OA
ATOM     11  H   UNL     1       1.549  26.790  17.562  1.00  0.00     0.293 HD
ENDBRANCH   2  10
TORSDOF 2
ENDMDL
MODEL 4
REMARK VINA RESULT:    -4.221      0.975      2.738
REMARK INTER + INTRA:          -4.825
REMARK INTER:                  -4.579
REMARK INTRA:                  -0.246
REMARK UNBOUND:                -0.234
REMARK SMILES O=C([O-])c1ccccc1O
REMARK SMILES IDX 4 1 9 2 5 3 8 4 6 5 7 6 2 7 1 8 3 9 10 10
REMARK H PARENT 10 11
REMARK Flexibility Score: inf
ROOT
ATOM      1  C   UNL     1      -5.875  38.029  20.058  1.00  0.00     0.039 A 
ATOM      2  C   UNL     1      -5.418  37.291  21.179  1.00  0.00     0.124 A 
ATOM      3  C   UNL     1      -6.935  38.940  20.228  1.00  0.00     0.014 A 
ATOM      4  C   UNL     1      -6.065  37.435  22.414  1.00  0.00     0.047 A 
ATOM      5  C   UNL     1      -7.554  39.088  21.472  1.00  0.00     0.001 A 
ATOM      6  C   UNL     1      -7.126  38.329  22.560  1.00  0.00     0.004 A 
ENDROOT
BRANCH   1   7
ATOM      7  C   UNL     1      -5.307  37.849  18.704  1.00  0.00     0.075 C 
ATOM      8  O   UNL     1      -6.061  37.564  17.735  1.00  0.00    -0.545 OA
ATOM      9  O   UNL     1      -3.936  37.923  18.491  1.00  0.00    -0.545 OA
ENDBRANCH   1   7
BRANCH   2  10
ATOM     10  O   UNL     1      -4.313  36.441  21.120  1.00  0.00    -0.507 OA
ATOM     11  H   UNL     1      -3.511  36.611  20.528  1.00  0.00     0.293 HD
ENDBRANCH   2  10
TORSDOF 2
ENDMDL
MODEL 5
REMARK VINA RESULT:    -4.142     13.111     14.342
REMARK INTER + INTRA:          -4.739
REMARK INTER:                  -4.486
REMARK INTRA:                  -0.253
REMARK UNBOUND:                -0.234
REMARK SMILES O=C([O-])c1ccccc1O
REMARK SMILES IDX 4 1 9 2 5 3 8 4 6 5 7 6 2 7 1 8 3 9 10 10
REMARK H PARENT 10 11
REMARK Flexibility Score: inf
ROOT
ATOM      1  C   UNL     1      -0.532  25.080  19.226  1.00  0.00     0.039 A 
ATOM      2  C   UNL     1      -1.579  24.192  18.866  1.00  0.00     0.124 A 
ATOM      3  C   UNL     1       0.466  25.375  18.279  1.00  0.00     0.014 A 
ATOM      4  C   UNL     1      -1.566  23.581  17.606  1.00  0.00     0.047 A 
ATOM      5  C   UNL     1       0.452  24.773  17.018  1.00  0.00     0.001 A 
ATOM      6  C   UNL     1      -0.557  23.870  16.686  1.00  0.00     0.004 A 
ENDROOT
BRANCH   1   7
ATOM      7  C   UNL     1      -0.428  25.678  20.575  1.00  0.00     0.075 C 
ATOM      8  O   UNL     1       0.680  25.694  21.176  1.00  0.00    -0.545 OA
ATOM      9  O   UNL     1      -1.553  26.167  21.227  1.00  0.00    -0.545 OA
ENDBRANCH   1   7
BRANCH   2  10
ATOM     10  O   UNL     1      -2.658  23.922  19.709  1.00  0.00    -0.507 OA
ATOM     11  H   UNL     1      -3.449  24.542  19.818  1.00  0.00     0.293 HD
ENDBRANCH   2  10
TORSDOF 2
ENDMDL
MODEL 6
REMARK VINA RESULT:    -4.111     14.001     14.456
REMARK INTER + INTRA:          -4.705
REMARK INTER:                  -4.453
REMARK INTRA:                  -0.253
REMARK UNBOUND:                -0.234
REMARK SMILES O=C([O-])c1ccccc1O
REMARK SMILES IDX 4 1 9 2 5 3 8 4 6 5 7 6 2 7 1 8 3 9 10 10
REMARK H PARENT 10 11
REMARK Flexibility Score: inf
ROOT
ATOM      1  C   UNL     1      -0.676  24.716  18.253  1.00  0.00     0.039 A 
ATOM      2  C   UNL     1       0.464  25.405  18.742  1.00  0.00     0.124 A 
ATOM      3  C   UNL     1      -1.575  24.147  19.176  1.00  0.00     0.014 A 
ATOM      4  C   UNL     1       0.706  25.452  20.121  1.00  0.00     0.047 A 
ATOM      5  C   UNL     1      -1.329  24.223  20.549  1.00  0.00     0.001 A 
ATOM      6  C   UNL     1      -0.185  24.866  21.020  1.00  0.00     0.004 A 
ENDROOT
BRANCH   1   7
ATOM      7  C   UNL     1      -0.936  24.538  16.809  1.00  0.00     0.075 C 
ATOM      8  O   UNL     1      -1.211  23.396  16.351  1.00  0.00    -0.545 OA
ATOM      9  O   UNL     1      -0.817  25.605  15.926  1.00  0.00    -0.545 OA
ENDBRANCH   1   7
BRANCH   2  10
ATOM     10  O   UNL     1       1.352  26.079  17.902  1.00  0.00    -0.507 OA
ATOM     11  H   UNL     1       1.585  25.763  16.970  1.00  0.00     0.293 HD
ENDBRANCH   2  10
TORSDOF 2
ENDMDL
MODEL 7
REMARK VINA RESULT:    -4.099      2.766      3.442
REMARK INTER + INTRA:          -4.692
REMARK INTER:                  -4.439
REMARK INTRA:                  -0.253
REMARK UNBOUND:                -0.234
REMARK SMILES O=C([O-])c1ccccc1O
REMARK SMILES IDX 4 1 9 2 5 3 8 4 6 5 7 6 2 7 1 8 3 9 10 10
REMARK H PARENT 10 11
REMARK Flexibility Score: inf
ROOT
ATOM      1  C   UNL     1      -5.835  39.187  21.573  1.00  0.00     0.039 A 
ATOM      2  C   UNL     1      -7.175  39.161  21.109  1.00  0.00     0.124 A 
ATOM      3  C   UNL     1      -4.811  38.721  20.726  1.00  0.00     0.014 A 
ATOM      4  C   UNL     1      -7.461  38.619  19.849  1.00  0.00     0.047 A 
ATOM      5  C   UNL     1      -5.113  38.204  19.463  1.00  0.00     0.001 A 
ATOM      6  C   UNL     1      -6.437  38.144  19.030  1.00  0.00     0.004 A 
ENDROOT
BRANCH   1   7
ATOM      7  C   UNL     1      -5.474  39.648  22.931  1.00  0.00     0.075 C 
ATOM      8  O   UNL     1      -4.700  38.959  23.649  1.00  0.00    -0.545 OA
ATOM      9  O   UNL     1      -6.031  40.805  23.462  1.00  0.00    -0.545 OA
ENDBRANCH   1   7
BRANCH   2  10
ATOM     10  O   UNL     1      -8.235  39.691  21.845  1.00  0.00    -0.507 OA
ATOM     11  H   UNL     1      -8.298  39.633  22.852  1.00  0.00     0.293 HD
ENDBRANCH   2  10
TORSDOF 2
ENDMDL
MODEL 8
REMARK VINA RESULT:    -4.066     15.897     17.316
REMARK INTER + INTRA:          -4.656
REMARK INTER:                  -4.407
REMARK INTRA:                  -0.249
REMARK UNBOUND:                -0.234
REMARK SMILES O=C([O-])c1ccccc1O
REMARK SMILES IDX 4 1 9 2 5 3 8 4 6 5 7 6 2 7 1 8 3 9 10 10
REMARK H PARENT 10 11
REMARK Flexibility Score: inf
ROOT
ATOM      1  C   UNL     1      -6.347  27.892  34.691  1.00  0.00     0.039 A 
ATOM      2  C   UNL     1      -7.520  27.282  35.205  1.00  0.00     0.124 A 
ATOM      3  C   UNL     1      -5.455  27.115  33.928  1.00  0.00     0.014 A 
ATOM      4  C   UNL     1      -7.737  25.914  34.999  1.00  0.00     0.047 A 
ATOM      5  C   UNL     1      -5.698  25.756  33.713  1.00  0.00     0.001 A 
ATOM      6  C   UNL     1      -6.833  25.154  34.257  1.00  0.00     0.004 A 
ENDROOT
BRANCH   1   7
ATOM      7  C   UNL     1      -6.004  29.305  34.959  1.00  0.00     0.075 C 
ATOM      8  O   UNL     1      -6.111  29.772  36.125  1.00  0.00    -0.545 OA
ATOM      9  O   UNL     1      -5.625  30.155  33.927  1.00  0.00    -0.545 OA
ENDBRANCH   1   7
BRANCH   2  10
ATOM     10  O   UNL     1      -8.502  28.001  35.889  1.00  0.00    -0.507 OA
ATOM     11  H   UNL     1      -9.300  28.424  35.434  1.00  0.00     0.293 HD
ENDBRANCH   2  10
TORSDOF 2
ENDMDL
MODEL 9
REMARK VINA RESULT:    -4.012     13.358     14.269
REMARK INTER + INTRA:          -4.598
REMARK INTER:                  -4.349
REMARK INTRA:                  -0.249
REMARK UNBOUND:                -0.234
REMARK SMILES O=C([O-])c1ccccc1O
REMARK SMILES IDX 4 1 9 2 5 3 8 4 6 5 7 6 2 7 1 8 3 9 10 10
REMARK H PARENT 10 11
REMARK Flexibility Score: inf
ROOT
ATOM      1  C   UNL     1      -5.676  35.357  34.993  1.00  0.00     0.039 A 
ATOM      2  C   UNL     1      -5.705  33.987  34.625  1.00  0.00     0.124 A 
ATOM      3  C   UNL     1      -6.753  35.887  35.729  1.00  0.00     0.014 A 
ATOM      4  C   UNL     1      -6.824  33.208  34.944  1.00  0.00     0.047 A 
ATOM      5  C   UNL     1      -7.852  35.089  36.057  1.00  0.00     0.001 A 
ATOM      6  C   UNL     1      -7.892  33.754  35.657  1.00  0.00     0.004 A 
ENDROOT
BRANCH   1   7
ATOM      7  C   UNL     1      -4.575  36.262  34.598  1.00  0.00     0.075 C 
ATOM      8  O   UNL     1      -4.134  37.115  35.414  1.00  0.00    -0.545 OA
ATOM      9  O   UNL     1      -4.056  36.233  33.310  1.00  0.00    -0.545 OA
ENDBRANCH   1   7
BRANCH   2  10
ATOM     10  O   UNL     1      -4.638  33.360  33.980  1.00  0.00    -0.507 OA
ATOM     11  H   UNL     1      -3.839  33.858  33.611  1.00  0.00     0.293 HD
ENDBRANCH   2  10
TORSDOF 2
ENDMDL
