MODEL 1
REMARK VINA RESULT:     4.788      0.000      0.000
REMARK INTER + INTRA:           4.928
REMARK INTER:                   4.928
REMARK INTRA:                   0.000
REMARK UNBOUND:                 0.000
REMARK SMILES C[C@@H]1CC[C@@]2(OC1)O[C@@H]1C[C@H]3[C@@H]4CC=C5C[C@H](O)CC[C@]5(C)[C@@H]4CC[C@@]3(C)[C@@H]1[C@H]2C
REMARK SMILES IDX 1 1 2 2 3 3 4 4 5 5 29 6 28 7 9 8 8 9 10 10 11 11 26 12
REMARK SMILES IDX 25 13 24 14 23 15 12 16 13 17 14 18 15 19 21 20 20 21 19 22
REMARK SMILES IDX 17 23 16 24 22 25 27 26 30 27 6 28 7 29 18 30
REMARK H PARENT 18 31
REMARK Flexibility Score: inf
ROOT
ATOM      1  C   UNL     1      34.417  19.332  11.877  1.00  0.00     0.010 C 
ATOM      2  C   UNL     1      35.816  18.710  11.862  1.00  0.00     0.012 C 
ATOM      3  C   UNL     1      36.827  19.625  12.565  1.00  0.00     0.011 C 
ATOM      4  C   UNL     1      38.234  19.044  12.431  1.00  0.00     0.066 C 
ATOM      5  C   UNL     1      38.557  18.748  10.937  1.00  0.00     0.171 C 
ATOM      6  C   UNL     1      39.946  18.122  10.722  1.00  0.00     0.052 C 
ATOM      7  C   UNL     1      40.863  19.343  10.657  1.00  0.00     0.033 C 
ATOM      8  C   UNL     1      39.905  20.419  10.149  1.00  0.00     0.126 C 
ATOM      9  O   UNL     1      38.568  19.967  10.223  1.00  0.00    -0.346 OA
ATOM     10  C   UNL     1      40.273  20.708   8.693  1.00  0.00     0.037 C 
ATOM     11  C   UNL     1      41.391  19.730   8.305  1.00  0.00     0.002 C 
ATOM     12  C   UNL     1      42.054  19.316   9.647  1.00  0.00    -0.024 C 
ATOM     13  C   UNL     1      43.108  20.371  10.090  1.00  0.00     0.008 C 
ATOM     14  C   UNL     1      44.093  20.770   8.981  1.00  0.00     0.005 C 
ATOM     15  C   UNL     1      43.347  21.364   7.763  1.00  0.00     0.003 C 
ATOM     16  C   UNL     1      42.327  20.332   7.209  1.00  0.00     0.000 C 
ATOM     17  C   UNL     1      43.020  19.226   6.394  1.00  0.00     0.031 C 
ATOM     18  C   UNL     1      44.026  19.752   5.418  1.00  0.00    -0.027 C 
ATOM     19  C   UNL     1      44.686  20.915   5.577  1.00  0.00    -0.065 C 
ATOM     20  C   UNL     1      44.256  21.968   6.607  1.00  0.00    -0.008 C 
ATOM     21  C   UNL     1      45.539  22.650   7.181  1.00  0.00     0.014 C 
ATOM     22  C   UNL     1      46.528  23.125   6.102  1.00  0.00     0.033 C 
ATOM     23  C   UNL     1      46.955  21.964   5.189  1.00  0.00     0.118 C 
ATOM     24  C   UNL     1      45.735  21.295   4.543  1.00  0.00     0.063 C 
ATOM     25  C   UNL     1      43.416  23.045   5.863  1.00  0.00     0.016 C 
ATOM     26  C   UNL     1      42.732  17.923   9.608  1.00  0.00     0.012 C 
ATOM     27  C   UNL     1      40.343  17.073  11.779  1.00  0.00     0.014 C 
ATOM     28  O   UNL     1      37.580  17.866  10.394  1.00  0.00    -0.349 OA
ATOM     29  C   UNL     1      36.281  18.435  10.421  1.00  0.00     0.167 C 
ENDROOT
BRANCH  23  30
ATOM     30  O   UNL     1      47.676  21.005   5.922  1.00  0.00    -0.393 OA
ATOM     31  H   UNL     1      47.848  21.399   6.818  1.00  0.00     0.210 HD
ENDBRANCH  23  30
TORSDOF 1
ENDMDL
MODEL 2
REMARK VINA RESULT:     6.692      1.374      8.744
REMARK INTER + INTRA:           6.888
REMARK INTER:                   6.888
REMARK INTRA:                   0.000
REMARK UNBOUND:                 0.000
REMARK SMILES C[C@@H]1CC[C@@]2(OC1)O[C@@H]1C[C@H]3[C@@H]4CC=C5C[C@H](O)CC[C@]5(C)[C@@H]4CC[C@@]3(C)[C@@H]1[C@H]2C
REMARK SMILES IDX 1 1 2 2 3 3 4 4 5 5 29 6 28 7 9 8 8 9 10 10 11 11 26 12
REMARK SMILES IDX 25 13 24 14 23 15 12 16 13 17 14 18 15 19 21 20 20 21 19 22
REMARK SMILES IDX 17 23 16 24 22 25 27 26 30 27 6 28 7 29 18 30
REMARK H PARENT 18 31
REMARK Flexibility Score: inf
ROOT
ATOM      1  C   UNL     1      49.125  23.125   5.586  1.00  0.00     0.010 C 
ATOM      2  C   UNL     1      47.979  22.173   5.230  1.00  0.00     0.012 C 
ATOM      3  C   UNL     1      46.674  22.949   5.010  1.00  0.00     0.011 C 
ATOM      4  C   UNL     1      45.522  21.971   4.779  1.00  0.00     0.066 C 
ATOM      5  C   UNL     1      45.467  20.919   5.926  1.00  0.00     0.171 C 
ATOM      6  C   UNL     1      44.355  19.871   5.744  1.00  0.00     0.052 C 
ATOM      7  C   UNL     1      43.133  20.565   6.348  1.00  0.00     0.033 C 
ATOM      8  C   UNL     1      43.784  21.507   7.358  1.00  0.00     0.126 C 
ATOM      9  O   UNL     1      45.178  21.582   7.139  1.00  0.00    -0.346 OA
ATOM     10  C   UNL     1      43.510  20.942   8.752  1.00  0.00     0.037 C 
ATOM     11  C   UNL     1      42.776  19.606   8.565  1.00  0.00     0.002 C 
ATOM     12  C   UNL     1      42.121  19.695   7.160  1.00  0.00    -0.024 C 
ATOM     13  C   UNL     1      40.762  20.450   7.233  1.00  0.00     0.008 C 
ATOM     14  C   UNL     1      39.831  19.948   8.348  1.00  0.00     0.005 C 
ATOM     15  C   UNL     1      40.500  20.092   9.735  1.00  0.00     0.003 C 
ATOM     16  C   UNL     1      41.832  19.294   9.769  1.00  0.00     0.000 C 
ATOM     17  C   UNL     1      41.587  17.782   9.913  1.00  0.00     0.031 C 
ATOM     18  C   UNL     1      40.585  17.442  10.972  1.00  0.00    -0.027 C 
ATOM     19  C   UNL     1      39.601  18.273  11.364  1.00  0.00    -0.065 C 
ATOM     20  C   UNL     1      39.587  19.762  10.994  1.00  0.00    -0.008 C 
ATOM     21  C   UNL     1      38.106  20.199  10.762  1.00  0.00     0.014 C 
ATOM     22  C   UNL     1      37.146  19.774  11.887  1.00  0.00     0.033 C 
ATOM     23  C   UNL     1      37.182  18.252  12.102  1.00  0.00     0.118 C 
ATOM     24  C   UNL     1      38.607  17.772  12.401  1.00  0.00     0.063 C 
ATOM     25  C   UNL     1      40.152  20.557  12.206  1.00  0.00     0.016 C 
ATOM     26  C   UNL     1      41.889  18.319   6.487  1.00  0.00     0.012 C 
ATOM     27  C   UNL     1      44.168  19.384   4.294  1.00  0.00     0.014 C 
ATOM     28  O   UNL     1      46.713  20.236   6.019  1.00  0.00    -0.349 OA
ATOM     29  C   UNL     1      47.776  21.119   6.334  1.00  0.00     0.167 C 
ENDROOT
BRANCH  23  30
ATOM     30  O   UNL     1      36.696  17.586  10.963  1.00  0.00    -0.393 OA
ATOM     31  H   UNL     1      35.885  17.086  11.248  1.00  0.00     0.210 HD
ENDBRANCH  23  30
TORSDOF 1
ENDMDL
MODEL 3
REMARK VINA RESULT:     7.086      1.634      2.987
REMARK INTER + INTRA:           7.293
REMARK INTER:                   7.293
REMARK INTRA:                   0.000
REMARK UNBOUND:                 0.000
REMARK SMILES C[C@@H]1CC[C@@]2(OC1)O[C@@H]1C[C@H]3[C@@H]4CC=C5C[C@H](O)CC[C@]5(C)[C@@H]4CC[C@@]3(C)[C@@H]1[C@H]2C
REMARK SMILES IDX 1 1 2 2 3 3 4 4 5 5 29 6 28 7 9 8 8 9 10 10 11 11 26 12
REMARK SMILES IDX 25 13 24 14 23 15 12 16 13 17 14 18 15 19 21 20 20 21 19 22
REMARK SMILES IDX 17 23 16 24 22 25 27 26 30 27 6 28 7 29 18 30
REMARK H PARENT 18 31
REMARK Flexibility Score: inf
ROOT
ATOM      1  C   UNL     1      36.900  17.825  11.381  1.00  0.00     0.010 C 
ATOM      2  C   UNL     1      38.067  18.800  11.564  1.00  0.00     0.012 C 
ATOM      3  C   UNL     1      37.895  20.031  10.664  1.00  0.00     0.011 C 
ATOM      4  C   UNL     1      39.128  20.928  10.772  1.00  0.00     0.066 C 
ATOM      5  C   UNL     1      40.422  20.104  10.505  1.00  0.00     0.171 C 
ATOM      6  C   UNL     1      41.713  20.931  10.635  1.00  0.00     0.052 C 
ATOM      7  C   UNL     1      41.853  21.561   9.249  1.00  0.00     0.033 C 
ATOM      8  C   UNL     1      41.126  20.544   8.374  1.00  0.00     0.126 C 
ATOM      9  O   UNL     1      40.397  19.634   9.173  1.00  0.00    -0.346 OA
ATOM     10  C   UNL     1      42.187  19.789   7.571  1.00  0.00     0.037 C 
ATOM     11  C   UNL     1      43.558  20.296   8.043  1.00  0.00     0.002 C 
ATOM     12  C   UNL     1      43.287  21.701   8.646  1.00  0.00    -0.024 C 
ATOM     13  C   UNL     1      43.255  22.783   7.527  1.00  0.00     0.008 C 
ATOM     14  C   UNL     1      44.448  22.714   6.561  1.00  0.00     0.005 C 
ATOM     15  C   UNL     1      44.510  21.340   5.854  1.00  0.00     0.003 C 
ATOM     16  C   UNL     1      44.627  20.204   6.909  1.00  0.00     0.000 C 
ATOM     17  C   UNL     1      46.050  20.105   7.485  1.00  0.00     0.031 C 
ATOM     18  C   UNL     1      47.118  20.147   6.437  1.00  0.00    -0.027 C 
ATOM     19  C   UNL     1      46.970  20.751   5.242  1.00  0.00    -0.065 C 
ATOM     20  C   UNL     1      45.600  21.187   4.707  1.00  0.00    -0.008 C 
ATOM     21  C   UNL     1      45.783  22.517   3.907  1.00  0.00     0.014 C 
ATOM     22  C   UNL     1      46.927  22.473   2.880  1.00  0.00     0.033 C 
ATOM     23  C   UNL     1      48.263  22.115   3.550  1.00  0.00     0.118 C 
ATOM     24  C   UNL     1      48.163  20.780   4.298  1.00  0.00     0.063 C 
ATOM     25  C   UNL     1      45.101  20.087   3.727  1.00  0.00     0.016 C 
ATOM     26  C   UNL     1      44.316  22.130   9.723  1.00  0.00     0.012 C 
ATOM     27  C   UNL     1      41.713  21.935  11.803  1.00  0.00     0.014 C 
ATOM     28  O   UNL     1      40.498  19.011  11.414  1.00  0.00    -0.349 OA
ATOM     29  C   UNL     1      39.410  18.115  11.255  1.00  0.00     0.167 C 
ENDROOT
BRANCH  23  30
ATOM     30  O   UNL     1      48.646  23.124   4.450  1.00  0.00    -0.393 OA
ATOM     31  H   UNL     1      47.909  23.792   4.463  1.00  0.00     0.210 HD
ENDBRANCH  23  30
TORSDOF 1
ENDMDL
