MODEL 1
REMARK VINA RESULT:    -6.286      0.000      0.000
REMARK INTER + INTRA:          -7.073
REMARK INTER:                  -6.838
REMARK INTRA:                  -0.235
REMARK UNBOUND:                -0.235
REMARK SMILES CC(=O)[C@@H]1CC[C@@H]2[C@H]3CC=C4C[C@@H](O)CC[C@@]4(C)[C@H]3CC[C@@]21C
REMARK SMILES IDX 4 1 5 2 6 3 7 4 22 5 21 6 20 7 19 8 8 9 9 10 10 11 11 12
REMARK SMILES IDX 17 13 16 14 15 15 13 16 12 17 18 18 23 19 2 20 1 21 3 22
REMARK SMILES IDX 14 23
REMARK H PARENT 14 24
REMARK Flexibility Score: inf
ROOT
ATOM      1  C   UNL     1      11.253  -0.157  42.133  1.00  0.00     0.062 C 
ATOM      2  C   UNL     1      10.233   0.102  43.243  1.00  0.00     0.012 C 
ATOM      3  C   UNL     1       9.000  -0.723  42.895  1.00  0.00     0.005 C 
ATOM      4  C   UNL     1       9.354  -1.566  41.656  1.00  0.00    -0.001 C 
ATOM      5  C   UNL     1      10.910  -1.575  41.581  1.00  0.00    -0.020 C 
ATOM      6  C   UNL     1      11.505  -2.713  42.466  1.00  0.00     0.008 C 
ATOM      7  C   UNL     1      10.812  -4.072  42.293  1.00  0.00     0.005 C 
ATOM      8  C   UNL     1       9.304  -3.980  42.614  1.00  0.00     0.003 C 
ATOM      9  C   UNL     1       8.633  -2.948  41.670  1.00  0.00     0.000 C 
ATOM     10  C   UNL     1       8.465  -3.510  40.248  1.00  0.00     0.031 C 
ATOM     11  C   UNL     1       7.880  -4.889  40.227  1.00  0.00    -0.027 C 
ATOM     12  C   UNL     1       8.006  -5.769  41.240  1.00  0.00    -0.065 C 
ATOM     13  C   UNL     1       8.506  -5.354  42.630  1.00  0.00    -0.008 C 
ATOM     14  C   UNL     1       9.376  -6.518  43.205  1.00  0.00     0.014 C 
ATOM     15  C   UNL     1       8.707  -7.900  43.117  1.00  0.00     0.033 C 
ATOM     16  C   UNL     1       8.322  -8.239  41.667  1.00  0.00     0.118 C 
ATOM     17  C   UNL     1       7.415  -7.158  41.068  1.00  0.00     0.063 C 
ATOM     18  C   UNL     1       7.264  -5.167  43.548  1.00  0.00     0.016 C 
ATOM     19  C   UNL     1      11.437  -1.696  40.127  1.00  0.00     0.012 C 
ENDROOT
BRANCH   1  20
ATOM     20  C   UNL     1      12.685   0.108  42.586  1.00  0.00     0.133 C 
ATOM     21  C   UNL     1      13.021   0.224  44.045  1.00  0.00     0.088 C 
ATOM     22  O   UNL     1      13.571   0.326  41.775  1.00  0.00    -0.300 OA
ENDBRANCH   1  20
BRANCH  16  23
ATOM     23  O   UNL     1       9.473  -8.375  40.872  1.00  0.00    -0.393 OA
ATOM     24  H   UNL     1       9.789  -9.310  40.981  1.00  0.00     0.210 HD
ENDBRANCH  16  23
TORSDOF 2
ENDMDL
MODEL 2
REMARK VINA RESULT:    -5.910     13.184     15.041
REMARK INTER + INTRA:          -6.663
REMARK INTER:                  -6.428
REMARK INTRA:                  -0.236
REMARK UNBOUND:                -0.235
REMARK SMILES CC(=O)[C@@H]1CC[C@@H]2[C@H]3CC=C4C[C@@H](O)CC[C@@]4(C)[C@H]3CC[C@@]21C
REMARK SMILES IDX 4 1 5 2 6 3 7 4 22 5 21 6 20 7 19 8 8 9 9 10 10 11 11 12
REMARK SMILES IDX 17 13 16 14 15 15 13 16 12 17 18 18 23 19 2 20 1 21 3 22
REMARK SMILES IDX 14 23
REMARK H PARENT 14 24
REMARK Flexibility Score: inf
ROOT
ATOM      1  C   UNL     1      17.979 -11.122  41.925  1.00  0.00     0.062 C 
ATOM      2  C   UNL     1      17.959  -9.924  42.876  1.00  0.00     0.012 C 
ATOM      3  C   UNL     1      18.374 -10.454  44.243  1.00  0.00     0.005 C 
ATOM      4  C   UNL     1      18.766 -11.931  44.056  1.00  0.00    -0.001 C 
ATOM      5  C   UNL     1      19.021 -12.112  42.530  1.00  0.00    -0.020 C 
ATOM      6  C   UNL     1      20.486 -11.725  42.159  1.00  0.00     0.008 C 
ATOM      7  C   UNL     1      21.548 -12.317  43.096  1.00  0.00     0.005 C 
ATOM      8  C   UNL     1      21.314 -11.881  44.560  1.00  0.00     0.003 C 
ATOM      9  C   UNL     1      19.911 -12.354  45.025  1.00  0.00     0.000 C 
ATOM     10  C   UNL     1      19.888 -13.868  45.298  1.00  0.00     0.031 C 
ATOM     11  C   UNL     1      21.042 -14.331  46.133  1.00  0.00    -0.027 C 
ATOM     12  C   UNL     1      22.234 -13.703  46.174  1.00  0.00    -0.065 C 
ATOM     13  C   UNL     1      22.439 -12.294  45.602  1.00  0.00    -0.008 C 
ATOM     14  C   UNL     1      23.865 -12.226  44.967  1.00  0.00     0.014 C 
ATOM     15  C   UNL     1      24.983 -12.747  45.886  1.00  0.00     0.033 C 
ATOM     16  C   UNL     1      24.708 -14.194  46.330  1.00  0.00     0.118 C 
ATOM     17  C   UNL     1      23.342 -14.312  47.017  1.00  0.00     0.063 C 
ATOM     18  C   UNL     1      22.377 -11.286  46.786  1.00  0.00     0.016 C 
ATOM     19  C   UNL     1      18.704 -13.547  42.037  1.00  0.00     0.012 C 
ENDROOT
BRANCH   1  20
ATOM     20  C   UNL     1      18.149 -10.704  40.467  1.00  0.00     0.133 C 
ATOM     21  C   UNL     1      18.649  -9.332  40.114  1.00  0.00     0.088 C 
ATOM     22  O   UNL     1      17.795 -11.437  39.558  1.00  0.00    -0.300 OA
ENDBRANCH   1  20
BRANCH  16  23
ATOM     23  O   UNL     1      24.750 -15.063  45.226  1.00  0.00    -0.393 OA
ATOM     24  H   UNL     1      24.010 -15.715  45.345  1.00  0.00     0.210 HD
ENDBRANCH  16  23
TORSDOF 2
ENDMDL
MODEL 3
REMARK VINA RESULT:    -5.696     13.282     15.102
REMARK INTER + INTRA:          -6.431
REMARK INTER:                  -6.200
REMARK INTRA:                  -0.232
REMARK UNBOUND:                -0.235
REMARK SMILES CC(=O)[C@@H]1CC[C@@H]2[C@H]3CC=C4C[C@@H](O)CC[C@@]4(C)[C@H]3CC[C@@]21C
REMARK SMILES IDX 4 1 5 2 6 3 7 4 22 5 21 6 20 7 19 8 8 9 9 10 10 11 11 12
REMARK SMILES IDX 17 13 16 14 15 15 13 16 12 17 18 18 23 19 2 20 1 21 3 22
REMARK SMILES IDX 14 23
REMARK H PARENT 14 24
REMARK Flexibility Score: inf
ROOT
ATOM      1  C   UNL     1      22.794 -13.689  46.783  1.00  0.00     0.062 C 
ATOM      2  C   UNL     1      22.237 -14.983  46.188  1.00  0.00     0.012 C 
ATOM      3  C   UNL     1      20.870 -14.638  45.611  1.00  0.00     0.005 C 
ATOM      4  C   UNL     1      20.692 -13.115  45.750  1.00  0.00    -0.001 C 
ATOM      5  C   UNL     1      22.122 -12.539  45.971  1.00  0.00    -0.020 C 
ATOM      6  C   UNL     1      22.837 -12.283  44.609  1.00  0.00     0.008 C 
ATOM      7  C   UNL     1      21.971 -11.557  43.571  1.00  0.00     0.005 C 
ATOM      8  C   UNL     1      20.676 -12.344  43.269  1.00  0.00     0.003 C 
ATOM      9  C   UNL     1      19.857 -12.519  44.576  1.00  0.00     0.000 C 
ATOM     10  C   UNL     1      19.163 -11.209  44.986  1.00  0.00     0.031 C 
ATOM     11  C   UNL     1      18.445 -10.545  43.851  1.00  0.00    -0.027 C 
ATOM     12  C   UNL     1      18.794 -10.693  42.558  1.00  0.00    -0.065 C 
ATOM     13  C   UNL     1      19.771 -11.780  42.091  1.00  0.00    -0.008 C 
ATOM     14  C   UNL     1      20.638 -11.194  40.931  1.00  0.00     0.014 C 
ATOM     15  C   UNL     1      19.818 -10.507  39.825  1.00  0.00     0.033 C 
ATOM     16  C   UNL     1      18.938  -9.385  40.401  1.00  0.00     0.118 C 
ATOM     17  C   UNL     1      18.019  -9.916  41.507  1.00  0.00     0.063 C 
ATOM     18  C   UNL     1      18.934 -12.966  41.531  1.00  0.00     0.016 C 
ATOM     19  C   UNL     1      22.121 -11.246  46.827  1.00  0.00     0.012 C 
ENDROOT
BRANCH   1  20
ATOM     20  C   UNL     1      24.316 -13.703  46.882  1.00  0.00     0.133 C 
ATOM     21  C   UNL     1      25.124 -14.745  46.163  1.00  0.00     0.088 C 
ATOM     22  O   UNL     1      24.905 -12.929  47.620  1.00  0.00    -0.300 OA
ENDBRANCH   1  20
BRANCH  16  23
ATOM     23  O   UNL     1      19.737  -8.350  40.915  1.00  0.00    -0.393 OA
ATOM     24  H   UNL     1      19.260  -7.499  40.728  1.00  0.00     0.210 HD
ENDBRANCH  16  23
TORSDOF 2
ENDMDL
MODEL 4
REMARK VINA RESULT:    -5.637     11.898     13.650
REMARK INTER + INTRA:          -6.367
REMARK INTER:                  -6.142
REMARK INTRA:                  -0.225
REMARK UNBOUND:                -0.235
REMARK SMILES CC(=O)[C@@H]1CC[C@@H]2[C@H]3CC=C4C[C@@H](O)CC[C@@]4(C)[C@H]3CC[C@@]21C
REMARK SMILES IDX 4 1 5 2 6 3 7 4 22 5 21 6 20 7 19 8 8 9 9 10 10 11 11 12
REMARK SMILES IDX 17 13 16 14 15 15 13 16 12 17 18 18 23 19 2 20 1 21 3 22
REMARK SMILES IDX 14 23
REMARK H PARENT 14 24
REMARK Flexibility Score: inf
ROOT
ATOM      1  C   UNL     1      22.651 -12.853  45.005  1.00  0.00     0.062 C 
ATOM      2  C   UNL     1      23.380 -11.909  44.047  1.00  0.00     0.012 C 
ATOM      3  C   UNL     1      22.590 -11.925  42.744  1.00  0.00     0.005 C 
ATOM      4  C   UNL     1      21.327 -12.771  42.991  1.00  0.00    -0.001 C 
ATOM      5  C   UNL     1      21.163 -12.846  44.538  1.00  0.00    -0.020 C 
ATOM      6  C   UNL     1      20.381 -11.609  45.077  1.00  0.00     0.008 C 
ATOM      7  C   UNL     1      19.114 -11.270  44.279  1.00  0.00     0.005 C 
ATOM      8  C   UNL     1      19.441 -10.996  42.795  1.00  0.00     0.003 C 
ATOM      9  C   UNL     1      20.110 -12.249  42.170  1.00  0.00     0.000 C 
ATOM     10  C   UNL     1      19.084 -13.366  41.910  1.00  0.00     0.031 C 
ATOM     11  C   UNL     1      17.846 -12.877  41.223  1.00  0.00    -0.027 C 
ATOM     12  C   UNL     1      17.387 -11.613  41.319  1.00  0.00    -0.065 C 
ATOM     13  C   UNL     1      18.238 -10.474  41.898  1.00  0.00    -0.008 C 
ATOM     14  C   UNL     1      17.296  -9.518  42.698  1.00  0.00     0.014 C 
ATOM     15  C   UNL     1      16.037  -9.091  41.924  1.00  0.00     0.033 C 
ATOM     16  C   UNL     1      15.225 -10.314  41.465  1.00  0.00     0.118 C 
ATOM     17  C   UNL     1      16.085 -11.262  40.620  1.00  0.00     0.063 C 
ATOM     18  C   UNL     1      18.848  -9.682  40.706  1.00  0.00     0.016 C 
ATOM     19  C   UNL     1      20.478 -14.158  45.003  1.00  0.00     0.012 C 
ENDROOT
BRANCH   1  20
ATOM     20  C   UNL     1      22.945 -12.537  46.468  1.00  0.00     0.133 C 
ATOM     21  C   UNL     1      23.421 -11.173  46.879  1.00  0.00     0.088 C 
ATOM     22  O   UNL     1      22.891 -13.407  47.323  1.00  0.00    -0.300 OA
ENDBRANCH   1  20
BRANCH  16  23
ATOM     23  O   UNL     1      14.715 -11.010  42.573  1.00  0.00    -0.393 OA
ATOM     24  H   UNL     1      13.773 -10.717  42.689  1.00  0.00     0.210 HD
ENDBRANCH  16  23
TORSDOF 2
ENDMDL
MODEL 5
REMARK VINA RESULT:    -5.421     14.883     16.545
REMARK INTER + INTRA:          -6.132
REMARK INTER:                  -6.077
REMARK INTRA:                  -0.055
REMARK UNBOUND:                -0.235
REMARK SMILES CC(=O)[C@@H]1CC[C@@H]2[C@H]3CC=C4C[C@@H](O)CC[C@@]4(C)[C@H]3CC[C@@]21C
REMARK SMILES IDX 4 1 5 2 6 3 7 4 22 5 21 6 20 7 19 8 8 9 9 10 10 11 11 12
REMARK SMILES IDX 17 13 16 14 15 15 13 16 12 17 18 18 23 19 2 20 1 21 3 22
REMARK SMILES IDX 14 23
REMARK H PARENT 14 24
REMARK Flexibility Score: inf
ROOT
ATOM      1  C   UNL     1      22.877 -11.546  46.312  1.00  0.00     0.062 C 
ATOM      2  C   UNL     1      23.752 -12.564  47.045  1.00  0.00     0.012 C 
ATOM      3  C   UNL     1      22.966 -13.869  47.067  1.00  0.00     0.005 C 
ATOM      4  C   UNL     1      21.695 -13.646  46.227  1.00  0.00    -0.001 C 
ATOM      5  C   UNL     1      21.979 -12.388  45.355  1.00  0.00    -0.020 C 
ATOM      6  C   UNL     1      22.721 -12.777  44.039  1.00  0.00     0.008 C 
ATOM      7  C   UNL     1      22.114 -13.983  43.308  1.00  0.00     0.005 C 
ATOM      8  C   UNL     1      22.092 -15.235  44.212  1.00  0.00     0.003 C 
ATOM      9  C   UNL     1      21.254 -14.943  45.485  1.00  0.00     0.000 C 
ATOM     10  C   UNL     1      19.747 -14.934  45.179  1.00  0.00     0.031 C 
ATOM     11  C   UNL     1      19.306 -16.111  44.364  1.00  0.00    -0.027 C 
ATOM     12  C   UNL     1      20.115 -16.779  43.518  1.00  0.00    -0.065 C 
ATOM     13  C   UNL     1      21.637 -16.591  43.518  1.00  0.00    -0.008 C 
ATOM     14  C   UNL     1      22.142 -16.679  42.042  1.00  0.00     0.014 C 
ATOM     15  C   UNL     1      21.617 -17.905  41.275  1.00  0.00     0.033 C 
ATOM     16  C   UNL     1      20.080 -17.944  41.276  1.00  0.00     0.118 C 
ATOM     17  C   UNL     1      19.526 -17.921  42.705  1.00  0.00     0.063 C 
ATOM     18  C   UNL     1      22.264 -17.765  44.325  1.00  0.00     0.016 C 
ATOM     19  C   UNL     1      20.693 -11.584  45.027  1.00  0.00     0.012 C 
ENDROOT
BRANCH   1  20
ATOM     20  C   UNL     1      23.693 -10.405  45.712  1.00  0.00     0.133 C 
ATOM     21  C   UNL     1      25.124 -10.190  46.111  1.00  0.00     0.088 C 
ATOM     22  O   UNL     1      23.176  -9.586  44.968  1.00  0.00    -0.300 OA
ENDBRANCH   1  20
BRANCH  16  23
ATOM     23  O   UNL     1      19.561 -16.853  40.557  1.00  0.00    -0.393 OA
ATOM     24  H   UNL     1      20.322 -16.440  40.072  1.00  0.00     0.210 HD
ENDBRANCH  16  23
TORSDOF 2
ENDMDL
MODEL 6
REMARK VINA RESULT:    -5.416      7.590     11.345
REMARK INTER + INTRA:          -6.126
REMARK INTER:                  -5.907
REMARK INTRA:                  -0.219
REMARK UNBOUND:                -0.235
REMARK SMILES CC(=O)[C@@H]1CC[C@@H]2[C@H]3CC=C4C[C@@H](O)CC[C@@]4(C)[C@H]3CC[C@@]21C
REMARK SMILES IDX 4 1 5 2 6 3 7 4 22 5 21 6 20 7 19 8 8 9 9 10 10 11 11 12
REMARK SMILES IDX 17 13 16 14 15 15 13 16 12 17 18 18 23 19 2 20 1 21 3 22
REMARK SMILES IDX 14 23
REMARK H PARENT 14 24
REMARK Flexibility Score: inf
ROOT
ATOM      1  C   UNL     1       5.993 -10.937  42.226  1.00  0.00     0.062 C 
ATOM      2  C   UNL     1       5.495 -11.749  43.423  1.00  0.00     0.012 C 
ATOM      3  C   UNL     1       5.045 -13.097  42.872  1.00  0.00     0.005 C 
ATOM      4  C   UNL     1       5.409 -13.117  41.377  1.00  0.00    -0.001 C 
ATOM      5  C   UNL     1       6.469 -11.994  41.182  1.00  0.00    -0.020 C 
ATOM      6  C   UNL     1       7.904 -12.521  41.489  1.00  0.00     0.008 C 
ATOM      7  C   UNL     1       8.229 -13.874  40.842  1.00  0.00     0.005 C 
ATOM      8  C   UNL     1       7.232 -14.966  41.290  1.00  0.00     0.003 C 
ATOM      9  C   UNL     1       5.791 -14.549  40.893  1.00  0.00     0.000 C 
ATOM     10  C   UNL     1       5.551 -14.717  39.383  1.00  0.00     0.031 C 
ATOM     11  C   UNL     1       6.015 -16.041  38.859  1.00  0.00    -0.027 C 
ATOM     12  C   UNL     1       7.004 -16.763  39.421  1.00  0.00    -0.065 C 
ATOM     13  C   UNL     1       7.557 -16.448  40.817  1.00  0.00    -0.008 C 
ATOM     14  C   UNL     1       9.095 -16.724  40.809  1.00  0.00     0.014 C 
ATOM     15  C   UNL     1       9.479 -18.097  40.229  1.00  0.00     0.033 C 
ATOM     16  C   UNL     1       8.938 -18.266  38.799  1.00  0.00     0.118 C 
ATOM     17  C   UNL     1       7.418 -18.064  38.755  1.00  0.00     0.063 C 
ATOM     18  C   UNL     1       6.886 -17.422  41.828  1.00  0.00     0.016 C 
ATOM     19  C   UNL     1       6.421 -11.365  39.765  1.00  0.00     0.012 C 
ENDROOT
BRANCH   1  20
ATOM     20  C   UNL     1       6.971  -9.840  42.634  1.00  0.00     0.133 C 
ATOM     21  C   UNL     1       7.507  -9.770  44.035  1.00  0.00     0.088 C 
ATOM     22  O   UNL     1       7.267  -8.942  41.862  1.00  0.00    -0.300 OA
ENDBRANCH   1  20
BRANCH  16  23
ATOM     23  O   UNL     1       9.554 -17.351  37.929  1.00  0.00    -0.393 OA
ATOM     24  H   UNL     1      10.453 -17.717  37.715  1.00  0.00     0.210 HD
ENDBRANCH  16  23
TORSDOF 2
ENDMDL
MODEL 7
REMARK VINA RESULT:    -5.305     13.091     14.944
REMARK INTER + INTRA:          -6.005
REMARK INTER:                  -5.770
REMARK INTRA:                  -0.235
REMARK UNBOUND:                -0.235
REMARK SMILES CC(=O)[C@@H]1CC[C@@H]2[C@H]3CC=C4C[C@@H](O)CC[C@@]4(C)[C@H]3CC[C@@]21C
REMARK SMILES IDX 4 1 5 2 6 3 7 4 22 5 21 6 20 7 19 8 8 9 9 10 10 11 11 12
REMARK SMILES IDX 17 13 16 14 15 15 13 16 12 17 18 18 23 19 2 20 1 21 3 22
REMARK SMILES IDX 14 23
REMARK H PARENT 14 24
REMARK Flexibility Score: inf
ROOT
ATOM      1  C   UNL     1      18.427 -10.145  41.683  1.00  0.00     0.062 C 
ATOM      2  C   UNL     1      19.578 -10.071  40.678  1.00  0.00     0.012 C 
ATOM      3  C   UNL     1      20.864 -10.070  41.495  1.00  0.00     0.005 C 
ATOM      4  C   UNL     1      20.464 -10.280  42.967  1.00  0.00    -0.001 C 
ATOM      5  C   UNL     1      19.020 -10.862  42.935  1.00  0.00    -0.020 C 
ATOM      6  C   UNL     1      19.046 -12.412  42.770  1.00  0.00     0.008 C 
ATOM      7  C   UNL     1      20.041 -13.126  43.696  1.00  0.00     0.005 C 
ATOM      8  C   UNL     1      21.482 -12.616  43.474  1.00  0.00     0.003 C 
ATOM      9  C   UNL     1      21.541 -11.090  43.750  1.00  0.00     0.000 C 
ATOM     10  C   UNL     1      21.489 -10.787  45.257  1.00  0.00     0.031 C 
ATOM     11  C   UNL     1      22.432 -11.631  46.058  1.00  0.00    -0.027 C 
ATOM     12  C   UNL     1      22.845 -12.856  45.678  1.00  0.00    -0.065 C 
ATOM     13  C   UNL     1      22.628 -13.390  44.256  1.00  0.00    -0.008 C 
ATOM     14  C   UNL     1      22.328 -14.921  44.348  1.00  0.00     0.014 C 
ATOM     15  C   UNL     1      23.332 -15.703  45.213  1.00  0.00     0.033 C 
ATOM     16  C   UNL     1      23.404 -15.126  46.637  1.00  0.00     0.118 C 
ATOM     17  C   UNL     1      23.756 -13.634  46.613  1.00  0.00     0.063 C 
ATOM     18  C   UNL     1      23.953 -13.194  43.465  1.00  0.00     0.016 C 
ATOM     19  C   UNL     1      18.189 -10.470  44.185  1.00  0.00     0.012 C 
ENDROOT
BRANCH   1  20
ATOM     20  C   UNL     1      17.153 -10.715  41.066  1.00  0.00     0.133 C 
ATOM     21  C   UNL     1      17.198 -11.473  39.771  1.00  0.00     0.088 C 
ATOM     22  O   UNL     1      16.060 -10.488  41.561  1.00  0.00    -0.300 OA
ENDBRANCH   1  20
BRANCH  16  23
ATOM     23  O   UNL     1      22.180 -15.305  47.303  1.00  0.00    -0.393 OA
ATOM     24  H   UNL     1      21.670 -14.458  47.201  1.00  0.00     0.210 HD
ENDBRANCH  16  23
TORSDOF 2
ENDMDL
MODEL 8
REMARK VINA RESULT:    -5.296      7.932     12.368
REMARK INTER + INTRA:          -5.995
REMARK INTER:                  -5.760
REMARK INTRA:                  -0.236
REMARK UNBOUND:                -0.235
REMARK SMILES CC(=O)[C@@H]1CC[C@@H]2[C@H]3CC=C4C[C@@H](O)CC[C@@]4(C)[C@H]3CC[C@@]21C
REMARK SMILES IDX 4 1 5 2 6 3 7 4 22 5 21 6 20 7 19 8 8 9 9 10 10 11 11 12
REMARK SMILES IDX 17 13 16 14 15 15 13 16 12 17 18 18 23 19 2 20 1 21 3 22
REMARK SMILES IDX 14 23
REMARK H PARENT 14 24
REMARK Flexibility Score: inf
ROOT
ATOM      1  C   UNL     1      10.407 -17.177  39.170  1.00  0.00     0.062 C 
ATOM      2  C   UNL     1       9.092 -17.516  38.467  1.00  0.00     0.012 C 
ATOM      3  C   UNL     1       7.976 -17.028  39.383  1.00  0.00     0.005 C 
ATOM      4  C   UNL     1       8.645 -16.284  40.553  1.00  0.00    -0.001 C 
ATOM      5  C   UNL     1      10.087 -15.946  40.072  1.00  0.00    -0.020 C 
ATOM      6  C   UNL     1      10.109 -14.607  39.271  1.00  0.00     0.008 C 
ATOM      7  C   UNL     1       9.334 -13.463  39.940  1.00  0.00     0.005 C 
ATOM      8  C   UNL     1       7.853 -13.841  40.164  1.00  0.00     0.003 C 
ATOM      9  C   UNL     1       7.769 -15.101  41.065  1.00  0.00     0.000 C 
ATOM     10  C   UNL     1       8.077 -14.765  42.534  1.00  0.00     0.031 C 
ATOM     11  C   UNL     1       7.338 -13.560  43.028  1.00  0.00    -0.027 C 
ATOM     12  C   UNL     1       6.925 -12.557  42.228  1.00  0.00    -0.065 C 
ATOM     13  C   UNL     1       6.908 -12.682  40.699  1.00  0.00    -0.008 C 
ATOM     14  C   UNL     1       7.295 -11.296  40.090  1.00  0.00     0.014 C 
ATOM     15  C   UNL     1       6.504 -10.114  40.676  1.00  0.00     0.033 C 
ATOM     16  C   UNL     1       6.662 -10.044  42.205  1.00  0.00     0.118 C 
ATOM     17  C   UNL     1       6.237 -11.361  42.865  1.00  0.00     0.063 C 
ATOM     18  C   UNL     1       5.453 -13.023  40.264  1.00  0.00     0.016 C 
ATOM     19  C   UNL     1      11.109 -15.890  41.237  1.00  0.00     0.012 C 
ENDROOT
BRANCH   1  20
ATOM     20  C   UNL     1      11.576 -17.069  38.196  1.00  0.00     0.133 C 
ATOM     21  C   UNL     1      11.336 -16.887  36.724  1.00  0.00     0.088 C 
ATOM     22  O   UNL     1      12.727 -17.220  38.574  1.00  0.00    -0.300 OA
ENDBRANCH   1  20
BRANCH  16  23
ATOM     23  O   UNL     1       7.994  -9.759  42.550  1.00  0.00    -0.393 OA
ATOM     24  H   UNL     1       8.478  -9.577  41.702  1.00  0.00     0.210 HD
ENDBRANCH  16  23
TORSDOF 2
ENDMDL
MODEL 9
REMARK VINA RESULT:    -5.217     12.732     14.664
REMARK INTER + INTRA:          -5.910
REMARK INTER:                  -5.813
REMARK INTRA:                  -0.097
REMARK UNBOUND:                -0.235
REMARK SMILES CC(=O)[C@@H]1CC[C@@H]2[C@H]3CC=C4C[C@@H](O)CC[C@@]4(C)[C@H]3CC[C@@]21C
REMARK SMILES IDX 4 1 5 2 6 3 7 4 22 5 21 6 20 7 19 8 8 9 9 10 10 11 11 12
REMARK SMILES IDX 17 13 16 14 15 15 13 16 12 17 18 18 23 19 2 20 1 21 3 22
REMARK SMILES IDX 14 23
REMARK H PARENT 14 24
REMARK Flexibility Score: inf
ROOT
ATOM      1  C   UNL     1      17.569 -11.232  41.361  1.00  0.00     0.062 C 
ATOM      2  C   UNL     1      17.368 -12.747  41.424  1.00  0.00     0.012 C 
ATOM      3  C   UNL     1      18.757 -13.361  41.535  1.00  0.00     0.005 C 
ATOM      4  C   UNL     1      19.756 -12.198  41.675  1.00  0.00    -0.001 C 
ATOM      5  C   UNL     1      18.912 -10.964  42.109  1.00  0.00    -0.020 C 
ATOM      6  C   UNL     1      18.728 -10.929  43.657  1.00  0.00     0.008 C 
ATOM      7  C   UNL     1      20.020 -11.176  44.449  1.00  0.00     0.005 C 
ATOM      8  C   UNL     1      20.649 -12.541  44.090  1.00  0.00     0.003 C 
ATOM      9  C   UNL     1      20.971 -12.582  42.573  1.00  0.00     0.000 C 
ATOM     10  C   UNL     1      22.211 -11.736  42.236  1.00  0.00     0.031 C 
ATOM     11  C   UNL     1      23.365 -11.995  43.155  1.00  0.00    -0.027 C 
ATOM     12  C   UNL     1      23.228 -12.431  44.423  1.00  0.00    -0.065 C 
ATOM     13  C   UNL     1      21.901 -12.985  44.960  1.00  0.00    -0.008 C 
ATOM     14  C   UNL     1      21.753 -12.540  46.451  1.00  0.00     0.014 C 
ATOM     15  C   UNL     1      22.996 -12.821  47.313  1.00  0.00     0.033 C 
ATOM     16  C   UNL     1      24.247 -12.150  46.718  1.00  0.00     0.118 C 
ATOM     17  C   UNL     1      24.478 -12.597  45.270  1.00  0.00     0.063 C 
ATOM     18  C   UNL     1      21.979 -14.538  44.914  1.00  0.00     0.016 C 
ATOM     19  C   UNL     1      19.512  -9.624  41.610  1.00  0.00     0.012 C 
ENDROOT
BRANCH   1  20
ATOM     20  C   UNL     1      16.332 -10.462  41.812  1.00  0.00     0.133 C 
ATOM     21  C   UNL     1      15.031 -11.172  42.055  1.00  0.00     0.088 C 
ATOM     22  O   UNL     1      16.344  -9.244  41.893  1.00  0.00    -0.300 OA
ENDBRANCH   1  20
BRANCH  16  23
ATOM     23  O   UNL     1      24.120 -10.751  46.759  1.00  0.00    -0.393 OA
ATOM     24  H   UNL     1      23.148 -10.549  46.725  1.00  0.00     0.210 HD
ENDBRANCH  16  23
TORSDOF 2
ENDMDL
