MODEL 1
REMARK VINA RESULT:    -6.640      0.000      0.000
REMARK INTER + INTRA:         -19.857
REMARK INTER:                 -17.508
REMARK INTRA:                  -2.348
REMARK UNBOUND:                -2.348
REMARK SMILES CCCCCCCCCCCCCCCCCCCCCCCCCCCCCC(=O)[O-]
REMARK SMILES IDX 16 1 17 2 18 3 19 4 20 5 21 6 22 7 23 8 24 9 25 10 26 11
REMARK SMILES IDX 27 12 28 13 29 14 30 15 31 16 32 17 15 18 14 19 13 20 12 21
REMARK SMILES IDX 11 22 10 23 9 24 8 25 7 26 6 27 5 28 4 29 3 30 2 31 1 32
REMARK H PARENT
REMARK Flexibility Score: inf
ROOT
ATOM      1  C   UNL     1      47.020 -46.252 165.070  1.00  0.00     0.000 C 
ENDROOT
BRANCH   1   2
ATOM      2  C   UNL     1      47.650 -47.539 164.504  1.00  0.00     0.000 C 
BRANCH   2   3
ATOM      3  C   UNL     1      49.151 -47.700 164.816  1.00  0.00     0.000 C 
BRANCH   3   4
ATOM      4  C   UNL     1      49.909 -46.358 164.787  1.00  0.00     0.000 C 
BRANCH   4   5
ATOM      5  C   UNL     1      51.243 -46.406 165.564  1.00  0.00     0.000 C 
BRANCH   5   6
ATOM      6  C   UNL     1      51.826 -47.821 165.742  1.00  0.00     0.000 C 
BRANCH   6   7
ATOM      7  C   UNL     1      53.334 -47.959 165.459  1.00  0.00     0.000 C 
BRANCH   7   8
ATOM      8  C   UNL     1      54.191 -48.403 166.663  1.00  0.00     0.000 C 
BRANCH   8   9
ATOM      9  C   UNL     1      54.129 -47.464 167.879  1.00  0.00     0.000 C 
BRANCH   9  10
ATOM     10  C   UNL     1      55.026 -46.225 167.718  1.00  0.00     0.000 C 
BRANCH  10  11
ATOM     11  C   UNL     1      54.236 -44.908 167.869  1.00  0.00     0.000 C 
BRANCH  11  12
ATOM     12  C   UNL     1      54.518 -43.891 166.750  1.00  0.00     0.000 C 
BRANCH  12  13
ATOM     13  C   UNL     1      54.076 -44.385 165.363  1.00  0.00     0.006 C 
BRANCH  13  14
ATOM     14  C   UNL     1      54.593 -43.487 164.232  1.00  0.00     0.053 C 
BRANCH  14  15
ATOM     15  C   UNL     1      53.940 -42.140 164.253  1.00  0.00     0.041 C 
ATOM     16  O   UNL     1      52.710 -42.036 164.502  1.00  0.00    -0.550 OA
ATOM     17  O   UNL     1      54.695 -40.997 164.017  1.00  0.00    -0.550 OA
ENDBRANCH  14  15
ENDBRANCH  13  14
ENDBRANCH  12  13
ENDBRANCH  11  12
ENDBRANCH  10  11
ENDBRANCH   9  10
ENDBRANCH   8   9
ENDBRANCH   7   8
ENDBRANCH   6   7
ENDBRANCH   5   6
ENDBRANCH   4   5
ENDBRANCH   3   4
ENDBRANCH   2   3
ENDBRANCH   1   2
BRANCH   1  18
ATOM     18  C   UNL     1      45.618 -45.977 164.498  1.00  0.00     0.000 C 
BRANCH  18  19
ATOM     19  C   UNL     1      45.091 -47.136 163.640  1.00  0.00     0.000 C 
BRANCH  19  20
ATOM     20  C   UNL     1      43.832 -46.757 162.838  1.00  0.00     0.000 C 
BRANCH  20  21
ATOM     21  C   UNL     1      43.080 -47.986 162.305  1.00  0.00     0.000 C 
BRANCH  21  22
ATOM     22  C   UNL     1      41.557 -47.882 162.498  1.00  0.00     0.000 C 
BRANCH  22  23
ATOM     23  C   UNL     1      40.873 -47.079 161.381  1.00  0.00     0.000 C 
BRANCH  23  24
ATOM     24  C   UNL     1      39.347 -46.994 161.568  1.00  0.00    -0.000 C 
BRANCH  24  25
ATOM     25  C   UNL     1      38.625 -48.258 161.075  1.00  0.00    -0.000 C 
BRANCH  25  26
ATOM     26  C   UNL     1      37.686 -48.848 162.142  1.00  0.00    -0.000 C 
BRANCH  26  27
ATOM     27  C   UNL     1      36.237 -48.972 161.647  1.00  0.00    -0.000 C 
BRANCH  27  28
ATOM     28  C   UNL     1      36.141 -49.123 160.117  1.00  0.00    -0.000 C 
BRANCH  28  29
ATOM     29  C   UNL     1      35.121 -48.145 159.497  1.00  0.00    -0.000 C 
BRANCH  29  30
ATOM     30  C   UNL     1      35.772 -46.992 158.707  1.00  0.00    -0.000 C 
BRANCH  30  31
ATOM     31  C   UNL     1      36.160 -45.770 159.556  1.00  0.00    -0.003 C 
ATOM     32  C   UNL     1      36.272 -44.487 158.730  1.00  0.00     0.004 C 
ENDBRANCH  30  31
ENDBRANCH  29  30
ENDBRANCH  28  29
ENDBRANCH  27  28
ENDBRANCH  26  27
ENDBRANCH  25  26
ENDBRANCH  24  25
ENDBRANCH  23  24
ENDBRANCH  22  23
ENDBRANCH  21  22
ENDBRANCH  20  21
ENDBRANCH  19  20
ENDBRANCH  18  19
ENDBRANCH   1  18
TORSDOF 28
ENDMDL
MODEL 2
REMARK VINA RESULT:    -6.604      0.885      1.472
REMARK INTER + INTRA:         -19.761
REMARK INTER:                 -17.795
REMARK INTRA:                  -1.966
REMARK UNBOUND:                -2.348
REMARK SMILES CCCCCCCCCCCCCCCCCCCCCCCCCCCCCC(=O)[O-]
REMARK SMILES IDX 16 1 17 2 18 3 19 4 20 5 21 6 22 7 23 8 24 9 25 10 26 11
REMARK SMILES IDX 27 12 28 13 29 14 30 15 31 16 32 17 15 18 14 19 13 20 12 21
REMARK SMILES IDX 11 22 10 23 9 24 8 25 7 26 6 27 5 28 4 29 3 30 2 31 1 32
REMARK H PARENT
REMARK Flexibility Score: inf
ROOT
ATOM      1  C   UNL     1      44.959 -46.786 164.765  1.00  0.00     0.000 C 
ENDROOT
BRANCH   1   2
ATOM      2  C   UNL     1      46.166 -45.982 165.287  1.00  0.00     0.000 C 
BRANCH   2   3
ATOM      3  C   UNL     1      47.534 -46.530 164.838  1.00  0.00     0.000 C 
BRANCH   3   4
ATOM      4  C   UNL     1      48.702 -45.604 165.230  1.00  0.00     0.000 C 
BRANCH   4   5
ATOM      5  C   UNL     1      49.984 -45.874 164.412  1.00  0.00     0.000 C 
BRANCH   5   6
ATOM      6  C   UNL     1      51.211 -46.263 165.259  1.00  0.00     0.000 C 
BRANCH   6   7
ATOM      7  C   UNL     1      51.375 -47.769 165.538  1.00  0.00     0.000 C 
BRANCH   7   8
ATOM      8  C   UNL     1      52.707 -48.174 166.202  1.00  0.00     0.000 C 
BRANCH   8   9
ATOM      9  C   UNL     1      53.740 -47.041 166.317  1.00  0.00     0.000 C 
BRANCH   9  10
ATOM     10  C   UNL     1      54.343 -46.930 167.728  1.00  0.00     0.000 C 
BRANCH  10  11
ATOM     11  C   UNL     1      54.256 -45.494 168.289  1.00  0.00     0.000 C 
BRANCH  11  12
ATOM     12  C   UNL     1      55.038 -44.462 167.460  1.00  0.00     0.000 C 
BRANCH  12  13
ATOM     13  C   UNL     1      54.132 -43.408 166.801  1.00  0.00     0.006 C 
BRANCH  13  14
ATOM     14  C   UNL     1      54.074 -43.561 165.276  1.00  0.00     0.053 C 
BRANCH  14  15
ATOM     15  C   UNL     1      53.694 -42.277 164.606  1.00  0.00     0.041 C 
ATOM     16  O   UNL     1      54.582 -41.530 164.118  1.00  0.00    -0.550 OA
ATOM     17  O   UNL     1      52.355 -41.916 164.503  1.00  0.00    -0.550 OA
ENDBRANCH  14  15
ENDBRANCH  13  14
ENDBRANCH  12  13
ENDBRANCH  11  12
ENDBRANCH  10  11
ENDBRANCH   9  10
ENDBRANCH   8   9
ENDBRANCH   7   8
ENDBRANCH   6   7
ENDBRANCH   5   6
ENDBRANCH   4   5
ENDBRANCH   3   4
ENDBRANCH   2   3
ENDBRANCH   1   2
BRANCH   1  18
ATOM     18  C   UNL     1      44.547 -46.377 163.340  1.00  0.00     0.000 C 
BRANCH  18  19
ATOM     19  C   UNL     1      45.013 -47.383 162.277  1.00  0.00     0.000 C 
BRANCH  19  20
ATOM     20  C   UNL     1      43.846 -47.966 161.459  1.00  0.00     0.000 C 
BRANCH  20  21
ATOM     21  C   UNL     1      42.477 -47.477 161.956  1.00  0.00     0.000 C 
BRANCH  21  22
ATOM     22  C   UNL     1      41.885 -48.379 163.052  1.00  0.00     0.000 C 
BRANCH  22  23
ATOM     23  C   UNL     1      40.458 -48.848 162.727  1.00  0.00     0.000 C 
BRANCH  23  24
ATOM     24  C   UNL     1      39.616 -47.748 162.054  1.00  0.00    -0.000 C 
BRANCH  24  25
ATOM     25  C   UNL     1      38.491 -48.324 161.179  1.00  0.00    -0.000 C 
BRANCH  25  26
ATOM     26  C   UNL     1      37.311 -48.849 162.016  1.00  0.00    -0.000 C 
BRANCH  26  27
ATOM     27  C   UNL     1      36.050 -49.086 161.171  1.00  0.00    -0.000 C 
BRANCH  27  28
ATOM     28  C   UNL     1      36.311 -48.946 159.660  1.00  0.00    -0.000 C 
BRANCH  28  29
ATOM     29  C   UNL     1      35.572 -47.735 159.050  1.00  0.00    -0.000 C 
BRANCH  29  30
ATOM     30  C   UNL     1      35.042 -46.742 160.102  1.00  0.00    -0.000 C 
BRANCH  30  31
ATOM     31  C   UNL     1      35.586 -45.310 159.968  1.00  0.00    -0.003 C 
ATOM     32  C   UNL     1      36.380 -45.096 158.679  1.00  0.00     0.004 C 
ENDBRANCH  30  31
ENDBRANCH  29  30
ENDBRANCH  28  29
ENDBRANCH  27  28
ENDBRANCH  26  27
ENDBRANCH  25  26
ENDBRANCH  24  25
ENDBRANCH  23  24
ENDBRANCH  22  23
ENDBRANCH  21  22
ENDBRANCH  20  21
ENDBRANCH  19  20
ENDBRANCH  18  19
ENDBRANCH   1  18
TORSDOF 28
ENDMDL
MODEL 3
REMARK VINA RESULT:    -6.598      5.734     12.951
REMARK INTER + INTRA:         -19.747
REMARK INTER:                 -15.369
REMARK INTRA:                  -4.378
REMARK UNBOUND:                -2.348
REMARK SMILES CCCCCCCCCCCCCCCCCCCCCCCCCCCCCC(=O)[O-]
REMARK SMILES IDX 16 1 17 2 18 3 19 4 20 5 21 6 22 7 23 8 24 9 25 10 26 11
REMARK SMILES IDX 27 12 28 13 29 14 30 15 31 16 32 17 15 18 14 19 13 20 12 21
REMARK SMILES IDX 11 22 10 23 9 24 8 25 7 26 6 27 5 28 4 29 3 30 2 31 1 32
REMARK H PARENT
REMARK Flexibility Score: inf
ROOT
ATOM      1  C   UNL     1      44.493 -46.487 162.669  1.00  0.00     0.000 C 
ENDROOT
BRANCH   1   2
ATOM      2  C   UNL     1      44.994 -47.229 161.415  1.00  0.00     0.000 C 
BRANCH   2   3
ATOM      3  C   UNL     1      43.908 -48.047 160.688  1.00  0.00     0.000 C 
BRANCH   3   4
ATOM      4  C   UNL     1      42.551 -48.014 161.419  1.00  0.00     0.000 C 
BRANCH   4   5
ATOM      5  C   UNL     1      41.463 -47.254 160.630  1.00  0.00     0.000 C 
BRANCH   5   6
ATOM      6  C   UNL     1      40.477 -46.460 161.510  1.00  0.00     0.000 C 
BRANCH   6   7
ATOM      7  C   UNL     1      38.996 -46.864 161.377  1.00  0.00     0.000 C 
BRANCH   7   8
ATOM      8  C   UNL     1      38.731 -48.382 161.319  1.00  0.00     0.000 C 
BRANCH   8   9
ATOM      9  C   UNL     1      37.909 -48.939 162.494  1.00  0.00     0.000 C 
BRANCH   9  10
ATOM     10  C   UNL     1      36.604 -49.613 162.037  1.00  0.00     0.000 C 
BRANCH  10  11
ATOM     11  C   UNL     1      35.609 -48.605 161.424  1.00  0.00     0.000 C 
BRANCH  11  12
ATOM     12  C   UNL     1      35.297 -48.874 159.942  1.00  0.00     0.000 C 
BRANCH  12  13
ATOM     13  C   UNL     1      35.552 -47.653 159.043  1.00  0.00     0.006 C 
BRANCH  13  14
ATOM     14  C   UNL     1      35.904 -46.397 159.851  1.00  0.00     0.053 C 
BRANCH  14  15
ATOM     15  C   UNL     1      36.021 -45.189 158.974  1.00  0.00     0.041 C 
ATOM     16  O   UNL     1      35.780 -44.044 159.437  1.00  0.00    -0.550 OA
ATOM     17  O   UNL     1      36.417 -45.329 157.648  1.00  0.00    -0.550 OA
ENDBRANCH  14  15
ENDBRANCH  13  14
ENDBRANCH  12  13
ENDBRANCH  11  12
ENDBRANCH  10  11
ENDBRANCH   9  10
ENDBRANCH   8   9
ENDBRANCH   7   8
ENDBRANCH   6   7
ENDBRANCH   5   6
ENDBRANCH   4   5
ENDBRANCH   3   4
ENDBRANCH   2   3
ENDBRANCH   1   2
BRANCH   1  18
ATOM     18  C   UNL     1      45.643 -45.921 163.521  1.00  0.00     0.000 C 
BRANCH  18  19
ATOM     19  C   UNL     1      45.277 -45.804 165.007  1.00  0.00     0.000 C 
BRANCH  19  20
ATOM     20  C   UNL     1      46.515 -45.711 165.919  1.00  0.00     0.000 C 
BRANCH  20  21
ATOM     21  C   UNL     1      47.826 -45.630 165.123  1.00  0.00     0.000 C 
BRANCH  21  22
ATOM     22  C   UNL     1      48.898 -46.604 165.643  1.00  0.00     0.000 C 
BRANCH  22  23
ATOM     23  C   UNL     1      49.419 -47.549 164.549  1.00  0.00     0.000 C 
BRANCH  23  24
ATOM     24  C   UNL     1      49.167 -49.031 164.883  1.00  0.00    -0.000 C 
BRANCH  24  25
ATOM     25  C   UNL     1      48.770 -49.852 163.645  1.00  0.00    -0.000 C 
BRANCH  25  26
ATOM     26  C   UNL     1      47.582 -49.232 162.890  1.00  0.00    -0.000 C 
BRANCH  26  27
ATOM     27  C   UNL     1      46.251 -49.928 163.214  1.00  0.00    -0.000 C 
BRANCH  27  28
ATOM     28  C   UNL     1      45.593 -49.387 164.497  1.00  0.00    -0.000 C 
BRANCH  28  29
ATOM     29  C   UNL     1      44.051 -49.423 164.423  1.00  0.00    -0.000 C 
BRANCH  29  30
ATOM     30  C   UNL     1      43.360 -48.770 165.636  1.00  0.00    -0.000 C 
BRANCH  30  31
ATOM     31  C   UNL     1      41.984 -48.151 165.336  1.00  0.00    -0.003 C 
ATOM     32  C   UNL     1      41.106 -49.052 164.467  1.00  0.00     0.004 C 
ENDBRANCH  30  31
ENDBRANCH  29  30
ENDBRANCH  28  29
ENDBRANCH  27  28
ENDBRANCH  26  27
ENDBRANCH  25  26
ENDBRANCH  24  25
ENDBRANCH  23  24
ENDBRANCH  22  23
ENDBRANCH  21  22
ENDBRANCH  20  21
ENDBRANCH  19  20
ENDBRANCH  18  19
ENDBRANCH   1  18
TORSDOF 28
ENDMDL
MODEL 4
REMARK VINA RESULT:    -6.511      4.751     15.618
REMARK INTER + INTRA:         -19.518
REMARK INTER:                 -17.228
REMARK INTRA:                  -2.290
REMARK UNBOUND:                -2.348
REMARK SMILES CCCCCCCCCCCCCCCCCCCCCCCCCCCCCC(=O)[O-]
REMARK SMILES IDX 16 1 17 2 18 3 19 4 20 5 21 6 22 7 23 8 24 9 25 10 26 11
REMARK SMILES IDX 27 12 28 13 29 14 30 15 31 16 32 17 15 18 14 19 13 20 12 21
REMARK SMILES IDX 11 22 10 23 9 24 8 25 7 26 6 27 5 28 4 29 3 30 2 31 1 32
REMARK H PARENT
REMARK Flexibility Score: inf
ROOT
ATOM      1  C   UNL     1      43.597 -47.711 162.441  1.00  0.00     0.000 C 
ENDROOT
BRANCH   1   2
ATOM      2  C   UNL     1      42.340 -47.942 163.302  1.00  0.00     0.000 C 
BRANCH   2   3
ATOM      3  C   UNL     1      41.086 -48.336 162.496  1.00  0.00     0.000 C 
BRANCH   3   4
ATOM      4  C   UNL     1      40.615 -47.217 161.547  1.00  0.00     0.000 C 
BRANCH   4   5
ATOM      5  C   UNL     1      39.079 -47.164 161.396  1.00  0.00     0.000 C 
BRANCH   5   6
ATOM      6  C   UNL     1      38.399 -48.545 161.326  1.00  0.00     0.000 C 
BRANCH   6   7
ATOM      7  C   UNL     1      37.603 -48.958 162.579  1.00  0.00     0.000 C 
BRANCH   7   8
ATOM      8  C   UNL     1      37.072 -50.406 162.574  1.00  0.00     0.000 C 
BRANCH   8   9
ATOM      9  C   UNL     1      35.564 -50.540 162.307  1.00  0.00     0.000 C 
BRANCH   9  10
ATOM     10  C   UNL     1      35.225 -51.748 161.417  1.00  0.00     0.000 C 
BRANCH  10  11
ATOM     11  C   UNL     1      35.292 -51.405 159.914  1.00  0.00     0.000 C 
BRANCH  11  12
ATOM     12  C   UNL     1      34.880 -49.957 159.596  1.00  0.00     0.000 C 
BRANCH  12  13
ATOM     13  C   UNL     1      35.967 -49.175 158.841  1.00  0.00     0.006 C 
BRANCH  13  14
ATOM     14  C   UNL     1      35.485 -47.789 158.393  1.00  0.00     0.053 C 
BRANCH  14  15
ATOM     15  C   UNL     1      35.788 -46.740 159.418  1.00  0.00     0.041 C 
ATOM     16  O   UNL     1      36.476 -45.733 159.109  1.00  0.00    -0.550 OA
ATOM     17  O   UNL     1      35.292 -46.867 160.711  1.00  0.00    -0.550 OA
ENDBRANCH  14  15
ENDBRANCH  13  14
ENDBRANCH  12  13
ENDBRANCH  11  12
ENDBRANCH  10  11
ENDBRANCH   9  10
ENDBRANCH   8   9
ENDBRANCH   7   8
ENDBRANCH   6   7
ENDBRANCH   5   6
ENDBRANCH   4   5
ENDBRANCH   3   4
ENDBRANCH   2   3
ENDBRANCH   1   2
BRANCH   1  18
ATOM     18  C   UNL     1      44.457 -46.541 162.952  1.00  0.00     0.000 C 
BRANCH  18  19
ATOM     19  C   UNL     1      45.468 -46.973 164.024  1.00  0.00     0.000 C 
BRANCH  19  20
ATOM     20  C   UNL     1      46.379 -48.122 163.554  1.00  0.00     0.000 C 
BRANCH  20  21
ATOM     21  C   UNL     1      47.230 -48.702 164.694  1.00  0.00     0.000 C 
BRANCH  21  22
ATOM     22  C   UNL     1      48.687 -48.963 164.274  1.00  0.00     0.000 C 
BRANCH  22  23
ATOM     23  C   UNL     1      49.703 -48.328 165.237  1.00  0.00     0.000 C 
BRANCH  23  24
ATOM     24  C   UNL     1      49.961 -46.843 164.924  1.00  0.00    -0.000 C 
BRANCH  24  25
ATOM     25  C   UNL     1      51.290 -46.342 165.510  1.00  0.00    -0.000 C 
BRANCH  25  26
ATOM     26  C   UNL     1      52.329 -47.469 165.647  1.00  0.00    -0.000 C 
BRANCH  26  27
ATOM     27  C   UNL     1      53.725 -46.941 166.013  1.00  0.00    -0.000 C 
BRANCH  27  28
ATOM     28  C   UNL     1      53.680 -45.816 167.063  1.00  0.00    -0.000 C 
BRANCH  28  29
ATOM     29  C   UNL     1      54.278 -44.495 166.531  1.00  0.00    -0.000 C 
BRANCH  29  30
ATOM     30  C   UNL     1      54.666 -44.550 165.041  1.00  0.00    -0.000 C 
BRANCH  30  31
ATOM     31  C   UNL     1      54.458 -43.234 164.273  1.00  0.00    -0.003 C 
ATOM     32  C   UNL     1      53.397 -42.337 164.911  1.00  0.00     0.004 C 
ENDBRANCH  30  31
ENDBRANCH  29  30
ENDBRANCH  28  29
ENDBRANCH  27  28
ENDBRANCH  26  27
ENDBRANCH  25  26
ENDBRANCH  24  25
ENDBRANCH  23  24
ENDBRANCH  22  23
ENDBRANCH  21  22
ENDBRANCH  20  21
ENDBRANCH  19  20
ENDBRANCH  18  19
ENDBRANCH   1  18
TORSDOF 28
ENDMDL
MODEL 5
REMARK VINA RESULT:    -6.458      5.452     14.436
REMARK INTER + INTRA:         -19.377
REMARK INTER:                 -16.464
REMARK INTRA:                  -2.913
REMARK UNBOUND:                -2.348
REMARK SMILES CCCCCCCCCCCCCCCCCCCCCCCCCCCCCC(=O)[O-]
REMARK SMILES IDX 16 1 17 2 18 3 19 4 20 5 21 6 22 7 23 8 24 9 25 10 26 11
REMARK SMILES IDX 27 12 28 13 29 14 30 15 31 16 32 17 15 18 14 19 13 20 12 21
REMARK SMILES IDX 11 22 10 23 9 24 8 25 7 26 6 27 5 28 4 29 3 30 2 31 1 32
REMARK H PARENT
REMARK Flexibility Score: inf
ROOT
ATOM      1  C   UNL     1      43.840 -47.252 165.520  1.00  0.00     0.000 C 
ENDROOT
BRANCH   1   2
ATOM      2  C   UNL     1      43.847 -48.723 165.062  1.00  0.00     0.000 C 
BRANCH   2   3
ATOM      3  C   UNL     1      45.236 -49.252 164.654  1.00  0.00     0.000 C 
BRANCH   3   4
ATOM      4  C   UNL     1      45.314 -49.623 163.160  1.00  0.00     0.000 C 
BRANCH   4   5
ATOM      5  C   UNL     1      45.953 -48.513 162.297  1.00  0.00     0.000 C 
BRANCH   5   6
ATOM      6  C   UNL     1      44.939 -47.578 161.609  1.00  0.00     0.000 C 
BRANCH   6   7
ATOM      7  C   UNL     1      43.886 -48.276 160.726  1.00  0.00     0.000 C 
BRANCH   7   8
ATOM      8  C   UNL     1      42.483 -47.637 160.748  1.00  0.00     0.000 C 
BRANCH   8   9
ATOM      9  C   UNL     1      41.940 -47.320 162.151  1.00  0.00     0.000 C 
BRANCH   9  10
ATOM     10  C   UNL     1      40.687 -48.142 162.501  1.00  0.00     0.000 C 
BRANCH  10  11
ATOM     11  C   UNL     1      39.440 -47.665 161.727  1.00  0.00     0.000 C 
BRANCH  11  12
ATOM     12  C   UNL     1      38.411 -48.780 161.474  1.00  0.00     0.000 C 
BRANCH  12  13
ATOM     13  C   UNL     1      36.958 -48.278 161.516  1.00  0.00     0.006 C 
BRANCH  13  14
ATOM     14  C   UNL     1      36.094 -49.075 162.501  1.00  0.00     0.053 C 
BRANCH  14  15
ATOM     15  C   UNL     1      36.026 -50.525 162.132  1.00  0.00     0.041 C 
ATOM     16  O   UNL     1      36.408 -51.405 162.947  1.00  0.00    -0.550 OA
ATOM     17  O   UNL     1      35.523 -50.903 160.892  1.00  0.00    -0.550 OA
ENDBRANCH  14  15
ENDBRANCH  13  14
ENDBRANCH  12  13
ENDBRANCH  11  12
ENDBRANCH  10  11
ENDBRANCH   9  10
ENDBRANCH   8   9
ENDBRANCH   7   8
ENDBRANCH   6   7
ENDBRANCH   5   6
ENDBRANCH   4   5
ENDBRANCH   3   4
ENDBRANCH   2   3
ENDBRANCH   1   2
BRANCH   1  18
ATOM     18  C   UNL     1      44.963 -46.424 164.871  1.00  0.00     0.000 C 
BRANCH  18  19
ATOM     19  C   UNL     1      45.621 -45.444 165.854  1.00  0.00     0.000 C 
BRANCH  19  20
ATOM     20  C   UNL     1      47.156 -45.567 165.877  1.00  0.00     0.000 C 
BRANCH  20  21
ATOM     21  C   UNL     1      47.701 -46.369 164.686  1.00  0.00     0.000 C 
BRANCH  21  22
ATOM     22  C   UNL     1      48.543 -47.581 165.121  1.00  0.00     0.000 C 
BRANCH  22  23
ATOM     23  C   UNL     1      50.025 -47.440 164.739  1.00  0.00     0.000 C 
BRANCH  23  24
ATOM     24  C   UNL     1      50.607 -46.071 165.137  1.00  0.00    -0.000 C 
BRANCH  24  25
ATOM     25  C   UNL     1      51.996 -46.190 165.783  1.00  0.00    -0.000 C 
BRANCH  25  26
ATOM     26  C   UNL     1      52.494 -47.645 165.834  1.00  0.00    -0.000 C 
BRANCH  26  27
ATOM     27  C   UNL     1      53.945 -47.789 165.351  1.00  0.00    -0.000 C 
BRANCH  27  28
ATOM     28  C   UNL     1      54.934 -48.039 166.503  1.00  0.00    -0.000 C 
BRANCH  28  29
ATOM     29  C   UNL     1      54.561 -49.288 167.332  1.00  0.00    -0.000 C 
BRANCH  29  30
ATOM     30  C   UNL     1      54.868 -50.618 166.616  1.00  0.00    -0.000 C 
BRANCH  30  31
ATOM     31  C   UNL     1      54.173 -51.850 167.221  1.00  0.00    -0.003 C 
ATOM     32  C   UNL     1      53.868 -51.686 168.710  1.00  0.00     0.004 C 
ENDBRANCH  30  31
ENDBRANCH  29  30
ENDBRANCH  28  29
ENDBRANCH  27  28
ENDBRANCH  26  27
ENDBRANCH  25  26
ENDBRANCH  24  25
ENDBRANCH  23  24
ENDBRANCH  22  23
ENDBRANCH  21  22
ENDBRANCH  20  21
ENDBRANCH  19  20
ENDBRANCH  18  19
ENDBRANCH   1  18
TORSDOF 28
ENDMDL
MODEL 6
REMARK VINA RESULT:    -6.449      1.057      2.484
REMARK INTER + INTRA:         -19.353
REMARK INTER:                 -17.310
REMARK INTRA:                  -2.043
REMARK UNBOUND:                -2.348
REMARK SMILES CCCCCCCCCCCCCCCCCCCCCCCCCCCCCC(=O)[O-]
REMARK SMILES IDX 16 1 17 2 18 3 19 4 20 5 21 6 22 7 23 8 24 9 25 10 26 11
REMARK SMILES IDX 27 12 28 13 29 14 30 15 31 16 32 17 15 18 14 19 13 20 12 21
REMARK SMILES IDX 11 22 10 23 9 24 8 25 7 26 6 27 5 28 4 29 3 30 2 31 1 32
REMARK H PARENT
REMARK Flexibility Score: inf
ROOT
ATOM      1  C   UNL     1      45.066 -47.787 162.568  1.00  0.00     0.000 C 
ENDROOT
BRANCH   1   2
ATOM      2  C   UNL     1      45.542 -47.786 164.033  1.00  0.00     0.000 C 
BRANCH   2   3
ATOM      3  C   UNL     1      45.722 -46.381 164.640  1.00  0.00     0.000 C 
BRANCH   3   4
ATOM      4  C   UNL     1      47.157 -46.132 165.146  1.00  0.00     0.000 C 
BRANCH   4   5
ATOM      5  C   UNL     1      48.117 -47.299 164.827  1.00  0.00     0.000 C 
BRANCH   5   6
ATOM      6  C   UNL     1      49.587 -46.879 164.635  1.00  0.00     0.000 C 
BRANCH   6   7
ATOM      7  C   UNL     1      50.612 -47.638 165.501  1.00  0.00     0.000 C 
BRANCH   7   8
ATOM      8  C   UNL     1      51.965 -46.923 165.695  1.00  0.00     0.000 C 
BRANCH   8   9
ATOM      9  C   UNL     1      53.201 -47.812 165.482  1.00  0.00     0.000 C 
BRANCH   9  10
ATOM     10  C   UNL     1      54.167 -47.781 166.679  1.00  0.00     0.000 C 
BRANCH  10  11
ATOM     11  C   UNL     1      53.800 -46.682 167.698  1.00  0.00     0.000 C 
BRANCH  11  12
ATOM     12  C   UNL     1      54.935 -45.676 167.954  1.00  0.00     0.000 C 
BRANCH  12  13
ATOM     13  C   UNL     1      54.555 -44.234 167.581  1.00  0.00     0.006 C 
BRANCH  13  14
ATOM     14  C   UNL     1      54.303 -44.067 166.077  1.00  0.00     0.053 C 
BRANCH  14  15
ATOM     15  C   UNL     1      53.800 -42.695 165.749  1.00  0.00     0.041 C 
ATOM     16  O   UNL     1      53.199 -42.484 164.663  1.00  0.00    -0.550 OA
ATOM     17  O   UNL     1      53.980 -41.654 166.652  1.00  0.00    -0.550 OA
ENDBRANCH  14  15
ENDBRANCH  13  14
ENDBRANCH  12  13
ENDBRANCH  11  12
ENDBRANCH  10  11
ENDBRANCH   9  10
ENDBRANCH   8   9
ENDBRANCH   7   8
ENDBRANCH   6   7
ENDBRANCH   5   6
ENDBRANCH   4   5
ENDBRANCH   3   4
ENDBRANCH   2   3
ENDBRANCH   1   2
BRANCH   1  18
ATOM     18  C   UNL     1      43.539 -47.644 162.441  1.00  0.00     0.000 C 
BRANCH  18  19
ATOM     19  C   UNL     1      42.779 -48.446 163.507  1.00  0.00     0.000 C 
BRANCH  19  20
ATOM     20  C   UNL     1      41.250 -48.323 163.365  1.00  0.00     0.000 C 
BRANCH  20  21
ATOM     21  C   UNL     1      40.834 -47.620 162.064  1.00  0.00     0.000 C 
BRANCH  21  22
ATOM     22  C   UNL     1      39.361 -47.869 161.698  1.00  0.00     0.000 C 
BRANCH  22  23
ATOM     23  C   UNL     1      38.759 -49.067 162.449  1.00  0.00     0.000 C 
BRANCH  23  24
ATOM     24  C   UNL     1      37.228 -48.969 162.582  1.00  0.00    -0.000 C 
BRANCH  24  25
ATOM     25  C   UNL     1      36.513 -50.223 162.056  1.00  0.00    -0.000 C 
BRANCH  25  26
ATOM     26  C   UNL     1      35.260 -49.878 161.232  1.00  0.00    -0.000 C 
BRANCH  26  27
ATOM     27  C   UNL     1      35.246 -50.573 159.862  1.00  0.00    -0.000 C 
BRANCH  27  28
ATOM     28  C   UNL     1      35.598 -49.618 158.706  1.00  0.00    -0.000 C 
BRANCH  28  29
ATOM     29  C   UNL     1      35.070 -48.188 158.949  1.00  0.00    -0.000 C 
BRANCH  29  30
ATOM     30  C   UNL     1      36.152 -47.205 159.437  1.00  0.00    -0.000 C 
BRANCH  30  31
ATOM     31  C   UNL     1      35.610 -45.943 160.130  1.00  0.00    -0.003 C 
ATOM     32  C   UNL     1      35.911 -44.663 159.350  1.00  0.00     0.004 C 
ENDBRANCH  30  31
ENDBRANCH  29  30
ENDBRANCH  28  29
ENDBRANCH  27  28
ENDBRANCH  26  27
ENDBRANCH  25  26
ENDBRANCH  24  25
ENDBRANCH  23  24
ENDBRANCH  22  23
ENDBRANCH  21  22
ENDBRANCH  20  21
ENDBRANCH  19  20
ENDBRANCH  18  19
ENDBRANCH   1  18
TORSDOF 28
ENDMDL
MODEL 7
REMARK VINA RESULT:    -6.423      4.580     15.727
REMARK INTER + INTRA:         -19.285
REMARK INTER:                 -17.291
REMARK INTRA:                  -1.994
REMARK UNBOUND:                -2.348
REMARK SMILES CCCCCCCCCCCCCCCCCCCCCCCCCCCCCC(=O)[O-]
REMARK SMILES IDX 16 1 17 2 18 3 19 4 20 5 21 6 22 7 23 8 24 9 25 10 26 11
REMARK SMILES IDX 27 12 28 13 29 14 30 15 31 16 32 17 15 18 14 19 13 20 12 21
REMARK SMILES IDX 11 22 10 23 9 24 8 25 7 26 6 27 5 28 4 29 3 30 2 31 1 32
REMARK H PARENT
REMARK Flexibility Score: inf
ROOT
ATOM      1  C   UNL     1      44.415 -46.866 162.668  1.00  0.00     0.000 C 
ENDROOT
BRANCH   1   2
ATOM      2  C   UNL     1      43.532 -47.978 162.070  1.00  0.00     0.000 C 
BRANCH   2   3
ATOM      3  C   UNL     1      42.030 -47.831 162.382  1.00  0.00     0.000 C 
BRANCH   3   4
ATOM      4  C   UNL     1      41.586 -48.691 163.582  1.00  0.00     0.000 C 
BRANCH   4   5
ATOM      5  C   UNL     1      40.402 -49.624 163.248  1.00  0.00     0.000 C 
BRANCH   5   6
ATOM      6  C   UNL     1      39.264 -48.949 162.457  1.00  0.00     0.000 C 
BRANCH   6   7
ATOM      7  C   UNL     1      37.894 -49.648 162.539  1.00  0.00     0.000 C 
BRANCH   7   8
ATOM      8  C   UNL     1      36.671 -48.710 162.461  1.00  0.00     0.000 C 
BRANCH   8   9
ATOM      9  C   UNL     1      35.409 -49.344 161.853  1.00  0.00     0.000 C 
BRANCH   9  10
ATOM     10  C   UNL     1      35.719 -50.227 160.632  1.00  0.00     0.000 C 
BRANCH  10  11
ATOM     11  C   UNL     1      35.745 -49.417 159.318  1.00  0.00     0.000 C 
BRANCH  11  12
ATOM     12  C   UNL     1      34.916 -48.123 159.376  1.00  0.00     0.000 C 
BRANCH  12  13
ATOM     13  C   UNL     1      35.577 -46.951 158.633  1.00  0.00     0.006 C 
BRANCH  13  14
ATOM     14  C   UNL     1      36.222 -45.942 159.592  1.00  0.00     0.053 C 
BRANCH  14  15
ATOM     15  C   UNL     1      36.447 -44.617 158.933  1.00  0.00     0.041 C 
ATOM     16  O   UNL     1      35.470 -43.944 158.512  1.00  0.00    -0.550 OA
ATOM     17  O   UNL     1      37.738 -44.116 158.800  1.00  0.00    -0.550 OA
ENDBRANCH  14  15
ENDBRANCH  13  14
ENDBRANCH  12  13
ENDBRANCH  11  12
ENDBRANCH  10  11
ENDBRANCH   9  10
ENDBRANCH   8   9
ENDBRANCH   7   8
ENDBRANCH   6   7
ENDBRANCH   5   6
ENDBRANCH   4   5
ENDBRANCH   3   4
ENDBRANCH   2   3
ENDBRANCH   1   2
BRANCH   1  18
ATOM     18  C   UNL     1      45.485 -47.412 163.630  1.00  0.00     0.000 C 
BRANCH  18  19
ATOM     19  C   UNL     1      45.477 -46.700 164.991  1.00  0.00     0.000 C 
BRANCH  19  20
ATOM     20  C   UNL     1      46.813 -46.001 165.303  1.00  0.00     0.000 C 
BRANCH  20  21
ATOM     21  C   UNL     1      48.029 -46.865 164.936  1.00  0.00     0.000 C 
BRANCH  21  22
ATOM     22  C   UNL     1      49.175 -46.046 164.317  1.00  0.00     0.000 C 
BRANCH  22  23
ATOM     23  C   UNL     1      50.489 -46.177 165.103  1.00  0.00     0.000 C 
BRANCH  23  24
ATOM     24  C   UNL     1      50.813 -47.637 165.468  1.00  0.00    -0.000 C 
BRANCH  24  25
ATOM     25  C   UNL     1      52.322 -47.884 165.615  1.00  0.00    -0.000 C 
BRANCH  25  26
ATOM     26  C   UNL     1      53.104 -46.584 165.875  1.00  0.00    -0.000 C 
BRANCH  26  27
ATOM     27  C   UNL     1      54.620 -46.817 165.968  1.00  0.00    -0.000 C 
BRANCH  27  28
ATOM     28  C   UNL     1      54.975 -48.167 166.618  1.00  0.00    -0.000 C 
BRANCH  28  29
ATOM     29  C   UNL     1      54.965 -48.093 168.161  1.00  0.00    -0.000 C 
BRANCH  29  30
ATOM     30  C   UNL     1      54.351 -49.337 168.834  1.00  0.00    -0.000 C 
BRANCH  30  31
ATOM     31  C   UNL     1      53.922 -50.449 167.862  1.00  0.00    -0.003 C 
ATOM     32  C   UNL     1      53.929 -51.835 168.508  1.00  0.00     0.004 C 
ENDBRANCH  30  31
ENDBRANCH  29  30
ENDBRANCH  28  29
ENDBRANCH  27  28
ENDBRANCH  26  27
ENDBRANCH  25  26
ENDBRANCH  24  25
ENDBRANCH  23  24
ENDBRANCH  22  23
ENDBRANCH  21  22
ENDBRANCH  20  21
ENDBRANCH  19  20
ENDBRANCH  18  19
ENDBRANCH   1  18
TORSDOF 28
ENDMDL
MODEL 8
REMARK VINA RESULT:    -6.419      4.430     15.407
REMARK INTER + INTRA:         -19.273
REMARK INTER:                 -17.017
REMARK INTRA:                  -2.256
REMARK UNBOUND:                -2.348
REMARK SMILES CCCCCCCCCCCCCCCCCCCCCCCCCCCCCC(=O)[O-]
REMARK SMILES IDX 16 1 17 2 18 3 19 4 20 5 21 6 22 7 23 8 24 9 25 10 26 11
REMARK SMILES IDX 27 12 28 13 29 14 30 15 31 16 32 17 15 18 14 19 13 20 12 21
REMARK SMILES IDX 11 22 10 23 9 24 8 25 7 26 6 27 5 28 4 29 3 30 2 31 1 32
REMARK H PARENT
REMARK Flexibility Score: inf
ROOT
ATOM      1  C   UNL     1      46.030 -47.882 164.210  1.00  0.00     0.000 C 
ENDROOT
BRANCH   1   2
ATOM      2  C   UNL     1      45.385 -46.571 163.719  1.00  0.00     0.000 C 
BRANCH   2   3
ATOM      3  C   UNL     1      44.034 -46.761 163.001  1.00  0.00     0.000 C 
BRANCH   3   4
ATOM      4  C   UNL     1      44.149 -47.651 161.747  1.00  0.00     0.000 C 
BRANCH   4   5
ATOM      5  C   UNL     1      42.784 -47.928 161.080  1.00  0.00     0.000 C 
BRANCH   5   6
ATOM      6  C   UNL     1      41.588 -47.241 161.769  1.00  0.00     0.000 C 
BRANCH   6   7
ATOM      7  C   UNL     1      40.509 -48.190 162.326  1.00  0.00     0.000 C 
BRANCH   7   8
ATOM      8  C   UNL     1      39.122 -48.070 161.661  1.00  0.00     0.000 C 
BRANCH   8   9
ATOM      9  C   UNL     1      37.977 -48.751 162.429  1.00  0.00     0.000 C 
BRANCH   9  10
ATOM     10  C   UNL     1      36.608 -48.543 161.759  1.00  0.00     0.000 C 
BRANCH  10  11
ATOM     11  C   UNL     1      36.432 -49.422 160.502  1.00  0.00     0.000 C 
BRANCH  11  12
ATOM     12  C   UNL     1      36.010 -48.631 159.252  1.00  0.00     0.000 C 
BRANCH  12  13
ATOM     13  C   UNL     1      35.590 -47.186 159.569  1.00  0.00     0.006 C 
BRANCH  13  14
ATOM     14  C   UNL     1      36.056 -46.194 158.496  1.00  0.00     0.053 C 
BRANCH  14  15
ATOM     15  C   UNL     1      36.364 -44.850 159.080  1.00  0.00     0.041 C 
ATOM     16  O   UNL     1      35.638 -44.375 159.992  1.00  0.00    -0.550 OA
ATOM     17  O   UNL     1      37.466 -44.132 158.629  1.00  0.00    -0.550 OA
ENDBRANCH  14  15
ENDBRANCH  13  14
ENDBRANCH  12  13
ENDBRANCH  11  12
ENDBRANCH  10  11
ENDBRANCH   9  10
ENDBRANCH   8   9
ENDBRANCH   7   8
ENDBRANCH   6   7
ENDBRANCH   5   6
ENDBRANCH   4   5
ENDBRANCH   3   4
ENDBRANCH   2   3
ENDBRANCH   1   2
BRANCH   1  18
ATOM     18  C   UNL     1      47.555 -47.763 164.383  1.00  0.00     0.000 C 
BRANCH  18  19
ATOM     19  C   UNL     1      47.997 -46.348 164.783  1.00  0.00     0.000 C 
BRANCH  19  20
ATOM     20  C   UNL     1      49.519 -46.145 164.662  1.00  0.00     0.000 C 
BRANCH  20  21
ATOM     21  C   UNL     1      50.317 -47.339 165.207  1.00  0.00     0.000 C 
BRANCH  21  22
ATOM     22  C   UNL     1      51.742 -46.952 165.642  1.00  0.00     0.000 C 
BRANCH  22  23
ATOM     23  C   UNL     1      52.619 -48.176 165.950  1.00  0.00     0.000 C 
BRANCH  23  24
ATOM     24  C   UNL     1      54.091 -47.958 165.557  1.00  0.00    -0.000 C 
BRANCH  24  25
ATOM     25  C   UNL     1      55.055 -48.221 166.725  1.00  0.00    -0.000 C 
BRANCH  25  26
ATOM     26  C   UNL     1      54.454 -47.814 168.081  1.00  0.00    -0.000 C 
BRANCH  26  27
ATOM     27  C   UNL     1      54.940 -46.434 168.550  1.00  0.00    -0.000 C 
BRANCH  27  28
ATOM     28  C   UNL     1      53.957 -45.304 168.192  1.00  0.00    -0.000 C 
BRANCH  28  29
ATOM     29  C   UNL     1      54.620 -44.201 167.339  1.00  0.00    -0.000 C 
BRANCH  29  30
ATOM     30  C   UNL     1      54.840 -44.607 165.868  1.00  0.00    -0.000 C 
BRANCH  30  31
ATOM     31  C   UNL     1      54.056 -43.768 164.845  1.00  0.00    -0.003 C 
ATOM     32  C   UNL     1      53.528 -42.458 165.432  1.00  0.00     0.004 C 
ENDBRANCH  30  31
ENDBRANCH  29  30
ENDBRANCH  28  29
ENDBRANCH  27  28
ENDBRANCH  26  27
ENDBRANCH  25  26
ENDBRANCH  24  25
ENDBRANCH  23  24
ENDBRANCH  22  23
ENDBRANCH  21  22
ENDBRANCH  20  21
ENDBRANCH  19  20
ENDBRANCH  18  19
ENDBRANCH   1  18
TORSDOF 28
ENDMDL
MODEL 9
REMARK VINA RESULT:    -6.317      2.665      4.846
REMARK INTER + INTRA:         -19.005
REMARK INTER:                 -16.597
REMARK INTRA:                  -2.408
REMARK UNBOUND:                -2.348
REMARK SMILES CCCCCCCCCCCCCCCCCCCCCCCCCCCCCC(=O)[O-]
REMARK SMILES IDX 16 1 17 2 18 3 19 4 20 5 21 6 22 7 23 8 24 9 25 10 26 11
REMARK SMILES IDX 27 12 28 13 29 14 30 15 31 16 32 17 15 18 14 19 13 20 12 21
REMARK SMILES IDX 11 22 10 23 9 24 8 25 7 26 6 27 5 28 4 29 3 30 2 31 1 32
REMARK H PARENT
REMARK Flexibility Score: inf
ROOT
ATOM      1  C   UNL     1      43.066 -47.983 160.819  1.00  0.00     0.000 C 
ENDROOT
BRANCH   1   2
ATOM      2  C   UNL     1      44.322 -48.096 161.704  1.00  0.00     0.000 C 
BRANCH   2   3
ATOM      3  C   UNL     1      44.317 -47.167 162.933  1.00  0.00     0.000 C 
BRANCH   3   4
ATOM      4  C   UNL     1      45.684 -47.113 163.643  1.00  0.00     0.000 C 
BRANCH   4   5
ATOM      5  C   UNL     1      46.169 -48.500 164.118  1.00  0.00     0.000 C 
BRANCH   5   6
ATOM      6  C   UNL     1      47.675 -48.752 163.913  1.00  0.00     0.000 C 
BRANCH   6   7
ATOM      7  C   UNL     1      48.566 -48.494 165.144  1.00  0.00     0.000 C 
BRANCH   7   8
ATOM      8  C   UNL     1      49.947 -47.880 164.839  1.00  0.00     0.000 C 
BRANCH   8   9
ATOM      9  C   UNL     1      49.986 -46.343 164.846  1.00  0.00     0.000 C 
BRANCH   9  10
ATOM     10  C   UNL     1      51.393 -45.786 165.126  1.00  0.00     0.000 C 
BRANCH  10  11
ATOM     11  C   UNL     1      52.283 -46.800 165.876  1.00  0.00     0.000 C 
BRANCH  11  12
ATOM     12  C   UNL     1      53.780 -46.446 165.842  1.00  0.00     0.000 C 
BRANCH  12  13
ATOM     13  C   UNL     1      54.684 -47.621 166.251  1.00  0.00     0.006 C 
BRANCH  13  14
ATOM     14  C   UNL     1      53.888 -48.797 166.828  1.00  0.00     0.053 C 
BRANCH  14  15
ATOM     15  C   UNL     1      54.378 -49.184 168.189  1.00  0.00     0.041 C 
ATOM     16  O   UNL     1      55.121 -48.403 168.840  1.00  0.00    -0.550 OA
ATOM     17  O   UNL     1      53.998 -50.400 168.746  1.00  0.00    -0.550 OA
ENDBRANCH  14  15
ENDBRANCH  13  14
ENDBRANCH  12  13
ENDBRANCH  11  12
ENDBRANCH  10  11
ENDBRANCH   9  10
ENDBRANCH   8   9
ENDBRANCH   7   8
ENDBRANCH   6   7
ENDBRANCH   5   6
ENDBRANCH   4   5
ENDBRANCH   3   4
ENDBRANCH   2   3
ENDBRANCH   1   2
BRANCH   1  18
ATOM     18  C   UNL     1      41.768 -47.906 161.641  1.00  0.00     0.000 C 
BRANCH  18  19
ATOM     19  C   UNL     1      40.962 -46.629 161.359  1.00  0.00     0.000 C 
BRANCH  19  20
ATOM     20  C   UNL     1      39.441 -46.871 161.371  1.00  0.00     0.000 C 
BRANCH  20  21
ATOM     21  C   UNL     1      39.083 -48.361 161.477  1.00  0.00     0.000 C 
BRANCH  21  22
ATOM     22  C   UNL     1      37.989 -48.637 162.523  1.00  0.00     0.000 C 
BRANCH  22  23
ATOM     23  C   UNL     1      37.377 -50.040 162.384  1.00  0.00     0.000 C 
BRANCH  23  24
ATOM     24  C   UNL     1      35.839 -50.020 162.451  1.00  0.00    -0.000 C 
BRANCH  24  25
ATOM     25  C   UNL     1      35.210 -51.278 161.832  1.00  0.00    -0.000 C 
BRANCH  25  26
ATOM     26  C   UNL     1      35.623 -51.476 160.363  1.00  0.00    -0.000 C 
BRANCH  26  27
ATOM     27  C   UNL     1      34.946 -50.468 159.420  1.00  0.00    -0.000 C 
BRANCH  27  28
ATOM     28  C   UNL     1      35.935 -49.444 158.834  1.00  0.00    -0.000 C 
BRANCH  28  29
ATOM     29  C   UNL     1      35.280 -48.066 158.602  1.00  0.00    -0.000 C 
BRANCH  29  30
ATOM     30  C   UNL     1      35.294 -47.158 159.847  1.00  0.00    -0.000 C 
BRANCH  30  31
ATOM     31  C   UNL     1      36.445 -46.139 159.888  1.00  0.00    -0.003 C 
ATOM     32  C   UNL     1      36.372 -45.117 158.752  1.00  0.00     0.004 C 
ENDBRANCH  30  31
ENDBRANCH  29  30
ENDBRANCH  28  29
ENDBRANCH  27  28
ENDBRANCH  26  27
ENDBRANCH  25  26
ENDBRANCH  24  25
ENDBRANCH  23  24
ENDBRANCH  22  23
ENDBRANCH  21  22
ENDBRANCH  20  21
ENDBRANCH  19  20
ENDBRANCH  18  19
ENDBRANCH   1  18
TORSDOF 28
ENDMDL
