MODEL 1
REMARK VINA RESULT:    -3.970      0.000      0.000
REMARK INTER + INTRA:          -5.332
REMARK INTER:                  -5.247
REMARK INTRA:                  -0.085
REMARK UNBOUND:                -0.085
REMARK SMILES C=CCC[C@@H](O)CCC
REMARK SMILES IDX 4 1 5 2 7 3 8 4 9 5 6 6 3 8 2 9 1 10
REMARK H PARENT 6 7
REMARK Flexibility Score: inf
ROOT
ATOM      1  C   UNL     1     141.845 140.039 129.799  1.00  0.00     0.036 C 
ENDROOT
BRANCH   1   2
ATOM      2  C   UNL     1     143.141 140.230 130.610  1.00  0.00     0.114 C 
BRANCH   2   3
ATOM      3  C   UNL     1     144.380 139.730 129.836  1.00  0.00     0.031 C 
BRANCH   3   4
ATOM      4  C   UNL     1     145.703 140.230 130.437  1.00  0.00    -0.001 C 
ATOM      5  C   UNL     1     146.892 139.796 129.585  1.00  0.00     0.004 C 
ENDBRANCH   3   4
ENDBRANCH   2   3
BRANCH   2   6
ATOM      6  O   UNL     1     143.036 139.515 131.815  1.00  0.00    -0.393 OA
ATOM      7  H   UNL     1     143.952 139.214 132.053  1.00  0.00     0.210 HD
ENDBRANCH   2   6
ENDBRANCH   1   2
BRANCH   1   8
ATOM      8  C   UNL     1     140.865 141.202 130.015  1.00  0.00     0.029 C 
BRANCH   8   9
ATOM      9  C   UNL     1     140.211 141.610 128.723  1.00  0.00    -0.035 C 
ATOM     10  C   UNL     1     138.947 142.041 128.681  1.00  0.00     0.004 C 
ENDBRANCH   8   9
ENDBRANCH   1   8
TORSDOF 6
ENDMDL
MODEL 2
REMARK VINA RESULT:    -3.966     14.722     16.042
REMARK INTER + INTRA:          -5.326
REMARK INTER:                  -5.039
REMARK INTRA:                  -0.287
REMARK UNBOUND:                -0.085
REMARK SMILES C=CCC[C@@H](O)CCC
REMARK SMILES IDX 4 1 5 2 7 3 8 4 9 5 6 6 3 8 2 9 1 10
REMARK H PARENT 6 7
REMARK Flexibility Score: inf
ROOT
ATOM      1  C   UNL     1     134.380 139.356 143.032  1.00  0.00     0.036 C 
ENDROOT
BRANCH   1   2
ATOM      2  C   UNL     1     134.268 137.858 142.685  1.00  0.00     0.114 C 
BRANCH   2   3
ATOM      3  C   UNL     1     134.298 137.620 141.161  1.00  0.00     0.031 C 
BRANCH   3   4
ATOM      4  C   UNL     1     133.279 138.482 140.399  1.00  0.00    -0.001 C 
ATOM      5  C   UNL     1     132.157 137.625 139.821  1.00  0.00     0.004 C 
ENDBRANCH   3   4
ENDBRANCH   2   3
BRANCH   2   6
ATOM      6  O   UNL     1     133.061 137.359 143.202  1.00  0.00    -0.393 OA
ATOM      7  H   UNL     1     133.258 136.463 143.582  1.00  0.00     0.210 HD
ENDBRANCH   2   6
ENDBRANCH   1   2
BRANCH   1   8
ATOM      8  C   UNL     1     135.170 139.579 144.331  1.00  0.00     0.029 C 
BRANCH   8   9
ATOM      9  C   UNL     1     136.470 138.822 144.314  1.00  0.00    -0.035 C 
ATOM     10  C   UNL     1     136.925 138.183 145.395  1.00  0.00     0.004 C 
ENDBRANCH   8   9
ENDBRANCH   1   8
TORSDOF 6
ENDMDL
MODEL 3
REMARK VINA RESULT:    -3.945     14.641     15.428
REMARK INTER + INTRA:          -5.299
REMARK INTER:                  -4.728
REMARK INTRA:                  -0.571
REMARK UNBOUND:                -0.085
REMARK SMILES C=CCC[C@@H](O)CCC
REMARK SMILES IDX 4 1 5 2 7 3 8 4 9 5 6 6 3 8 2 9 1 10
REMARK H PARENT 6 7
REMARK Flexibility Score: inf
ROOT
ATOM      1  C   UNL     1     135.439 138.167 144.737  1.00  0.00     0.036 C 
ENDROOT
BRANCH   1   2
ATOM      2  C   UNL     1     136.930 138.536 144.606  1.00  0.00     0.114 C 
BRANCH   2   3
ATOM      3  C   UNL     1     137.702 137.509 143.751  1.00  0.00     0.031 C 
BRANCH   3   4
ATOM      4  C   UNL     1     137.785 137.905 142.268  1.00  0.00    -0.001 C 
ATOM      5  C   UNL     1     136.959 136.960 141.401  1.00  0.00     0.004 C 
ENDBRANCH   3   4
ENDBRANCH   2   3
BRANCH   2   6
ATOM      6  O   UNL     1     137.502 138.586 145.888  1.00  0.00    -0.393 OA
ATOM      7  H   UNL     1     137.063 137.878 146.428  1.00  0.00     0.210 HD
ENDBRANCH   2   6
ENDBRANCH   1   2
BRANCH   1   8
ATOM      8  C   UNL     1     134.529 139.361 144.412  1.00  0.00     0.029 C 
BRANCH   8   9
ATOM      9  C   UNL     1     134.410 139.567 142.927  1.00  0.00    -0.035 C 
ATOM     10  C   UNL     1     133.730 138.718 142.151  1.00  0.00     0.004 C 
ENDBRANCH   8   9
ENDBRANCH   1   8
TORSDOF 6
ENDMDL
MODEL 4
REMARK VINA RESULT:    -3.880     11.020     12.850
REMARK INTER + INTRA:          -5.213
REMARK INTER:                  -4.562
REMARK INTRA:                  -0.651
REMARK UNBOUND:                -0.085
REMARK SMILES C=CCC[C@@H](O)CCC
REMARK SMILES IDX 4 1 5 2 7 3 8 4 9 5 6 6 3 8 2 9 1 10
REMARK H PARENT 6 7
REMARK Flexibility Score: inf
ROOT
ATOM      1  C   UNL     1     149.679 142.495 140.269  1.00  0.00     0.036 C 
ENDROOT
BRANCH   1   2
ATOM      2  C   UNL     1     149.087 142.674 141.681  1.00  0.00     0.114 C 
BRANCH   2   3
ATOM      3  C   UNL     1     148.861 141.319 142.384  1.00  0.00     0.031 C 
BRANCH   3   4
ATOM      4  C   UNL     1     147.373 140.982 142.573  1.00  0.00    -0.001 C 
ATOM      5  C   UNL     1     147.055 139.586 142.047  1.00  0.00     0.004 C 
ENDBRANCH   3   4
ENDBRANCH   2   3
BRANCH   2   6
ATOM      6  O   UNL     1     147.857 143.346 141.578  1.00  0.00    -0.393 OA
ATOM      7  H   UNL     1     147.613 143.355 140.616  1.00  0.00     0.210 HD
ENDBRANCH   2   6
ENDBRANCH   1   2
BRANCH   1   8
ATOM      8  C   UNL     1     149.746 141.014 139.867  1.00  0.00     0.029 C 
BRANCH   8   9
ATOM      9  C   UNL     1     148.813 140.717 138.725  1.00  0.00    -0.035 C 
ATOM     10  C   UNL     1     147.579 141.227 138.674  1.00  0.00     0.004 C 
ENDBRANCH   8   9
ENDBRANCH   1   8
TORSDOF 6
ENDMDL
MODEL 5
REMARK VINA RESULT:    -3.823      2.767      5.107
REMARK INTER + INTRA:          -5.138
REMARK INTER:                  -4.947
REMARK INTRA:                  -0.190
REMARK UNBOUND:                -0.085
REMARK SMILES C=CCC[C@@H](O)CCC
REMARK SMILES IDX 4 1 5 2 7 3 8 4 9 5 6 6 3 8 2 9 1 10
REMARK H PARENT 6 7
REMARK Flexibility Score: inf
ROOT
ATOM      1  C   UNL     1     141.092 141.911 129.815  1.00  0.00     0.036 C 
ENDROOT
BRANCH   1   2
ATOM      2  C   UNL     1     140.180 142.241 128.617  1.00  0.00     0.114 C 
BRANCH   2   3
ATOM      3  C   UNL     1     140.504 143.625 128.014  1.00  0.00     0.031 C 
BRANCH   3   4
ATOM      4  C   UNL     1     141.597 144.375 128.790  1.00  0.00    -0.001 C 
ATOM      5  C   UNL     1     141.363 145.882 128.751  1.00  0.00     0.004 C 
ENDBRANCH   3   4
ENDBRANCH   2   3
BRANCH   2   6
ATOM      6  O   UNL     1     138.842 142.231 129.045  1.00  0.00    -0.393 OA
ATOM      7  H   UNL     1     138.393 141.483 128.570  1.00  0.00     0.210 HD
ENDBRANCH   2   6
ENDBRANCH   1   2
BRANCH   1   8
ATOM      8  C   UNL     1     141.295 140.397 129.972  1.00  0.00     0.029 C 
BRANCH   8   9
ATOM      9  C   UNL     1     142.396 140.093 130.951  1.00  0.00    -0.035 C 
ATOM     10  C   UNL     1     143.682 140.102 130.588  1.00  0.00     0.004 C 
ENDBRANCH   8   9
ENDBRANCH   1   8
TORSDOF 6
ENDMDL
MODEL 6
REMARK VINA RESULT:    -3.822     14.831     15.557
REMARK INTER + INTRA:          -5.136
REMARK INTER:                  -4.955
REMARK INTRA:                  -0.181
REMARK UNBOUND:                -0.085
REMARK SMILES C=CCC[C@@H](O)CCC
REMARK SMILES IDX 4 1 5 2 7 3 8 4 9 5 6 6 3 8 2 9 1 10
REMARK H PARENT 6 7
REMARK Flexibility Score: inf
ROOT
ATOM      1  C   UNL     1     134.095 138.565 142.881  1.00  0.00     0.036 C 
ENDROOT
BRANCH   1   2
ATOM      2  C   UNL     1     135.380 139.306 143.297  1.00  0.00     0.114 C 
BRANCH   2   3
ATOM      3  C   UNL     1     136.502 138.326 143.700  1.00  0.00     0.031 C 
BRANCH   3   4
ATOM      4  C   UNL     1     136.994 138.537 145.141  1.00  0.00    -0.001 C 
ATOM      5  C   UNL     1     136.769 137.288 145.987  1.00  0.00     0.004 C 
ENDBRANCH   3   4
ENDBRANCH   2   3
BRANCH   2   6
ATOM      6  O   UNL     1     135.091 140.143 144.388  1.00  0.00    -0.393 OA
ATOM      7  H   UNL     1     135.664 139.843 145.142  1.00  0.00     0.210 HD
ENDBRANCH   2   6
ENDBRANCH   1   2
BRANCH   1   8
ATOM      8  C   UNL     1     134.231 137.934 141.487  1.00  0.00     0.029 C 
BRANCH   8   9
ATOM      9  C   UNL     1     133.212 138.493 140.533  1.00  0.00    -0.035 C 
ATOM     10  C   UNL     1     132.348 137.706 139.886  1.00  0.00     0.004 C 
ENDBRANCH   8   9
ENDBRANCH   1   8
TORSDOF 6
ENDMDL
MODEL 7
REMARK VINA RESULT:    -3.808     14.190     15.536
REMARK INTER + INTRA:          -5.118
REMARK INTER:                  -4.571
REMARK INTRA:                  -0.547
REMARK UNBOUND:                -0.085
REMARK SMILES C=CCC[C@@H](O)CCC
REMARK SMILES IDX 4 1 5 2 7 3 8 4 9 5 6 6 3 8 2 9 1 10
REMARK H PARENT 6 7
REMARK Flexibility Score: inf
ROOT
ATOM      1  C   UNL     1     135.593 137.742 143.748  1.00  0.00     0.036 C 
ENDROOT
BRANCH   1   2
ATOM      2  C   UNL     1     134.641 138.943 143.911  1.00  0.00     0.114 C 
BRANCH   2   3
ATOM      3  C   UNL     1     133.993 139.347 142.569  1.00  0.00     0.031 C 
BRANCH   3   4
ATOM      4  C   UNL     1     133.289 138.175 141.868  1.00  0.00    -0.001 C 
ATOM      5  C   UNL     1     133.261 138.377 140.356  1.00  0.00     0.004 C 
ENDBRANCH   3   4
ENDBRANCH   2   3
BRANCH   2   6
ATOM      6  O   UNL     1     135.367 140.035 144.415  1.00  0.00    -0.393 OA
ATOM      7  H   UNL     1     136.033 140.284 143.722  1.00  0.00     0.210 HD
ENDBRANCH   2   6
ENDBRANCH   1   2
BRANCH   1   8
ATOM      8  C   UNL     1     137.046 138.193 143.543  1.00  0.00     0.029 C 
BRANCH   8   9
ATOM      9  C   UNL     1     137.561 137.778 142.192  1.00  0.00    -0.035 C 
ATOM     10  C   UNL     1     136.869 136.958 141.398  1.00  0.00     0.004 C 
ENDBRANCH   8   9
ENDBRANCH   1   8
TORSDOF 6
ENDMDL
MODEL 8
REMARK VINA RESULT:    -3.792     10.944     12.821
REMARK INTER + INTRA:          -5.097
REMARK INTER:                  -4.458
REMARK INTRA:                  -0.639
REMARK UNBOUND:                -0.085
REMARK SMILES C=CCC[C@@H](O)CCC
REMARK SMILES IDX 4 1 5 2 7 3 8 4 9 5 6 6 3 8 2 9 1 10
REMARK H PARENT 6 7
REMARK Flexibility Score: inf
ROOT
ATOM      1  C   UNL     1     147.600 141.385 141.919  1.00  0.00     0.036 C 
ENDROOT
BRANCH   1   2
ATOM      2  C   UNL     1     147.654 142.558 140.920  1.00  0.00     0.114 C 
BRANCH   2   3
ATOM      3  C   UNL     1     148.506 142.215 139.680  1.00  0.00     0.031 C 
BRANCH   3   4
ATOM      4  C   UNL     1     147.848 141.163 138.773  1.00  0.00    -0.001 C 
ATOM      5  C   UNL     1     148.870 140.139 138.289  1.00  0.00     0.004 C 
ENDBRANCH   3   4
ENDBRANCH   2   3
BRANCH   2   6
ATOM      6  O   UNL     1     148.209 143.678 141.561  1.00  0.00    -0.393 OA
ATOM      7  H   UNL     1     147.785 143.739 142.456  1.00  0.00     0.210 HD
ENDBRANCH   2   6
ENDBRANCH   1   2
BRANCH   1   8
ATOM      8  C   UNL     1     149.006 140.954 142.363  1.00  0.00     0.029 C 
BRANCH   8   9
ATOM      9  C   UNL     1     149.222 139.483 142.134  1.00  0.00    -0.035 C 
ATOM     10  C   UNL     1     148.240 138.687 141.701  1.00  0.00     0.004 C 
ENDBRANCH   8   9
ENDBRANCH   1   8
TORSDOF 6
ENDMDL
MODEL 9
REMARK VINA RESULT:    -3.771      1.092      1.538
REMARK INTER + INTRA:          -5.069
REMARK INTER:                  -4.922
REMARK INTRA:                  -0.146
REMARK UNBOUND:                -0.085
REMARK SMILES C=CCC[C@@H](O)CCC
REMARK SMILES IDX 4 1 5 2 7 3 8 4 9 5 6 6 3 8 2 9 1 10
REMARK H PARENT 6 7
REMARK Flexibility Score: inf
ROOT
ATOM      1  C   UNL     1     143.209 139.478 129.945  1.00  0.00     0.036 C 
ENDROOT
BRANCH   1   2
ATOM      2  C   UNL     1     144.413 140.216 130.562  1.00  0.00     0.114 C 
BRANCH   2   3
ATOM      3  C   UNL     1     145.731 139.865 129.841  1.00  0.00     0.031 C 
BRANCH   3   4
ATOM      4  C   UNL     1     146.943 139.837 130.786  1.00  0.00    -0.001 C 
ATOM      5  C   UNL     1     147.900 140.987 130.487  1.00  0.00     0.004 C 
ENDBRANCH   3   4
ENDBRANCH   2   3
BRANCH   2   6
ATOM      6  O   UNL     1     144.523 139.857 131.916  1.00  0.00    -0.393 OA
ATOM      7  H   UNL     1     144.270 138.899 131.983  1.00  0.00     0.210 HD
ENDBRANCH   2   6
ENDBRANCH   1   2
BRANCH   1   8
ATOM      8  C   UNL     1     141.878 139.985 130.520  1.00  0.00     0.029 C 
BRANCH   8   9
ATOM      9  C   UNL     1     141.457 141.273 129.867  1.00  0.00    -0.035 C 
ATOM     10  C   UNL     1     140.206 141.470 129.442  1.00  0.00     0.004 C 
ENDBRANCH   8   9
ENDBRANCH   1   8
TORSDOF 6
ENDMDL
