MODEL 1
REMARK VINA RESULT:    11.353      0.000      0.000
REMARK INTER + INTRA:          20.327
REMARK INTER:                  15.998
REMARK INTRA:                   4.329
REMARK UNBOUND:                 4.329
REMARK SMILES CC1=CCC(=C(C)C)C(=O)CC(C)=CCC1
REMARK SMILES IDX 12 1 14 2 13 3 15 4 16 5 2 6 1 7 3 8 11 10 9 11 10 12 5 13
REMARK SMILES IDX 6 14 7 15 8 16 4 17
REMARK H PARENT
REMARK Flexibility Score: 60.00
ROOT
ATOM      1  C   UNL     1      -7.170 -17.898 -23.911  1.00  0.00    -0.070 C 
ATOM      2  C   UNL     1      -6.648 -18.069 -22.674  1.00  0.00    -0.027 C 
ATOM      3  C   UNL     1      -6.413 -18.465 -25.085  1.00  0.00     0.039 C 
ENDROOT
BRANCH   2   4
ATOM      4  C   UNL     1      -7.278 -17.602 -21.384  1.00  0.00     0.032 C 
BRANCH   4   5
ATOM      5  C   UNL     1      -8.438 -18.523 -20.953  1.00  0.00     0.034 C 
BRANCH   5   6
ATOM      6  C   UNL     1      -9.665 -18.351 -21.833  1.00  0.00    -0.077 C 
ATOM      7  C   UNL     1     -10.379 -19.584 -22.327  1.00  0.00     0.039 C 
ATOM      8  C   UNL     1     -10.159 -17.147 -22.202  1.00  0.00    -0.023 CG0
ATOM      9  G   UNL     1      -9.623 -15.802 -21.771  1.00  0.00     0.000 G0
ENDBRANCH   5   6
ENDBRANCH   4   5
ENDBRANCH   2   4
BRANCH   1  10
ATOM     10  C   UNL     1      -8.490 -17.194 -24.158  1.00  0.00     0.111 C 
BRANCH  10  11
ATOM     11  C   UNL     1      -8.374 -15.699 -24.018  1.00  0.00     0.163 C 
ATOM     12  O   UNL     1      -7.756 -15.047 -24.901  1.00  0.00    -0.294 OA
BRANCH  11  13
ATOM     13  C   UNL     1      -9.008 -14.966 -22.893  1.00  0.00    -0.002 C 
ATOM     14  C   UNL     1      -9.128 -13.611 -22.938  1.00  0.00    -0.069 C 
ATOM     15  C   UNL     1      -8.502 -12.813 -24.057  1.00  0.00     0.039 C 
ATOM     16  C   UNL     1      -9.882 -12.853 -21.872  1.00  0.00     0.039 C 
BRANCH  13  17
ATOM     17  C   UNL     1      -9.627 -15.796 -21.779  1.00  0.00     0.066 CG0
ATOM     18  G   UNL     1     -10.138 -17.123 -22.290  1.00  0.00     0.000 G0
ENDBRANCH  13  17
ENDBRANCH  11  13
ENDBRANCH  10  11
ENDBRANCH   1  10
TORSDOF 0
ENDMDL
