MODEL 1
REMARK VINA RESULT:    -3.946      0.000      0.000
REMARK INTER + INTRA:          -5.889
REMARK INTER:                  -5.099
REMARK INTRA:                  -0.789
REMARK UNBOUND:                -0.789
REMARK SMILES CCCCC(=O)c1ccccc1C(=O)[O-]
REMARK SMILES IDX 4 1 5 2 6 3 7 4 12 5 11 6 10 7 8 8 9 9 13 10 14 11 15 12
REMARK SMILES IDX 3 13 2 14 1 15
REMARK H PARENT
REMARK Flexibility Score: inf
ROOT
ATOM      1  C   UNL     1      41.888 186.900  32.686  1.00  0.00     0.081 C 
ENDROOT
BRANCH   1   2
ATOM      2  C   UNL     1      40.552 187.559  32.878  1.00  0.00     0.163 C 
ATOM      3  O   UNL     1      40.494 188.807  33.041  1.00  0.00    -0.294 OA
BRANCH   2   4
ATOM      4  C   UNL     1      39.320 186.753  33.004  1.00  0.00     0.027 A 
ATOM      5  C   UNL     1      38.697 186.124  31.893  1.00  0.00     0.008 A 
ATOM      6  C   UNL     1      37.586 185.287  32.123  1.00  0.00     0.011 A 
ATOM      7  C   UNL     1      37.084 185.104  33.412  1.00  0.00     0.001 A 
ATOM      8  C   UNL     1      38.788 186.571  34.292  1.00  0.00     0.012 A 
ATOM      9  C   UNL     1      37.678 185.752  34.493  1.00  0.00     0.001 A 
BRANCH   5  10
ATOM     10  C   UNL     1      39.134 186.357  30.494  1.00  0.00     0.072 C 
ATOM     11  O   UNL     1      38.581 187.247  29.796  1.00  0.00    -0.545 OA
ATOM     12  O   UNL     1      40.184 185.630  29.944  1.00  0.00    -0.545 OA
ENDBRANCH   5  10
ENDBRANCH   2   4
ENDBRANCH   1   2
BRANCH   1  13
ATOM     13  C   UNL     1      42.310 186.171  33.965  1.00  0.00     0.008 C 
BRANCH  13  14
ATOM     14  C   UNL     1      42.786 184.747  33.655  1.00  0.00    -0.003 C 
ATOM     15  C   UNL     1      41.950 184.116  32.546  1.00  0.00     0.004 C 
ENDBRANCH  13  14
ENDBRANCH   1  13
TORSDOF 5
ENDMDL
MODEL 2
REMARK VINA RESULT:    -3.804      1.759      2.947
REMARK INTER + INTRA:          -5.706
REMARK INTER:                  -4.886
REMARK INTRA:                  -0.819
REMARK UNBOUND:                -0.789
REMARK SMILES CCCCC(=O)c1ccccc1C(=O)[O-]
REMARK SMILES IDX 4 1 5 2 6 3 7 4 12 5 11 6 10 7 8 8 9 9 13 10 14 11 15 12
REMARK SMILES IDX 3 13 2 14 1 15
REMARK H PARENT
REMARK Flexibility Score: inf
ROOT
ATOM      1  C   UNL     1      41.208 184.427  32.210  1.00  0.00     0.081 C 
ENDROOT
BRANCH   1   2
ATOM      2  C   UNL     1      40.464 185.549  31.545  1.00  0.00     0.163 C 
ATOM      3  O   UNL     1      40.514 185.668  30.291  1.00  0.00    -0.294 OA
BRANCH   2   4
ATOM      4  C   UNL     1      39.781 186.586  32.345  1.00  0.00     0.027 A 
ATOM      5  C   UNL     1      38.470 186.416  32.864  1.00  0.00     0.008 A 
ATOM      6  C   UNL     1      37.939 187.414  33.706  1.00  0.00     0.011 A 
ATOM      7  C   UNL     1      38.671 188.565  33.998  1.00  0.00     0.001 A 
ATOM      8  C   UNL     1      40.495 187.762  32.635  1.00  0.00     0.012 A 
ATOM      9  C   UNL     1      39.942 188.744  33.456  1.00  0.00     0.001 A 
BRANCH   5  10
ATOM     10  C   UNL     1      37.616 185.254  32.512  1.00  0.00     0.072 C 
ATOM     11  O   UNL     1      37.467 184.306  33.327  1.00  0.00    -0.545 OA
ATOM     12  O   UNL     1      36.934 185.211  31.302  1.00  0.00    -0.545 OA
ENDBRANCH   5  10
ENDBRANCH   2   4
ENDBRANCH   1   2
BRANCH   1  13
ATOM     13  C   UNL     1      42.689 184.788  32.364  1.00  0.00     0.008 C 
BRANCH  13  14
ATOM     14  C   UNL     1      43.156 184.589  33.810  1.00  0.00    -0.003 C 
ATOM     15  C   UNL     1      42.334 185.436  34.776  1.00  0.00     0.004 C 
ENDBRANCH  13  14
ENDBRANCH   1  13
TORSDOF 5
ENDMDL
MODEL 3
REMARK VINA RESULT:    -3.799      2.249      3.957
REMARK INTER + INTRA:          -5.699
REMARK INTER:                  -4.793
REMARK INTRA:                  -0.907
REMARK UNBOUND:                -0.789
REMARK SMILES CCCCC(=O)c1ccccc1C(=O)[O-]
REMARK SMILES IDX 4 1 5 2 6 3 7 4 12 5 11 6 10 7 8 8 9 9 13 10 14 11 15 12
REMARK SMILES IDX 3 13 2 14 1 15
REMARK H PARENT
REMARK Flexibility Score: inf
ROOT
ATOM      1  C   UNL     1      39.465 185.754  35.125  1.00  0.00     0.081 C 
ENDROOT
BRANCH   1   2
ATOM      2  C   UNL     1      39.289 184.860  33.930  1.00  0.00     0.163 C 
ATOM      3  O   UNL     1      39.189 183.615  34.098  1.00  0.00    -0.294 OA
BRANCH   2   4
ATOM      4  C   UNL     1      39.357 185.403  32.559  1.00  0.00     0.027 A 
ATOM      5  C   UNL     1      40.577 185.527  31.842  1.00  0.00     0.008 A 
ATOM      6  C   UNL     1      40.535 185.956  30.500  1.00  0.00     0.011 A 
ATOM      7  C   UNL     1      39.322 186.288  29.894  1.00  0.00     0.001 A 
ATOM      8  C   UNL     1      38.148 185.761  31.937  1.00  0.00     0.012 A 
ATOM      9  C   UNL     1      38.133 186.200  30.614  1.00  0.00     0.001 A 
BRANCH   5  10
ATOM     10  C   UNL     1      41.901 185.273  32.465  1.00  0.00     0.072 C 
ATOM     11  O   UNL     1      42.532 184.216  32.205  1.00  0.00    -0.545 OA
ATOM     12  O   UNL     1      42.483 186.211  33.308  1.00  0.00    -0.545 OA
ENDBRANCH   5  10
ENDBRANCH   2   4
ENDBRANCH   1   2
BRANCH   1  13
ATOM     13  C   UNL     1      38.875 187.139  34.843  1.00  0.00     0.008 C 
BRANCH  13  14
ATOM     14  C   UNL     1      39.982 188.188  34.693  1.00  0.00    -0.003 C 
ATOM     15  C   UNL     1      39.821 188.978  33.398  1.00  0.00     0.004 C 
ENDBRANCH  13  14
ENDBRANCH   1  13
TORSDOF 5
ENDMDL
MODEL 4
REMARK VINA RESULT:    -3.718     22.173     23.583
REMARK INTER + INTRA:          -5.595
REMARK INTER:                  -4.868
REMARK INTRA:                  -0.727
REMARK UNBOUND:                -0.789
REMARK SMILES CCCCC(=O)c1ccccc1C(=O)[O-]
REMARK SMILES IDX 4 1 5 2 6 3 7 4 12 5 11 6 10 7 8 8 9 9 13 10 14 11 15 12
REMARK SMILES IDX 3 13 2 14 1 15
REMARK H PARENT
REMARK Flexibility Score: inf
ROOT
ATOM      1  C   UNL     1      32.727 171.553  15.059  1.00  0.00     0.081 C 
ENDROOT
BRANCH   1   2
ATOM      2  C   UNL     1      31.969 170.568  15.903  1.00  0.00     0.163 C 
ATOM      3  O   UNL     1      31.825 169.385  15.495  1.00  0.00    -0.294 OA
BRANCH   2   4
ATOM      4  C   UNL     1      31.285 170.997  17.140  1.00  0.00     0.027 A 
ATOM      5  C   UNL     1      29.908 171.344  17.175  1.00  0.00     0.008 A 
ATOM      6  C   UNL     1      29.314 171.639  18.419  1.00  0.00     0.011 A 
ATOM      7  C   UNL     1      30.069 171.625  19.592  1.00  0.00     0.001 A 
ATOM      8  C   UNL     1      32.033 171.008  18.330  1.00  0.00     0.012 A 
ATOM      9  C   UNL     1      31.428 171.320  19.547  1.00  0.00     0.001 A 
BRANCH   5  10
ATOM     10  C   UNL     1      29.081 171.461  15.948  1.00  0.00     0.072 C 
ATOM     11  O   UNL     1      28.986 172.566  15.350  1.00  0.00    -0.545 OA
ATOM     12  O   UNL     1      28.435 170.353  15.414  1.00  0.00    -0.545 OA
ENDBRANCH   5  10
ENDBRANCH   2   4
ENDBRANCH   1   2
BRANCH   1  13
ATOM     13  C   UNL     1      34.177 171.092  14.878  1.00  0.00     0.008 C 
BRANCH  13  14
ATOM     14  C   UNL     1      34.934 171.120  16.210  1.00  0.00    -0.003 C 
ATOM     15  C   UNL     1      35.334 169.714  16.647  1.00  0.00     0.004 C 
ENDBRANCH  13  14
ENDBRANCH   1  13
TORSDOF 5
ENDMDL
MODEL 5
REMARK VINA RESULT:    -3.714      2.100      4.560
REMARK INTER + INTRA:          -5.589
REMARK INTER:                  -5.132
REMARK INTRA:                  -0.457
REMARK UNBOUND:                -0.789
REMARK SMILES CCCCC(=O)c1ccccc1C(=O)[O-]
REMARK SMILES IDX 4 1 5 2 6 3 7 4 12 5 11 6 10 7 8 8 9 9 13 10 14 11 15 12
REMARK SMILES IDX 3 13 2 14 1 15
REMARK H PARENT
REMARK Flexibility Score: inf
ROOT
ATOM      1  C   UNL     1      36.750 184.280  32.895  1.00  0.00     0.081 C 
ENDROOT
BRANCH   1   2
ATOM      2  C   UNL     1      37.724 185.398  33.135  1.00  0.00     0.163 C 
ATOM      3  O   UNL     1      37.329 186.452  33.702  1.00  0.00    -0.294 OA
BRANCH   2   4
ATOM      4  C   UNL     1      39.102 185.330  32.607  1.00  0.00     0.027 A 
ATOM      5  C   UNL     1      39.535 186.097  31.492  1.00  0.00     0.008 A 
ATOM      6  C   UNL     1      40.894 186.049  31.123  1.00  0.00     0.011 A 
ATOM      7  C   UNL     1      41.794 185.239  31.816  1.00  0.00     0.001 A 
ATOM      8  C   UNL     1      40.019 184.505  33.279  1.00  0.00     0.012 A 
ATOM      9  C   UNL     1      41.356 184.461  32.886  1.00  0.00     0.001 A 
BRANCH   5  10
ATOM     10  C   UNL     1      38.602 186.904  30.666  1.00  0.00     0.072 C 
ATOM     11  O   UNL     1      38.307 188.080  31.008  1.00  0.00    -0.545 OA
ATOM     12  O   UNL     1      38.074 186.398  29.485  1.00  0.00    -0.545 OA
ENDBRANCH   5  10
ENDBRANCH   2   4
ENDBRANCH   1   2
BRANCH   1  13
ATOM     13  C   UNL     1      35.979 184.517  31.592  1.00  0.00     0.008 C 
BRANCH  13  14
ATOM     14  C   UNL     1      35.260 183.242  31.139  1.00  0.00    -0.003 C 
ATOM     15  C   UNL     1      34.517 183.465  29.826  1.00  0.00     0.004 C 
ENDBRANCH  13  14
ENDBRANCH   1  13
TORSDOF 5
ENDMDL
MODEL 6
REMARK VINA RESULT:    -3.690      2.407      3.272
REMARK INTER + INTRA:          -5.558
REMARK INTER:                  -4.939
REMARK INTRA:                  -0.619
REMARK UNBOUND:                -0.789
REMARK SMILES CCCCC(=O)c1ccccc1C(=O)[O-]
REMARK SMILES IDX 4 1 5 2 6 3 7 4 12 5 11 6 10 7 8 8 9 9 13 10 14 11 15 12
REMARK SMILES IDX 3 13 2 14 1 15
REMARK H PARENT
REMARK Flexibility Score: inf
ROOT
ATOM      1  C   UNL     1      42.391 185.934  33.998  1.00  0.00     0.081 C 
ENDROOT
BRANCH   1   2
ATOM      2  C   UNL     1      40.897 185.801  33.924  1.00  0.00     0.163 C 
ATOM      3  O   UNL     1      40.275 185.261  34.878  1.00  0.00    -0.294 OA
BRANCH   2   4
ATOM      4  C   UNL     1      40.161 186.179  32.700  1.00  0.00     0.027 A 
ATOM      5  C   UNL     1      39.225 187.247  32.666  1.00  0.00     0.008 A 
ATOM      6  C   UNL     1      38.650 187.605  31.430  1.00  0.00     0.011 A 
ATOM      7  C   UNL     1      38.966 186.904  30.265  1.00  0.00     0.001 A 
ATOM      8  C   UNL     1      40.452 185.473  31.520  1.00  0.00     0.012 A 
ATOM      9  C   UNL     1      39.858 185.835  30.312  1.00  0.00     0.001 A 
BRANCH   5  10
ATOM     10  C   UNL     1      38.786 187.966  33.888  1.00  0.00     0.072 C 
ATOM     11  O   UNL     1      37.674 187.699  34.416  1.00  0.00    -0.545 OA
ATOM     12  O   UNL     1      39.606 188.910  34.494  1.00  0.00    -0.545 OA
ENDBRANCH   5  10
ENDBRANCH   2   4
ENDBRANCH   1   2
BRANCH   1  13
ATOM     13  C   UNL     1      42.999 184.715  34.700  1.00  0.00     0.008 C 
BRANCH  13  14
ATOM     14  C   UNL     1      43.081 183.517  33.748  1.00  0.00    -0.003 C 
ATOM     15  C   UNL     1      43.785 183.893  32.448  1.00  0.00     0.004 C 
ENDBRANCH  13  14
ENDBRANCH   1  13
TORSDOF 5
ENDMDL
MODEL 7
REMARK VINA RESULT:    -3.655      1.300      3.771
REMARK INTER + INTRA:          -5.513
REMARK INTER:                  -4.873
REMARK INTRA:                  -0.640
REMARK UNBOUND:                -0.789
REMARK SMILES CCCCC(=O)c1ccccc1C(=O)[O-]
REMARK SMILES IDX 4 1 5 2 6 3 7 4 12 5 11 6 10 7 8 8 9 9 13 10 14 11 15 12
REMARK SMILES IDX 3 13 2 14 1 15
REMARK H PARENT
REMARK Flexibility Score: inf
ROOT
ATOM      1  C   UNL     1      39.672 187.669  34.896  1.00  0.00     0.081 C 
ENDROOT
BRANCH   1   2
ATOM      2  C   UNL     1      40.507 187.584  33.650  1.00  0.00     0.163 C 
ATOM      3  O   UNL     1      40.542 188.566  32.861  1.00  0.00    -0.294 OA
BRANCH   2   4
ATOM      4  C   UNL     1      41.183 186.327  33.273  1.00  0.00     0.027 A 
ATOM      5  C   UNL     1      40.788 185.548  32.153  1.00  0.00     0.008 A 
ATOM      6  C   UNL     1      41.558 184.419  31.806  1.00  0.00     0.011 A 
ATOM      7  C   UNL     1      42.668 184.051  32.567  1.00  0.00     0.001 A 
ATOM      8  C   UNL     1      42.293 185.928  34.038  1.00  0.00     0.012 A 
ATOM      9  C   UNL     1      43.030 184.798  33.686  1.00  0.00     0.001 A 
BRANCH   5  10
ATOM     10  C   UNL     1      39.566 185.843  31.364  1.00  0.00     0.072 C 
ATOM     11  O   UNL     1      39.651 186.459  30.269  1.00  0.00    -0.545 OA
ATOM     12  O   UNL     1      38.317 185.412  31.796  1.00  0.00    -0.545 OA
ENDBRANCH   5  10
ENDBRANCH   2   4
ENDBRANCH   1   2
BRANCH   1  13
ATOM     13  C   UNL     1      38.777 186.431  35.021  1.00  0.00     0.008 C 
BRANCH  13  14
ATOM     14  C   UNL     1      37.296 186.824  35.058  1.00  0.00    -0.003 C 
ATOM     15  C   UNL     1      36.976 187.868  33.993  1.00  0.00     0.004 C 
ENDBRANCH  13  14
ENDBRANCH   1  13
TORSDOF 5
ENDMDL
MODEL 8
REMARK VINA RESULT:    -3.654     22.542     23.875
REMARK INTER + INTRA:          -5.511
REMARK INTER:                  -4.736
REMARK INTRA:                  -0.775
REMARK UNBOUND:                -0.789
REMARK SMILES CCCCC(=O)c1ccccc1C(=O)[O-]
REMARK SMILES IDX 4 1 5 2 6 3 7 4 12 5 11 6 10 7 8 8 9 9 13 10 14 11 15 12
REMARK SMILES IDX 3 13 2 14 1 15
REMARK H PARENT
REMARK Flexibility Score: inf
ROOT
ATOM      1  C   UNL     1      33.149 171.645  14.912  1.00  0.00     0.081 C 
ENDROOT
BRANCH   1   2
ATOM      2  C   UNL     1      32.125 170.595  15.235  1.00  0.00     0.163 C 
ATOM      3  O   UNL     1      32.324 169.404  14.875  1.00  0.00    -0.294 OA
BRANCH   2   4
ATOM      4  C   UNL     1      30.834 170.960  15.853  1.00  0.00     0.027 A 
ATOM      5  C   UNL     1      30.611 170.904  17.255  1.00  0.00     0.008 A 
ATOM      6  C   UNL     1      29.384 171.372  17.766  1.00  0.00     0.011 A 
ATOM      7  C   UNL     1      28.390 171.850  16.911  1.00  0.00     0.001 A 
ATOM      8  C   UNL     1      29.813 171.427  15.007  1.00  0.00     0.012 A 
ATOM      9  C   UNL     1      28.600 171.869  15.534  1.00  0.00     0.001 A 
BRANCH   5  10
ATOM     10  C   UNL     1      31.598 170.322  18.199  1.00  0.00     0.072 C 
ATOM     11  O   UNL     1      32.223 171.064  19.001  1.00  0.00    -0.545 OA
ATOM     12  O   UNL     1      31.819 168.951  18.245  1.00  0.00    -0.545 OA
ENDBRANCH   5  10
ENDBRANCH   2   4
ENDBRANCH   1   2
BRANCH   1  13
ATOM     13  C   UNL     1      34.561 171.106  15.165  1.00  0.00     0.008 C 
BRANCH  13  14
ATOM     14  C   UNL     1      34.844 170.990  16.667  1.00  0.00    -0.003 C 
ATOM     15  C   UNL     1      35.209 169.560  17.051  1.00  0.00     0.004 C 
ENDBRANCH  13  14
ENDBRANCH   1  13
TORSDOF 5
ENDMDL
MODEL 9
REMARK VINA RESULT:    -3.647     21.414     23.277
REMARK INTER + INTRA:          -5.503
REMARK INTER:                  -4.959
REMARK INTRA:                  -0.544
REMARK UNBOUND:                -0.789
REMARK SMILES CCCCC(=O)c1ccccc1C(=O)[O-]
REMARK SMILES IDX 4 1 5 2 6 3 7 4 12 5 11 6 10 7 8 8 9 9 13 10 14 11 15 12
REMARK SMILES IDX 3 13 2 14 1 15
REMARK H PARENT
REMARK Flexibility Score: inf
ROOT
ATOM      1  C   UNL     1      31.833 171.155  19.361  1.00  0.00     0.081 C 
ENDROOT
BRANCH   1   2
ATOM      2  C   UNL     1      32.093 170.123  18.300  1.00  0.00     0.163 C 
ATOM      3  O   UNL     1      31.649 168.954  18.453  1.00  0.00    -0.294 OA
BRANCH   2   4
ATOM      4  C   UNL     1      32.965 170.424  17.147  1.00  0.00     0.027 A 
ATOM      5  C   UNL     1      32.455 170.837  15.886  1.00  0.00     0.008 A 
ATOM      6  C   UNL     1      33.364 171.206  14.875  1.00  0.00     0.011 A 
ATOM      7  C   UNL     1      34.741 171.135  15.092  1.00  0.00     0.001 A 
ATOM      8  C   UNL     1      34.354 170.341  17.339  1.00  0.00     0.012 A 
ATOM      9  C   UNL     1      35.235 170.695  16.318  1.00  0.00     0.001 A 
BRANCH   5  10
ATOM     10  C   UNL     1      31.004 170.844  15.574  1.00  0.00     0.072 C 
ATOM     11  O   UNL     1      30.333 171.902  15.700  1.00  0.00    -0.545 OA
ATOM     12  O   UNL     1      30.371 169.702  15.099  1.00  0.00    -0.545 OA
ENDBRANCH   5  10
ENDBRANCH   2   4
ENDBRANCH   1   2
BRANCH   1  13
ATOM     13  C   UNL     1      30.361 171.578  19.342  1.00  0.00     0.008 C 
BRANCH  13  14
ATOM     14  C   UNL     1      29.901 172.030  20.732  1.00  0.00    -0.003 C 
ATOM     15  C   UNL     1      30.014 173.543  20.886  1.00  0.00     0.004 C 
ENDBRANCH  13  14
ENDBRANCH   1  13
TORSDOF 5
ENDMDL
