MODEL 1
REMARK VINA RESULT:    -2.941      0.000      0.000
REMARK INTER + INTRA:          -3.198
REMARK INTER:                  -3.198
REMARK INTRA:                   0.000
REMARK UNBOUND:                 0.000
REMARK SMILES [NH3+]CC(=O)[O-]
REMARK SMILES IDX 2 1 1 2 3 6 4 7 5 8
REMARK H PARENT 1 3 1 4 1 5
REMARK Flexibility Score: inf
ROOT
ATOM      1  C   UNL     1     -21.776  83.747 -19.572  1.00  0.00     0.312 C 
ENDROOT
BRANCH   1   2
ATOM      2  N   UNL     1     -21.393  82.600 -18.750  1.00  0.00    -0.353 N 
ATOM      3  H   UNL     1     -20.361  82.444 -18.811  1.00  0.00     0.344 HD
ATOM      4  H   UNL     1     -21.887  81.748 -19.101  1.00  0.00     0.344 HD
ATOM      5  H   UNL     1     -21.669  82.765 -17.754  1.00  0.00     0.344 HD
ENDBRANCH   1   2
BRANCH   1   6
ATOM      6  C   UNL     1     -22.819  83.356 -20.573  1.00  0.00     0.096 C 
ATOM      7  O   UNL     1     -23.680  82.484 -20.283  1.00  0.00    -0.544 OA
ATOM      8  O   UNL     1     -22.871  83.990 -21.807  1.00  0.00    -0.544 OA
ENDBRANCH   1   6
TORSDOF 2
ENDMDL
MODEL 2
REMARK VINA RESULT:    -2.765     16.187     16.547
REMARK INTER + INTRA:          -3.007
REMARK INTER:                  -3.007
REMARK INTRA:                   0.000
REMARK UNBOUND:                 0.000
REMARK SMILES [NH3+]CC(=O)[O-]
REMARK SMILES IDX 2 1 1 2 3 6 4 7 5 8
REMARK H PARENT 1 3 1 4 1 5
REMARK Flexibility Score: inf
ROOT
ATOM      1  C   UNL     1     -32.626  94.706 -28.135  1.00  0.00     0.312 C 
ENDROOT
BRANCH   1   2
ATOM      2  N   UNL     1     -32.518  96.163 -28.191  1.00  0.00    -0.353 N 
ATOM      3  H   UNL     1     -31.705  96.440 -28.789  1.00  0.00     0.344 HD
ATOM      4  H   UNL     1     -32.370  96.533 -27.224  1.00  0.00     0.344 HD
ATOM      5  H   UNL     1     -33.398  96.574 -28.579  1.00  0.00     0.344 HD
ENDBRANCH   1   2
BRANCH   1   6
ATOM      6  C   UNL     1     -31.823  94.160 -26.995  1.00  0.00     0.096 C 
ATOM      7  O   UNL     1     -32.389  93.849 -25.914  1.00  0.00    -0.544 OA
ATOM      8  O   UNL     1     -30.459  93.948 -27.144  1.00  0.00    -0.544 OA
ENDBRANCH   1   6
TORSDOF 2
ENDMDL
MODEL 3
REMARK VINA RESULT:    -2.584     11.462     11.772
REMARK INTER + INTRA:          -2.811
REMARK INTER:                  -2.811
REMARK INTRA:                   0.000
REMARK UNBOUND:                 0.000
REMARK SMILES [NH3+]CC(=O)[O-]
REMARK SMILES IDX 2 1 1 2 3 6 4 7 5 8
REMARK H PARENT 1 3 1 4 1 5
REMARK Flexibility Score: inf
ROOT
ATOM      1  C   UNL     1     -33.389  83.505 -19.321  1.00  0.00     0.312 C 
ENDROOT
BRANCH   1   2
ATOM      2  N   UNL     1     -32.202  84.064 -18.676  1.00  0.00    -0.353 N 
ATOM      3  H   UNL     1     -31.605  84.553 -19.383  1.00  0.00     0.344 HD
ATOM      4  H   UNL     1     -31.649  83.288 -18.244  1.00  0.00     0.344 HD
ATOM      5  H   UNL     1     -32.484  84.736 -17.925  1.00  0.00     0.344 HD
ENDBRANCH   1   2
BRANCH   1   6
ATOM      6  C   UNL     1     -34.557  84.430 -19.170  1.00  0.00     0.096 C 
ATOM      7  O   UNL     1     -35.436  84.493 -20.069  1.00  0.00    -0.544 OA
ATOM      8  O   UNL     1     -34.701  85.184 -18.012  1.00  0.00    -0.544 OA
ENDBRANCH   1   6
TORSDOF 2
ENDMDL
MODEL 4
REMARK VINA RESULT:    -2.530      9.783     10.229
REMARK INTER + INTRA:          -2.752
REMARK INTER:                  -2.752
REMARK INTRA:                   0.000
REMARK UNBOUND:                 0.000
REMARK SMILES [NH3+]CC(=O)[O-]
REMARK SMILES IDX 2 1 1 2 3 6 4 7 5 8
REMARK H PARENT 1 3 1 4 1 5
REMARK Flexibility Score: inf
ROOT
ATOM      1  C   UNL     1     -31.536  82.834 -19.039  1.00  0.00     0.312 C 
ENDROOT
BRANCH   1   2
ATOM      2  N   UNL     1     -32.203  84.082 -18.671  1.00  0.00    -0.353 N 
ATOM      3  H   UNL     1     -31.788  84.465 -17.791  1.00  0.00     0.344 HD
ATOM      4  H   UNL     1     -33.220  83.892 -18.512  1.00  0.00     0.344 HD
ATOM      5  H   UNL     1     -32.106  84.782 -19.442  1.00  0.00     0.344 HD
ENDBRANCH   1   2
BRANCH   1   6
ATOM      6  C   UNL     1     -32.493  81.683 -18.970  1.00  0.00     0.096 C 
ATOM      7  O   UNL     1     -32.079  80.533 -18.672  1.00  0.00    -0.544 OA
ATOM      8  O   UNL     1     -33.849  81.893 -19.184  1.00  0.00    -0.544 OA
ENDBRANCH   1   6
TORSDOF 2
ENDMDL
MODEL 5
REMARK VINA RESULT:    -2.501     14.378     14.716
REMARK INTER + INTRA:          -2.720
REMARK INTER:                  -2.720
REMARK INTRA:                   0.000
REMARK UNBOUND:                 0.000
REMARK SMILES [NH3+]CC(=O)[O-]
REMARK SMILES IDX 2 1 1 2 3 6 4 7 5 8
REMARK H PARENT 1 3 1 4 1 5
REMARK Flexibility Score: inf
ROOT
ATOM      1  C   UNL     1     -26.145  94.543 -26.989  1.00  0.00     0.312 C 
ENDROOT
BRANCH   1   2
ATOM      2  N   UNL     1     -26.569  95.414 -25.894  1.00  0.00    -0.353 N 
ATOM      3  H   UNL     1     -26.355  94.964 -24.974  1.00  0.00     0.344 HD
ATOM      4  H   UNL     1     -27.600  95.572 -25.962  1.00  0.00     0.344 HD
ATOM      5  H   UNL     1     -26.080  96.336 -25.959  1.00  0.00     0.344 HD
ENDBRANCH   1   2
BRANCH   1   6
ATOM      6  C   UNL     1     -25.612  95.353 -28.131  1.00  0.00     0.096 C 
ATOM      7  O   UNL     1     -25.689  94.915 -29.308  1.00  0.00    -0.544 OA
ATOM      8  O   UNL     1     -25.075  96.613 -27.898  1.00  0.00    -0.544 OA
ENDBRANCH   1   6
TORSDOF 2
ENDMDL
MODEL 6
REMARK VINA RESULT:    -2.471     18.768     19.181
REMARK INTER + INTRA:          -2.688
REMARK INTER:                  -2.688
REMARK INTRA:                   0.000
REMARK UNBOUND:                 0.000
REMARK SMILES [NH3+]CC(=O)[O-]
REMARK SMILES IDX 2 1 1 2 3 6 4 7 5 8
REMARK H PARENT 1 3 1 4 1 5
REMARK Flexibility Score: inf
ROOT
ATOM      1  C   UNL     1     -33.488  95.216 -28.561  1.00  0.00     0.312 C 
ENDROOT
BRANCH   1   2
ATOM      2  N   UNL     1     -32.542  96.304 -28.319  1.00  0.00    -0.353 N 
ATOM      3  H   UNL     1     -31.683  95.934 -27.851  1.00  0.00     0.344 HD
ATOM      4  H   UNL     1     -32.990  97.014 -27.695  1.00  0.00     0.344 HD
ATOM      5  H   UNL     1     -32.283  96.762 -29.223  1.00  0.00     0.344 HD
ENDBRANCH   1   2
BRANCH   1   6
ATOM      6  C   UNL     1     -34.132  95.365 -29.905  1.00  0.00     0.096 C 
ATOM      7  O   UNL     1     -35.099  96.156 -30.059  1.00  0.00    -0.544 OA
ATOM      8  O   UNL     1     -33.631  94.669 -30.997  1.00  0.00    -0.544 OA
ENDBRANCH   1   6
TORSDOF 2
ENDMDL
MODEL 7
REMARK VINA RESULT:    -2.434     11.969     12.241
REMARK INTER + INTRA:          -2.647
REMARK INTER:                  -2.647
REMARK INTRA:                   0.000
REMARK UNBOUND:                 0.000
REMARK SMILES [NH3+]CC(=O)[O-]
REMARK SMILES IDX 2 1 1 2 3 6 4 7 5 8
REMARK H PARENT 1 3 1 4 1 5
REMARK Flexibility Score: inf
ROOT
ATOM      1  C   UNL     1     -34.851  85.183 -18.171  1.00  0.00     0.312 C 
ENDROOT
BRANCH   1   2
ATOM      2  N   UNL     1     -33.517  85.441 -17.630  1.00  0.00    -0.353 N 
ATOM      3  H   UNL     1     -33.474  85.151 -16.626  1.00  0.00     0.344 HD
ATOM      4  H   UNL     1     -33.313  86.465 -17.697  1.00  0.00     0.344 HD
ATOM      5  H   UNL     1     -32.799  84.917 -18.181  1.00  0.00     0.344 HD
ENDBRANCH   1   2
BRANCH   1   6
ATOM      6  C   UNL     1     -34.773  84.269 -19.354  1.00  0.00     0.096 C 
ATOM      7  O   UNL     1     -35.234  84.632 -20.467  1.00  0.00    -0.544 OA
ATOM      8  O   UNL     1     -34.145  83.035 -19.239  1.00  0.00    -0.544 OA
ENDBRANCH   1   6
TORSDOF 2
ENDMDL
MODEL 8
REMARK VINA RESULT:    -2.421      2.227      2.392
REMARK INTER + INTRA:          -2.633
REMARK INTER:                  -2.633
REMARK INTRA:                   0.000
REMARK UNBOUND:                 0.000
REMARK SMILES [NH3+]CC(=O)[O-]
REMARK SMILES IDX 2 1 1 2 3 6 4 7 5 8
REMARK H PARENT 1 3 1 4 1 5
REMARK Flexibility Score: inf
ROOT
ATOM      1  C   UNL     1     -23.577  82.458 -20.222  1.00  0.00     0.312 C 
ENDROOT
BRANCH   1   2
ATOM      2  N   UNL     1     -24.394  82.498 -21.434  1.00  0.00    -0.353 N 
ATOM      3  H   UNL     1     -25.396  82.314 -21.197  1.00  0.00     0.344 HD
ATOM      4  H   UNL     1     -24.060  81.762 -22.096  1.00  0.00     0.344 HD
ATOM      5  H   UNL     1     -24.306  83.433 -21.895  1.00  0.00     0.344 HD
ENDBRANCH   1   2
BRANCH   1   6
ATOM      6  C   UNL     1     -22.515  83.513 -20.265  1.00  0.00     0.096 C 
ATOM      7  O   UNL     1     -21.567  83.492 -19.438  1.00  0.00    -0.544 OA
ATOM      8  O   UNL     1     -22.546  84.490 -21.252  1.00  0.00    -0.544 OA
ENDBRANCH   1   6
TORSDOF 2
ENDMDL
MODEL 9
REMARK VINA RESULT:    -2.384      2.317      2.544
REMARK INTER + INTRA:          -2.593
REMARK INTER:                  -2.593
REMARK INTRA:                   0.000
REMARK UNBOUND:                 0.000
REMARK SMILES [NH3+]CC(=O)[O-]
REMARK SMILES IDX 2 1 1 2 3 6 4 7 5 8
REMARK H PARENT 1 3 1 4 1 5
REMARK Flexibility Score: inf
ROOT
ATOM      1  C   UNL     1     -22.033  84.541 -21.848  1.00  0.00     0.312 C 
ENDROOT
BRANCH   1   2
ATOM      2  N   UNL     1     -20.769  84.058 -22.404  1.00  0.00    -0.353 N 
ATOM      3  H   UNL     1     -20.291  83.431 -21.717  1.00  0.00     0.344 HD
ATOM      4  H   UNL     1     -20.149  84.876 -22.605  1.00  0.00     0.344 HD
ATOM      5  H   UNL     1     -20.944  83.539 -23.295  1.00  0.00     0.344 HD
ENDBRANCH   1   2
BRANCH   1   6
ATOM      6  C   UNL     1     -22.352  83.832 -20.568  1.00  0.00     0.096 C 
ATOM      7  O   UNL     1     -21.755  84.145 -19.505  1.00  0.00    -0.544 OA
ATOM      8  O   UNL     1     -23.344  82.860 -20.540  1.00  0.00    -0.544 OA
ENDBRANCH   1   6
TORSDOF 2
ENDMDL
