MODEL 1
REMARK VINA RESULT:    -4.550      0.000      0.000
REMARK INTER + INTRA:          -5.018
REMARK INTER:                  -4.949
REMARK INTRA:                  -0.069
REMARK UNBOUND:                -0.069
REMARK SMILES C[C@H]1[C@@H](C)CC[C@@]2(C(=O)[O-])CC[C@@]3(C)C(=CC[C@H]4[C@]5(C)CC[C@H](O)C(C)(C)[C@@H]5CC[C@@]43C)[C@@H]12
REMARK SMILES IDX 7 1 6 2 11 3 33 4 5 5 12 6 15 7 2 8 3 9 13 10 16 11 1 12
REMARK SMILES IDX 4 13 14 14 31 15 17 16 18 17 30 18 32 19 19 20 29 21 28 22
REMARK SMILES IDX 21 23 20 24 25 25 22 26 23 27 26 28 27 29 8 30 9 31 10 32
REMARK SMILES IDX 24 33
REMARK H PARENT 24 34
REMARK Flexibility Score: inf
ROOT
ATOM      1  C   UNL     1      -5.123  -5.625  -5.553  1.00  0.00     0.017 C 
ATOM      2  C   UNL     1      -5.780  -6.791  -4.746  1.00  0.00     0.014 C 
ATOM      3  C   UNL     1      -4.104  -4.880  -4.624  1.00  0.00     0.014 C 
ATOM      4  C   UNL     1      -4.453  -6.223  -6.858  1.00  0.00     0.030 C 
ATOM      5  C   UNL     1      -6.812  -7.597  -5.555  1.00  0.00     0.004 C 
ATOM      6  C   UNL     1      -2.694  -4.760  -5.210  1.00  0.00     0.013 C 
ATOM      7  C   UNL     1      -3.075  -6.873  -6.563  1.00  0.00    -0.063 C 
ATOM      8  C   UNL     1      -5.532  -7.040  -7.666  1.00  0.00    -0.003 C 
ATOM      9  C   UNL     1      -6.221  -8.175  -6.855  1.00  0.00    -0.011 C 
ATOM     10  C   UNL     1      -2.086  -6.130  -5.649  1.00  0.00    -0.006 C 
ATOM     11  C   UNL     1      -2.585  -7.901  -7.302  1.00  0.00    -0.027 C 
ATOM     12  C   UNL     1      -5.173  -7.404  -9.125  1.00  0.00     0.008 C 
ATOM     13  C   UNL     1      -5.349  -9.407  -6.557  1.00  0.00     0.008 C 
ATOM     14  C   UNL     1      -1.896  -7.001  -4.360  1.00  0.00     0.017 C 
ATOM     15  C   UNL     1      -0.710  -5.923  -6.460  1.00  0.00    -0.020 C 
ATOM     16  C   UNL     1      -1.161  -8.402  -7.228  1.00  0.00     0.032 C 
ATOM     17  C   UNL     1      -0.108  -7.337  -6.778  1.00  0.00     0.006 C 
ATOM     18  C   UNL     1       0.350  -5.106  -5.630  1.00  0.00     0.008 C 
ATOM     19  C   UNL     1      -0.987  -5.147  -7.794  1.00  0.00     0.012 C 
ATOM     20  C   UNL     1       1.274  -7.346  -7.577  1.00  0.00    -0.025 C 
ATOM     21  C   UNL     1       1.802  -5.646  -5.689  1.00  0.00     0.005 C 
ATOM     22  C   UNL     1       2.195  -6.119  -7.116  1.00  0.00     0.003 C 
ATOM     23  C   UNL     1       1.952  -8.720  -7.233  1.00  0.00     0.010 C 
ATOM     24  C   UNL     1       1.021  -7.271  -9.125  1.00  0.00     0.012 C 
ATOM     25  C   UNL     1       3.761  -6.310  -7.354  1.00  0.00    -0.006 C 
ATOM     26  C   UNL     1       3.425  -8.828  -7.613  1.00  0.00     0.033 C 
ATOM     27  C   UNL     1       4.246  -7.729  -6.939  1.00  0.00     0.120 C 
ATOM     28  C   UNL     1       4.605  -5.257  -6.580  1.00  0.00     0.014 C 
ATOM     29  C   UNL     1       4.109  -6.068  -8.852  1.00  0.00     0.014 C 
ENDROOT
BRANCH   1  30
ATOM     30  C   UNL     1      -6.188  -4.593  -5.933  1.00  0.00     0.048 C 
ATOM     31  O   UNL     1      -7.138  -4.329  -5.148  1.00  0.00    -0.550 OA
ATOM     32  O   UNL     1      -6.054  -3.838  -7.094  1.00  0.00    -0.550 OA
ENDBRANCH   1  30
BRANCH  27  33
ATOM     33  O   UNL     1       4.168  -7.897  -5.543  1.00  0.00    -0.393 OA
ATOM     34  H   UNL     1       5.094  -7.872  -5.185  1.00  0.00     0.210 HD
ENDBRANCH  27  33
TORSDOF 2
ENDMDL
MODEL 2
REMARK VINA RESULT:    -4.147     11.880     15.484
REMARK INTER + INTRA:          -4.579
REMARK INTER:                  -4.564
REMARK INTRA:                  -0.015
REMARK UNBOUND:                -0.069
REMARK SMILES C[C@H]1[C@@H](C)CC[C@@]2(C(=O)[O-])CC[C@@]3(C)C(=CC[C@H]4[C@]5(C)CC[C@H](O)C(C)(C)[C@@H]5CC[C@@]43C)[C@@H]12
REMARK SMILES IDX 7 1 6 2 11 3 33 4 5 5 12 6 15 7 2 8 3 9 13 10 16 11 1 12
REMARK SMILES IDX 4 13 14 14 31 15 17 16 18 17 30 18 32 19 19 20 29 21 28 22
REMARK SMILES IDX 21 23 20 24 25 25 22 26 23 27 26 28 27 29 8 30 9 31 10 32
REMARK SMILES IDX 24 33
REMARK H PARENT 24 34
REMARK Flexibility Score: inf
ROOT
ATOM      1  C   UNL     1      -4.463  -8.527   5.336  1.00  0.00     0.017 C 
ATOM      2  C   UNL     1      -4.574  -8.877   3.818  1.00  0.00     0.014 C 
ATOM      3  C   UNL     1      -3.558  -7.256   5.496  1.00  0.00     0.014 C 
ATOM      4  C   UNL     1      -5.923  -8.328   5.920  1.00  0.00     0.030 C 
ATOM      5  C   UNL     1      -5.437 -10.120   3.532  1.00  0.00     0.004 C 
ATOM      6  C   UNL     1      -4.207  -6.121   6.293  1.00  0.00     0.013 C 
ATOM      7  C   UNL     1      -6.504  -6.930   5.579  1.00  0.00    -0.063 C 
ATOM      8  C   UNL     1      -6.781  -9.614   5.616  1.00  0.00    -0.003 C 
ATOM      9  C   UNL     1      -6.860  -9.994   4.110  1.00  0.00    -0.011 C 
ATOM     10  C   UNL     1      -5.604  -5.694   5.740  1.00  0.00    -0.006 C 
ATOM     11  C   UNL     1      -7.838  -6.713   5.442  1.00  0.00    -0.027 C 
ATOM     12  C   UNL     1      -8.108  -9.759   6.397  1.00  0.00     0.008 C 
ATOM     13  C   UNL     1      -7.726  -9.072   3.233  1.00  0.00     0.008 C 
ATOM     14  C   UNL     1      -5.384  -5.086   4.313  1.00  0.00     0.017 C 
ATOM     15  C   UNL     1      -6.336  -4.665   6.741  1.00  0.00    -0.020 C 
ATOM     16  C   UNL     1      -8.476  -5.345   5.364  1.00  0.00     0.032 C 
ATOM     17  C   UNL     1      -7.680  -4.202   6.076  1.00  0.00     0.006 C 
ATOM     18  C   UNL     1      -5.457  -3.389   7.027  1.00  0.00     0.008 C 
ATOM     19  C   UNL     1      -6.631  -5.370   8.111  1.00  0.00     0.012 C 
ATOM     20  C   UNL     1      -8.555  -3.164   6.915  1.00  0.00    -0.025 C 
ATOM     21  C   UNL     1      -6.219  -2.040   7.014  1.00  0.00     0.005 C 
ATOM     22  C   UNL     1      -7.607  -2.143   7.705  1.00  0.00     0.003 C 
ATOM     23  C   UNL     1      -9.442  -2.410   5.860  1.00  0.00     0.010 C 
ATOM     24  C   UNL     1      -9.489  -3.917   7.928  1.00  0.00     0.012 C 
ATOM     25  C   UNL     1      -8.274  -0.745   8.087  1.00  0.00    -0.006 C 
ATOM     26  C   UNL     1     -10.125  -1.148   6.374  1.00  0.00     0.033 C 
ATOM     27  C   UNL     1      -9.098  -0.149   6.909  1.00  0.00     0.120 C 
ATOM     28  C   UNL     1      -7.218   0.308   8.528  1.00  0.00     0.014 C 
ATOM     29  C   UNL     1      -9.202  -0.915   9.326  1.00  0.00     0.014 C 
ENDROOT
BRANCH   1  30
ATOM     30  C   UNL     1      -3.748  -9.657   6.079  1.00  0.00     0.048 C 
ATOM     31  O   UNL     1      -2.659 -10.123   5.648  1.00  0.00    -0.550 OA
ATOM     32  O   UNL     1      -4.221 -10.101   7.310  1.00  0.00    -0.550 OA
ENDBRANCH   1  30
BRANCH  27  33
ATOM     33  O   UNL     1      -8.253   0.241   5.853  1.00  0.00    -0.393 OA
ATOM     34  H   UNL     1      -7.901  -0.584   5.429  1.00  0.00     0.210 HD
ENDBRANCH  27  33
TORSDOF 2
ENDMDL
MODEL 3
REMARK VINA RESULT:    -3.150      3.488      6.347
REMARK INTER + INTRA:          -3.495
REMARK INTER:                  -3.427
REMARK INTRA:                  -0.068
REMARK UNBOUND:                -0.069
REMARK SMILES C[C@H]1[C@@H](C)CC[C@@]2(C(=O)[O-])CC[C@@]3(C)C(=CC[C@H]4[C@]5(C)CC[C@H](O)C(C)(C)[C@@H]5CC[C@@]43C)[C@@H]12
REMARK SMILES IDX 7 1 6 2 11 3 33 4 5 5 12 6 15 7 2 8 3 9 13 10 16 11 1 12
REMARK SMILES IDX 4 13 14 14 31 15 17 16 18 17 30 18 32 19 19 20 29 21 28 22
REMARK SMILES IDX 21 23 20 24 25 25 22 26 23 27 26 28 27 29 8 30 9 31 10 32
REMARK SMILES IDX 24 33
REMARK H PARENT 24 34
REMARK Flexibility Score: inf
ROOT
ATOM      1  C   UNL     1       0.154  -7.978  -8.217  1.00  0.00     0.017 C 
ATOM      2  C   UNL     1      -0.493  -6.883  -9.124  1.00  0.00     0.014 C 
ATOM      3  C   UNL     1       1.321  -8.664  -9.009  1.00  0.00     0.014 C 
ATOM      4  C   UNL     1       0.632  -7.303  -6.866  1.00  0.00     0.030 C 
ATOM      5  C   UNL     1      -1.663  -6.140  -8.455  1.00  0.00     0.004 C 
ATOM      6  C   UNL     1       2.663  -8.664  -8.272  1.00  0.00     0.013 C 
ATOM      7  C   UNL     1       1.984  -6.558  -7.031  1.00  0.00    -0.063 C 
ATOM      8  C   UNL     1      -0.585  -6.553  -6.203  1.00  0.00    -0.003 C 
ATOM      9  C   UNL     1      -1.262  -5.491  -7.116  1.00  0.00    -0.011 C 
ATOM     10  C   UNL     1       3.118  -7.243  -7.810  1.00  0.00    -0.006 C 
ATOM     11  C   UNL     1       2.314  -5.480  -6.273  1.00  0.00    -0.027 C 
ATOM     12  C   UNL     1      -0.414  -6.131  -4.725  1.00  0.00     0.008 C 
ATOM     13  C   UNL     1      -0.454  -4.203  -7.355  1.00  0.00     0.008 C 
ATOM     14  C   UNL     1       3.385  -6.388  -9.097  1.00  0.00     0.017 C 
ATOM     15  C   UNL     1       4.409  -7.328  -6.850  1.00  0.00    -0.020 C 
ATOM     16  C   UNL     1       3.698  -4.874  -6.209  1.00  0.00     0.032 C 
ATOM     17  C   UNL     1       4.868  -5.867  -6.511  1.00  0.00     0.006 C 
ATOM     18  C   UNL     1       5.610  -8.081  -7.537  1.00  0.00     0.008 C 
ATOM     19  C   UNL     1       4.045  -8.095  -5.531  1.00  0.00     0.012 C 
ATOM     20  C   UNL     1       6.150  -5.736  -5.569  1.00  0.00    -0.025 C 
ATOM     21  C   UNL     1       7.003  -7.431  -7.338  1.00  0.00     0.005 C 
ATOM     22  C   UNL     1       7.203  -6.900  -5.892  1.00  0.00     0.003 C 
ATOM     23  C   UNL     1       6.760  -4.323  -5.879  1.00  0.00     0.010 C 
ATOM     24  C   UNL     1       5.736  -5.797  -4.056  1.00  0.00     0.012 C 
ATOM     25  C   UNL     1       8.715  -6.587  -5.493  1.00  0.00    -0.006 C 
ATOM     26  C   UNL     1       8.170  -4.096  -5.345  1.00  0.00     0.033 C 
ATOM     27  C   UNL     1       9.138  -5.143  -5.895  1.00  0.00     0.120 C 
ATOM     28  C   UNL     1       9.713  -7.588  -6.140  1.00  0.00     0.014 C 
ATOM     29  C   UNL     1       8.914  -6.769  -3.960  1.00  0.00     0.014 C 
ENDROOT
BRANCH   1  30
ATOM     30  C   UNL     1      -0.868  -9.079  -7.923  1.00  0.00     0.048 C 
ATOM     31  O   UNL     1      -1.722  -9.412  -8.788  1.00  0.00    -0.550 OA
ATOM     32  O   UNL     1      -0.789  -9.816  -6.746  1.00  0.00    -0.550 OA
ENDBRANCH   1  30
BRANCH  27  33
ATOM     33  O   UNL     1       9.202  -5.012  -7.296  1.00  0.00    -0.393 OA
ATOM     34  H   UNL     1       9.923  -5.610  -7.621  1.00  0.00     0.210 HD
ENDBRANCH  27  33
TORSDOF 2
ENDMDL
MODEL 4
REMARK VINA RESULT:    -2.656      3.089      9.829
REMARK INTER + INTRA:          -2.958
REMARK INTER:                  -3.041
REMARK INTRA:                   0.083
REMARK UNBOUND:                -0.069
REMARK SMILES C[C@H]1[C@@H](C)CC[C@@]2(C(=O)[O-])CC[C@@]3(C)C(=CC[C@H]4[C@]5(C)CC[C@H](O)C(C)(C)[C@@H]5CC[C@@]43C)[C@@H]12
REMARK SMILES IDX 7 1 6 2 11 3 33 4 5 5 12 6 15 7 2 8 3 9 13 10 16 11 1 12
REMARK SMILES IDX 4 13 14 14 31 15 17 16 18 17 30 18 32 19 19 20 29 21 28 22
REMARK SMILES IDX 21 23 20 24 25 25 22 26 23 27 26 28 27 29 8 30 9 31 10 32
REMARK SMILES IDX 24 33
REMARK H PARENT 24 34
REMARK Flexibility Score: inf
ROOT
ATOM      1  C   UNL     1       7.766  -8.065  -7.221  1.00  0.00     0.017 C 
ATOM      2  C   UNL     1       8.367  -8.212  -5.787  1.00  0.00     0.014 C 
ATOM      3  C   UNL     1       6.901  -9.334  -7.538  1.00  0.00     0.014 C 
ATOM      4  C   UNL     1       6.938  -6.716  -7.291  1.00  0.00     0.030 C 
ATOM      5  C   UNL     1       9.248  -7.023  -5.362  1.00  0.00     0.004 C 
ATOM      6  C   UNL     1       5.467  -9.022  -7.977  1.00  0.00     0.013 C 
ATOM      7  C   UNL     1       5.531  -6.859  -6.652  1.00  0.00    -0.063 C 
ATOM      8  C   UNL     1       7.864  -5.518  -6.854  1.00  0.00    -0.003 C 
ATOM      9  C   UNL     1       8.501  -5.677  -5.444  1.00  0.00    -0.011 C 
ATOM     10  C   UNL     1       4.696  -8.109  -6.972  1.00  0.00    -0.006 C 
ATOM     11  C   UNL     1       4.885  -5.810  -6.079  1.00  0.00    -0.027 C 
ATOM     12  C   UNL     1       7.355  -4.095  -7.185  1.00  0.00     0.008 C 
ATOM     13  C   UNL     1       7.539  -5.514  -4.254  1.00  0.00     0.008 C 
ATOM     14  C   UNL     1       4.524  -8.911  -5.636  1.00  0.00     0.017 C 
ATOM     15  C   UNL     1       3.286  -7.629  -7.586  1.00  0.00    -0.020 C 
ATOM     16  C   UNL     1       3.429  -5.824  -5.672  1.00  0.00     0.032 C 
ATOM     17  C   UNL     1       2.525  -6.806  -6.488  1.00  0.00     0.006 C 
ATOM     18  C   UNL     1       2.380  -8.845  -8.013  1.00  0.00     0.008 C 
ATOM     19  C   UNL     1       3.530  -6.736  -8.852  1.00  0.00     0.012 C 
ATOM     20  C   UNL     1       1.089  -6.244  -6.903  1.00  0.00    -0.025 C 
ATOM     21  C   UNL     1       0.882  -8.726  -7.631  1.00  0.00     0.005 C 
ATOM     22  C   UNL     1       0.333  -7.290  -7.852  1.00  0.00     0.003 C 
ATOM     23  C   UNL     1       0.310  -6.040  -5.555  1.00  0.00     0.010 C 
ATOM     24  C   UNL     1       1.224  -4.862  -7.635  1.00  0.00     0.012 C 
ATOM     25  C   UNL     1      -1.259  -7.174  -7.868  1.00  0.00    -0.006 C 
ATOM     26  C   UNL     1      -1.192  -5.821  -5.703  1.00  0.00     0.033 C 
ATOM     27  C   UNL     1      -1.846  -6.991  -6.438  1.00  0.00     0.120 C 
ATOM     28  C   UNL     1      -1.931  -8.416  -8.519  1.00  0.00     0.014 C 
ATOM     29  C   UNL     1      -1.699  -5.976  -8.759  1.00  0.00     0.014 C 
ENDROOT
BRANCH   1  30
ATOM     30  C   UNL     1       8.892  -8.046  -8.258  1.00  0.00     0.048 C 
ATOM     31  O   UNL     1       8.953  -7.134  -9.125  1.00  0.00    -0.550 OA
ATOM     32  O   UNL     1       9.937  -8.962  -8.178  1.00  0.00    -0.550 OA
ENDBRANCH   1  30
BRANCH  27  33
ATOM     33  O   UNL     1      -1.673  -8.160  -5.673  1.00  0.00    -0.393 OA
ATOM     34  H   UNL     1      -2.255  -8.863  -6.064  1.00  0.00     0.210 HD
ENDBRANCH  27  33
TORSDOF 2
ENDMDL
MODEL 5
REMARK VINA RESULT:    -2.396     12.169     15.052
REMARK INTER + INTRA:          -2.675
REMARK INTER:                  -3.084
REMARK INTRA:                   0.410
REMARK UNBOUND:                -0.069
REMARK SMILES C[C@H]1[C@@H](C)CC[C@@]2(C(=O)[O-])CC[C@@]3(C)C(=CC[C@H]4[C@]5(C)CC[C@H](O)C(C)(C)[C@@H]5CC[C@@]43C)[C@@H]12
REMARK SMILES IDX 7 1 6 2 11 3 33 4 5 5 12 6 15 7 2 8 3 9 13 10 16 11 1 12
REMARK SMILES IDX 4 13 14 14 31 15 17 16 18 17 30 18 32 19 19 20 29 21 28 22
REMARK SMILES IDX 21 23 20 24 25 25 22 26 23 27 26 28 27 29 8 30 9 31 10 32
REMARK SMILES IDX 24 33
REMARK H PARENT 24 34
REMARK Flexibility Score: inf
ROOT
ATOM      1  C   UNL     1      -8.271  -1.111   7.172  1.00  0.00     0.017 C 
ATOM      2  C   UNL     1      -7.492  -0.357   8.297  1.00  0.00     0.014 C 
ATOM      3  C   UNL     1      -7.401  -1.107   5.867  1.00  0.00     0.014 C 
ATOM      4  C   UNL     1      -8.620  -2.569   7.683  1.00  0.00     0.030 C 
ATOM      5  C   UNL     1      -8.253  -0.287   9.634  1.00  0.00     0.004 C 
ATOM      6  C   UNL     1      -7.165  -2.497   5.268  1.00  0.00     0.013 C 
ATOM      7  C   UNL     1      -7.409  -3.534   7.571  1.00  0.00    -0.063 C 
ATOM      8  C   UNL     1      -9.399  -2.466   9.049  1.00  0.00    -0.003 C 
ATOM      9  C   UNL     1      -8.648  -1.680  10.161  1.00  0.00    -0.011 C 
ATOM     10  C   UNL     1      -6.565  -3.518   6.286  1.00  0.00    -0.006 C 
ATOM     11  C   UNL     1      -7.243  -4.589   8.410  1.00  0.00    -0.027 C 
ATOM     12  C   UNL     1     -10.125  -3.745   9.528  1.00  0.00     0.008 C 
ATOM     13  C   UNL     1      -7.433  -2.395  10.779  1.00  0.00     0.008 C 
ATOM     14  C   UNL     1      -5.132  -3.017   6.674  1.00  0.00     0.017 C 
ATOM     15  C   UNL     1      -6.551  -5.009   5.675  1.00  0.00    -0.020 C 
ATOM     16  C   UNL     1      -6.237  -5.697   8.198  1.00  0.00     0.032 C 
ATOM     17  C   UNL     1      -5.845  -5.957   6.706  1.00  0.00     0.006 C 
ATOM     18  C   UNL     1      -5.765  -5.083   4.312  1.00  0.00     0.008 C 
ATOM     19  C   UNL     1      -8.020  -5.495   5.417  1.00  0.00     0.012 C 
ATOM     20  C   UNL     1      -5.723  -7.490   6.278  1.00  0.00    -0.025 C 
ATOM     21  C   UNL     1      -4.826  -6.306   4.151  1.00  0.00     0.005 C 
ATOM     22  C   UNL     1      -5.462  -7.611   4.702  1.00  0.00     0.003 C 
ATOM     23  C   UNL     1      -4.510  -8.062   7.095  1.00  0.00     0.010 C 
ATOM     24  C   UNL     1      -7.023  -8.281   6.666  1.00  0.00     0.012 C 
ATOM     25  C   UNL     1      -4.752  -8.959   4.226  1.00  0.00    -0.006 C 
ATOM     26  C   UNL     1      -3.990  -9.414   6.621  1.00  0.00     0.033 C 
ATOM     27  C   UNL     1      -3.565  -9.352   5.153  1.00  0.00     0.120 C 
ATOM     28  C   UNL     1      -4.224  -8.860   2.767  1.00  0.00     0.014 C 
ATOM     29  C   UNL     1      -5.784 -10.125   4.193  1.00  0.00     0.014 C 
ENDROOT
BRANCH   1  30
ATOM     30  C   UNL     1      -9.555  -0.350   6.831  1.00  0.00     0.048 C 
ATOM     31  O   UNL     1     -10.054   0.469   7.649  1.00  0.00    -0.550 OA
ATOM     32  O   UNL     1     -10.120  -0.456   5.564  1.00  0.00    -0.550 OA
ENDBRANCH   1  30
BRANCH  27  33
ATOM     33  O   UNL     1      -2.505  -8.435   5.025  1.00  0.00    -0.393 OA
ATOM     34  H   UNL     1      -2.243  -8.411   4.068  1.00  0.00     0.210 HD
ENDBRANCH  27  33
TORSDOF 2
ENDMDL
MODEL 6
REMARK VINA RESULT:    -2.371     12.500     15.046
REMARK INTER + INTRA:          -2.647
REMARK INTER:                  -2.709
REMARK INTRA:                   0.062
REMARK UNBOUND:                -0.069
REMARK SMILES C[C@H]1[C@@H](C)CC[C@@]2(C(=O)[O-])CC[C@@]3(C)C(=CC[C@H]4[C@]5(C)CC[C@H](O)C(C)(C)[C@@H]5CC[C@@]43C)[C@@H]12
REMARK SMILES IDX 7 1 6 2 11 3 33 4 5 5 12 6 15 7 2 8 3 9 13 10 16 11 1 12
REMARK SMILES IDX 4 13 14 14 31 15 17 16 18 17 30 18 32 19 19 20 29 21 28 22
REMARK SMILES IDX 21 23 20 24 25 25 22 26 23 27 26 28 27 29 8 30 9 31 10 32
REMARK SMILES IDX 24 33
REMARK H PARENT 24 34
REMARK Flexibility Score: inf
ROOT
ATOM      1  C   UNL     1      -7.199  -1.723   8.902  1.00  0.00     0.017 C 
ATOM      2  C   UNL     1      -7.890  -2.047  10.265  1.00  0.00     0.014 C 
ATOM      3  C   UNL     1      -5.650  -1.899   9.067  1.00  0.00     0.014 C 
ATOM      4  C   UNL     1      -7.814  -2.662   7.783  1.00  0.00     0.030 C 
ATOM      5  C   UNL     1      -9.422  -1.902  10.229  1.00  0.00     0.004 C 
ATOM      6  C   UNL     1      -5.011  -2.838   8.040  1.00  0.00     0.013 C 
ATOM      7  C   UNL     1      -7.208  -4.090   7.818  1.00  0.00    -0.063 C 
ATOM      8  C   UNL     1      -9.381  -2.490   7.768  1.00  0.00    -0.003 C 
ATOM      9  C   UNL     1     -10.072  -2.769   9.134  1.00  0.00    -0.011 C 
ATOM     10  C   UNL     1      -5.687  -4.245   7.982  1.00  0.00    -0.006 C 
ATOM     11  C   UNL     1      -7.903  -5.183   7.411  1.00  0.00    -0.027 C 
ATOM     12  C   UNL     1     -10.125  -3.048   6.533  1.00  0.00     0.008 C 
ATOM     13  C   UNL     1     -10.125  -4.245   9.566  1.00  0.00     0.008 C 
ATOM     14  C   UNL     1      -5.434  -4.950   9.359  1.00  0.00     0.017 C 
ATOM     15  C   UNL     1      -5.132  -5.107   6.739  1.00  0.00    -0.020 C 
ATOM     16  C   UNL     1      -7.292  -6.547   7.184  1.00  0.00     0.032 C 
ATOM     17  C   UNL     1      -5.775  -6.536   6.804  1.00  0.00     0.006 C 
ATOM     18  C   UNL     1      -3.565  -5.263   6.779  1.00  0.00     0.008 C 
ATOM     19  C   UNL     1      -5.517  -4.407   5.390  1.00  0.00     0.012 C 
ATOM     20  C   UNL     1      -5.340  -7.553   5.653  1.00  0.00    -0.025 C 
ATOM     21  C   UNL     1      -3.029  -6.678   6.443  1.00  0.00     0.005 C 
ATOM     22  C   UNL     1      -3.801  -7.335   5.266  1.00  0.00     0.003 C 
ATOM     23  C   UNL     1      -5.574  -8.988   6.246  1.00  0.00     0.010 C 
ATOM     24  C   UNL     1      -6.241  -7.369   4.380  1.00  0.00     0.012 C 
ATOM     25  C   UNL     1      -3.076  -8.592   4.603  1.00  0.00    -0.006 C 
ATOM     26  C   UNL     1      -4.930 -10.125   5.461  1.00  0.00     0.033 C 
ATOM     27  C   UNL     1      -3.420  -9.919   5.340  1.00  0.00     0.120 C 
ATOM     28  C   UNL     1      -1.529  -8.431   4.578  1.00  0.00     0.014 C 
ATOM     29  C   UNL     1      -3.483  -8.718   3.106  1.00  0.00     0.014 C 
ENDROOT
BRANCH   1  30
ATOM     30  C   UNL     1      -7.426  -0.253   8.540  1.00  0.00     0.048 C 
ATOM     31  O   UNL     1      -7.302   0.143   7.351  1.00  0.00    -0.550 OA
ATOM     32  O   UNL     1      -7.897   0.641   9.496  1.00  0.00    -0.550 OA
ENDBRANCH   1  30
BRANCH  27  33
ATOM     33  O   UNL     1      -2.855  -9.937   6.630  1.00  0.00    -0.393 OA
ATOM     34  H   UNL     1      -3.104  -9.088   7.078  1.00  0.00     0.210 HD
ENDBRANCH  27  33
TORSDOF 2
ENDMDL
MODEL 7
REMARK VINA RESULT:    -2.189      2.071      4.221
REMARK INTER + INTRA:          -2.449
REMARK INTER:                  -2.406
REMARK INTRA:                  -0.044
REMARK UNBOUND:                -0.069
REMARK SMILES C[C@H]1[C@@H](C)CC[C@@]2(C(=O)[O-])CC[C@@]3(C)C(=CC[C@H]4[C@]5(C)CC[C@H](O)C(C)(C)[C@@H]5CC[C@@]43C)[C@@H]12
REMARK SMILES IDX 7 1 6 2 11 3 33 4 5 5 12 6 15 7 2 8 3 9 13 10 16 11 1 12
REMARK SMILES IDX 4 13 14 14 31 15 17 16 18 17 30 18 32 19 19 20 29 21 28 22
REMARK SMILES IDX 21 23 20 24 25 25 22 26 23 27 26 28 27 29 8 30 9 31 10 32
REMARK SMILES IDX 24 33
REMARK H PARENT 24 34
REMARK Flexibility Score: inf
ROOT
ATOM      1  C   UNL     1      -6.990  -3.794  -7.764  1.00  0.00     0.017 C 
ATOM      2  C   UNL     1      -7.102  -2.275  -7.416  1.00  0.00     0.014 C 
ATOM      3  C   UNL     1      -6.220  -3.947  -9.121  1.00  0.00     0.014 C 
ATOM      4  C   UNL     1      -6.281  -4.541  -6.559  1.00  0.00     0.030 C 
ATOM      5  C   UNL     1      -7.850  -1.996  -6.100  1.00  0.00     0.004 C 
ATOM      6  C   UNL     1      -5.011  -4.885  -9.054  1.00  0.00     0.013 C 
ATOM      7  C   UNL     1      -4.740  -4.362  -6.586  1.00  0.00    -0.063 C 
ATOM      8  C   UNL     1      -7.069  -4.240  -5.228  1.00  0.00    -0.003 C 
ATOM      9  C   UNL     1      -7.221  -2.727  -4.898  1.00  0.00    -0.011 C 
ATOM     10  C   UNL     1      -3.999  -4.513  -7.925  1.00  0.00    -0.006 C 
ATOM     11  C   UNL     1      -3.988  -4.381  -5.455  1.00  0.00    -0.027 C 
ATOM     12  C   UNL     1      -6.747  -5.144  -4.016  1.00  0.00     0.008 C 
ATOM     13  C   UNL     1      -5.940  -2.013  -4.434  1.00  0.00     0.008 C 
ATOM     14  C   UNL     1      -3.383  -3.116  -8.279  1.00  0.00     0.017 C 
ATOM     15  C   UNL     1      -2.875  -5.655  -7.752  1.00  0.00    -0.020 C 
ATOM     16  C   UNL     1      -2.479  -4.466  -5.435  1.00  0.00     0.032 C 
ATOM     17  C   UNL     1      -1.840  -5.169  -6.677  1.00  0.00     0.006 C 
ATOM     18  C   UNL     1      -2.103  -5.935  -9.096  1.00  0.00     0.008 C 
ATOM     19  C   UNL     1      -3.542  -6.995  -7.285  1.00  0.00     0.012 C 
ATOM     20  C   UNL     1      -0.632  -6.165  -6.367  1.00  0.00    -0.025 C 
ATOM     21  C   UNL     1      -0.568  -6.097  -8.960  1.00  0.00     0.005 C 
ATOM     22  C   UNL     1      -0.173  -6.920  -7.703  1.00  0.00     0.003 C 
ATOM     23  C   UNL     1       0.524  -5.265  -5.802  1.00  0.00     0.010 C 
ATOM     24  C   UNL     1      -1.046  -7.216  -5.276  1.00  0.00     0.012 C 
ATOM     25  C   UNL     1       1.326  -7.468  -7.700  1.00  0.00    -0.006 C 
ATOM     26  C   UNL     1       1.892  -5.935  -5.737  1.00  0.00     0.033 C 
ATOM     27  C   UNL     1       2.326  -6.427  -7.118  1.00  0.00     0.120 C 
ATOM     28  C   UNL     1       1.807  -7.868  -9.124  1.00  0.00     0.014 C 
ATOM     29  C   UNL     1       1.415  -8.782  -6.871  1.00  0.00     0.014 C 
ENDROOT
BRANCH   1  30
ATOM     30  C   UNL     1      -8.386  -4.378  -7.997  1.00  0.00     0.048 C 
ATOM     31  O   UNL     1      -9.238  -3.752  -8.683  1.00  0.00    -0.550 OA
ATOM     32  O   UNL     1      -8.693  -5.663  -7.562  1.00  0.00    -0.550 OA
ENDBRANCH   1  30
BRANCH  27  33
ATOM     33  O   UNL     1       2.451  -5.318  -7.977  1.00  0.00    -0.393 OA
ATOM     34  H   UNL     1       3.342  -5.371  -8.409  1.00  0.00     0.210 HD
ENDBRANCH  27  33
TORSDOF 2
ENDMDL
MODEL 8
REMARK VINA RESULT:    -2.037      1.598      3.463
REMARK INTER + INTRA:          -2.285
REMARK INTER:                  -2.234
REMARK INTRA:                  -0.051
REMARK UNBOUND:                -0.069
REMARK SMILES C[C@H]1[C@@H](C)CC[C@@]2(C(=O)[O-])CC[C@@]3(C)C(=CC[C@H]4[C@]5(C)CC[C@H](O)C(C)(C)[C@@H]5CC[C@@]43C)[C@@H]12
REMARK SMILES IDX 7 1 6 2 11 3 33 4 5 5 12 6 15 7 2 8 3 9 13 10 16 11 1 12
REMARK SMILES IDX 4 13 14 14 31 15 17 16 18 17 30 18 32 19 19 20 29 21 28 22
REMARK SMILES IDX 21 23 20 24 25 25 22 26 23 27 26 28 27 29 8 30 9 31 10 32
REMARK SMILES IDX 24 33
REMARK H PARENT 24 34
REMARK Flexibility Score: inf
ROOT
ATOM      1  C   UNL     1      -5.542  -6.829  -7.100  1.00  0.00     0.017 C 
ATOM      2  C   UNL     1      -6.134  -6.121  -8.361  1.00  0.00     0.014 C 
ATOM      3  C   UNL     1      -4.900  -8.190  -7.541  1.00  0.00     0.014 C 
ATOM      4  C   UNL     1      -4.508  -5.850  -6.404  1.00  0.00     0.030 C 
ATOM      5  C   UNL     1      -6.803  -4.769  -8.052  1.00  0.00     0.004 C 
ATOM      6  C   UNL     1      -3.442  -8.366  -7.104  1.00  0.00     0.013 C 
ATOM      7  C   UNL     1      -3.132  -5.847  -7.121  1.00  0.00    -0.063 C 
ATOM      8  C   UNL     1      -5.221  -4.478  -6.099  1.00  0.00    -0.003 C 
ATOM      9  C   UNL     1      -5.850  -3.788  -7.343  1.00  0.00    -0.011 C 
ATOM     10  C   UNL     1      -2.516  -7.190  -7.548  1.00  0.00    -0.006 C 
ATOM     11  C   UNL     1      -2.315  -4.762  -7.117  1.00  0.00    -0.027 C 
ATOM     12  C   UNL     1      -4.494  -3.526  -5.120  1.00  0.00     0.008 C 
ATOM     13  C   UNL     1      -4.853  -3.176  -8.342  1.00  0.00     0.008 C 
ATOM     14  C   UNL     1      -2.453  -7.199  -9.114  1.00  0.00     0.017 C 
ATOM     15  C   UNL     1      -1.058  -7.311  -6.874  1.00  0.00    -0.020 C 
ATOM     16  C   UNL     1      -0.874  -4.778  -7.573  1.00  0.00     0.032 C 
ATOM     17  C   UNL     1      -0.154  -6.161  -7.442  1.00  0.00     0.006 C 
ATOM     18  C   UNL     1      -0.368  -8.691  -7.196  1.00  0.00     0.008 C 
ATOM     19  C   UNL     1      -1.177  -7.179  -5.316  1.00  0.00     0.012 C 
ATOM     20  C   UNL     1       1.346  -6.115  -6.897  1.00  0.00    -0.025 C 
ATOM     21  C   UNL     1       1.135  -8.613  -7.565  1.00  0.00     0.005 C 
ATOM     22  C   UNL     1       1.906  -7.599  -6.676  1.00  0.00     0.003 C 
ATOM     23  C   UNL     1       2.172  -5.359  -7.999  1.00  0.00     0.010 C 
ATOM     24  C   UNL     1       1.424  -5.309  -5.552  1.00  0.00     0.012 C 
ATOM     25  C   UNL     1       3.495  -7.744  -6.712  1.00  0.00    -0.006 C 
ATOM     26  C   UNL     1       3.686  -5.472  -7.863  1.00  0.00     0.033 C 
ATOM     27  C   UNL     1       4.129  -6.936  -7.882  1.00  0.00     0.120 C 
ATOM     28  C   UNL     1       3.946  -9.227  -6.840  1.00  0.00     0.014 C 
ATOM     29  C   UNL     1       4.108  -7.261  -5.365  1.00  0.00     0.014 C 
ENDROOT
BRANCH   1  30
ATOM     30  C   UNL     1      -6.669  -7.184  -6.127  1.00  0.00     0.048 C 
ATOM     31  O   UNL     1      -7.751  -7.674  -6.547  1.00  0.00    -0.550 OA
ATOM     32  O   UNL     1      -6.468  -7.090  -4.753  1.00  0.00    -0.550 OA
ENDBRANCH   1  30
BRANCH  27  33
ATOM     33  O   UNL     1       3.783  -7.499  -9.125  1.00  0.00    -0.393 OA
ATOM     34  H   UNL     1       2.932  -7.994  -9.004  1.00  0.00     0.210 HD
ENDBRANCH  27  33
TORSDOF 2
ENDMDL
MODEL 9
REMARK VINA RESULT:    -1.920      1.077      1.237
REMARK INTER + INTRA:          -2.157
REMARK INTER:                  -2.307
REMARK INTRA:                   0.150
REMARK UNBOUND:                -0.069
REMARK SMILES C[C@H]1[C@@H](C)CC[C@@]2(C(=O)[O-])CC[C@@]3(C)C(=CC[C@H]4[C@]5(C)CC[C@H](O)C(C)(C)[C@@H]5CC[C@@]43C)[C@@H]12
REMARK SMILES IDX 7 1 6 2 11 3 33 4 5 5 12 6 15 7 2 8 3 9 13 10 16 11 1 12
REMARK SMILES IDX 4 13 14 14 31 15 17 16 18 17 30 18 32 19 19 20 29 21 28 22
REMARK SMILES IDX 21 23 20 24 25 25 22 26 23 27 26 28 27 29 8 30 9 31 10 32
REMARK SMILES IDX 24 33
REMARK H PARENT 24 34
REMARK Flexibility Score: inf
ROOT
ATOM      1  C   UNL     1      -5.575  -4.451  -5.159  1.00  0.00     0.017 C 
ATOM      2  C   UNL     1      -6.364  -5.477  -4.284  1.00  0.00     0.014 C 
ATOM      3  C   UNL     1      -4.375  -3.890  -4.320  1.00  0.00     0.014 C 
ATOM      4  C   UNL     1      -5.117  -5.168  -6.495  1.00  0.00     0.030 C 
ATOM      5  C   UNL     1      -7.578  -6.096  -5.001  1.00  0.00     0.004 C 
ATOM      6  C   UNL     1      -3.013  -4.025  -5.006  1.00  0.00     0.013 C 
ATOM      7  C   UNL     1      -3.856  -6.048  -6.285  1.00  0.00    -0.063 C 
ATOM      8  C   UNL     1      -6.378  -5.789  -7.208  1.00  0.00    -0.003 C 
ATOM      9  C   UNL     1      -7.193  -6.779  -6.328  1.00  0.00    -0.011 C 
ATOM     10  C   UNL     1      -2.688  -5.483  -5.459  1.00  0.00    -0.006 C 
ATOM     11  C   UNL     1      -3.608  -7.152  -7.036  1.00  0.00    -0.027 C 
ATOM     12  C   UNL     1      -6.195  -6.222  -8.681  1.00  0.00     0.008 C 
ATOM     13  C   UNL     1      -6.530  -8.143  -6.067  1.00  0.00     0.008 C 
ATOM     14  C   UNL     1      -2.559  -6.364  -4.169  1.00  0.00     0.017 C 
ATOM     15  C   UNL     1      -1.360  -5.528  -6.369  1.00  0.00    -0.020 C 
ATOM     16  C   UNL     1      -2.292  -7.895  -7.052  1.00  0.00     0.032 C 
ATOM     17  C   UNL     1      -1.038  -7.028  -6.700  1.00  0.00     0.006 C 
ATOM     18  C   UNL     1      -0.115  -4.903  -5.633  1.00  0.00     0.008 C 
ATOM     19  C   UNL     1      -1.594  -4.725  -7.696  1.00  0.00     0.012 C 
ATOM     20  C   UNL     1       0.259  -7.286  -7.594  1.00  0.00    -0.025 C 
ATOM     21  C   UNL     1       1.212  -5.691  -5.783  1.00  0.00     0.005 C 
ATOM     22  C   UNL     1       1.411  -6.236  -7.224  1.00  0.00     0.003 C 
ATOM     23  C   UNL     1       0.709  -8.755  -7.270  1.00  0.00     0.010 C 
ATOM     24  C   UNL     1      -0.090  -7.179  -9.121  1.00  0.00     0.012 C 
ATOM     25  C   UNL     1       2.898  -6.701  -7.568  1.00  0.00    -0.006 C 
ATOM     26  C   UNL     1       2.108  -9.123  -7.752  1.00  0.00     0.033 C 
ATOM     27  C   UNL     1       3.156  -8.181  -7.159  1.00  0.00     0.120 C 
ATOM     28  C   UNL     1       3.967  -5.807  -6.878  1.00  0.00     0.014 C 
ATOM     29  C   UNL     1       3.172  -6.536  -9.092  1.00  0.00     0.014 C 
ENDROOT
BRANCH   1  30
ATOM     30  C   UNL     1      -6.468  -3.251  -5.484  1.00  0.00     0.048 C 
ATOM     31  O   UNL     1      -6.851  -2.469  -4.573  1.00  0.00    -0.550 OA
ATOM     32  O   UNL     1      -6.765  -2.933  -6.805  1.00  0.00    -0.550 OA
ENDBRANCH   1  30
BRANCH  27  33
ATOM     33  O   UNL     1       3.153  -8.321  -5.758  1.00  0.00    -0.393 OA
ATOM     34  H   UNL     1       3.622  -7.535  -5.377  1.00  0.00     0.210 HD
ENDBRANCH  27  33
TORSDOF 2
ENDMDL
