MODEL 1
REMARK VINA RESULT:    -5.993      0.000      0.000
REMARK INTER + INTRA:          -7.553
REMARK INTER:                  -7.219
REMARK INTRA:                  -0.334
REMARK UNBOUND:                -0.334
REMARK SMILES O=c1c(O)c(-c2ccc(O)c(O)c2)oc2cc(O)cc(O)c12
REMARK SMILES IDX 5 1 3 2 2 3 1 4 22 5 20 6 19 7 17 8 16 9 15 10 14 11 6 12
REMARK SMILES IDX 7 13 8 14 9 15 13 16 11 17 10 18 12 20 4 22 21 24 18 26
REMARK H PARENT 10 19 12 21 4 23 21 25 18 27
REMARK Flexibility Score: inf
ROOT
ATOM      1  C   UNL     1       4.200 -17.825   6.256  1.00  0.00     0.180 A 
ATOM      2  C   UNL     1       3.870 -17.412   4.954  1.00  0.00     0.208 A 
ATOM      3  C   UNL     1       3.692 -16.043   4.698  1.00  0.00     0.238 A 
ATOM      4  O   UNL     1       3.451 -15.675   3.518  1.00  0.00    -0.285 OA
ATOM      5  C   UNL     1       3.832 -15.105   5.749  1.00  0.00     0.111 A 
ATOM      6  C   UNL     1       3.634 -13.698   5.611  1.00  0.00     0.134 A 
ATOM      7  C   UNL     1       3.927 -12.851   6.688  1.00  0.00     0.093 A 
ATOM      8  C   UNL     1       4.345 -13.364   7.915  1.00  0.00     0.123 A 
ATOM      9  C   UNL     1       4.483 -14.744   8.079  1.00  0.00     0.094 A 
ATOM     10  C   UNL     1       4.234 -15.611   7.012  1.00  0.00     0.146 A 
ATOM     11  O   UNL     1       4.389 -16.915   7.206  1.00  0.00    -0.452 OA
ENDROOT
BRANCH   1  12
ATOM     12  C   UNL     1       4.379 -19.251   6.610  1.00  0.00     0.025 A 
ATOM     13  C   UNL     1       3.292 -20.047   7.011  1.00  0.00     0.016 A 
ATOM     14  C   UNL     1       3.487 -21.385   7.364  1.00  0.00     0.051 A 
ATOM     15  C   UNL     1       4.772 -21.943   7.335  1.00  0.00     0.157 A 
ATOM     16  C   UNL     1       5.667 -19.810   6.603  1.00  0.00     0.062 A 
ATOM     17  C   UNL     1       5.867 -21.150   6.955  1.00  0.00     0.158 A 
BRANCH  15  18
ATOM     18  O   UNL     1       4.964 -23.278   7.686  1.00  0.00    -0.504 OA
ATOM     19  H   UNL     1       4.937 -23.583   8.652  1.00  0.00     0.293 HD
ENDBRANCH  15  18
BRANCH  17  20
ATOM     20  O   UNL     1       7.160 -21.673   6.923  1.00  0.00    -0.504 OA
ATOM     21  H   UNL     1       7.402 -22.474   6.352  1.00  0.00     0.293 HD
ENDBRANCH  17  20
ENDBRANCH   1  12
BRANCH   2  22
ATOM     22  O   UNL     1       3.759 -18.353   3.926  1.00  0.00    -0.502 OA
ATOM     23  H   UNL     1       4.428 -19.104   3.803  1.00  0.00     0.293 HD
ENDBRANCH   2  22
BRANCH   6  24
ATOM     24  O   UNL     1       3.132 -13.090   4.458  1.00  0.00    -0.507 OA
ATOM     25  H   UNL     1       3.680 -12.536   3.815  1.00  0.00     0.293 HD
ENDBRANCH   6  24
BRANCH   8  26
ATOM     26  O   UNL     1       4.611 -12.494   8.969  1.00  0.00    -0.508 OA
ATOM     27  H   UNL     1       5.046 -12.817   9.826  1.00  0.00     0.293 HD
ENDBRANCH   8  26
TORSDOF 6
ENDMDL
MODEL 2
REMARK VINA RESULT:    -5.951      2.264      7.653
REMARK INTER + INTRA:          -7.502
REMARK INTER:                  -7.224
REMARK INTRA:                  -0.278
REMARK UNBOUND:                -0.334
REMARK SMILES O=c1c(O)c(-c2ccc(O)c(O)c2)oc2cc(O)cc(O)c12
REMARK SMILES IDX 5 1 3 2 2 3 1 4 22 5 20 6 19 7 17 8 16 9 15 10 14 11 6 12
REMARK SMILES IDX 7 13 8 14 9 15 13 16 11 17 10 18 12 20 4 22 21 24 18 26
REMARK H PARENT 10 19 12 21 4 23 21 25 18 27
REMARK Flexibility Score: inf
ROOT
ATOM      1  C   UNL     1       3.717 -14.595   7.368  1.00  0.00     0.180 A 
ATOM      2  C   UNL     1       4.920 -14.981   7.986  1.00  0.00     0.208 A 
ATOM      3  C   UNL     1       5.223 -16.348   8.092  1.00  0.00     0.238 A 
ATOM      4  O   UNL     1       6.326 -16.685   8.596  1.00  0.00    -0.285 OA
ATOM      5  C   UNL     1       4.314 -17.312   7.593  1.00  0.00     0.111 A 
ATOM      6  C   UNL     1       4.501 -18.724   7.683  1.00  0.00     0.134 A 
ATOM      7  C   UNL     1       3.600 -19.582   7.040  1.00  0.00     0.093 A 
ATOM      8  C   UNL     1       2.485 -19.083   6.367  1.00  0.00     0.123 A 
ATOM      9  C   UNL     1       2.260 -17.706   6.323  1.00  0.00     0.094 A 
ATOM     10  C   UNL     1       3.161 -16.823   6.925  1.00  0.00     0.146 A 
ATOM     11  O   UNL     1       2.917 -15.521   6.851  1.00  0.00    -0.452 OA
ENDROOT
BRANCH   1  12
ATOM     12  C   UNL     1       3.316 -13.176   7.241  1.00  0.00     0.025 A 
ATOM     13  C   UNL     1       3.479 -12.475   6.032  1.00  0.00     0.016 A 
ATOM     14  C   UNL     1       3.116 -11.129   5.942  1.00  0.00     0.051 A 
ATOM     15  C   UNL     1       2.598 -10.459   7.058  1.00  0.00     0.157 A 
ATOM     16  C   UNL     1       2.817 -12.494   8.362  1.00  0.00     0.062 A 
ATOM     17  C   UNL     1       2.451 -11.145   8.275  1.00  0.00     0.158 A 
BRANCH  15  18
ATOM     18  O   UNL     1       2.235  -9.117   6.964  1.00  0.00    -0.504 OA
ATOM     19  H   UNL     1       2.929  -8.385   6.857  1.00  0.00     0.293 HD
ENDBRANCH  15  18
BRANCH  17  20
ATOM     20  O   UNL     1       1.946 -10.506   9.407  1.00  0.00    -0.504 OA
ATOM     21  H   UNL     1       1.022 -10.092   9.424  1.00  0.00     0.293 HD
ENDBRANCH  17  20
ENDBRANCH   1  12
BRANCH   2  22
ATOM     22  O   UNL     1       5.813 -14.012   8.451  1.00  0.00    -0.502 OA
ATOM     23  H   UNL     1       6.789 -13.998   8.181  1.00  0.00     0.293 HD
ENDBRANCH   2  22
BRANCH   6  24
ATOM     24  O   UNL     1       5.530 -19.331   8.408  1.00  0.00    -0.507 OA
ATOM     25  H   UNL     1       5.878 -20.264   8.241  1.00  0.00     0.293 HD
ENDBRANCH   6  24
BRANCH   8  26
ATOM     26  O   UNL     1       1.601 -19.966   5.752  1.00  0.00    -0.508 OA
ATOM     27  H   UNL     1       1.897 -20.574   4.997  1.00  0.00     0.293 HD
ENDBRANCH   8  26
TORSDOF 6
ENDMDL
MODEL 3
REMARK VINA RESULT:    -5.909      2.776      4.581
REMARK INTER + INTRA:          -7.452
REMARK INTER:                  -7.181
REMARK INTRA:                  -0.271
REMARK UNBOUND:                -0.334
REMARK SMILES O=c1c(O)c(-c2ccc(O)c(O)c2)oc2cc(O)cc(O)c12
REMARK SMILES IDX 5 1 3 2 2 3 1 4 22 5 20 6 19 7 17 8 16 9 15 10 14 11 6 12
REMARK SMILES IDX 7 13 8 14 9 15 13 16 11 17 10 18 12 20 4 22 21 24 18 26
REMARK H PARENT 10 19 12 21 4 23 21 25 18 27
REMARK Flexibility Score: inf
ROOT
ATOM      1  C   UNL     1       3.731 -14.064   7.675  1.00  0.00     0.180 A 
ATOM      2  C   UNL     1       2.454 -13.671   8.113  1.00  0.00     0.208 A 
ATOM      3  C   UNL     1       2.076 -12.325   7.989  1.00  0.00     0.238 A 
ATOM      4  O   UNL     1       0.912 -11.989   8.331  1.00  0.00    -0.285 OA
ATOM      5  C   UNL     1       2.984 -11.385   7.444  1.00  0.00     0.111 A 
ATOM      6  C   UNL     1       2.722  -9.989   7.309  1.00  0.00     0.134 A 
ATOM      7  C   UNL     1       3.642  -9.175   6.636  1.00  0.00     0.093 A 
ATOM      8  C   UNL     1       4.843  -9.693   6.153  1.00  0.00     0.123 A 
ATOM      9  C   UNL     1       5.137 -11.046   6.332  1.00  0.00     0.094 A 
ATOM     10  C   UNL     1       4.223 -11.890   6.967  1.00  0.00     0.146 A 
ATOM     11  O   UNL     1       4.535 -13.172   7.108  1.00  0.00    -0.452 OA
ENDROOT
BRANCH   1  12
ATOM     12  C   UNL     1       4.211 -15.460   7.795  1.00  0.00     0.025 A 
ATOM     13  C   UNL     1       3.759 -16.466   6.923  1.00  0.00     0.016 A 
ATOM     14  C   UNL     1       4.206 -17.781   7.070  1.00  0.00     0.051 A 
ATOM     15  C   UNL     1       5.100 -18.114   8.096  1.00  0.00     0.157 A 
ATOM     16  C   UNL     1       5.089 -15.803   8.835  1.00  0.00     0.062 A 
ATOM     17  C   UNL     1       5.541 -17.119   8.985  1.00  0.00     0.158 A 
BRANCH  15  18
ATOM     18  O   UNL     1       5.546 -19.427   8.239  1.00  0.00    -0.504 OA
ATOM     19  H   UNL     1       5.926 -19.947   7.456  1.00  0.00     0.293 HD
ENDBRANCH  15  18
BRANCH  17  20
ATOM     20  O   UNL     1       6.424 -17.419  10.022  1.00  0.00    -0.504 OA
ATOM     21  H   UNL     1       6.289 -17.066  10.962  1.00  0.00     0.293 HD
ENDBRANCH  17  20
ENDBRANCH   1  12
BRANCH   2  22
ATOM     22  O   UNL     1       1.565 -14.619   8.627  1.00  0.00    -0.502 OA
ATOM     23  H   UNL     1       1.716 -15.616   8.526  1.00  0.00     0.293 HD
ENDBRANCH   2  22
BRANCH   6  24
ATOM     24  O   UNL     1       1.595  -9.351   7.836  1.00  0.00    -0.507 OA
ATOM     25  H   UNL     1       1.366  -9.309   8.818  1.00  0.00     0.293 HD
ENDBRANCH   6  24
BRANCH   8  26
ATOM     26  O   UNL     1       5.743  -8.851   5.503  1.00  0.00    -0.508 OA
ATOM     27  H   UNL     1       6.735  -9.058   5.471  1.00  0.00     0.293 HD
ENDBRANCH   8  26
TORSDOF 6
ENDMDL
MODEL 4
REMARK VINA RESULT:    -5.848      1.682      6.889
REMARK INTER + INTRA:          -7.379
REMARK INTER:                  -7.180
REMARK INTRA:                  -0.199
REMARK UNBOUND:                -0.334
REMARK SMILES O=c1c(O)c(-c2ccc(O)c(O)c2)oc2cc(O)cc(O)c12
REMARK SMILES IDX 5 1 3 2 2 3 1 4 22 5 20 6 19 7 17 8 16 9 15 10 14 11 6 12
REMARK SMILES IDX 7 13 8 14 9 15 13 16 11 17 10 18 12 20 4 22 21 24 18 26
REMARK H PARENT 10 19 12 21 4 23 21 25 18 27
REMARK Flexibility Score: inf
ROOT
ATOM      1  C   UNL     1       3.582 -16.535   6.886  1.00  0.00     0.180 A 
ATOM      2  C   UNL     1       2.307 -17.069   6.626  1.00  0.00     0.208 A 
ATOM      3  C   UNL     1       2.179 -18.450   6.410  1.00  0.00     0.238 A 
ATOM      4  O   UNL     1       1.028 -18.930   6.233  1.00  0.00    -0.285 OA
ATOM      5  C   UNL     1       3.326 -19.279   6.441  1.00  0.00     0.111 A 
ATOM      6  C   UNL     1       3.318 -20.685   6.196  1.00  0.00     0.134 A 
ATOM      7  C   UNL     1       4.492 -21.425   6.382  1.00  0.00     0.093 A 
ATOM      8  C   UNL     1       5.688 -20.802   6.738  1.00  0.00     0.123 A 
ATOM      9  C   UNL     1       5.721 -19.419   6.922  1.00  0.00     0.094 A 
ATOM     10  C   UNL     1       4.558 -18.659   6.779  1.00  0.00     0.146 A 
ATOM     11  O   UNL     1       4.629 -17.348   6.974  1.00  0.00    -0.452 OA
ENDROOT
BRANCH   1  12
ATOM     12  C   UNL     1       3.801 -15.087   7.099  1.00  0.00     0.025 A 
ATOM     13  C   UNL     1       4.146 -14.578   8.364  1.00  0.00     0.016 A 
ATOM     14  C   UNL     1       4.325 -13.205   8.548  1.00  0.00     0.051 A 
ATOM     15  C   UNL     1       4.150 -12.319   7.477  1.00  0.00     0.157 A 
ATOM     16  C   UNL     1       3.606 -14.192   6.035  1.00  0.00     0.062 A 
ATOM     17  C   UNL     1       3.785 -12.816   6.215  1.00  0.00     0.158 A 
BRANCH  15  18
ATOM     18  O   UNL     1       4.331 -10.949   7.663  1.00  0.00    -0.504 OA
ATOM     19  H   UNL     1       4.974 -10.588   8.358  1.00  0.00     0.293 HD
ENDBRANCH  15  18
BRANCH  17  20
ATOM     20  O   UNL     1       3.595 -11.961   5.130  1.00  0.00    -0.504 OA
ATOM     21  H   UNL     1       2.691 -11.558   4.914  1.00  0.00     0.293 HD
ENDBRANCH  17  20
ENDBRANCH   1  12
BRANCH   2  22
ATOM     22  O   UNL     1       1.185 -16.237   6.623  1.00  0.00    -0.502 OA
ATOM     23  H   UNL     1       0.886 -15.730   5.797  1.00  0.00     0.293 HD
ENDBRANCH   2  22
BRANCH   6  24
ATOM     24  O   UNL     1       2.200 -21.392   5.747  1.00  0.00    -0.507 OA
ATOM     25  H   UNL     1       1.599 -21.098   4.991  1.00  0.00     0.293 HD
ENDBRANCH   6  24
BRANCH   8  26
ATOM     26  O   UNL     1       6.841 -21.567   6.898  1.00  0.00    -0.508 OA
ATOM     27  H   UNL     1       7.149 -21.876   7.813  1.00  0.00     0.293 HD
ENDBRANCH   8  26
TORSDOF 6
ENDMDL
MODEL 5
REMARK VINA RESULT:    -5.799      3.004      4.746
REMARK INTER + INTRA:          -7.320
REMARK INTER:                  -6.994
REMARK INTRA:                  -0.326
REMARK UNBOUND:                -0.334
REMARK SMILES O=c1c(O)c(-c2ccc(O)c(O)c2)oc2cc(O)cc(O)c12
REMARK SMILES IDX 5 1 3 2 2 3 1 4 22 5 20 6 19 7 17 8 16 9 15 10 14 11 6 12
REMARK SMILES IDX 7 13 8 14 9 15 13 16 11 17 10 18 12 20 4 22 21 24 18 26
REMARK H PARENT 10 19 12 21 4 23 21 25 18 27
REMARK Flexibility Score: inf
ROOT
ATOM      1  C   UNL     1       3.607 -14.623   7.789  1.00  0.00     0.180 A 
ATOM      2  C   UNL     1       4.293 -13.442   8.121  1.00  0.00     0.208 A 
ATOM      3  C   UNL     1       3.555 -12.306   8.488  1.00  0.00     0.238 A 
ATOM      4  O   UNL     1       4.176 -11.268   8.837  1.00  0.00    -0.285 OA
ATOM      5  C   UNL     1       2.140 -12.359   8.505  1.00  0.00     0.111 A 
ATOM      6  C   UNL     1       1.291 -11.256   8.821  1.00  0.00     0.134 A 
ATOM      7  C   UNL     1      -0.090 -11.458   8.933  1.00  0.00     0.093 A 
ATOM      8  C   UNL     1      -0.659 -12.704   8.675  1.00  0.00     0.123 A 
ATOM      9  C   UNL     1       0.156 -13.776   8.306  1.00  0.00     0.094 A 
ATOM     10  C   UNL     1       1.541 -13.614   8.221  1.00  0.00     0.146 A 
ATOM     11  O   UNL     1       2.282 -14.661   7.878  1.00  0.00    -0.452 OA
ENDROOT
BRANCH   1  12
ATOM     12  C   UNL     1       4.313 -15.854   7.369  1.00  0.00     0.025 A 
ATOM     13  C   UNL     1       4.718 -16.046   6.036  1.00  0.00     0.016 A 
ATOM     14  C   UNL     1       5.362 -17.226   5.656  1.00  0.00     0.051 A 
ATOM     15  C   UNL     1       5.599 -18.237   6.597  1.00  0.00     0.157 A 
ATOM     16  C   UNL     1       4.534 -16.879   8.303  1.00  0.00     0.062 A 
ATOM     17  C   UNL     1       5.180 -18.063   7.927  1.00  0.00     0.158 A 
BRANCH  15  18
ATOM     18  O   UNL     1       6.244 -19.413   6.216  1.00  0.00    -0.504 OA
ATOM     19  H   UNL     1       6.101 -19.824   5.300  1.00  0.00     0.293 HD
ENDBRANCH  15  18
BRANCH  17  20
ATOM     20  O   UNL     1       5.394 -19.052   8.886  1.00  0.00    -0.504 OA
ATOM     21  H   UNL     1       6.136 -18.984   9.573  1.00  0.00     0.293 HD
ENDBRANCH  17  20
ENDBRANCH   1  12
BRANCH   2  22
ATOM     22  O   UNL     1       5.691 -13.418   8.120  1.00  0.00    -0.502 OA
ATOM     23  H   UNL     1       6.228 -13.061   7.339  1.00  0.00     0.293 HD
ENDBRANCH   2  22
BRANCH   6  24
ATOM     24  O   UNL     1       1.747  -9.948   9.008  1.00  0.00    -0.507 OA
ATOM     25  H   UNL     1       2.144  -9.369   8.282  1.00  0.00     0.293 HD
ENDBRANCH   6  24
BRANCH   8  26
ATOM     26  O   UNL     1      -2.039 -12.865   8.780  1.00  0.00    -0.508 OA
ATOM     27  H   UNL     1      -2.551 -12.533   9.589  1.00  0.00     0.293 HD
ENDBRANCH   8  26
TORSDOF 6
ENDMDL
MODEL 6
REMARK VINA RESULT:    -5.788      1.549      2.904
REMARK INTER + INTRA:          -7.307
REMARK INTER:                  -7.002
REMARK INTRA:                  -0.305
REMARK UNBOUND:                -0.334
REMARK SMILES O=c1c(O)c(-c2ccc(O)c(O)c2)oc2cc(O)cc(O)c12
REMARK SMILES IDX 5 1 3 2 2 3 1 4 22 5 20 6 19 7 17 8 16 9 15 10 14 11 6 12
REMARK SMILES IDX 7 13 8 14 9 15 13 16 11 17 10 18 12 20 4 22 21 24 18 26
REMARK H PARENT 10 19 12 21 4 23 21 25 18 27
REMARK Flexibility Score: inf
ROOT
ATOM      1  C   UNL     1       4.444 -18.060   6.515  1.00  0.00     0.180 A 
ATOM      2  C   UNL     1       5.034 -17.695   7.738  1.00  0.00     0.208 A 
ATOM      3  C   UNL     1       5.108 -16.335   8.080  1.00  0.00     0.238 A 
ATOM      4  O   UNL     1       5.588 -16.019   9.200  1.00  0.00    -0.285 OA
ATOM      5  C   UNL     1       4.605 -15.356   7.190  1.00  0.00     0.111 A 
ATOM      6  C   UNL     1       4.664 -13.948   7.417  1.00  0.00     0.134 A 
ATOM      7  C   UNL     1       4.018 -13.078   6.529  1.00  0.00     0.093 A 
ATOM      8  C   UNL     1       3.374 -13.559   5.390  1.00  0.00     0.123 A 
ATOM      9  C   UNL     1       3.362 -14.930   5.127  1.00  0.00     0.094 A 
ATOM     10  C   UNL     1       3.966 -15.825   6.012  1.00  0.00     0.146 A 
ATOM     11  O   UNL     1       3.922 -17.122   5.732  1.00  0.00    -0.452 OA
ENDROOT
BRANCH   1  12
ATOM     12  C   UNL     1       4.351 -19.469   6.073  1.00  0.00     0.025 A 
ATOM     13  C   UNL     1       3.185 -20.227   6.282  1.00  0.00     0.016 A 
ATOM     14  C   UNL     1       3.128 -21.563   5.879  1.00  0.00     0.051 A 
ATOM     15  C   UNL     1       4.238 -22.166   5.273  1.00  0.00     0.157 A 
ATOM     16  C   UNL     1       5.468 -20.086   5.485  1.00  0.00     0.062 A 
ATOM     17  C   UNL     1       5.415 -21.424   5.079  1.00  0.00     0.158 A 
BRANCH  15  18
ATOM     18  O   UNL     1       4.178 -23.499   4.870  1.00  0.00    -0.504 OA
ATOM     19  H   UNL     1       3.295 -23.951   4.657  1.00  0.00     0.293 HD
ENDBRANCH  15  18
BRANCH  17  20
ATOM     20  O   UNL     1       6.540 -21.997   4.486  1.00  0.00    -0.504 OA
ATOM     21  H   UNL     1       7.071 -21.519   3.767  1.00  0.00     0.293 HD
ENDBRANCH  17  20
ENDBRANCH   1  12
BRANCH   2  22
ATOM     22  O   UNL     1       5.504 -18.679   8.612  1.00  0.00    -0.502 OA
ATOM     23  H   UNL     1       5.292 -18.673   9.603  1.00  0.00     0.293 HD
ENDBRANCH   2  22
BRANCH   6  24
ATOM     24  O   UNL     1       5.360 -13.356   8.474  1.00  0.00    -0.507 OA
ATOM     25  H   UNL     1       6.343 -13.490   8.662  1.00  0.00     0.293 HD
ENDBRANCH   6  24
BRANCH   8  26
ATOM     26  O   UNL     1       2.756 -12.664   4.520  1.00  0.00    -0.508 OA
ATOM     27  H   UNL     1       2.106 -12.978   3.808  1.00  0.00     0.293 HD
ENDBRANCH   8  26
TORSDOF 6
ENDMDL
MODEL 7
REMARK VINA RESULT:    -5.750      2.281      6.788
REMARK INTER + INTRA:          -7.261
REMARK INTER:                  -6.926
REMARK INTRA:                  -0.335
REMARK UNBOUND:                -0.334
REMARK SMILES O=c1c(O)c(-c2ccc(O)c(O)c2)oc2cc(O)cc(O)c12
REMARK SMILES IDX 5 1 3 2 2 3 1 4 22 5 20 6 19 7 17 8 16 9 15 10 14 11 6 12
REMARK SMILES IDX 7 13 8 14 9 15 13 16 11 17 10 18 12 20 4 22 21 24 18 26
REMARK H PARENT 10 19 12 21 4 23 21 25 18 27
REMARK Flexibility Score: inf
ROOT
ATOM      1  C   UNL     1       4.863 -17.895   6.287  1.00  0.00     0.180 A 
ATOM      2  C   UNL     1       5.183 -19.082   6.969  1.00  0.00     0.208 A 
ATOM      3  C   UNL     1       5.544 -20.218   6.227  1.00  0.00     0.238 A 
ATOM      4  O   UNL     1       5.883 -21.261   6.845  1.00  0.00    -0.285 OA
ATOM      5  C   UNL     1       5.567 -20.158   4.813  1.00  0.00     0.111 A 
ATOM      6  C   UNL     1       5.879 -21.260   3.960  1.00  0.00     0.134 A 
ATOM      7  C   UNL     1       5.998 -21.052   2.580  1.00  0.00     0.093 A 
ATOM      8  C   UNL     1       5.752 -19.801   2.015  1.00  0.00     0.123 A 
ATOM      9  C   UNL     1       5.387 -18.731   2.834  1.00  0.00     0.094 A 
ATOM     10  C   UNL     1       5.296 -18.898   4.218  1.00  0.00     0.146 A 
ATOM     11  O   UNL     1       4.957 -17.852   4.962  1.00  0.00    -0.452 OA
ENDROOT
BRANCH   1  12
ATOM     12  C   UNL     1       4.449 -16.664   6.997  1.00  0.00     0.025 A 
ATOM     13  C   UNL     1       3.100 -16.417   7.307  1.00  0.00     0.016 A 
ATOM     14  C   UNL     1       2.729 -15.237   7.956  1.00  0.00     0.051 A 
ATOM     15  C   UNL     1       3.696 -14.281   8.294  1.00  0.00     0.157 A 
ATOM     16  C   UNL     1       5.412 -15.693   7.318  1.00  0.00     0.062 A 
ATOM     17  C   UNL     1       5.044 -14.510   7.970  1.00  0.00     0.158 A 
BRANCH  15  18
ATOM     18  O   UNL     1       3.324 -13.106   8.944  1.00  0.00    -0.504 OA
ATOM     19  H   UNL     1       3.229 -13.063   9.952  1.00  0.00     0.293 HD
ENDBRANCH  15  18
BRANCH  17  20
ATOM     20  O   UNL     1       6.031 -13.576   8.285  1.00  0.00    -0.504 OA
ATOM     21  H   UNL     1       5.815 -12.598   8.440  1.00  0.00     0.293 HD
ENDBRANCH  17  20
ENDBRANCH   1  12
BRANCH   2  22
ATOM     22  O   UNL     1       5.176 -19.112   8.366  1.00  0.00    -0.502 OA
ATOM     23  H   UNL     1       4.919 -19.940   8.891  1.00  0.00     0.293 HD
ENDBRANCH   2  22
BRANCH   6  24
ATOM     24  O   UNL     1       6.053 -22.571   4.411  1.00  0.00    -0.507 OA
ATOM     25  H   UNL     1       6.743 -23.215   4.051  1.00  0.00     0.293 HD
ENDBRANCH   6  24
BRANCH   8  26
ATOM     26  O   UNL     1       5.863 -19.635   0.637  1.00  0.00    -0.508 OA
ATOM     27  H   UNL     1       6.494 -20.204   0.084  1.00  0.00     0.293 HD
ENDBRANCH   8  26
TORSDOF 6
ENDMDL
MODEL 8
REMARK VINA RESULT:    -5.709      2.166      7.034
REMARK INTER + INTRA:          -7.211
REMARK INTER:                  -6.931
REMARK INTRA:                  -0.280
REMARK UNBOUND:                -0.334
REMARK SMILES O=c1c(O)c(-c2ccc(O)c(O)c2)oc2cc(O)cc(O)c12
REMARK SMILES IDX 5 1 3 2 2 3 1 4 22 5 20 6 19 7 17 8 16 9 15 10 14 11 6 12
REMARK SMILES IDX 7 13 8 14 9 15 13 16 11 17 10 18 12 20 4 22 21 24 18 26
REMARK H PARENT 10 19 12 21 4 23 21 25 18 27
REMARK Flexibility Score: inf
ROOT
ATOM      1  C   UNL     1       4.451 -18.114   6.802  1.00  0.00     0.180 A 
ATOM      2  C   UNL     1       4.907 -19.218   7.544  1.00  0.00     0.208 A 
ATOM      3  C   UNL     1       4.909 -20.488   6.944  1.00  0.00     0.238 A 
ATOM      4  O   UNL     1       5.370 -21.463   7.594  1.00  0.00    -0.285 OA
ATOM      5  C   UNL     1       4.441 -20.641   5.617  1.00  0.00     0.111 A 
ATOM      6  C   UNL     1       4.360 -21.887   4.925  1.00  0.00     0.134 A 
ATOM      7  C   UNL     1       4.005 -21.903   3.571  1.00  0.00     0.093 A 
ATOM      8  C   UNL     1       3.663 -20.728   2.902  1.00  0.00     0.123 A 
ATOM      9  C   UNL     1       3.681 -19.511   3.585  1.00  0.00     0.094 A 
ATOM     10  C   UNL     1       4.066 -19.459   4.927  1.00  0.00     0.146 A 
ATOM     11  O   UNL     1       4.081 -18.280   5.537  1.00  0.00    -0.452 OA
ENDROOT
BRANCH   1  12
ATOM     12  C   UNL     1       4.396 -16.749   7.373  1.00  0.00     0.025 A 
ATOM     13  C   UNL     1       5.556 -15.967   7.512  1.00  0.00     0.016 A 
ATOM     14  C   UNL     1       5.484 -14.691   8.075  1.00  0.00     0.051 A 
ATOM     15  C   UNL     1       4.257 -14.182   8.520  1.00  0.00     0.157 A 
ATOM     16  C   UNL     1       3.172 -16.243   7.840  1.00  0.00     0.062 A 
ATOM     17  C   UNL     1       3.096 -14.964   8.404  1.00  0.00     0.158 A 
BRANCH  15  18
ATOM     18  O   UNL     1       4.188 -12.908   9.080  1.00  0.00    -0.504 OA
ATOM     19  H   UNL     1       3.869 -12.762  10.031  1.00  0.00     0.293 HD
ENDBRANCH  15  18
BRANCH  17  20
ATOM     20  O   UNL     1       1.860 -14.491   8.844  1.00  0.00    -0.504 OA
ATOM     21  H   UNL     1       1.009 -15.031   8.740  1.00  0.00     0.293 HD
ENDBRANCH  17  20
ENDBRANCH   1  12
BRANCH   2  22
ATOM     22  O   UNL     1       5.386 -19.040   8.845  1.00  0.00    -0.502 OA
ATOM     23  H   UNL     1       4.831 -18.608   9.574  1.00  0.00     0.293 HD
ENDBRANCH   2  22
BRANCH   6  24
ATOM     24  O   UNL     1       4.591 -23.129   5.523  1.00  0.00    -0.507 OA
ATOM     25  H   UNL     1       5.487 -23.595   5.553  1.00  0.00     0.293 HD
ENDBRANCH   6  24
BRANCH   8  26
ATOM     26  O   UNL     1       3.298 -20.783   1.559  1.00  0.00    -0.508 OA
ATOM     27  H   UNL     1       2.339 -20.948   1.276  1.00  0.00     0.293 HD
ENDBRANCH   8  26
TORSDOF 6
ENDMDL
MODEL 9
REMARK VINA RESULT:    -5.667      2.068      2.577
REMARK INTER + INTRA:          -7.161
REMARK INTER:                  -6.949
REMARK INTRA:                  -0.212
REMARK UNBOUND:                -0.334
REMARK SMILES O=c1c(O)c(-c2ccc(O)c(O)c2)oc2cc(O)cc(O)c12
REMARK SMILES IDX 5 1 3 2 2 3 1 4 22 5 20 6 19 7 17 8 16 9 15 10 14 11 6 12
REMARK SMILES IDX 7 13 8 14 9 15 13 16 11 17 10 18 12 20 4 22 21 24 18 26
REMARK H PARENT 10 19 12 21 4 23 21 25 18 27
REMARK Flexibility Score: inf
ROOT
ATOM      1  C   UNL     1       3.790 -17.852   6.458  1.00  0.00     0.180 A 
ATOM      2  C   UNL     1       2.395 -17.873   6.638  1.00  0.00     0.208 A 
ATOM      3  C   UNL     1       1.768 -16.763   7.226  1.00  0.00     0.238 A 
ATOM      4  O   UNL     1       0.513 -16.764   7.334  1.00  0.00    -0.285 OA
ATOM      5  C   UNL     1       2.543 -15.653   7.641  1.00  0.00     0.111 A 
ATOM      6  C   UNL     1       2.017 -14.493   8.285  1.00  0.00     0.134 A 
ATOM      7  C   UNL     1       2.857 -13.400   8.533  1.00  0.00     0.093 A 
ATOM      8  C   UNL     1       4.216 -13.451   8.223  1.00  0.00     0.123 A 
ATOM      9  C   UNL     1       4.753 -14.604   7.648  1.00  0.00     0.094 A 
ATOM     10  C   UNL     1       3.933 -15.696   7.355  1.00  0.00     0.146 A 
ATOM     11  O   UNL     1       4.480 -16.769   6.798  1.00  0.00    -0.452 OA
ENDROOT
BRANCH   1  12
ATOM     12  C   UNL     1       4.526 -18.993   5.869  1.00  0.00     0.025 A 
ATOM     13  C   UNL     1       4.391 -19.327   4.510  1.00  0.00     0.016 A 
ATOM     14  C   UNL     1       5.076 -20.423   3.980  1.00  0.00     0.051 A 
ATOM     15  C   UNL     1       5.895 -21.209   4.801  1.00  0.00     0.157 A 
ATOM     16  C   UNL     1       5.330 -19.798   6.692  1.00  0.00     0.062 A 
ATOM     17  C   UNL     1       6.020 -20.896   6.165  1.00  0.00     0.158 A 
BRANCH  15  18
ATOM     18  O   UNL     1       6.579 -22.301   4.270  1.00  0.00    -0.504 OA
ATOM     19  H   UNL     1       6.089 -23.069   3.824  1.00  0.00     0.293 HD
ENDBRANCH  15  18
BRANCH  17  20
ATOM     20  O   UNL     1       6.820 -21.663   7.011  1.00  0.00    -0.504 OA
ATOM     21  H   UNL     1       7.790 -21.431   7.190  1.00  0.00     0.293 HD
ENDBRANCH  17  20
ENDBRANCH   1  12
BRANCH   2  22
ATOM     22  O   UNL     1       1.647 -18.969   6.200  1.00  0.00    -0.502 OA
ATOM     23  H   UNL     1       1.971 -19.591   5.469  1.00  0.00     0.293 HD
ENDBRANCH   2  22
BRANCH   6  24
ATOM     24  O   UNL     1       0.694 -14.373   8.720  1.00  0.00    -0.507 OA
ATOM     25  H   UNL     1       0.110 -13.565   8.566  1.00  0.00     0.293 HD
ENDBRANCH   6  24
BRANCH   8  26
ATOM     26  O   UNL     1       5.026 -12.352   8.500  1.00  0.00    -0.508 OA
ATOM     27  H   UNL     1       5.122 -11.987   9.441  1.00  0.00     0.293 HD
ENDBRANCH   8  26
TORSDOF 6
ENDMDL
