MODEL 1
REMARK VINA RESULT:    -5.817      0.000      0.000
REMARK INTER + INTRA:          -7.113
REMARK INTER:                  -6.838
REMARK INTRA:                  -0.276
REMARK UNBOUND:                -0.276
REMARK SMILES O=c1c(O)c(-c2ccc(O)cc2)oc2cc(O)cc(O)c12
REMARK SMILES IDX 5 1 3 2 2 3 1 4 21 5 19 6 18 7 16 8 15 9 14 10 13 11 6 12
REMARK SMILES IDX 7 13 8 14 9 15 12 16 11 17 10 18 4 20 20 22 17 24
REMARK H PARENT 10 19 4 21 20 23 17 25
REMARK Flexibility Score: inf
ROOT
ATOM      1  C   UNL     1      19.985  30.395  29.086  1.00  0.00     0.180 A 
ATOM      2  C   UNL     1      21.124  30.015  29.823  1.00  0.00     0.208 A 
ATOM      3  C   UNL     1      22.056  29.147  29.232  1.00  0.00     0.238 A 
ATOM      4  O   UNL     1      23.073  28.792  29.886  1.00  0.00    -0.285 OA
ATOM      5  C   UNL     1      21.846  28.692  27.914  1.00  0.00     0.111 A 
ATOM      6  C   UNL     1      22.738  27.818  27.245  1.00  0.00     0.134 A 
ATOM      7  C   UNL     1      22.464  27.418  25.930  1.00  0.00     0.093 A 
ATOM      8  C   UNL     1      21.318  27.871  25.271  1.00  0.00     0.123 A 
ATOM      9  C   UNL     1      20.432  28.732  25.926  1.00  0.00     0.094 A 
ATOM     10  C   UNL     1      20.688  29.142  27.239  1.00  0.00     0.146 A 
ATOM     11  O   UNL     1      19.828  29.956  27.840  1.00  0.00    -0.452 OA
ENDROOT
BRANCH   1  12
ATOM     12  C   UNL     1      18.948  31.291  29.645  1.00  0.00     0.021 A 
ATOM     13  C   UNL     1      18.911  32.638  29.249  1.00  0.00     0.016 A 
ATOM     14  C   UNL     1      17.926  33.497  29.748  1.00  0.00     0.047 A 
ATOM     15  C   UNL     1      16.959  33.017  30.636  1.00  0.00     0.115 A 
ATOM     16  C   UNL     1      17.960  30.810  30.524  1.00  0.00     0.016 A 
ATOM     17  C   UNL     1      16.976  31.671  31.021  1.00  0.00     0.047 A 
BRANCH  15  18
ATOM     18  O   UNL     1      15.984  33.885  31.125  1.00  0.00    -0.508 OA
ATOM     19  H   UNL     1      16.131  34.424  31.970  1.00  0.00     0.293 HD
ENDBRANCH  15  18
ENDBRANCH   1  12
BRANCH   2  20
ATOM     20  O   UNL     1      21.333  30.520  31.108  1.00  0.00    -0.502 OA
ATOM     21  H   UNL     1      22.203  30.385  31.609  1.00  0.00     0.293 HD
ENDBRANCH   2  20
BRANCH   6  22
ATOM     22  O   UNL     1      23.891  27.349  27.875  1.00  0.00    -0.507 OA
ATOM     23  H   UNL     1      24.607  27.980  28.215  1.00  0.00     0.293 HD
ENDBRANCH   6  22
BRANCH   8  24
ATOM     24  O   UNL     1      21.069  27.458  23.964  1.00  0.00    -0.508 OA
ATOM     25  H   UNL     1      21.467  27.945  23.169  1.00  0.00     0.293 HD
ENDBRANCH   8  24
TORSDOF 5
ENDMDL
MODEL 2
REMARK VINA RESULT:    -5.707      5.877      8.953
REMARK INTER + INTRA:          -6.983
REMARK INTER:                  -6.686
REMARK INTRA:                  -0.298
REMARK UNBOUND:                -0.276
REMARK SMILES O=c1c(O)c(-c2ccc(O)cc2)oc2cc(O)cc(O)c12
REMARK SMILES IDX 5 1 3 2 2 3 1 4 21 5 19 6 18 7 16 8 15 9 14 10 13 11 6 12
REMARK SMILES IDX 7 13 8 14 9 15 12 16 11 17 10 18 4 20 20 22 17 24
REMARK H PARENT 10 19 4 21 20 23 17 25
REMARK Flexibility Score: inf
ROOT
ATOM      1  C   UNL     1      22.540  29.342  21.290  1.00  0.00     0.180 A 
ATOM      2  C   UNL     1      23.351  28.298  20.804  1.00  0.00     0.208 A 
ATOM      3  C   UNL     1      23.411  28.076  19.418  1.00  0.00     0.238 A 
ATOM      4  O   UNL     1      24.125  27.137  18.971  1.00  0.00    -0.285 OA
ATOM      5  C   UNL     1      22.682  28.910  18.546  1.00  0.00     0.111 A 
ATOM      6  C   UNL     1      22.692  28.756  17.139  1.00  0.00     0.134 A 
ATOM      7  C   UNL     1      21.947  29.633  16.337  1.00  0.00     0.093 A 
ATOM      8  C   UNL     1      21.193  30.658  16.914  1.00  0.00     0.123 A 
ATOM      9  C   UNL     1      21.178  30.815  18.303  1.00  0.00     0.094 A 
ATOM     10  C   UNL     1      21.914  29.950  19.119  1.00  0.00     0.146 A 
ATOM     11  O   UNL     1      21.878  30.117  20.436  1.00  0.00    -0.452 OA
ENDROOT
BRANCH   1  12
ATOM     12  C   UNL     1      22.409  29.627  22.737  1.00  0.00     0.021 A 
ATOM     13  C   UNL     1      23.204  30.629  23.320  1.00  0.00     0.016 A 
ATOM     14  C   UNL     1      23.080  30.930  24.680  1.00  0.00     0.047 A 
ATOM     15  C   UNL     1      22.151  30.245  25.470  1.00  0.00     0.115 A 
ATOM     16  C   UNL     1      21.462  28.956  23.533  1.00  0.00     0.016 A 
ATOM     17  C   UNL     1      21.340  29.259  24.893  1.00  0.00     0.047 A 
BRANCH  15  18
ATOM     18  O   UNL     1      22.039  30.556  26.824  1.00  0.00    -0.508 OA
ATOM     19  H   UNL     1      22.568  31.314  27.238  1.00  0.00     0.293 HD
ENDBRANCH  15  18
ENDBRANCH   1  12
BRANCH   2  20
ATOM     20  O   UNL     1      24.102  27.517  21.685  1.00  0.00    -0.502 OA
ATOM     21  H   UNL     1      24.719  26.781  21.367  1.00  0.00     0.293 HD
ENDBRANCH   2  20
BRANCH   6  22
ATOM     22  O   UNL     1      23.435  27.742  16.532  1.00  0.00    -0.507 OA
ATOM     23  H   UNL     1      23.891  27.878  15.638  1.00  0.00     0.293 HD
ENDBRANCH   6  22
BRANCH   8  24
ATOM     24  O   UNL     1      20.461  31.516  16.096  1.00  0.00    -0.508 OA
ATOM     25  H   UNL     1      19.513  31.299  15.812  1.00  0.00     0.293 HD
ENDBRANCH   8  24
TORSDOF 5
ENDMDL
MODEL 3
REMARK VINA RESULT:    -5.507      5.184      9.119
REMARK INTER + INTRA:          -6.748
REMARK INTER:                  -6.487
REMARK INTRA:                  -0.261
REMARK UNBOUND:                -0.276
REMARK SMILES O=c1c(O)c(-c2ccc(O)cc2)oc2cc(O)cc(O)c12
REMARK SMILES IDX 5 1 3 2 2 3 1 4 21 5 19 6 18 7 16 8 15 9 14 10 13 11 6 12
REMARK SMILES IDX 7 13 8 14 9 15 12 16 11 17 10 18 4 20 20 22 17 24
REMARK H PARENT 10 19 4 21 20 23 17 25
REMARK Flexibility Score: inf
ROOT
ATOM      1  C   UNL     1      22.244  29.965  21.260  1.00  0.00     0.180 A 
ATOM      2  C   UNL     1      23.157  30.804  21.928  1.00  0.00     0.208 A 
ATOM      3  C   UNL     1      23.095  30.894  23.328  1.00  0.00     0.238 A 
ATOM      4  O   UNL     1      23.900  31.651  23.937  1.00  0.00    -0.285 OA
ATOM      5  C   UNL     1      22.141  30.133  24.034  1.00  0.00     0.111 A 
ATOM      6  C   UNL     1      22.015  30.165  25.444  1.00  0.00     0.134 A 
ATOM      7  C   UNL     1      21.047  29.370  26.074  1.00  0.00     0.093 A 
ATOM      8  C   UNL     1      20.203  28.547  25.325  1.00  0.00     0.123 A 
ATOM      9  C   UNL     1      20.321  28.512  23.932  1.00  0.00     0.094 A 
ATOM     10  C   UNL     1      21.281  29.298  23.285  1.00  0.00     0.146 A 
ATOM     11  O   UNL     1      21.368  29.250  21.961  1.00  0.00    -0.452 OA
ENDROOT
BRANCH   1  12
ATOM     12  C   UNL     1      22.234  29.830  19.786  1.00  0.00     0.021 A 
ATOM     13  C   UNL     1      23.160  28.976  19.162  1.00  0.00     0.016 A 
ATOM     14  C   UNL     1      23.153  28.816  17.773  1.00  0.00     0.047 A 
ATOM     15  C   UNL     1      22.213  29.494  16.992  1.00  0.00     0.115 A 
ATOM     16  C   UNL     1      21.278  30.494  18.995  1.00  0.00     0.016 A 
ATOM     17  C   UNL     1      21.273  30.332  17.606  1.00  0.00     0.047 A 
BRANCH  15  18
ATOM     18  O   UNL     1      22.218  29.326  15.609  1.00  0.00    -0.508 OA
ATOM     19  H   UNL     1      22.928  28.770  15.146  1.00  0.00     0.293 HD
ENDBRANCH  15  18
ENDBRANCH   1  12
BRANCH   2  20
ATOM     20  O   UNL     1      24.125  31.509  21.209  1.00  0.00    -0.502 OA
ATOM     21  H   UNL     1      24.835  31.046  20.657  1.00  0.00     0.293 HD
ENDBRANCH   2  20
BRANCH   6  22
ATOM     22  O   UNL     1      22.843  30.975  26.222  1.00  0.00    -0.507 OA
ATOM     23  H   UNL     1      22.720  31.058  27.224  1.00  0.00     0.293 HD
ENDBRANCH   6  22
BRANCH   8  24
ATOM     24  O   UNL     1      19.248  27.767  25.974  1.00  0.00    -0.508 OA
ATOM     25  H   UNL     1      18.684  27.092  25.472  1.00  0.00     0.293 HD
ENDBRANCH   8  24
TORSDOF 5
ENDMDL
MODEL 4
REMARK VINA RESULT:    -5.423      5.666      8.680
REMARK INTER + INTRA:          -6.650
REMARK INTER:                  -6.355
REMARK INTRA:                  -0.295
REMARK UNBOUND:                -0.276
REMARK SMILES O=c1c(O)c(-c2ccc(O)cc2)oc2cc(O)cc(O)c12
REMARK SMILES IDX 5 1 3 2 2 3 1 4 21 5 19 6 18 7 16 8 15 9 14 10 13 11 6 12
REMARK SMILES IDX 7 13 8 14 9 15 12 16 11 17 10 18 4 20 20 22 17 24
REMARK H PARENT 10 19 4 21 20 23 17 25
REMARK Flexibility Score: inf
ROOT
ATOM      1  C   UNL     1      22.781  29.453  21.693  1.00  0.00     0.180 A 
ATOM      2  C   UNL     1      23.135  30.475  22.596  1.00  0.00     0.208 A 
ATOM      3  C   UNL     1      23.365  30.142  23.941  1.00  0.00     0.238 A 
ATOM      4  O   UNL     1      23.672  31.050  24.760  1.00  0.00    -0.285 OA
ATOM      5  C   UNL     1      23.260  28.798  24.354  1.00  0.00     0.111 A 
ATOM      6  C   UNL     1      23.479  28.379  25.689  1.00  0.00     0.134 A 
ATOM      7  C   UNL     1      23.363  27.021  26.020  1.00  0.00     0.093 A 
ATOM      8  C   UNL     1      23.033  26.077  25.046  1.00  0.00     0.123 A 
ATOM      9  C   UNL     1      22.814  26.484  23.726  1.00  0.00     0.094 A 
ATOM     10  C   UNL     1      22.924  27.834  23.376  1.00  0.00     0.146 A 
ATOM     11  O   UNL     1      22.705  28.195  22.117  1.00  0.00    -0.452 OA
ENDROOT
BRANCH   1  12
ATOM     12  C   UNL     1      22.505  29.726  20.265  1.00  0.00     0.021 A 
ATOM     13  C   UNL     1      23.516  29.519  19.312  1.00  0.00     0.016 A 
ATOM     14  C   UNL     1      23.269  29.749  17.955  1.00  0.00     0.047 A 
ATOM     15  C   UNL     1      22.006  30.174  17.532  1.00  0.00     0.115 A 
ATOM     16  C   UNL     1      21.230  30.135  19.831  1.00  0.00     0.016 A 
ATOM     17  C   UNL     1      20.985  30.364  18.472  1.00  0.00     0.047 A 
BRANCH  15  18
ATOM     18  O   UNL     1      21.775  30.399  16.177  1.00  0.00    -0.508 OA
ATOM     19  H   UNL     1      22.069  31.257  15.725  1.00  0.00     0.293 HD
ENDBRANCH  15  18
ENDBRANCH   1  12
BRANCH   2  20
ATOM     20  O   UNL     1      23.282  31.791  22.151  1.00  0.00    -0.502 OA
ATOM     21  H   UNL     1      22.842  32.574  22.619  1.00  0.00     0.293 HD
ENDBRANCH   2  20
BRANCH   6  22
ATOM     22  O   UNL     1      23.811  29.298  26.685  1.00  0.00    -0.507 OA
ATOM     23  H   UNL     1      23.171  29.525  27.437  1.00  0.00     0.293 HD
ENDBRANCH   6  22
BRANCH   8  24
ATOM     24  O   UNL     1      22.925  24.733  25.400  1.00  0.00    -0.508 OA
ATOM     25  H   UNL     1      23.738  24.185  25.657  1.00  0.00     0.293 HD
ENDBRANCH   8  24
TORSDOF 5
ENDMDL
MODEL 5
REMARK VINA RESULT:    -5.356      1.318      1.479
REMARK INTER + INTRA:          -6.572
REMARK INTER:                  -6.318
REMARK INTRA:                  -0.254
REMARK UNBOUND:                -0.276
REMARK SMILES O=c1c(O)c(-c2ccc(O)cc2)oc2cc(O)cc(O)c12
REMARK SMILES IDX 5 1 3 2 2 3 1 4 21 5 19 6 18 7 16 8 15 9 14 10 13 11 6 12
REMARK SMILES IDX 7 13 8 14 9 15 12 16 11 17 10 18 4 20 20 22 17 24
REMARK H PARENT 10 19 4 21 20 23 17 25
REMARK Flexibility Score: inf
ROOT
ATOM      1  C   UNL     1      20.799  29.714  28.929  1.00  0.00     0.180 A 
ATOM      2  C   UNL     1      21.500  28.804  29.745  1.00  0.00     0.208 A 
ATOM      3  C   UNL     1      22.141  27.710  29.143  1.00  0.00     0.238 A 
ATOM      4  O   UNL     1      22.762  26.882  29.864  1.00  0.00    -0.285 OA
ATOM      5  C   UNL     1      22.091  27.556  27.743  1.00  0.00     0.111 A 
ATOM      6  C   UNL     1      22.713  26.483  27.059  1.00  0.00     0.134 A 
ATOM      7  C   UNL     1      22.626  26.405  25.661  1.00  0.00     0.093 A 
ATOM      8  C   UNL     1      21.929  27.374  24.936  1.00  0.00     0.123 A 
ATOM      9  C   UNL     1      21.310  28.435  25.605  1.00  0.00     0.094 A 
ATOM     10  C   UNL     1      21.386  28.530  26.999  1.00  0.00     0.146 A 
ATOM     11  O   UNL     1      20.786  29.544  27.610  1.00  0.00    -0.452 OA
ENDROOT
BRANCH   1  12
ATOM     12  C   UNL     1      20.082  30.882  29.490  1.00  0.00     0.021 A 
ATOM     13  C   UNL     1      20.804  32.036  29.838  1.00  0.00     0.016 A 
ATOM     14  C   UNL     1      20.143  33.158  30.347  1.00  0.00     0.047 A 
ATOM     15  C   UNL     1      18.754  33.147  30.501  1.00  0.00     0.115 A 
ATOM     16  C   UNL     1      18.681  30.885  29.628  1.00  0.00     0.016 A 
ATOM     17  C   UNL     1      18.023  32.009  30.137  1.00  0.00     0.047 A 
BRANCH  15  18
ATOM     18  O   UNL     1      18.109  34.273  31.010  1.00  0.00    -0.508 OA
ATOM     19  H   UNL     1      17.510  34.216  31.824  1.00  0.00     0.293 HD
ENDBRANCH  15  18
ENDBRANCH   1  12
BRANCH   2  20
ATOM     20  O   UNL     1      21.576  29.007  31.125  1.00  0.00    -0.502 OA
ATOM     21  H   UNL     1      20.770  28.918  31.732  1.00  0.00     0.293 HD
ENDBRANCH   2  20
BRANCH   6  22
ATOM     22  O   UNL     1      23.417  25.500  27.754  1.00  0.00    -0.507 OA
ATOM     23  H   UNL     1      22.948  24.827  28.349  1.00  0.00     0.293 HD
ENDBRANCH   6  22
BRANCH   8  24
ATOM     24  O   UNL     1      21.856  27.274  23.548  1.00  0.00    -0.508 OA
ATOM     25  H   UNL     1      22.371  27.904  22.943  1.00  0.00     0.293 HD
ENDBRANCH   8  24
TORSDOF 5
ENDMDL
MODEL 6
REMARK VINA RESULT:    -5.094      1.872      2.695
REMARK INTER + INTRA:          -6.264
REMARK INTER:                  -5.967
REMARK INTRA:                  -0.296
REMARK UNBOUND:                -0.276
REMARK SMILES O=c1c(O)c(-c2ccc(O)cc2)oc2cc(O)cc(O)c12
REMARK SMILES IDX 5 1 3 2 2 3 1 4 21 5 19 6 18 7 16 8 15 9 14 10 13 11 6 12
REMARK SMILES IDX 7 13 8 14 9 15 12 16 11 17 10 18 4 20 20 22 17 24
REMARK H PARENT 10 19 4 21 20 23 17 25
REMARK Flexibility Score: inf
ROOT
ATOM      1  C   UNL     1      21.168  29.680  27.581  1.00  0.00     0.180 A 
ATOM      2  C   UNL     1      21.562  28.398  28.013  1.00  0.00     0.208 A 
ATOM      3  C   UNL     1      22.042  27.481  27.063  1.00  0.00     0.238 A 
ATOM      4  O   UNL     1      22.386  26.327  27.436  1.00  0.00    -0.285 OA
ATOM      5  C   UNL     1      22.139  27.865  25.710  1.00  0.00     0.111 A 
ATOM      6  C   UNL     1      22.615  27.003  24.693  1.00  0.00     0.134 A 
ATOM      7  C   UNL     1      22.692  27.462  23.370  1.00  0.00     0.093 A 
ATOM      8  C   UNL     1      22.302  28.764  23.045  1.00  0.00     0.123 A 
ATOM      9  C   UNL     1      21.830  29.620  24.045  1.00  0.00     0.094 A 
ATOM     10  C   UNL     1      21.746  29.180  25.370  1.00  0.00     0.146 A 
ATOM     11  O   UNL     1      21.289  30.011  26.299  1.00  0.00    -0.452 OA
ENDROOT
BRANCH   1  12
ATOM     12  C   UNL     1      20.636  30.696  28.517  1.00  0.00     0.021 A 
ATOM     13  C   UNL     1      21.503  31.657  29.062  1.00  0.00     0.016 A 
ATOM     14  C   UNL     1      21.017  32.640  29.930  1.00  0.00     0.047 A 
ATOM     15  C   UNL     1      19.657  32.683  30.252  1.00  0.00     0.115 A 
ATOM     16  C   UNL     1      19.265  30.757  28.829  1.00  0.00     0.016 A 
ATOM     17  C   UNL     1      18.781  31.741  29.698  1.00  0.00     0.047 A 
BRANCH  15  18
ATOM     18  O   UNL     1      19.186  33.667  31.119  1.00  0.00    -0.508 OA
ATOM     19  H   UNL     1      19.781  34.072  31.833  1.00  0.00     0.293 HD
ENDBRANCH  15  18
ENDBRANCH   1  12
BRANCH   2  20
ATOM     20  O   UNL     1      21.502  28.059  29.366  1.00  0.00    -0.502 OA
ATOM     21  H   UNL     1      20.625  27.979  29.867  1.00  0.00     0.293 HD
ENDBRANCH   2  20
BRANCH   6  22
ATOM     22  O   UNL     1      23.013  25.697  24.986  1.00  0.00    -0.507 OA
ATOM     23  H   UNL     1      23.764  25.243  24.480  1.00  0.00     0.293 HD
ENDBRANCH   6  22
BRANCH   8  24
ATOM     24  O   UNL     1      22.388  29.197  21.724  1.00  0.00    -0.508 OA
ATOM     25  H   UNL     1      23.029  29.932  21.447  1.00  0.00     0.293 HD
ENDBRANCH   8  24
TORSDOF 5
ENDMDL
MODEL 7
REMARK VINA RESULT:    -5.048      1.807      2.693
REMARK INTER + INTRA:          -6.209
REMARK INTER:                  -5.920
REMARK INTRA:                  -0.289
REMARK UNBOUND:                -0.276
REMARK SMILES O=c1c(O)c(-c2ccc(O)cc2)oc2cc(O)cc(O)c12
REMARK SMILES IDX 5 1 3 2 2 3 1 4 21 5 19 6 18 7 16 8 15 9 14 10 13 11 6 12
REMARK SMILES IDX 7 13 8 14 9 15 12 16 11 17 10 18 4 20 20 22 17 24
REMARK H PARENT 10 19 4 21 20 23 17 25
REMARK Flexibility Score: inf
ROOT
ATOM      1  C   UNL     1      21.190  29.708  27.679  1.00  0.00     0.180 A 
ATOM      2  C   UNL     1      21.597  28.456  28.180  1.00  0.00     0.208 A 
ATOM      3  C   UNL     1      22.071  27.487  27.280  1.00  0.00     0.238 A 
ATOM      4  O   UNL     1      22.427  26.359  27.715  1.00  0.00    -0.285 OA
ATOM      5  C   UNL     1      22.151  27.792  25.906  1.00  0.00     0.111 A 
ATOM      6  C   UNL     1      22.621  26.874  24.935  1.00  0.00     0.134 A 
ATOM      7  C   UNL     1      22.679  27.257  23.587  1.00  0.00     0.093 A 
ATOM      8  C   UNL     1      22.278  28.534  23.191  1.00  0.00     0.123 A 
ATOM      9  C   UNL     1      21.812  29.445  24.144  1.00  0.00     0.094 A 
ATOM     10  C   UNL     1      21.745  29.083  25.493  1.00  0.00     0.146 A 
ATOM     11  O   UNL     1      21.294  29.965  26.378  1.00  0.00    -0.452 OA
ENDROOT
BRANCH   1  12
ATOM     12  C   UNL     1      20.662  30.774  28.560  1.00  0.00     0.021 A 
ATOM     13  C   UNL     1      19.293  30.793  28.879  1.00  0.00     0.016 A 
ATOM     14  C   UNL     1      18.778  31.777  29.728  1.00  0.00     0.047 A 
ATOM     15  C   UNL     1      19.624  32.744  30.280  1.00  0.00     0.115 A 
ATOM     16  C   UNL     1      21.511  31.737  29.135  1.00  0.00     0.016 A 
ATOM     17  C   UNL     1      20.993  32.720  29.985  1.00  0.00     0.047 A 
BRANCH  15  18
ATOM     18  O   UNL     1      19.095  33.718  31.124  1.00  0.00    -0.508 OA
ATOM     19  H   UNL     1      19.559  34.609  31.259  1.00  0.00     0.293 HD
ENDBRANCH  15  18
ENDBRANCH   1  12
BRANCH   2  20
ATOM     20  O   UNL     1      21.554  28.196  29.551  1.00  0.00    -0.502 OA
ATOM     21  H   UNL     1      20.709  28.307  30.098  1.00  0.00     0.293 HD
ENDBRANCH   2  20
BRANCH   6  22
ATOM     22  O   UNL     1      23.030  25.591  25.299  1.00  0.00    -0.507 OA
ATOM     23  H   UNL     1      22.548  24.764  24.967  1.00  0.00     0.293 HD
ENDBRANCH   6  22
BRANCH   8  24
ATOM     24  O   UNL     1      22.346  28.890  21.845  1.00  0.00    -0.508 OA
ATOM     25  H   UNL     1      22.050  28.255  21.113  1.00  0.00     0.293 HD
ENDBRANCH   8  24
TORSDOF 5
ENDMDL
MODEL 8
REMARK VINA RESULT:    -4.941      3.449      7.988
REMARK INTER + INTRA:          -6.084
REMARK INTER:                  -5.786
REMARK INTRA:                  -0.298
REMARK UNBOUND:                -0.276
REMARK SMILES O=c1c(O)c(-c2ccc(O)cc2)oc2cc(O)cc(O)c12
REMARK SMILES IDX 5 1 3 2 2 3 1 4 21 5 19 6 18 7 16 8 15 9 14 10 13 11 6 12
REMARK SMILES IDX 7 13 8 14 9 15 12 16 11 17 10 18 4 20 20 22 17 24
REMARK H PARENT 10 19 4 21 20 23 17 25
REMARK Flexibility Score: inf
ROOT
ATOM      1  C   UNL     1      22.001  29.486  23.898  1.00  0.00     0.180 A 
ATOM      2  C   UNL     1      20.772  28.999  24.387  1.00  0.00     0.208 A 
ATOM      3  C   UNL     1      20.335  29.414  25.655  1.00  0.00     0.238 A 
ATOM      4  O   UNL     1      19.243  28.976  26.108  1.00  0.00    -0.285 OA
ATOM      5  C   UNL     1      21.118  30.320  26.400  1.00  0.00     0.111 A 
ATOM      6  C   UNL     1      20.747  30.790  27.683  1.00  0.00     0.134 A 
ATOM      7  C   UNL     1      21.576  31.699  28.358  1.00  0.00     0.093 A 
ATOM      8  C   UNL     1      22.765  32.145  27.776  1.00  0.00     0.123 A 
ATOM      9  C   UNL     1      23.137  31.684  26.510  1.00  0.00     0.094 A 
ATOM     10  C   UNL     1      22.325  30.777  25.822  1.00  0.00     0.146 A 
ATOM     11  O   UNL     1      22.704  30.351  24.623  1.00  0.00    -0.452 OA
ENDROOT
BRANCH   1  12
ATOM     12  C   UNL     1      22.538  29.081  22.579  1.00  0.00     0.021 A 
ATOM     13  C   UNL     1      22.268  29.871  21.449  1.00  0.00     0.016 A 
ATOM     14  C   UNL     1      22.785  29.520  20.198  1.00  0.00     0.047 A 
ATOM     15  C   UNL     1      23.589  28.384  20.064  1.00  0.00     0.115 A 
ATOM     16  C   UNL     1      23.365  27.951  22.440  1.00  0.00     0.016 A 
ATOM     17  C   UNL     1      23.881  27.602  21.188  1.00  0.00     0.047 A 
BRANCH  15  18
ATOM     18  O   UNL     1      24.097  28.046  18.811  1.00  0.00    -0.508 OA
ATOM     19  H   UNL     1      23.548  27.518  18.143  1.00  0.00     0.293 HD
ENDBRANCH  15  18
ENDBRANCH   1  12
BRANCH   2  20
ATOM     20  O   UNL     1      19.992  28.141  23.608  1.00  0.00    -0.502 OA
ATOM     21  H   UNL     1      20.359  27.284  23.212  1.00  0.00     0.293 HD
ENDBRANCH   2  20
BRANCH   6  22
ATOM     22  O   UNL     1      19.565  30.364  28.291  1.00  0.00    -0.507 OA
ATOM     23  H   UNL     1      19.126  29.485  28.045  1.00  0.00     0.293 HD
ENDBRANCH   6  22
BRANCH   8  24
ATOM     24  O   UNL     1      23.570  33.049  28.467  1.00  0.00    -0.508 OA
ATOM     25  H   UNL     1      24.401  32.747  28.962  1.00  0.00     0.293 HD
ENDBRANCH   8  24
TORSDOF 5
ENDMDL
MODEL 9
REMARK VINA RESULT:    -4.890      1.875      6.635
REMARK INTER + INTRA:          -6.024
REMARK INTER:                  -5.738
REMARK INTRA:                  -0.285
REMARK UNBOUND:                -0.276
REMARK SMILES O=c1c(O)c(-c2ccc(O)cc2)oc2cc(O)cc(O)c12
REMARK SMILES IDX 5 1 3 2 2 3 1 4 21 5 19 6 18 7 16 8 15 9 14 10 13 11 6 12
REMARK SMILES IDX 7 13 8 14 9 15 12 16 11 17 10 18 4 20 20 22 17 24
REMARK H PARENT 10 19 4 21 20 23 17 25
REMARK Flexibility Score: inf
ROOT
ATOM      1  C   UNL     1      21.179  30.267  27.534  1.00  0.00     0.180 A 
ATOM      2  C   UNL     1      22.133  31.214  27.957  1.00  0.00     0.208 A 
ATOM      3  C   UNL     1      21.776  32.136  28.954  1.00  0.00     0.238 A 
ATOM      4  O   UNL     1      22.617  32.996  29.333  1.00  0.00    -0.285 OA
ATOM      5  C   UNL     1      20.487  32.084  29.523  1.00  0.00     0.111 A 
ATOM      6  C   UNL     1      20.050  32.975  30.533  1.00  0.00     0.134 A 
ATOM      7  C   UNL     1      18.754  32.853  31.056  1.00  0.00     0.093 A 
ATOM      8  C   UNL     1      17.889  31.861  30.589  1.00  0.00     0.123 A 
ATOM      9  C   UNL     1      18.313  30.979  29.590  1.00  0.00     0.094 A 
ATOM     10  C   UNL     1      19.602  31.085  29.056  1.00  0.00     0.146 A 
ATOM     11  O   UNL     1      19.978  30.239  28.105  1.00  0.00    -0.452 OA
ENDROOT
BRANCH   1  12
ATOM     12  C   UNL     1      21.473  29.274  26.477  1.00  0.00     0.021 A 
ATOM     13  C   UNL     1      22.078  28.053  26.822  1.00  0.00     0.016 A 
ATOM     14  C   UNL     1      22.343  27.092  25.842  1.00  0.00     0.047 A 
ATOM     15  C   UNL     1      21.994  27.331  24.509  1.00  0.00     0.115 A 
ATOM     16  C   UNL     1      21.105  29.499  25.137  1.00  0.00     0.016 A 
ATOM     17  C   UNL     1      21.371  28.535  24.159  1.00  0.00     0.047 A 
BRANCH  15  18
ATOM     18  O   UNL     1      22.264  26.363  23.544  1.00  0.00    -0.508 OA
ATOM     19  H   UNL     1      22.255  25.375  23.767  1.00  0.00     0.293 HD
ENDBRANCH  15  18
ENDBRANCH   1  12
BRANCH   2  20
ATOM     20  O   UNL     1      23.419  31.212  27.413  1.00  0.00    -0.502 OA
ATOM     21  H   UNL     1      24.229  31.526  27.933  1.00  0.00     0.293 HD
ENDBRANCH   2  20
BRANCH   6  22
ATOM     22  O   UNL     1      20.891  33.976  31.022  1.00  0.00    -0.507 OA
ATOM     23  H   UNL     1      21.898  33.866  31.036  1.00  0.00     0.293 HD
ENDBRANCH   6  22
BRANCH   8  24
ATOM     24  O   UNL     1      16.606  31.760  31.125  1.00  0.00    -0.508 OA
ATOM     25  H   UNL     1      16.346  32.249  31.974  1.00  0.00     0.293 HD
ENDBRANCH   8  24
TORSDOF 5
ENDMDL
