MODEL 1
REMARK VINA RESULT:    -3.524      0.000      0.000
REMARK INTER + INTRA:          -4.221
REMARK INTER:                  -4.142
REMARK INTRA:                  -0.078
REMARK UNBOUND:                -0.078
REMARK SMILES O=C([O-])CCC(=O)[O-]
REMARK SMILES IDX 4 1 2 2 1 3 3 4 5 5 6 6 7 7 8 8
REMARK H PARENT
REMARK Flexibility Score: inf
ROOT
ATOM      1  C   UNL     1      14.453  -8.881 -16.492  1.00  0.00     0.059 C 
ENDROOT
BRANCH   1   2
ATOM      2  C   UNL     1      15.158 -10.202 -16.434  1.00  0.00     0.042 C 
ATOM      3  O   UNL     1      16.368 -10.291 -16.771  1.00  0.00    -0.550 OA
ATOM      4  O   UNL     1      14.466 -11.343 -16.047  1.00  0.00    -0.550 OA
ENDBRANCH   1   2
BRANCH   1   5
ATOM      5  C   UNL     1      12.932  -9.050 -16.421  1.00  0.00     0.059 C 
BRANCH   5   6
ATOM      6  C   UNL     1      12.284  -8.782 -17.745  1.00  0.00     0.042 C 
ATOM      7  O   UNL     1      12.801  -7.961 -18.549  1.00  0.00    -0.550 OA
ATOM      8  O   UNL     1      11.131  -9.467 -18.108  1.00  0.00    -0.550 OA
ENDBRANCH   5   6
ENDBRANCH   1   5
TORSDOF 3
ENDMDL
MODEL 2
REMARK VINA RESULT:    -3.506      8.488      9.583
REMARK INTER + INTRA:          -4.199
REMARK INTER:                  -4.082
REMARK INTRA:                  -0.117
REMARK UNBOUND:                -0.078
REMARK SMILES O=C([O-])CCC(=O)[O-]
REMARK SMILES IDX 4 1 2 2 1 3 3 4 5 5 6 6 7 7 8 8
REMARK H PARENT
REMARK Flexibility Score: inf
ROOT
ATOM      1  C   UNL     1      20.707  -8.464 -21.032  1.00  0.00     0.059 C 
ENDROOT
BRANCH   1   2
ATOM      2  C   UNL     1      21.345  -7.299 -20.339  1.00  0.00     0.042 C 
ATOM      3  O   UNL     1      20.759  -6.185 -20.301  1.00  0.00    -0.550 OA
ATOM      4  O   UNL     1      22.606  -7.432 -19.772  1.00  0.00    -0.550 OA
ENDBRANCH   1   2
BRANCH   1   5
ATOM      5  C   UNL     1      21.671  -9.131 -22.018  1.00  0.00     0.059 C 
BRANCH   5   6
ATOM      6  C   UNL     1      22.124 -10.472 -21.526  1.00  0.00     0.042 C 
ATOM      7  O   UNL     1      22.576 -11.324 -22.336  1.00  0.00    -0.550 OA
ATOM      8  O   UNL     1      22.085 -10.766 -20.169  1.00  0.00    -0.550 OA
ENDBRANCH   5   6
ENDBRANCH   1   5
TORSDOF 3
ENDMDL
MODEL 3
REMARK VINA RESULT:    -3.495      7.780      8.949
REMARK INTER + INTRA:          -4.187
REMARK INTER:                  -4.070
REMARK INTRA:                  -0.117
REMARK UNBOUND:                -0.078
REMARK SMILES O=C([O-])CCC(=O)[O-]
REMARK SMILES IDX 4 1 2 2 1 3 3 4 5 5 6 6 7 7 8 8
REMARK H PARENT
REMARK Flexibility Score: inf
ROOT
ATOM      1  C   UNL     1      21.577  -8.616 -21.240  1.00  0.00     0.059 C 
ENDROOT
BRANCH   1   2
ATOM      2  C   UNL     1      20.752  -7.365 -21.237  1.00  0.00     0.042 C 
ATOM      3  O   UNL     1      19.922  -7.149 -22.159  1.00  0.00    -0.550 OA
ATOM      4  O   UNL     1      20.932  -6.417 -20.237  1.00  0.00    -0.550 OA
ENDBRANCH   1   2
BRANCH   1   5
ATOM      5  C   UNL     1      22.292  -8.824 -19.901  1.00  0.00     0.059 C 
BRANCH   5   6
ATOM      6  C   UNL     1      21.577  -9.823 -19.043  1.00  0.00     0.042 C 
ATOM      7  O   UNL     1      22.060 -10.975 -18.875  1.00  0.00    -0.550 OA
ATOM      8  O   UNL     1      20.399  -9.470 -18.397  1.00  0.00    -0.550 OA
ENDBRANCH   5   6
ENDBRANCH   1   5
TORSDOF 3
ENDMDL
MODEL 4
REMARK VINA RESULT:    -3.470      7.820      8.429
REMARK INTER + INTRA:          -4.157
REMARK INTER:                  -4.052
REMARK INTRA:                  -0.105
REMARK UNBOUND:                -0.078
REMARK SMILES O=C([O-])CCC(=O)[O-]
REMARK SMILES IDX 4 1 2 2 1 3 3 4 5 5 6 6 7 7 8 8
REMARK H PARENT
REMARK Flexibility Score: inf
ROOT
ATOM      1  C   UNL     1      22.358  -8.883 -19.970  1.00  0.00     0.059 C 
ENDROOT
BRANCH   1   2
ATOM      2  C   UNL     1      21.621  -9.830 -19.073  1.00  0.00     0.042 C 
ATOM      3  O   UNL     1      22.085 -10.978 -18.845  1.00  0.00    -0.550 OA
ATOM      4  O   UNL     1      20.400  -9.459 -18.523  1.00  0.00    -0.550 OA
ENDBRANCH   1   2
BRANCH   1   5
ATOM      5  C   UNL     1      21.598  -8.636 -21.277  1.00  0.00     0.059 C 
BRANCH   5   6
ATOM      6  C   UNL     1      20.831  -7.349 -21.235  1.00  0.00     0.042 C 
ATOM      7  O   UNL     1      19.982  -7.088 -22.128  1.00  0.00    -0.550 OA
ATOM      8  O   UNL     1      21.026  -6.456 -20.189  1.00  0.00    -0.550 OA
ENDBRANCH   5   6
ENDBRANCH   1   5
TORSDOF 3
ENDMDL
MODEL 5
REMARK VINA RESULT:    -3.467      0.159      3.815
REMARK INTER + INTRA:          -4.154
REMARK INTER:                  -4.061
REMARK INTRA:                  -0.093
REMARK UNBOUND:                -0.078
REMARK SMILES O=C([O-])CCC(=O)[O-]
REMARK SMILES IDX 4 1 2 2 1 3 3 4 5 5 6 6 7 7 8 8
REMARK H PARENT
REMARK Flexibility Score: inf
ROOT
ATOM      1  C   UNL     1      12.950  -9.102 -16.282  1.00  0.00     0.059 C 
ENDROOT
BRANCH   1   2
ATOM      2  C   UNL     1      12.334  -8.874 -17.629  1.00  0.00     0.042 C 
ATOM      3  O   UNL     1      11.250  -9.437 -17.934  1.00  0.00    -0.550 OA
ATOM      4  O   UNL     1      12.981  -8.074 -18.562  1.00  0.00    -0.550 OA
ENDBRANCH   1   2
BRANCH   1   5
ATOM      5  C   UNL     1      14.470  -8.911 -16.316  1.00  0.00     0.059 C 
BRANCH   5   6
ATOM      6  C   UNL     1      15.189 -10.222 -16.415  1.00  0.00     0.042 C 
ATOM      7  O   UNL     1      16.418 -10.252 -16.687  1.00  0.00    -0.550 OA
ATOM      8  O   UNL     1      14.511 -11.409 -16.168  1.00  0.00    -0.550 OA
ENDBRANCH   5   6
ENDBRANCH   1   5
TORSDOF 3
ENDMDL
MODEL 6
REMARK VINA RESULT:    -3.424      2.120      3.385
REMARK INTER + INTRA:          -4.103
REMARK INTER:                  -4.022
REMARK INTRA:                  -0.081
REMARK UNBOUND:                -0.078
REMARK SMILES O=C([O-])CCC(=O)[O-]
REMARK SMILES IDX 4 1 2 2 1 3 3 4 5 5 6 6 7 7 8 8
REMARK H PARENT
REMARK Flexibility Score: inf
ROOT
ATOM      1  C   UNL     1      12.338 -10.211 -17.804  1.00  0.00     0.059 C 
ENDROOT
BRANCH   1   2
ATOM      2  C   UNL     1      13.044  -8.889 -17.808  1.00  0.00     0.042 C 
ATOM      3  O   UNL     1      12.604  -7.936 -18.504  1.00  0.00    -0.550 OA
ATOM      4  O   UNL     1      14.213  -8.724 -17.076  1.00  0.00    -0.550 OA
ENDBRANCH   1   2
BRANCH   1   5
ATOM      5  C   UNL     1      10.818 -10.039 -17.895  1.00  0.00     0.059 C 
BRANCH   5   6
ATOM      6  C   UNL     1      10.154 -10.297 -16.577  1.00  0.00     0.042 C 
ATOM      7  O   UNL     1      10.809 -10.795 -15.624  1.00  0.00    -0.550 OA
ATOM      8  O   UNL     1       8.821  -9.952 -16.390  1.00  0.00    -0.550 OA
ENDBRANCH   5   6
ENDBRANCH   1   5
TORSDOF 3
ENDMDL
MODEL 7
REMARK VINA RESULT:    -3.419      2.387      2.791
REMARK INTER + INTRA:          -4.097
REMARK INTER:                  -4.000
REMARK INTRA:                  -0.097
REMARK UNBOUND:                -0.078
REMARK SMILES O=C([O-])CCC(=O)[O-]
REMARK SMILES IDX 4 1 2 2 1 3 3 4 5 5 6 6 7 7 8 8
REMARK H PARENT
REMARK Flexibility Score: inf
ROOT
ATOM      1  C   UNL     1      14.706  -8.906 -15.947  1.00  0.00     0.059 C 
ENDROOT
BRANCH   1   2
ATOM      2  C   UNL     1      15.318 -10.225 -16.308  1.00  0.00     0.042 C 
ATOM      3  O   UNL     1      16.507 -10.282 -16.718  1.00  0.00    -0.550 OA
ATOM      4  O   UNL     1      14.560 -11.387 -16.233  1.00  0.00    -0.550 OA
ENDBRANCH   1   2
BRANCH   1   5
ATOM      5  C   UNL     1      13.209  -9.040 -15.653  1.00  0.00     0.059 C 
BRANCH   5   6
ATOM      6  C   UNL     1      12.900  -8.746 -14.216  1.00  0.00     0.042 C 
ATOM      7  O   UNL     1      13.813  -8.790 -13.350  1.00  0.00    -0.550 OA
ATOM      8  O   UNL     1      11.611  -8.386 -13.841  1.00  0.00    -0.550 OA
ENDBRANCH   5   6
ENDBRANCH   1   5
TORSDOF 3
ENDMDL
MODEL 8
REMARK VINA RESULT:    -3.413      1.818      3.825
REMARK INTER + INTRA:          -4.091
REMARK INTER:                  -3.974
REMARK INTRA:                  -0.117
REMARK UNBOUND:                -0.078
REMARK SMILES O=C([O-])CCC(=O)[O-]
REMARK SMILES IDX 4 1 2 2 1 3 3 4 5 5 6 6 7 7 8 8
REMARK H PARENT
REMARK Flexibility Score: inf
ROOT
ATOM      1  C   UNL     1      12.900  -9.959 -16.953  1.00  0.00     0.059 C 
ENDROOT
BRANCH   1   2
ATOM      2  C   UNL     1      12.171  -9.107 -17.947  1.00  0.00     0.042 C 
ATOM      3  O   UNL     1      12.728  -8.091 -18.441  1.00  0.00    -0.550 OA
ATOM      4  O   UNL     1      10.861  -9.411 -18.295  1.00  0.00    -0.550 OA
ENDBRANCH   1   2
BRANCH   1   5
ATOM      5  C   UNL     1      12.574  -9.550 -15.513  1.00  0.00     0.059 C 
BRANCH   5   6
ATOM      6  C   UNL     1      13.731  -8.856 -14.861  1.00  0.00     0.042 C 
ATOM      7  O   UNL     1      13.763  -8.717 -13.609  1.00  0.00    -0.550 OA
ATOM      8  O   UNL     1      14.793  -8.398 -15.631  1.00  0.00    -0.550 OA
ENDBRANCH   5   6
ENDBRANCH   1   5
TORSDOF 3
ENDMDL
MODEL 9
REMARK VINA RESULT:    -3.378      2.362      3.948
REMARK INTER + INTRA:          -4.048
REMARK INTER:                  -3.946
REMARK INTRA:                  -0.102
REMARK UNBOUND:                -0.078
REMARK SMILES O=C([O-])CCC(=O)[O-]
REMARK SMILES IDX 4 1 2 2 1 3 3 4 5 5 6 6 7 7 8 8
REMARK H PARENT
REMARK Flexibility Score: inf
ROOT
ATOM      1  C   UNL     1      13.059  -9.085 -15.726  1.00  0.00     0.059 C 
ENDROOT
BRANCH   1   2
ATOM      2  C   UNL     1      12.801  -8.730 -14.294  1.00  0.00     0.042 C 
ATOM      3  O   UNL     1      13.733  -8.782 -13.449  1.00  0.00    -0.550 OA
ATOM      4  O   UNL     1      11.519  -8.382 -13.884  1.00  0.00    -0.550 OA
ENDBRANCH   1   2
BRANCH   1   5
ATOM      5  C   UNL     1      14.539  -8.922 -16.090  1.00  0.00     0.059 C 
BRANCH   5   6
ATOM      6  C   UNL     1      15.205 -10.248 -16.300  1.00  0.00     0.042 C 
ATOM      7  O   UNL     1      14.555 -11.316 -16.143  1.00  0.00    -0.550 OA
ATOM      8  O   UNL     1      16.532 -10.304 -16.709  1.00  0.00    -0.550 OA
ENDBRANCH   5   6
ENDBRANCH   1   5
TORSDOF 3
ENDMDL
