MODEL 1
REMARK VINA RESULT:    -3.769      0.000      0.000
REMARK INTER + INTRA:          -4.924
REMARK INTER:                  -4.871
REMARK INTRA:                  -0.054
REMARK UNBOUND:                -0.054
REMARK SMILES CCCCCCC=O
REMARK SMILES IDX 4 1 3 2 2 3 1 4 5 5 6 6 7 7 8 8
REMARK H PARENT
REMARK Flexibility Score: inf
ROOT
ATOM      1  C   UNL     1      25.883  56.946  -8.996  1.00  0.00     0.000 C 
ENDROOT
BRANCH   1   2
ATOM      2  C   UNL     1      24.802  56.547  -7.975  1.00  0.00    -0.000 C 
BRANCH   2   3
ATOM      3  C   UNL     1      23.961  55.320  -8.371  1.00  0.00    -0.003 C 
ATOM      4  C   UNL     1      22.824  55.033  -7.392  1.00  0.00     0.004 C 
ENDBRANCH   2   3
ENDBRANCH   1   2
BRANCH   1   5
ATOM      5  C   UNL     1      25.929  58.458  -9.261  1.00  0.00     0.008 C 
BRANCH   5   6
ATOM      6  C   UNL     1      27.103  58.818 -10.177  1.00  0.00     0.072 C 
BRANCH   6   7
ATOM      7  C   UNL     1      27.501  60.256 -10.010  1.00  0.00     0.224 C 
ATOM      8  O   UNL     1      28.204  60.794 -10.851  1.00  0.00    -0.303 OA
ENDBRANCH   6   7
ENDBRANCH   5   6
ENDBRANCH   1   5
TORSDOF 5
ENDMDL
MODEL 2
REMARK VINA RESULT:    -3.766      3.306      5.750
REMARK INTER + INTRA:          -4.920
REMARK INTER:                  -4.874
REMARK INTRA:                  -0.047
REMARK UNBOUND:                -0.054
REMARK SMILES CCCCCCC=O
REMARK SMILES IDX 4 1 3 2 2 3 1 4 5 5 6 6 7 7 8 8
REMARK H PARENT
REMARK Flexibility Score: inf
ROOT
ATOM      1  C   UNL     1      25.863  57.088  -8.922  1.00  0.00     0.000 C 
ENDROOT
BRANCH   1   2
ATOM      2  C   UNL     1      26.005  58.553  -9.374  1.00  0.00    -0.000 C 
BRANCH   2   3
ATOM      3  C   UNL     1      27.202  58.830 -10.300  1.00  0.00    -0.003 C 
ATOM      4  C   UNL     1      27.724  60.262 -10.190  1.00  0.00     0.004 C 
ENDBRANCH   2   3
ENDBRANCH   1   2
BRANCH   1   5
ATOM      5  C   UNL     1      24.402  56.666  -8.706  1.00  0.00     0.008 C 
BRANCH   5   6
ATOM      6  C   UNL     1      24.323  55.300  -8.016  1.00  0.00     0.072 C 
BRANCH   6   7
ATOM      7  C   UNL     1      22.942  55.036  -7.491  1.00  0.00     0.224 C 
ATOM      8  O   UNL     1      22.781  54.772  -6.310  1.00  0.00    -0.303 OA
ENDBRANCH   6   7
ENDBRANCH   5   6
ENDBRANCH   1   5
TORSDOF 5
ENDMDL
MODEL 3
REMARK VINA RESULT:    -3.450      1.462      2.140
REMARK INTER + INTRA:          -4.513
REMARK INTER:                  -4.362
REMARK INTRA:                  -0.150
REMARK UNBOUND:                -0.054
REMARK SMILES CCCCCCC=O
REMARK SMILES IDX 4 1 3 2 2 3 1 4 5 5 6 6 7 7 8 8
REMARK H PARENT
REMARK Flexibility Score: inf
ROOT
ATOM      1  C   UNL     1      24.975  55.322  -8.101  1.00  0.00     0.000 C 
ENDROOT
BRANCH   1   2
ATOM      2  C   UNL     1      23.498  55.746  -7.996  1.00  0.00    -0.000 C 
BRANCH   2   3
ATOM      3  C   UNL     1      22.574  54.707  -7.336  1.00  0.00    -0.003 C 
ATOM      4  C   UNL     1      22.706  54.670  -5.815  1.00  0.00     0.004 C 
ENDBRANCH   2   3
ENDBRANCH   1   2
BRANCH   1   5
ATOM      5  C   UNL     1      25.875  56.426  -8.676  1.00  0.00     0.008 C 
BRANCH   5   6
ATOM      6  C   UNL     1      25.178  57.790  -8.611  1.00  0.00     0.072 C 
BRANCH   6   7
ATOM      7  C   UNL     1      25.958  58.834  -9.355  1.00  0.00     0.224 C 
ATOM      8  O   UNL     1      26.945  58.513  -9.997  1.00  0.00    -0.303 OA
ENDBRANCH   6   7
ENDBRANCH   5   6
ENDBRANCH   1   5
TORSDOF 5
ENDMDL
MODEL 4
REMARK VINA RESULT:    -3.435     15.727     16.850
REMARK INTER + INTRA:          -4.492
REMARK INTER:                  -4.400
REMARK INTRA:                  -0.092
REMARK UNBOUND:                -0.054
REMARK SMILES CCCCCCC=O
REMARK SMILES IDX 4 1 3 2 2 3 1 4 5 5 6 6 7 7 8 8
REMARK H PARENT
REMARK Flexibility Score: inf
ROOT
ATOM      1  C   UNL     1      31.415  45.245   0.574  1.00  0.00     0.000 C 
ENDROOT
BRANCH   1   2
ATOM      2  C   UNL     1      29.933  45.572   0.831  1.00  0.00    -0.000 C 
BRANCH   2   3
ATOM      3  C   UNL     1      28.975  45.153  -0.298  1.00  0.00    -0.003 C 
ATOM      4  C   UNL     1      27.968  46.243  -0.663  1.00  0.00     0.004 C 
ENDBRANCH   2   3
ENDBRANCH   1   2
BRANCH   1   5
ATOM      5  C   UNL     1      32.260  45.246   1.858  1.00  0.00     0.008 C 
BRANCH   5   6
ATOM      6  C   UNL     1      32.911  46.615   2.084  1.00  0.00     0.072 C 
BRANCH   6   7
ATOM      7  C   UNL     1      32.713  47.083   3.496  1.00  0.00     0.224 C 
ATOM      8  O   UNL     1      31.907  47.968   3.736  1.00  0.00    -0.303 OA
ENDBRANCH   6   7
ENDBRANCH   5   6
ENDBRANCH   1   5
TORSDOF 5
ENDMDL
MODEL 5
REMARK VINA RESULT:    -3.426     15.433     16.799
REMARK INTER + INTRA:          -4.481
REMARK INTER:                  -4.355
REMARK INTRA:                  -0.126
REMARK UNBOUND:                -0.054
REMARK SMILES CCCCCCC=O
REMARK SMILES IDX 4 1 3 2 2 3 1 4 5 5 6 6 7 7 8 8
REMARK H PARENT
REMARK Flexibility Score: inf
ROOT
ATOM      1  C   UNL     1      31.700  45.558   0.710  1.00  0.00     0.000 C 
ENDROOT
BRANCH   1   2
ATOM      2  C   UNL     1      32.502  45.618   2.022  1.00  0.00    -0.000 C 
BRANCH   2   3
ATOM      3  C   UNL     1      32.950  47.030   2.442  1.00  0.00    -0.003 C 
ATOM      4  C   UNL     1      32.098  47.617   3.566  1.00  0.00     0.004 C 
ENDBRANCH   2   3
ENDBRANCH   1   2
BRANCH   1   5
ATOM      5  C   UNL     1      30.181  45.556   0.937  1.00  0.00     0.008 C 
BRANCH   5   6
ATOM      6  C   UNL     1      29.454  44.873  -0.227  1.00  0.00     0.072 C 
BRANCH   6   7
ATOM      7  C   UNL     1      28.121  45.511  -0.485  1.00  0.00     0.224 C 
ATOM      8  O   UNL     1      28.063  46.596  -1.041  1.00  0.00    -0.303 OA
ENDBRANCH   6   7
ENDBRANCH   5   6
ENDBRANCH   1   5
TORSDOF 5
ENDMDL
MODEL 6
REMARK VINA RESULT:    -3.385      2.654      5.545
REMARK INTER + INTRA:          -4.429
REMARK INTER:                  -4.329
REMARK INTRA:                  -0.099
REMARK UNBOUND:                -0.054
REMARK SMILES CCCCCCC=O
REMARK SMILES IDX 4 1 3 2 2 3 1 4 5 5 6 6 7 7 8 8
REMARK H PARENT
REMARK Flexibility Score: inf
ROOT
ATOM      1  C   UNL     1      26.974  58.749 -10.090  1.00  0.00     0.000 C 
ENDROOT
BRANCH   1   2
ATOM      2  C   UNL     1      27.334  60.241  -9.973  1.00  0.00    -0.000 C 
BRANCH   2   3
ATOM      3  C   UNL     1      28.590  60.665 -10.756  1.00  0.00    -0.003 C 
ATOM      4  C   UNL     1      29.480  59.485 -11.144  1.00  0.00     0.004 C 
ENDBRANCH   2   3
ENDBRANCH   1   2
BRANCH   1   5
ATOM      5  C   UNL     1      25.832  58.333  -9.151  1.00  0.00     0.008 C 
BRANCH   5   6
ATOM      6  C   UNL     1      25.844  56.819  -8.910  1.00  0.00     0.072 C 
BRANCH   6   7
ATOM      7  C   UNL     1      24.673  56.393  -8.074  1.00  0.00     0.224 C 
ATOM      8  O   UNL     1      23.639  56.035  -8.614  1.00  0.00    -0.303 OA
ENDBRANCH   6   7
ENDBRANCH   5   6
ENDBRANCH   1   5
TORSDOF 5
ENDMDL
MODEL 7
REMARK VINA RESULT:    -3.384     17.942     18.962
REMARK INTER + INTRA:          -4.427
REMARK INTER:                  -4.217
REMARK INTRA:                  -0.210
REMARK UNBOUND:                -0.054
REMARK SMILES CCCCCCC=O
REMARK SMILES IDX 4 1 3 2 2 3 1 4 5 5 6 6 7 7 8 8
REMARK H PARENT
REMARK Flexibility Score: inf
ROOT
ATOM      1  C   UNL     1      17.333  44.403   0.355  1.00  0.00     0.000 C 
ENDROOT
BRANCH   1   2
ATOM      2  C   UNL     1      16.788  44.385   1.795  1.00  0.00    -0.000 C 
BRANCH   2   3
ATOM      3  C   UNL     1      15.303  44.768   1.928  1.00  0.00    -0.003 C 
ATOM      4  C   UNL     1      14.816  45.677   0.800  1.00  0.00     0.004 C 
ENDBRANCH   2   3
ENDBRANCH   1   2
BRANCH   1   5
ATOM      5  C   UNL     1      18.839  44.699   0.289  1.00  0.00     0.008 C 
BRANCH   5   6
ATOM      6  C   UNL     1      19.538  44.275   1.585  1.00  0.00     0.072 C 
BRANCH   6   7
ATOM      7  C   UNL     1      20.212  42.943   1.428  1.00  0.00     0.224 C 
ATOM      8  O   UNL     1      20.471  42.521   0.313  1.00  0.00    -0.303 OA
ENDBRANCH   6   7
ENDBRANCH   5   6
ENDBRANCH   1   5
TORSDOF 5
ENDMDL
MODEL 8
REMARK VINA RESULT:    -3.295      5.175      7.467
REMARK INTER + INTRA:          -4.312
REMARK INTER:                  -4.097
REMARK INTRA:                  -0.215
REMARK UNBOUND:                -0.054
REMARK SMILES CCCCCCC=O
REMARK SMILES IDX 4 1 3 2 2 3 1 4 5 5 6 6 7 7 8 8
REMARK H PARENT
REMARK Flexibility Score: inf
ROOT
ATOM      1  C   UNL     1      30.211  57.645 -13.115  1.00  0.00     0.000 C 
ENDROOT
BRANCH   1   2
ATOM      2  C   UNL     1      31.458  56.924 -13.659  1.00  0.00    -0.000 C 
BRANCH   2   3
ATOM      3  C   UNL     1      32.634  57.850 -14.019  1.00  0.00    -0.003 C 
ATOM      4  C   UNL     1      33.988  57.296 -13.577  1.00  0.00     0.004 C 
ENDBRANCH   2   3
ENDBRANCH   1   2
BRANCH   1   5
ATOM      5  C   UNL     1      30.475  59.119 -12.770  1.00  0.00     0.008 C 
BRANCH   5   6
ATOM      6  C   UNL     1      30.383  59.352 -11.258  1.00  0.00     0.072 C 
BRANCH   6   7
ATOM      7  C   UNL     1      29.047  59.921 -10.877  1.00  0.00     0.224 C 
ATOM      8  O   UNL     1      28.160  59.180 -10.485  1.00  0.00    -0.303 OA
ENDBRANCH   6   7
ENDBRANCH   5   6
ENDBRANCH   1   5
TORSDOF 5
ENDMDL
MODEL 9
REMARK VINA RESULT:    -3.269     17.132     18.848
REMARK INTER + INTRA:          -4.278
REMARK INTER:                  -3.966
REMARK INTRA:                  -0.313
REMARK UNBOUND:                -0.054
REMARK SMILES CCCCCCC=O
REMARK SMILES IDX 4 1 3 2 2 3 1 4 5 5 6 6 7 7 8 8
REMARK H PARENT
REMARK Flexibility Score: inf
ROOT
ATOM      1  C   UNL     1      16.822  43.737   1.372  1.00  0.00     0.000 C 
ENDROOT
BRANCH   1   2
ATOM      2  C   UNL     1      18.281  43.819   1.856  1.00  0.00    -0.000 C 
BRANCH   2   3
ATOM      3  C   UNL     1      19.329  43.915   0.733  1.00  0.00    -0.003 C 
ATOM      4  C   UNL     1      19.238  45.218  -0.060  1.00  0.00     0.004 C 
ENDBRANCH   2   3
ENDBRANCH   1   2
BRANCH   1   5
ATOM      5  C   UNL     1      15.935  44.848   1.954  1.00  0.00     0.008 C 
BRANCH   5   6
ATOM      6  C   UNL     1      15.034  45.453   0.872  1.00  0.00     0.072 C 
BRANCH   6   7
ATOM      7  C   UNL     1      15.557  45.149  -0.502  1.00  0.00     0.224 C 
ATOM      8  O   UNL     1      15.910  46.061  -1.233  1.00  0.00    -0.303 OA
ENDBRANCH   6   7
ENDBRANCH   5   6
ENDBRANCH   1   5
TORSDOF 5
ENDMDL
