MODEL 1
REMARK VINA RESULT:    -4.863      0.000      0.000
REMARK INTER + INTRA:          -6.883
REMARK INTER:                  -6.854
REMARK INTRA:                  -0.030
REMARK UNBOUND:                -0.030
REMARK SMILES CC1=CCC(=C(C)C)C(=O)CC(C)=CCC1
REMARK SMILES IDX 12 1 14 2 13 3 15 4 16 5 2 6 1 7 3 8 11 10 9 11 10 12 5 13
REMARK SMILES IDX 6 14 7 15 8 16 4 17
REMARK H PARENT
REMARK Flexibility Score: 60.00
ROOT
ATOM      1  C   UNL     1      27.342  54.494  18.141  1.00  0.00    -0.070 C 
ATOM      2  C   UNL     1      28.365  53.980  17.398  1.00  0.00    -0.027 C 
ATOM      3  C   UNL     1      27.713  55.097  19.476  1.00  0.00     0.039 C 
ENDROOT
BRANCH   2   4
ATOM      4  C   UNL     1      28.387  53.354  16.008  1.00  0.00     0.032 C 
BRANCH   4   5
ATOM      5  C   UNL     1      27.394  52.219  15.732  1.00  0.00     0.034 C 
BRANCH   5   6
ATOM      6  C   UNL     1      27.297  51.073  16.748  1.00  0.00    -0.077 C 
ATOM      7  C   UNL     1      28.500  50.155  16.808  1.00  0.00     0.039 C 
ATOM      8  C   UNL     1      26.315  50.813  17.661  1.00  0.00    -0.023 CG0
ATOM      9  G   UNL     1      25.010  51.530  17.946  1.00  0.00     0.000 G0
ENDBRANCH   5   6
ENDBRANCH   4   5
ENDBRANCH   2   4
BRANCH   1  10
ATOM     10  C   UNL     1      25.868  54.516  17.772  1.00  0.00     0.111 C 
BRANCH  10  11
ATOM     11  C   UNL     1      25.016  53.908  18.845  1.00  0.00     0.163 C 
ATOM     12  O   UNL     1      24.190  54.639  19.456  1.00  0.00    -0.294 OA
BRANCH  11  13
ATOM     13  C   UNL     1      25.109  52.459  19.161  1.00  0.00    -0.002 C 
ATOM     14  C   UNL     1      25.264  52.017  20.441  1.00  0.00    -0.069 C 
ATOM     15  C   UNL     1      25.251  50.542  20.778  1.00  0.00     0.039 C 
ATOM     16  C   UNL     1      25.475  52.986  21.583  1.00  0.00     0.039 C 
BRANCH  13  17
ATOM     17  C   UNL     1      25.001  51.515  17.982  1.00  0.00     0.066 CG0
ATOM     18  G   UNL     1      26.321  50.834  17.676  1.00  0.00     0.000 G0
ENDBRANCH  13  17
ENDBRANCH  11  13
ENDBRANCH  10  11
ENDBRANCH   1  10
TORSDOF 0
ENDMDL
MODEL 2
REMARK VINA RESULT:    -4.655      7.615      9.946
REMARK INTER + INTRA:          -6.590
REMARK INTER:                  -6.559
REMARK INTRA:                  -0.031
REMARK UNBOUND:                -0.030
REMARK SMILES CC1=CCC(=C(C)C)C(=O)CC(C)=CCC1
REMARK SMILES IDX 12 1 14 2 13 3 15 4 16 5 2 6 1 7 3 8 11 10 9 11 10 12 5 13
REMARK SMILES IDX 6 14 7 15 8 16 4 17
REMARK H PARENT
REMARK Flexibility Score: 60.00
ROOT
ATOM      1  C   UNL     1      27.211  52.876   9.855  1.00  0.00    -0.070 C 
ATOM      2  C   UNL     1      28.181  53.556  10.530  1.00  0.00    -0.027 C 
ATOM      3  C   UNL     1      27.613  52.248   8.540  1.00  0.00     0.039 C 
ENDROOT
BRANCH   2   4
ATOM      4  C   UNL     1      28.167  54.258  11.882  1.00  0.00     0.032 C 
BRANCH   4   5
ATOM      5  C   UNL     1      27.018  55.236  12.155  1.00  0.00     0.034 C 
BRANCH   5   6
ATOM      6  C   UNL     1      26.772  56.368  11.148  1.00  0.00    -0.077 C 
ATOM      7  C   UNL     1      27.845  57.434  11.094  1.00  0.00     0.039 C 
ATOM      8  C   UNL     1      25.762  56.506  10.238  1.00  0.00    -0.023 CG0
ATOM      9  G   UNL     1      24.560  55.628   9.949  1.00  0.00     0.000 G0
ENDBRANCH   5   6
ENDBRANCH   4   5
ENDBRANCH   2   4
BRANCH   1  10
ATOM     10  C   UNL     1      25.764  52.689  10.280  1.00  0.00     0.111 C 
BRANCH  10  11
ATOM     11  C   UNL     1      24.808  53.195   9.242  1.00  0.00     0.163 C 
ATOM     12  O   UNL     1      23.968  52.398   8.745  1.00  0.00    -0.294 OA
BRANCH  11  13
ATOM     13  C   UNL     1      24.817  54.623   8.832  1.00  0.00    -0.002 C 
ATOM     14  C   UNL     1      25.036  54.992   7.538  1.00  0.00    -0.069 C 
ATOM     15  C   UNL     1      24.940  56.436   7.096  1.00  0.00     0.039 C 
ATOM     16  C   UNL     1      25.404  53.969   6.485  1.00  0.00     0.039 C 
BRANCH  13  17
ATOM     17  C   UNL     1      24.551  55.632   9.930  1.00  0.00     0.066 CG0
ATOM     18  G   UNL     1      25.765  56.493  10.218  1.00  0.00     0.000 G0
ENDBRANCH  13  17
ENDBRANCH  11  13
ENDBRANCH  10  11
ENDBRANCH   1  10
TORSDOF 0
ENDMDL
MODEL 3
REMARK VINA RESULT:    -4.525      7.278      9.254
REMARK INTER + INTRA:          -6.406
REMARK INTER:                  -6.394
REMARK INTRA:                  -0.012
REMARK UNBOUND:                -0.030
REMARK SMILES CC1=CCC(=C(C)C)C(=O)CC(C)=CCC1
REMARK SMILES IDX 12 1 14 2 13 3 15 4 16 5 2 6 1 7 3 8 11 10 9 11 10 12 5 13
REMARK SMILES IDX 6 14 7 15 8 16 4 17
REMARK H PARENT
REMARK Flexibility Score: 60.00
ROOT
ATOM      1  C   UNL     1      26.669  52.625   8.356  1.00  0.00    -0.070 C 
ATOM      2  C   UNL     1      25.967  53.153   7.312  1.00  0.00    -0.027 C 
ATOM      3  C   UNL     1      27.949  51.899   8.012  1.00  0.00     0.039 C 
ENDROOT
BRANCH   2   4
ATOM      4  C   UNL     1      24.689  53.982   7.272  1.00  0.00     0.032 C 
BRANCH   4   5
ATOM      5  C   UNL     1      24.740  55.384   7.891  1.00  0.00     0.034 C 
BRANCH   5   6
ATOM      6  C   UNL     1      23.983  55.629   9.204  1.00  0.00    -0.077 C 
ATOM      7  C   UNL     1      22.477  55.517   9.115  1.00  0.00     0.039 C 
ATOM      8  C   UNL     1      24.483  55.852  10.456  1.00  0.00    -0.023 CG0
ATOM      9  G   UNL     1      25.912  55.964  10.949  1.00  0.00     0.000 G0
ENDBRANCH   5   6
ENDBRANCH   4   5
ENDBRANCH   2   4
BRANCH   1  10
ATOM     10  C   UNL     1      26.296  52.682   9.828  1.00  0.00     0.111 C 
BRANCH  10  11
ATOM     11  C   UNL     1      27.089  53.721  10.564  1.00  0.00     0.163 C 
ATOM     12  O   UNL     1      28.323  53.825  10.329  1.00  0.00    -0.294 OA
BRANCH  11  13
ATOM     13  C   UNL     1      26.429  54.642  11.524  1.00  0.00    -0.002 C 
ATOM     14  C   UNL     1      26.300  54.325  12.844  1.00  0.00    -0.069 C 
ATOM     15  C   UNL     1      25.726  55.304  13.844  1.00  0.00     0.039 C 
ATOM     16  C   UNL     1      26.712  52.965  13.364  1.00  0.00     0.039 C 
BRANCH  13  17
ATOM     17  C   UNL     1      25.930  55.953  10.951  1.00  0.00     0.066 CG0
ATOM     18  G   UNL     1      24.498  55.852  10.463  1.00  0.00     0.000 G0
ENDBRANCH  13  17
ENDBRANCH  11  13
ENDBRANCH  10  11
ENDBRANCH   1  10
TORSDOF 0
ENDMDL
MODEL 4
REMARK VINA RESULT:    -4.521      6.393      7.621
REMARK INTER + INTRA:          -6.400
REMARK INTER:                  -6.605
REMARK INTRA:                   0.205
REMARK UNBOUND:                -0.030
REMARK SMILES CC1=CCC(=C(C)C)C(=O)CC(C)=CCC1
REMARK SMILES IDX 12 1 14 2 13 3 15 4 16 5 2 6 1 7 3 8 11 10 9 11 10 12 5 13
REMARK SMILES IDX 6 14 7 15 8 16 4 17
REMARK H PARENT
REMARK Flexibility Score: 60.00
ROOT
ATOM      1  C   UNL     1      28.651  58.291  12.975  1.00  0.00    -0.070 C 
ATOM      2  C   UNL     1      29.342  58.433  11.807  1.00  0.00    -0.027 C 
ATOM      3  C   UNL     1      28.596  59.500  13.880  1.00  0.00     0.039 C 
ENDROOT
BRANCH   2   4
ATOM      4  C   UNL     1      29.564  57.473  10.644  1.00  0.00     0.032 C 
BRANCH   4   5
ATOM      5  C   UNL     1      30.456  56.253  10.898  1.00  0.00     0.034 C 
BRANCH   5   6
ATOM      6  C   UNL     1      29.787  54.878  11.032  1.00  0.00    -0.077 C 
ATOM      7  C   UNL     1      30.719  53.733  11.365  1.00  0.00     0.039 C 
ATOM      8  C   UNL     1      28.461  54.557  10.973  1.00  0.00    -0.023 CG0
ATOM      9  G   UNL     1      27.239  55.422  10.729  1.00  0.00     0.000 G0
ENDBRANCH   5   6
ENDBRANCH   4   5
ENDBRANCH   2   4
BRANCH   1  10
ATOM     10  C   UNL     1      27.938  57.043  13.467  1.00  0.00     0.111 C 
BRANCH  10  11
ATOM     11  C   UNL     1      26.630  56.835  12.764  1.00  0.00     0.163 C 
ATOM     12  O   UNL     1      25.756  57.741  12.820  1.00  0.00    -0.294 OA
BRANCH  11  13
ATOM     13  C   UNL     1      26.377  55.600  11.977  1.00  0.00    -0.002 C 
ATOM     14  C   UNL     1      25.427  54.697  12.352  1.00  0.00    -0.069 C 
ATOM     15  C   UNL     1      25.092  53.495  11.497  1.00  0.00     0.039 C 
ATOM     16  C   UNL     1      24.673  54.851  13.655  1.00  0.00     0.039 C 
BRANCH  13  17
ATOM     17  C   UNL     1      27.222  55.421  10.733  1.00  0.00     0.066 CG0
ATOM     18  G   UNL     1      28.435  54.547  10.990  1.00  0.00     0.000 G0
ENDBRANCH  13  17
ENDBRANCH  11  13
ENDBRANCH  10  11
ENDBRANCH   1  10
TORSDOF 0
ENDMDL
MODEL 5
REMARK VINA RESULT:    -4.489      7.661      8.991
REMARK INTER + INTRA:          -6.356
REMARK INTER:                  -6.303
REMARK INTRA:                  -0.053
REMARK UNBOUND:                -0.030
REMARK SMILES CC1=CCC(=C(C)C)C(=O)CC(C)=CCC1
REMARK SMILES IDX 12 1 14 2 13 3 15 4 16 5 2 6 1 7 3 8 11 10 9 11 10 12 5 13
REMARK SMILES IDX 6 14 7 15 8 16 4 17
REMARK H PARENT
REMARK Flexibility Score: 60.00
ROOT
ATOM      1  C   UNL     1      25.981  57.048  10.983  1.00  0.00    -0.070 C 
ATOM      2  C   UNL     1      24.888  57.107  10.169  1.00  0.00    -0.027 C 
ATOM      3  C   UNL     1      25.936  57.888  12.239  1.00  0.00     0.039 C 
ENDROOT
BRANCH   2   4
ATOM      4  C   UNL     1      24.553  56.374   8.875  1.00  0.00     0.032 C 
BRANCH   4   5
ATOM      5  C   UNL     1      24.373  54.854   8.953  1.00  0.00     0.034 C 
BRANCH   5   6
ATOM      6  C   UNL     1      25.396  53.962   8.236  1.00  0.00    -0.077 C 
ATOM      7  C   UNL     1      25.437  54.104   6.729  1.00  0.00     0.039 C 
ATOM      8  C   UNL     1      26.329  53.120   8.771  1.00  0.00    -0.023 CG0
ATOM      9  G   UNL     1      26.636  52.767  10.214  1.00  0.00     0.000 G0
ENDBRANCH   5   6
ENDBRANCH   4   5
ENDBRANCH   2   4
BRANCH   1  10
ATOM     10  C   UNL     1      27.244  56.233  10.758  1.00  0.00     0.111 C 
BRANCH  10  11
ATOM     11  C   UNL     1      27.194  54.918  11.477  1.00  0.00     0.163 C 
ATOM     12  O   UNL     1      26.689  54.873  12.631  1.00  0.00    -0.294 OA
BRANCH  11  13
ATOM     13  C   UNL     1      27.692  53.677  10.829  1.00  0.00    -0.002 C 
ATOM     14  C   UNL     1      29.021  53.369  10.805  1.00  0.00    -0.069 C 
ATOM     15  C   UNL     1      29.522  52.058  10.243  1.00  0.00     0.039 C 
ATOM     16  C   UNL     1      30.057  54.340  11.328  1.00  0.00     0.039 C 
BRANCH  13  17
ATOM     17  C   UNL     1      26.639  52.776  10.220  1.00  0.00     0.066 CG0
ATOM     18  G   UNL     1      26.349  53.135   8.776  1.00  0.00     0.000 G0
ENDBRANCH  13  17
ENDBRANCH  11  13
ENDBRANCH  10  11
ENDBRANCH   1  10
TORSDOF 0
ENDMDL
MODEL 6
REMARK VINA RESULT:    -4.462      2.621      3.797
REMARK INTER + INTRA:          -6.317
REMARK INTER:                  -6.476
REMARK INTRA:                   0.159
REMARK UNBOUND:                -0.030
REMARK SMILES CC1=CCC(=C(C)C)C(=O)CC(C)=CCC1
REMARK SMILES IDX 12 1 14 2 13 3 15 4 16 5 2 6 1 7 3 8 11 10 9 11 10 12 5 13
REMARK SMILES IDX 6 14 7 15 8 16 4 17
REMARK H PARENT
REMARK Flexibility Score: 60.00
ROOT
ATOM      1  C   UNL     1      29.404  52.647  15.601  1.00  0.00    -0.070 C 
ATOM      2  C   UNL     1      30.096  52.028  16.600  1.00  0.00    -0.027 C 
ATOM      3  C   UNL     1      29.520  54.152  15.529  1.00  0.00     0.039 C 
ENDROOT
BRANCH   2   4
ATOM      4  C   UNL     1      30.264  50.553  16.948  1.00  0.00     0.032 C 
BRANCH   4   5
ATOM      5  C   UNL     1      28.994  49.697  17.016  1.00  0.00     0.034 C 
BRANCH   5   6
ATOM      6  C   UNL     1      28.613  48.861  15.787  1.00  0.00    -0.077 C 
ATOM      7  C   UNL     1      29.628  47.819  15.371  1.00  0.00     0.039 C 
ATOM      8  C   UNL     1      27.452  48.871  15.065  1.00  0.00    -0.023 CG0
ATOM      9  G   UNL     1      26.199  49.711  15.213  1.00  0.00     0.000 G0
ENDBRANCH   5   6
ENDBRANCH   4   5
ENDBRANCH   2   4
BRANCH   1  10
ATOM     10  C   UNL     1      28.521  51.983  14.557  1.00  0.00     0.111 C 
BRANCH  10  11
ATOM     11  C   UNL     1      27.068  52.077  14.915  1.00  0.00     0.163 C 
ATOM     12  O   UNL     1      26.375  53.004  14.416  1.00  0.00    -0.294 OA
BRANCH  11  13
ATOM     13  C   UNL     1      26.440  51.071  15.810  1.00  0.00    -0.002 C 
ATOM     14  C   UNL     1      26.100  51.374  17.096  1.00  0.00    -0.069 C 
ATOM     15  C   UNL     1      25.364  50.389  17.976  1.00  0.00     0.039 C 
ATOM     16  C   UNL     1      26.464  52.710  17.706  1.00  0.00     0.039 C 
BRANCH  13  17
ATOM     17  C   UNL     1      26.185  49.708  15.203  1.00  0.00     0.066 CG0
ATOM     18  G   UNL     1      27.457  48.890  15.087  1.00  0.00     0.000 G0
ENDBRANCH  13  17
ENDBRANCH  11  13
ENDBRANCH  10  11
ENDBRANCH   1  10
TORSDOF 0
ENDMDL
MODEL 7
REMARK VINA RESULT:    -4.446      1.563      2.630
REMARK INTER + INTRA:          -6.295
REMARK INTER:                  -6.453
REMARK INTRA:                   0.158
REMARK UNBOUND:                -0.030
REMARK SMILES CC1=CCC(=C(C)C)C(=O)CC(C)=CCC1
REMARK SMILES IDX 12 1 14 2 13 3 15 4 16 5 2 6 1 7 3 8 11 10 9 11 10 12 5 13
REMARK SMILES IDX 6 14 7 15 8 16 4 17
REMARK H PARENT
REMARK Flexibility Score: 60.00
ROOT
ATOM      1  C   UNL     1      25.721  54.563  19.446  1.00  0.00    -0.070 C 
ATOM      2  C   UNL     1      27.066  54.637  19.659  1.00  0.00    -0.027 C 
ATOM      3  C   UNL     1      24.858  54.284  20.655  1.00  0.00     0.039 C 
ENDROOT
BRANCH   2   4
ATOM      4  C   UNL     1      28.221  54.950  18.715  1.00  0.00     0.032 C 
BRANCH   4   5
ATOM      5  C   UNL     1      27.970  54.777  17.213  1.00  0.00     0.034 C 
BRANCH   5   6
ATOM      6  C   UNL     1      28.303  53.423  16.571  1.00  0.00    -0.077 C 
ATOM      7  C   UNL     1      29.764  53.032  16.602  1.00  0.00     0.039 C 
ATOM      8  C   UNL     1      27.455  52.486  16.050  1.00  0.00    -0.023 CG0
ATOM      9  G   UNL     1      25.946  52.485  15.903  1.00  0.00     0.000 G0
ENDBRANCH   5   6
ENDBRANCH   4   5
ENDBRANCH   2   4
BRANCH   1  10
ATOM     10  C   UNL     1      24.997  54.723  18.119  1.00  0.00     0.111 C 
BRANCH  10  11
ATOM     11  C   UNL     1      24.371  53.438  17.667  1.00  0.00     0.163 C 
ATOM     12  O   UNL     1      23.114  53.346  17.645  1.00  0.00    -0.294 OA
BRANCH  11  13
ATOM     13  C   UNL     1      25.212  52.301  17.212  1.00  0.00    -0.002 C 
ATOM     14  C   UNL     1      25.310  51.151  17.938  1.00  0.00    -0.069 C 
ATOM     15  C   UNL     1      26.078  49.952  17.427  1.00  0.00     0.039 C 
ATOM     16  C   UNL     1      24.667  51.030  19.302  1.00  0.00     0.039 C 
BRANCH  13  17
ATOM     17  C   UNL     1      25.930  52.492  15.892  1.00  0.00     0.066 CG0
ATOM     18  G   UNL     1      27.437  52.486  16.059  1.00  0.00     0.000 G0
ENDBRANCH  13  17
ENDBRANCH  11  13
ENDBRANCH  10  11
ENDBRANCH   1  10
TORSDOF 0
ENDMDL
MODEL 8
REMARK VINA RESULT:    -4.375      1.688      4.158
REMARK INTER + INTRA:          -6.195
REMARK INTER:                  -6.351
REMARK INTRA:                   0.155
REMARK UNBOUND:                -0.030
REMARK SMILES CC1=CCC(=C(C)C)C(=O)CC(C)=CCC1
REMARK SMILES IDX 12 1 14 2 13 3 15 4 16 5 2 6 1 7 3 8 11 10 9 11 10 12 5 13
REMARK SMILES IDX 6 14 7 15 8 16 4 17
REMARK H PARENT
REMARK Flexibility Score: 60.00
ROOT
ATOM      1  C   UNL     1      26.702  54.573  19.345  1.00  0.00    -0.070 C 
ATOM      2  C   UNL     1      26.043  54.148  20.462  1.00  0.00    -0.027 C 
ATOM      3  C   UNL     1      27.965  55.373  19.568  1.00  0.00     0.039 C 
ENDROOT
BRANCH   2   4
ATOM      4  C   UNL     1      24.795  53.290  20.631  1.00  0.00     0.032 C 
BRANCH   4   5
ATOM      5  C   UNL     1      24.888  51.821  20.204  1.00  0.00     0.034 C 
BRANCH   5   6
ATOM      6  C   UNL     1      24.229  51.404  18.882  1.00  0.00    -0.077 C 
ATOM      7  C   UNL     1      22.715  51.434  18.874  1.00  0.00     0.039 C 
ATOM      8  C   UNL     1      24.816  51.087  17.690  1.00  0.00    -0.023 CG0
ATOM      9  G   UNL     1      26.278  51.012  17.293  1.00  0.00     0.000 G0
ENDBRANCH   5   6
ENDBRANCH   4   5
ENDBRANCH   2   4
BRANCH   1  10
ATOM     10  C   UNL     1      26.297  54.334  17.900  1.00  0.00     0.111 C 
BRANCH  10  11
ATOM     11  C   UNL     1      27.226  53.381  17.211  1.00  0.00     0.163 C 
ATOM     12  O   UNL     1      28.470  53.560  17.313  1.00  0.00    -0.294 OA
BRANCH  11  13
ATOM     13  C   UNL     1      26.698  52.217  16.454  1.00  0.00    -0.002 C 
ATOM     14  C   UNL     1      26.618  52.229  15.092  1.00  0.00    -0.069 C 
ATOM     15  C   UNL     1      26.182  51.009  14.312  1.00  0.00     0.039 C 
ATOM     16  C   UNL     1      26.946  53.476  14.301  1.00  0.00     0.039 C 
BRANCH  13  17
ATOM     17  C   UNL     1      26.276  51.021  17.282  1.00  0.00     0.066 CG0
ATOM     18  G   UNL     1      24.820  51.101  17.696  1.00  0.00     0.000 G0
ENDBRANCH  13  17
ENDBRANCH  11  13
ENDBRANCH  10  11
ENDBRANCH   1  10
TORSDOF 0
ENDMDL
MODEL 9
REMARK VINA RESULT:    -4.318      7.445      8.775
REMARK INTER + INTRA:          -6.114
REMARK INTER:                  -6.149
REMARK INTRA:                   0.035
REMARK UNBOUND:                -0.030
REMARK SMILES CC1=CCC(=C(C)C)C(=O)CC(C)=CCC1
REMARK SMILES IDX 12 1 14 2 13 3 15 4 16 5 2 6 1 7 3 8 11 10 9 11 10 12 5 13
REMARK SMILES IDX 6 14 7 15 8 16 4 17
REMARK H PARENT
REMARK Flexibility Score: 60.00
ROOT
ATOM      1  C   UNL     1      30.044  54.999  11.933  1.00  0.00    -0.070 C 
ATOM      2  C   UNL     1      30.659  56.212  11.822  1.00  0.00    -0.027 C 
ATOM      3  C   UNL     1      30.580  54.063  12.992  1.00  0.00     0.039 C 
ENDROOT
BRANCH   2   4
ATOM      4  C   UNL     1      30.369  57.412  10.930  1.00  0.00     0.032 C 
BRANCH   4   5
ATOM      5  C   UNL     1      29.767  58.655  11.595  1.00  0.00     0.034 C 
BRANCH   5   6
ATOM      6  C   UNL     1      28.432  58.509  12.338  1.00  0.00    -0.077 C 
ATOM      7  C   UNL     1      28.344  59.235  13.664  1.00  0.00     0.039 C 
ATOM      8  C   UNL     1      27.286  57.884  11.934  1.00  0.00    -0.023 CG0
ATOM      9  G   UNL     1      26.968  57.117  10.665  1.00  0.00     0.000 G0
ENDBRANCH   5   6
ENDBRANCH   4   5
ENDBRANCH   2   4
BRANCH   1  10
ATOM     10  C   UNL     1      28.881  54.487  11.100  1.00  0.00     0.111 C 
BRANCH  10  11
ATOM     11  C   UNL     1      27.559  54.867  11.696  1.00  0.00     0.163 C 
ATOM     12  O   UNL     1      27.301  54.522  12.880  1.00  0.00    -0.294 OA
BRANCH  11  13
ATOM     13  C   UNL     1      26.580  55.673  10.922  1.00  0.00    -0.002 C 
ATOM     14  C   UNL     1      25.400  55.142  10.490  1.00  0.00    -0.069 C 
ATOM     15  C   UNL     1      24.355  55.987   9.797  1.00  0.00     0.039 C 
ATOM     16  C   UNL     1      25.093  53.671  10.672  1.00  0.00     0.039 C 
BRANCH  13  17
ATOM     17  C   UNL     1      26.964  57.115  10.664  1.00  0.00     0.066 CG0
ATOM     18  G   UNL     1      27.278  57.859  11.947  1.00  0.00     0.000 G0
ENDBRANCH  13  17
ENDBRANCH  11  13
ENDBRANCH  10  11
ENDBRANCH   1  10
TORSDOF 0
ENDMDL
