MODEL 1
REMARK VINA RESULT:    -5.440      0.000      0.000
REMARK INTER + INTRA:          -6.776
REMARK INTER:                  -6.554
REMARK INTRA:                  -0.222
REMARK UNBOUND:                -0.222
REMARK SMILES O=c1c(O)c(-c2ccc(O)cc2O)oc2cc(O)cc(O)c12
REMARK SMILES IDX 5 1 3 2 2 3 1 4 22 5 20 6 19 7 17 8 16 9 15 10 14 11 6 12
REMARK SMILES IDX 8 13 7 14 9 15 11 16 12 17 10 18 13 20 4 22 21 24 18 26
REMARK H PARENT 10 19 13 21 4 23 21 25 18 27
REMARK Flexibility Score: inf
ROOT
ATOM      1  C   UNL     1      -5.360  -3.522   6.504  1.00  0.00     0.184 A 
ATOM      2  C   UNL     1      -4.080  -3.107   6.096  1.00  0.00     0.208 A 
ATOM      3  C   UNL     1      -3.556  -3.612   4.896  1.00  0.00     0.238 A 
ATOM      4  O   UNL     1      -2.413  -3.239   4.514  1.00  0.00    -0.285 OA
ATOM      5  C   UNL     1      -4.309  -4.533   4.140  1.00  0.00     0.111 A 
ATOM      6  C   UNL     1      -3.852  -5.093   2.922  1.00  0.00     0.134 A 
ATOM      7  C   UNL     1      -4.657  -6.011   2.233  1.00  0.00     0.093 A 
ATOM      8  C   UNL     1      -5.907  -6.381   2.735  1.00  0.00     0.123 A 
ATOM      9  C   UNL     1      -6.365  -5.832   3.938  1.00  0.00     0.094 A 
ATOM     10  C   UNL     1      -5.578  -4.914   4.639  1.00  0.00     0.146 A 
ATOM     11  O   UNL     1      -6.038  -4.404   5.776  1.00  0.00    -0.451 OA
ENDROOT
BRANCH   1  12
ATOM     12  C   UNL     1      -5.977  -3.020   7.750  1.00  0.00     0.063 A 
ATOM     13  C   UNL     1      -7.743  -1.739   8.823  1.00  0.00     0.047 A 
ATOM     14  C   UNL     1      -7.137  -2.234   7.666  1.00  0.00     0.020 A 
ATOM     15  C   UNL     1      -7.188  -2.012  10.080  1.00  0.00     0.119 A 
ATOM     16  C   UNL     1      -6.019  -2.773  10.171  1.00  0.00     0.093 A 
ATOM     17  C   UNL     1      -5.402  -3.269   9.014  1.00  0.00     0.130 A 
BRANCH  15  18
ATOM     18  O   UNL     1      -7.786  -1.527  11.240  1.00  0.00    -0.508 OA
ATOM     19  H   UNL     1      -8.338  -0.677  11.236  1.00  0.00     0.293 HD
ENDBRANCH  15  18
BRANCH  17  20
ATOM     20  O   UNL     1      -4.210  -3.987   9.116  1.00  0.00    -0.507 OA
ATOM     21  H   UNL     1      -4.196  -4.953   9.421  1.00  0.00     0.293 HD
ENDBRANCH  17  20
ENDBRANCH   1  12
BRANCH   2  22
ATOM     22  O   UNL     1      -3.341  -2.227   6.890  1.00  0.00    -0.502 OA
ATOM     23  H   UNL     1      -2.446  -2.482   7.292  1.00  0.00     0.293 HD
ENDBRANCH   2  22
BRANCH   6  24
ATOM     24  O   UNL     1      -2.608  -4.744   2.394  1.00  0.00    -0.507 OA
ATOM     25  H   UNL     1      -1.777  -4.704   2.970  1.00  0.00     0.293 HD
ENDBRANCH   6  24
BRANCH   8  26
ATOM     26  O   UNL     1      -6.687  -7.296   2.032  1.00  0.00    -0.508 OA
ATOM     27  H   UNL     1      -6.373  -7.694   1.154  1.00  0.00     0.293 HD
ENDBRANCH   8  26
TORSDOF 6
ENDMDL
MODEL 2
REMARK VINA RESULT:    -5.043      1.901      3.503
REMARK INTER + INTRA:          -6.297
REMARK INTER:                  -5.893
REMARK INTRA:                  -0.405
REMARK UNBOUND:                -0.222
REMARK SMILES O=c1c(O)c(-c2ccc(O)cc2O)oc2cc(O)cc(O)c12
REMARK SMILES IDX 5 1 3 2 2 3 1 4 22 5 20 6 19 7 17 8 16 9 15 10 14 11 6 12
REMARK SMILES IDX 8 13 7 14 9 15 11 16 12 17 10 18 13 20 4 22 21 24 18 26
REMARK H PARENT 10 19 13 21 4 23 21 25 18 27
REMARK Flexibility Score: inf
ROOT
ATOM      1  C   UNL     1      -6.730  -2.439   7.613  1.00  0.00     0.184 A 
ATOM      2  C   UNL     1      -7.833  -3.101   7.045  1.00  0.00     0.208 A 
ATOM      3  C   UNL     1      -7.612  -4.012   6.002  1.00  0.00     0.238 A 
ATOM      4  O   UNL     1      -8.593  -4.620   5.491  1.00  0.00    -0.285 OA
ATOM      5  C   UNL     1      -6.300  -4.230   5.533  1.00  0.00     0.111 A 
ATOM      6  C   UNL     1      -5.992  -5.127   4.482  1.00  0.00     0.134 A 
ATOM      7  C   UNL     1      -4.662  -5.281   4.067  1.00  0.00     0.093 A 
ATOM      8  C   UNL     1      -3.635  -4.557   4.678  1.00  0.00     0.123 A 
ATOM      9  C   UNL     1      -3.933  -3.668   5.716  1.00  0.00     0.094 A 
ATOM     10  C   UNL     1      -5.252  -3.502   6.146  1.00  0.00     0.146 A 
ATOM     11  O   UNL     1      -5.507  -2.655   7.138  1.00  0.00    -0.451 OA
ENDROOT
BRANCH   1  12
ATOM     12  C   UNL     1      -6.890  -1.477   8.723  1.00  0.00     0.063 A 
ATOM     13  C   UNL     1      -7.069   0.834   9.458  1.00  0.00     0.047 A 
ATOM     14  C   UNL     1      -6.923  -0.103   8.433  1.00  0.00     0.020 A 
ATOM     15  C   UNL     1      -7.168   0.411  10.789  1.00  0.00     0.119 A 
ATOM     16  C   UNL     1      -7.113  -0.952  11.090  1.00  0.00     0.093 A 
ATOM     17  C   UNL     1      -6.961  -1.900  10.066  1.00  0.00     0.130 A 
BRANCH  15  18
ATOM     18  O   UNL     1      -7.318   1.337  11.819  1.00  0.00    -0.508 OA
ATOM     19  H   UNL     1      -6.868   1.207  12.718  1.00  0.00     0.293 HD
ENDBRANCH  15  18
BRANCH  17  20
ATOM     20  O   UNL     1      -6.859  -3.254  10.385  1.00  0.00    -0.507 OA
ATOM     21  H   UNL     1      -6.184  -3.593  11.060  1.00  0.00     0.293 HD
ENDBRANCH  17  20
ENDBRANCH   1  12
BRANCH   2  22
ATOM     22  O   UNL     1      -9.125  -2.830   7.502  1.00  0.00    -0.502 OA
ATOM     23  H   UNL     1      -9.758  -3.561   7.803  1.00  0.00     0.293 HD
ENDBRANCH   2  22
BRANCH   6  24
ATOM     24  O   UNL     1      -6.994  -5.866   3.851  1.00  0.00    -0.507 OA
ATOM     25  H   UNL     1      -6.778  -6.593   3.180  1.00  0.00     0.293 HD
ENDBRANCH   6  24
BRANCH   8  26
ATOM     26  O   UNL     1      -2.322  -4.728   4.245  1.00  0.00    -0.508 OA
ATOM     27  H   UNL     1      -1.568  -4.151   4.600  1.00  0.00     0.293 HD
ENDBRANCH   8  26
TORSDOF 6
ENDMDL
MODEL 3
REMARK VINA RESULT:    -4.986      1.532      6.514
REMARK INTER + INTRA:          -6.229
REMARK INTER:                  -5.973
REMARK INTRA:                  -0.256
REMARK UNBOUND:                -0.222
REMARK SMILES O=c1c(O)c(-c2ccc(O)cc2O)oc2cc(O)cc(O)c12
REMARK SMILES IDX 5 1 3 2 2 3 1 4 22 5 20 6 19 7 17 8 16 9 15 10 14 11 6 12
REMARK SMILES IDX 8 13 7 14 9 15 11 16 12 17 10 18 13 20 4 22 21 24 18 26
REMARK H PARENT 10 19 13 21 4 23 21 25 18 27
REMARK Flexibility Score: inf
ROOT
ATOM      1  C   UNL     1      -5.714  -4.625   5.345  1.00  0.00     0.184 A 
ATOM      2  C   UNL     1      -4.509  -3.934   5.559  1.00  0.00     0.208 A 
ATOM      3  C   UNL     1      -4.448  -2.982   6.588  1.00  0.00     0.238 A 
ATOM      4  O   UNL     1      -3.368  -2.363   6.798  1.00  0.00    -0.285 OA
ATOM      5  C   UNL     1      -5.594  -2.725   7.368  1.00  0.00     0.111 A 
ATOM      6  C   UNL     1      -5.618  -1.779   8.422  1.00  0.00     0.134 A 
ATOM      7  C   UNL     1      -6.802  -1.575   9.145  1.00  0.00     0.093 A 
ATOM      8  C   UNL     1      -7.960  -2.294   8.838  1.00  0.00     0.123 A 
ATOM      9  C   UNL     1      -7.942  -3.229   7.799  1.00  0.00     0.094 A 
ATOM     10  C   UNL     1      -6.772  -3.450   7.067  1.00  0.00     0.146 A 
ATOM     11  O   UNL     1      -6.781  -4.348   6.088  1.00  0.00    -0.451 OA
ENDROOT
BRANCH   1  12
ATOM     12  C   UNL     1      -5.844  -5.648   4.287  1.00  0.00     0.063 A 
ATOM     13  C   UNL     1      -5.008  -7.685   3.254  1.00  0.00     0.047 A 
ATOM     14  C   UNL     1      -4.918  -6.703   4.244  1.00  0.00     0.020 A 
ATOM     15  C   UNL     1      -6.016  -7.616   2.284  1.00  0.00     0.119 A 
ATOM     16  C   UNL     1      -6.927  -6.557   2.305  1.00  0.00     0.093 A 
ATOM     17  C   UNL     1      -6.841  -5.564   3.292  1.00  0.00     0.130 A 
BRANCH  15  18
ATOM     18  O   UNL     1      -6.117  -8.591   1.296  1.00  0.00    -0.508 OA
ATOM     19  H   UNL     1      -6.114  -8.350   0.311  1.00  0.00     0.293 HD
ENDBRANCH  15  18
BRANCH  17  20
ATOM     20  O   UNL     1      -7.727  -4.487   3.272  1.00  0.00    -0.507 OA
ATOM     21  H   UNL     1      -8.228  -4.226   2.432  1.00  0.00     0.293 HD
ENDBRANCH  17  20
ENDBRANCH   1  12
BRANCH   2  22
ATOM     22  O   UNL     1      -3.404  -4.179   4.740  1.00  0.00    -0.502 OA
ATOM     23  H   UNL     1      -2.546  -3.644   4.812  1.00  0.00     0.293 HD
ENDBRANCH   2  22
BRANCH   6  24
ATOM     24  O   UNL     1      -4.479  -1.044   8.753  1.00  0.00    -0.507 OA
ATOM     25  H   UNL     1      -4.235  -0.845   9.716  1.00  0.00     0.293 HD
ENDBRANCH   6  24
BRANCH   8  26
ATOM     26  O   UNL     1      -9.122  -2.070   9.572  1.00  0.00    -0.508 OA
ATOM     27  H   UNL     1      -9.434  -1.132   9.796  1.00  0.00     0.293 HD
ENDBRANCH   8  26
TORSDOF 6
ENDMDL
MODEL 4
REMARK VINA RESULT:    -4.962      1.181      2.819
REMARK INTER + INTRA:          -6.200
REMARK INTER:                  -6.003
REMARK INTRA:                  -0.196
REMARK UNBOUND:                -0.222
REMARK SMILES O=c1c(O)c(-c2ccc(O)cc2O)oc2cc(O)cc(O)c12
REMARK SMILES IDX 5 1 3 2 2 3 1 4 22 5 20 6 19 7 17 8 16 9 15 10 14 11 6 12
REMARK SMILES IDX 8 13 7 14 9 15 11 16 12 17 10 18 13 20 4 22 21 24 18 26
REMARK H PARENT 10 19 13 21 4 23 21 25 18 27
REMARK Flexibility Score: inf
ROOT
ATOM      1  C   UNL     1      -6.171  -3.642   6.297  1.00  0.00     0.184 A 
ATOM      2  C   UNL     1      -7.216  -4.339   5.666  1.00  0.00     0.208 A 
ATOM      3  C   UNL     1      -6.946  -5.033   4.477  1.00  0.00     0.238 A 
ATOM      4  O   UNL     1      -7.873  -5.671   3.906  1.00  0.00    -0.285 OA
ATOM      5  C   UNL     1      -5.646  -5.002   3.932  1.00  0.00     0.111 A 
ATOM      6  C   UNL     1      -5.291  -5.671   2.735  1.00  0.00     0.134 A 
ATOM      7  C   UNL     1      -3.977  -5.583   2.253  1.00  0.00     0.093 A 
ATOM      8  C   UNL     1      -3.012  -4.842   2.940  1.00  0.00     0.123 A 
ATOM      9  C   UNL     1      -3.357  -4.179   4.123  1.00  0.00     0.094 A 
ATOM     10  C   UNL     1      -4.660  -4.255   4.621  1.00  0.00     0.146 A 
ATOM     11  O   UNL     1      -4.960  -3.620   5.749  1.00  0.00    -0.451 OA
ENDROOT
BRANCH   1  12
ATOM     12  C   UNL     1      -6.383  -2.901   7.557  1.00  0.00     0.063 A 
ATOM     13  C   UNL     1      -7.666  -1.258   8.809  1.00  0.00     0.047 A 
ATOM     14  C   UNL     1      -7.440  -1.979   7.634  1.00  0.00     0.020 A 
ATOM     15  C   UNL     1      -6.830  -1.438   9.918  1.00  0.00     0.119 A 
ATOM     16  C   UNL     1      -5.762  -2.336   9.843  1.00  0.00     0.093 A 
ATOM     17  C   UNL     1      -5.524  -3.060   8.665  1.00  0.00     0.130 A 
BRANCH  15  18
ATOM     18  O   UNL     1      -7.050  -0.727  11.095  1.00  0.00    -0.508 OA
ATOM     19  H   UNL     1      -7.408  -1.179  11.928  1.00  0.00     0.293 HD
ENDBRANCH  15  18
BRANCH  17  20
ATOM     20  O   UNL     1      -4.427  -3.917   8.587  1.00  0.00    -0.507 OA
ATOM     21  H   UNL     1      -3.564  -3.638   8.136  1.00  0.00     0.293 HD
ENDBRANCH  17  20
ENDBRANCH   1  12
BRANCH   2  22
ATOM     22  O   UNL     1      -8.504  -4.313   6.207  1.00  0.00    -0.502 OA
ATOM     23  H   UNL     1      -8.797  -4.951   6.939  1.00  0.00     0.293 HD
ENDBRANCH   2  22
BRANCH   6  24
ATOM     24  O   UNL     1      -6.230  -6.419   2.025  1.00  0.00    -0.507 OA
ATOM     25  H   UNL     1      -7.078  -6.762   2.461  1.00  0.00     0.293 HD
ENDBRANCH   6  24
BRANCH   8  26
ATOM     26  O   UNL     1      -1.715  -4.771   2.439  1.00  0.00    -0.508 OA
ATOM     27  H   UNL     1      -1.206  -5.604   2.169  1.00  0.00     0.293 HD
ENDBRANCH   8  26
TORSDOF 6
ENDMDL
MODEL 5
REMARK VINA RESULT:    -4.827      1.661      2.299
REMARK INTER + INTRA:          -6.037
REMARK INTER:                  -6.030
REMARK INTRA:                  -0.007
REMARK UNBOUND:                -0.222
REMARK SMILES O=c1c(O)c(-c2ccc(O)cc2O)oc2cc(O)cc(O)c12
REMARK SMILES IDX 5 1 3 2 2 3 1 4 22 5 20 6 19 7 17 8 16 9 15 10 14 11 6 12
REMARK SMILES IDX 8 13 7 14 9 15 11 16 12 17 10 18 13 20 4 22 21 24 18 26
REMARK H PARENT 10 19 13 21 4 23 21 25 18 27
REMARK Flexibility Score: inf
ROOT
ATOM      1  C   UNL     1      -6.648  -3.570   6.714  1.00  0.00     0.184 A 
ATOM      2  C   UNL     1      -5.295  -3.870   6.477  1.00  0.00     0.208 A 
ATOM      3  C   UNL     1      -4.951  -4.568   5.309  1.00  0.00     0.238 A 
ATOM      4  O   UNL     1      -3.739  -4.835   5.080  1.00  0.00    -0.285 OA
ATOM      5  C   UNL     1      -5.964  -4.968   4.413  1.00  0.00     0.111 A 
ATOM      6  C   UNL     1      -5.703  -5.678   3.216  1.00  0.00     0.134 A 
ATOM      7  C   UNL     1      -6.767  -6.048   2.381  1.00  0.00     0.093 A 
ATOM      8  C   UNL     1      -8.084  -5.726   2.718  1.00  0.00     0.123 A 
ATOM      9  C   UNL     1      -8.348  -5.024   3.899  1.00  0.00     0.094 A 
ATOM     10  C   UNL     1      -7.301  -4.644   4.744  1.00  0.00     0.146 A 
ATOM     11  O   UNL     1      -7.579  -3.974   5.857  1.00  0.00    -0.451 OA
ENDROOT
BRANCH   1  12
ATOM     12  C   UNL     1      -7.077  -2.827   7.917  1.00  0.00     0.063 A 
ATOM     13  C   UNL     1      -6.850  -2.435  10.307  1.00  0.00     0.047 A 
ATOM     14  C   UNL     1      -6.465  -3.115   9.148  1.00  0.00     0.020 A 
ATOM     15  C   UNL     1      -7.863  -1.470  10.252  1.00  0.00     0.119 A 
ATOM     16  C   UNL     1      -8.494  -1.194   9.036  1.00  0.00     0.093 A 
ATOM     17  C   UNL     1      -8.117  -1.876   7.869  1.00  0.00     0.130 A 
BRANCH  15  18
ATOM     18  O   UNL     1      -8.252  -0.784  11.400  1.00  0.00    -0.508 OA
ATOM     19  H   UNL     1      -7.579  -0.295  11.979  1.00  0.00     0.293 HD
ENDBRANCH  15  18
BRANCH  17  20
ATOM     20  O   UNL     1      -8.788  -1.625   6.672  1.00  0.00    -0.507 OA
ATOM     21  H   UNL     1      -8.567  -2.132   5.823  1.00  0.00     0.293 HD
ENDBRANCH  17  20
ENDBRANCH   1  12
BRANCH   2  22
ATOM     22  O   UNL     1      -4.320  -3.499   7.406  1.00  0.00    -0.502 OA
ATOM     23  H   UNL     1      -3.769  -4.181   7.916  1.00  0.00     0.293 HD
ENDBRANCH   2  22
BRANCH   6  24
ATOM     24  O   UNL     1      -4.399  -6.016   2.851  1.00  0.00    -0.507 OA
ATOM     25  H   UNL     1      -3.993  -6.912   3.092  1.00  0.00     0.293 HD
ENDBRANCH   6  24
BRANCH   8  26
ATOM     26  O   UNL     1      -9.122  -6.106   1.872  1.00  0.00    -0.508 OA
ATOM     27  H   UNL     1      -9.451  -5.498   1.131  1.00  0.00     0.293 HD
ENDBRANCH   8  26
TORSDOF 6
ENDMDL
MODEL 6
REMARK VINA RESULT:    -4.592     13.485     14.275
REMARK INTER + INTRA:          -5.754
REMARK INTER:                  -5.420
REMARK INTRA:                  -0.334
REMARK UNBOUND:                -0.222
REMARK SMILES O=c1c(O)c(-c2ccc(O)cc2O)oc2cc(O)cc(O)c12
REMARK SMILES IDX 5 1 3 2 2 3 1 4 22 5 20 6 19 7 17 8 16 9 15 10 14 11 6 12
REMARK SMILES IDX 8 13 7 14 9 15 11 16 12 17 10 18 13 20 4 22 21 24 18 26
REMARK H PARENT 10 19 13 21 4 23 21 25 18 27
REMARK Flexibility Score: inf
ROOT
ATOM      1  C   UNL     1       8.687  -3.523   5.815  1.00  0.00     0.184 A 
ATOM      2  C   UNL     1       8.470  -4.472   6.830  1.00  0.00     0.208 A 
ATOM      3  C   UNL     1       8.161  -5.792   6.469  1.00  0.00     0.238 A 
ATOM      4  O   UNL     1       7.974  -6.654   7.371  1.00  0.00    -0.285 OA
ATOM      5  C   UNL     1       8.055  -6.134   5.105  1.00  0.00     0.111 A 
ATOM      6  C   UNL     1       7.742  -7.440   4.656  1.00  0.00     0.134 A 
ATOM      7  C   UNL     1       7.647  -7.698   3.281  1.00  0.00     0.093 A 
ATOM      8  C   UNL     1       7.854  -6.680   2.347  1.00  0.00     0.123 A 
ATOM      9  C   UNL     1       8.163  -5.387   2.785  1.00  0.00     0.094 A 
ATOM     10  C   UNL     1       8.266  -5.110   4.151  1.00  0.00     0.146 A 
ATOM     11  O   UNL     1       8.565  -3.875   4.539  1.00  0.00    -0.451 OA
ENDROOT
BRANCH   1  12
ATOM     12  C   UNL     1       9.029  -2.120   6.126  1.00  0.00     0.063 A 
ATOM     13  C   UNL     1      10.544  -0.535   7.176  1.00  0.00     0.047 A 
ATOM     14  C   UNL     1      10.195  -1.850   6.861  1.00  0.00     0.020 A 
ATOM     15  C   UNL     1       9.725   0.527   6.774  1.00  0.00     0.119 A 
ATOM     16  C   UNL     1       8.551   0.267   6.062  1.00  0.00     0.093 A 
ATOM     17  C   UNL     1       8.189  -1.052   5.746  1.00  0.00     0.130 A 
BRANCH  15  18
ATOM     18  O   UNL     1      10.067   1.842   7.079  1.00  0.00    -0.508 OA
ATOM     19  H   UNL     1      10.107   2.170   8.038  1.00  0.00     0.293 HD
ENDBRANCH  15  18
BRANCH  17  20
ATOM     20  O   UNL     1       6.991  -1.301   5.078  1.00  0.00    -0.507 OA
ATOM     21  H   UNL     1       6.219  -0.646   5.108  1.00  0.00     0.293 HD
ENDBRANCH  17  20
ENDBRANCH   1  12
BRANCH   2  22
ATOM     22  O   UNL     1       8.538  -4.091   8.172  1.00  0.00    -0.502 OA
ATOM     23  H   UNL     1       7.995  -3.321   8.546  1.00  0.00     0.293 HD
ENDBRANCH   2  22
BRANCH   6  24
ATOM     24  O   UNL     1       7.529  -8.479   5.563  1.00  0.00    -0.507 OA
ATOM     25  H   UNL     1       7.339  -9.425   5.254  1.00  0.00     0.293 HD
ENDBRANCH   6  24
BRANCH   8  26
ATOM     26  O   UNL     1       7.752  -6.963   0.988  1.00  0.00    -0.508 OA
ATOM     27  H   UNL     1       6.965  -6.640   0.438  1.00  0.00     0.293 HD
ENDBRANCH   8  26
TORSDOF 6
ENDMDL
MODEL 7
REMARK VINA RESULT:    -4.550     12.540     14.556
REMARK INTER + INTRA:          -5.704
REMARK INTER:                  -5.382
REMARK INTRA:                  -0.322
REMARK UNBOUND:                -0.222
REMARK SMILES O=c1c(O)c(-c2ccc(O)cc2O)oc2cc(O)cc(O)c12
REMARK SMILES IDX 5 1 3 2 2 3 1 4 22 5 20 6 19 7 17 8 16 9 15 10 14 11 6 12
REMARK SMILES IDX 8 13 7 14 9 15 11 16 12 17 10 18 13 20 4 22 21 24 18 26
REMARK H PARENT 10 19 13 21 4 23 21 25 18 27
REMARK Flexibility Score: inf
ROOT
ATOM      1  C   UNL     1       0.548  -7.667  -5.873  1.00  0.00     0.184 A 
ATOM      2  C   UNL     1       1.364  -8.290  -6.833  1.00  0.00     0.208 A 
ATOM      3  C   UNL     1       2.755  -8.284  -6.647  1.00  0.00     0.238 A 
ATOM      4  O   UNL     1       3.497  -8.850  -7.495  1.00  0.00    -0.285 OA
ATOM      5  C   UNL     1       3.304  -7.639  -5.518  1.00  0.00     0.111 A 
ATOM      6  C   UNL     1       4.694  -7.583  -5.258  1.00  0.00     0.134 A 
ATOM      7  C   UNL     1       5.162  -6.914  -4.118  1.00  0.00     0.093 A 
ATOM      8  C   UNL     1       4.270  -6.300  -3.235  1.00  0.00     0.123 A 
ATOM      9  C   UNL     1       2.895  -6.352  -3.486  1.00  0.00     0.094 A 
ATOM     10  C   UNL     1       2.409  -7.016  -4.616  1.00  0.00     0.146 A 
ATOM     11  O   UNL     1       1.098  -7.055  -4.829  1.00  0.00    -0.451 OA
ENDROOT
BRANCH   1  12
ATOM     12  C   UNL     1      -0.924  -7.648  -6.002  1.00  0.00     0.063 A 
ATOM     13  C   UNL     1      -2.889  -6.987  -7.272  1.00  0.00     0.047 A 
ATOM     14  C   UNL     1      -1.501  -7.027  -7.122  1.00  0.00     0.020 A 
ATOM     15  C   UNL     1      -3.719  -7.553  -6.298  1.00  0.00     0.119 A 
ATOM     16  C   UNL     1      -3.155  -8.152  -5.168  1.00  0.00     0.093 A 
ATOM     17  C   UNL     1      -1.762  -8.192  -5.006  1.00  0.00     0.130 A 
BRANCH  15  18
ATOM     18  O   UNL     1      -5.104  -7.522  -6.440  1.00  0.00    -0.508 OA
ATOM     19  H   UNL     1      -5.710  -7.253  -5.673  1.00  0.00     0.293 HD
ENDBRANCH  15  18
BRANCH  17  20
ATOM     20  O   UNL     1      -1.213  -8.750  -3.852  1.00  0.00    -0.507 OA
ATOM     21  H   UNL     1      -0.981  -8.183  -3.045  1.00  0.00     0.293 HD
ENDBRANCH  17  20
ENDBRANCH   1  12
BRANCH   2  22
ATOM     22  O   UNL     1       0.793  -8.882  -7.962  1.00  0.00    -0.502 OA
ATOM     23  H   UNL     1       1.313  -9.502  -8.571  1.00  0.00     0.293 HD
ENDBRANCH   2  22
BRANCH   6  24
ATOM     24  O   UNL     1       5.611  -8.185  -6.121  1.00  0.00    -0.507 OA
ATOM     25  H   UNL     1       6.002  -9.100  -5.929  1.00  0.00     0.293 HD
ENDBRANCH   6  24
BRANCH   8  26
ATOM     26  O   UNL     1       4.761  -5.642  -2.110  1.00  0.00    -0.508 OA
ATOM     27  H   UNL     1       5.662  -5.178  -2.120  1.00  0.00     0.293 HD
ENDBRANCH   8  26
TORSDOF 6
ENDMDL
MODEL 8
REMARK VINA RESULT:    -4.442     13.035     14.750
REMARK INTER + INTRA:          -5.574
REMARK INTER:                  -5.165
REMARK INTRA:                  -0.409
REMARK UNBOUND:                -0.222
REMARK SMILES O=c1c(O)c(-c2ccc(O)cc2O)oc2cc(O)cc(O)c12
REMARK SMILES IDX 5 1 3 2 2 3 1 4 22 5 20 6 19 7 17 8 16 9 15 10 14 11 6 12
REMARK SMILES IDX 8 13 7 14 9 15 11 16 12 17 10 18 13 20 4 22 21 24 18 26
REMARK H PARENT 10 19 13 21 4 23 21 25 18 27
REMARK Flexibility Score: inf
ROOT
ATOM      1  C   UNL     1       1.799  -7.093  -5.341  1.00  0.00     0.184 A 
ATOM      2  C   UNL     1       2.122  -5.725  -5.372  1.00  0.00     0.208 A 
ATOM      3  C   UNL     1       3.273  -5.285  -4.701  1.00  0.00     0.238 A 
ATOM      4  O   UNL     1       3.579  -4.061  -4.731  1.00  0.00    -0.285 OA
ATOM      5  C   UNL     1       4.067  -6.214  -3.998  1.00  0.00     0.111 A 
ATOM      6  C   UNL     1       5.241  -5.853  -3.293  1.00  0.00     0.134 A 
ATOM      7  C   UNL     1       5.972  -6.836  -2.610  1.00  0.00     0.093 A 
ATOM      8  C   UNL     1       5.554  -8.169  -2.616  1.00  0.00     0.123 A 
ATOM      9  C   UNL     1       4.396  -8.532  -3.311  1.00  0.00     0.094 A 
ATOM     10  C   UNL     1       3.655  -7.568  -4.000  1.00  0.00     0.146 A 
ATOM     11  O   UNL     1       2.561  -7.941  -4.656  1.00  0.00    -0.451 OA
ENDROOT
BRANCH   1  12
ATOM     12  C   UNL     1       0.608  -7.625  -6.035  1.00  0.00     0.063 A 
ATOM     13  C   UNL     1      -0.396  -8.477  -8.079  1.00  0.00     0.047 A 
ATOM     14  C   UNL     1       0.712  -7.976  -7.391  1.00  0.00     0.020 A 
ATOM     15  C   UNL     1      -1.625  -8.620  -7.425  1.00  0.00     0.119 A 
ATOM     16  C   UNL     1      -1.744  -8.251  -6.082  1.00  0.00     0.093 A 
ATOM     17  C   UNL     1      -0.638  -7.742  -5.385  1.00  0.00     0.130 A 
BRANCH  15  18
ATOM     18  O   UNL     1      -2.735  -9.122  -8.101  1.00  0.00    -0.508 OA
ATOM     19  H   UNL     1      -3.307  -9.859  -7.705  1.00  0.00     0.293 HD
ENDBRANCH  15  18
BRANCH  17  20
ATOM     20  O   UNL     1      -0.782  -7.333  -4.059  1.00  0.00    -0.507 OA
ATOM     21  H   UNL     1      -0.146  -6.668  -3.635  1.00  0.00     0.293 HD
ENDBRANCH  17  20
ENDBRANCH   1  12
BRANCH   2  22
ATOM     22  O   UNL     1       1.290  -4.823  -6.040  1.00  0.00    -0.502 OA
ATOM     23  H   UNL     1       1.603  -4.288  -6.841  1.00  0.00     0.293 HD
ENDBRANCH   2  22
BRANCH   6  24
ATOM     24  O   UNL     1       5.684  -4.530  -3.267  1.00  0.00    -0.507 OA
ATOM     25  H   UNL     1       5.196  -3.795  -3.763  1.00  0.00     0.293 HD
ENDBRANCH   6  24
BRANCH   8  26
ATOM     26  O   UNL     1       6.298  -9.125  -1.929  1.00  0.00    -0.508 OA
ATOM     27  H   UNL     1       7.303  -9.040  -1.825  1.00  0.00     0.293 HD
ENDBRANCH   8  26
TORSDOF 6
ENDMDL
MODEL 9
REMARK VINA RESULT:    -3.685     12.724     14.275
REMARK INTER + INTRA:          -4.661
REMARK INTER:                  -4.283
REMARK INTRA:                  -0.378
REMARK UNBOUND:                -0.222
REMARK SMILES O=c1c(O)c(-c2ccc(O)cc2O)oc2cc(O)cc(O)c12
REMARK SMILES IDX 5 1 3 2 2 3 1 4 22 5 20 6 19 7 17 8 16 9 15 10 14 11 6 12
REMARK SMILES IDX 8 13 7 14 9 15 11 16 12 17 10 18 13 20 4 22 21 24 18 26
REMARK H PARENT 10 19 13 21 4 23 21 25 18 27
REMARK Flexibility Score: inf
ROOT
ATOM      1  C   UNL     1       2.760  -7.355  -4.641  1.00  0.00     0.184 A 
ATOM      2  C   UNL     1       2.805  -6.684  -5.876  1.00  0.00     0.208 A 
ATOM      3  C   UNL     1       1.635  -6.604  -6.647  1.00  0.00     0.238 A 
ATOM      4  O   UNL     1       1.660  -5.995  -7.751  1.00  0.00    -0.285 OA
ATOM      5  C   UNL     1       0.451  -7.212  -6.180  1.00  0.00     0.111 A 
ATOM      6  C   UNL     1      -0.770  -7.183  -6.898  1.00  0.00     0.134 A 
ATOM      7  C   UNL     1      -1.902  -7.819  -6.370  1.00  0.00     0.093 A 
ATOM      8  C   UNL     1      -1.839  -8.486  -5.143  1.00  0.00     0.123 A 
ATOM      9  C   UNL     1      -0.636  -8.519  -4.430  1.00  0.00     0.094 A 
ATOM     10  C   UNL     1       0.503  -7.888  -4.938  1.00  0.00     0.146 A 
ATOM     11  O   UNL     1       1.631  -7.931  -4.237  1.00  0.00    -0.451 OA
ENDROOT
BRANCH   1  12
ATOM     12  C   UNL     1       3.951  -7.465  -3.775  1.00  0.00     0.063 A 
ATOM     13  C   UNL     1       5.800  -8.810  -2.946  1.00  0.00     0.047 A 
ATOM     14  C   UNL     1       4.671  -8.670  -3.757  1.00  0.00     0.020 A 
ATOM     15  C   UNL     1       6.215  -7.751  -2.130  1.00  0.00     0.119 A 
ATOM     16  C   UNL     1       5.491  -6.555  -2.123  1.00  0.00     0.093 A 
ATOM     17  C   UNL     1       4.354  -6.409  -2.930  1.00  0.00     0.130 A 
BRANCH  15  18
ATOM     18  O   UNL     1       7.341  -7.878  -1.320  1.00  0.00    -0.508 OA
ATOM     19  H   UNL     1       8.274  -7.919  -1.713  1.00  0.00     0.293 HD
ENDBRANCH  15  18
BRANCH  17  20
ATOM     20  O   UNL     1       3.613  -5.228  -2.878  1.00  0.00    -0.507 OA
ATOM     21  H   UNL     1       2.621  -5.230  -2.673  1.00  0.00     0.293 HD
ENDBRANCH  17  20
ENDBRANCH   1  12
BRANCH   2  22
ATOM     22  O   UNL     1       4.004  -6.131  -6.330  1.00  0.00    -0.502 OA
ATOM     23  H   UNL     1       4.042  -5.241  -6.814  1.00  0.00     0.293 HD
ENDBRANCH   2  22
BRANCH   6  24
ATOM     24  O   UNL     1      -0.865  -6.526  -8.125  1.00  0.00    -0.507 OA
ATOM     25  H   UNL     1      -1.140  -7.012  -8.970  1.00  0.00     0.293 HD
ENDBRANCH   6  24
BRANCH   8  26
ATOM     26  O   UNL     1      -2.978  -9.111  -4.643  1.00  0.00    -0.508 OA
ATOM     27  H   UNL     1      -3.834  -8.596  -4.474  1.00  0.00     0.293 HD
ENDBRANCH   8  26
TORSDOF 6
ENDMDL
