MODEL 1
REMARK VINA RESULT:    -4.029      0.000      0.000
REMARK INTER + INTRA:          -5.462
REMARK INTER:                  -5.207
REMARK INTRA:                  -0.255
REMARK UNBOUND:                -0.255
REMARK SMILES CCCCCCC(=O)[O-]
REMARK SMILES IDX 5 1 6 2 7 3 8 4 9 5 4 6 3 7 2 8 1 9
REMARK H PARENT
REMARK Flexibility Score: inf
ROOT
ATOM      1  C   UNL     1      13.173  -7.146  14.231  1.00  0.00     0.006 C 
ENDROOT
BRANCH   1   2
ATOM      2  C   UNL     1      13.872  -6.755  15.539  1.00  0.00     0.053 C 
BRANCH   2   3
ATOM      3  C   UNL     1      12.868  -6.575  16.633  1.00  0.00     0.041 C 
ATOM      4  O   UNL     1      11.722  -7.088  16.532  1.00  0.00    -0.550 OA
ATOM      5  O   UNL     1      13.213  -5.884  17.787  1.00  0.00    -0.550 OA
ENDBRANCH   2   3
ENDBRANCH   1   2
BRANCH   1   6
ATOM      6  C   UNL     1      14.074  -6.959  12.999  1.00  0.00     0.000 C 
BRANCH   6   7
ATOM      7  C   UNL     1      15.552  -7.256  13.295  1.00  0.00    -0.000 C 
BRANCH   7   8
ATOM      8  C   UNL     1      15.917  -8.684  12.875  1.00  0.00    -0.003 C 
ATOM      9  C   UNL     1      15.916  -9.629  14.074  1.00  0.00     0.004 C 
ENDBRANCH   7   8
ENDBRANCH   6   7
ENDBRANCH   1   6
TORSDOF 5
ENDMDL
MODEL 2
REMARK VINA RESULT:    -3.906      2.064      2.340
REMARK INTER + INTRA:          -5.303
REMARK INTER:                  -4.903
REMARK INTRA:                  -0.400
REMARK UNBOUND:                -0.255
REMARK SMILES CCCCCCC(=O)[O-]
REMARK SMILES IDX 5 1 6 2 7 3 8 4 9 5 4 6 3 7 2 8 1 9
REMARK H PARENT
REMARK Flexibility Score: inf
ROOT
ATOM      1  C   UNL     1      13.828  -6.770  15.378  1.00  0.00     0.006 C 
ENDROOT
BRANCH   1   2
ATOM      2  C   UNL     1      13.507  -7.781  16.487  1.00  0.00     0.053 C 
BRANCH   2   3
ATOM      3  C   UNL     1      14.472  -8.923  16.448  1.00  0.00     0.041 C 
ATOM      4  O   UNL     1      14.150 -10.005  15.890  1.00  0.00    -0.550 OA
ATOM      5  O   UNL     1      15.746  -8.776  16.981  1.00  0.00    -0.550 OA
ENDBRANCH   2   3
ENDBRANCH   1   2
BRANCH   1   6
ATOM      6  C   UNL     1      13.320  -7.223  13.999  1.00  0.00     0.000 C 
BRANCH   6   7
ATOM      7  C   UNL     1      14.333  -6.950  12.876  1.00  0.00    -0.000 C 
BRANCH   7   8
ATOM      8  C   UNL     1      15.723  -7.471  13.256  1.00  0.00    -0.003 C 
ATOM      9  C   UNL     1      15.885  -8.940  12.875  1.00  0.00     0.004 C 
ENDBRANCH   7   8
ENDBRANCH   6   7
ENDBRANCH   1   6
TORSDOF 5
ENDMDL
MODEL 3
REMARK VINA RESULT:    -3.896     15.058     17.199
REMARK INTER + INTRA:          -5.290
REMARK INTER:                  -4.976
REMARK INTRA:                  -0.314
REMARK UNBOUND:                -0.255
REMARK SMILES CCCCCCC(=O)[O-]
REMARK SMILES IDX 5 1 6 2 7 3 8 4 9 5 4 6 3 7 2 8 1 9
REMARK H PARENT
REMARK Flexibility Score: inf
ROOT
ATOM      1  C   UNL     1       7.146  -6.642  29.305  1.00  0.00     0.006 C 
ENDROOT
BRANCH   1   2
ATOM      2  C   UNL     1       6.554  -5.320  28.801  1.00  0.00     0.053 C 
BRANCH   2   3
ATOM      3  C   UNL     1       7.597  -4.519  28.088  1.00  0.00     0.041 C 
ATOM      4  O   UNL     1       8.782  -4.940  28.021  1.00  0.00    -0.550 OA
ATOM      5  O   UNL     1       7.251  -3.333  27.454  1.00  0.00    -0.550 OA
ENDBRANCH   2   3
ENDBRANCH   1   2
BRANCH   1   6
ATOM      6  C   UNL     1       6.889  -6.873  30.804  1.00  0.00     0.000 C 
BRANCH   6   7
ATOM      7  C   UNL     1       7.822  -6.043  31.699  1.00  0.00    -0.000 C 
BRANCH   7   8
ATOM      8  C   UNL     1       7.020  -5.225  32.716  1.00  0.00    -0.003 C 
ATOM      9  C   UNL     1       5.537  -5.582  32.664  1.00  0.00     0.004 C 
ENDBRANCH   7   8
ENDBRANCH   6   7
ENDBRANCH   1   6
TORSDOF 5
ENDMDL
MODEL 4
REMARK VINA RESULT:    -3.885      1.281      1.907
REMARK INTER + INTRA:          -5.276
REMARK INTER:                  -5.109
REMARK INTRA:                  -0.167
REMARK UNBOUND:                -0.255
REMARK SMILES CCCCCCC(=O)[O-]
REMARK SMILES IDX 5 1 6 2 7 3 8 4 9 5 4 6 3 7 2 8 1 9
REMARK H PARENT
REMARK Flexibility Score: inf
ROOT
ATOM      1  C   UNL     1      13.557  -7.001  15.385  1.00  0.00     0.006 C 
ENDROOT
BRANCH   1   2
ATOM      2  C   UNL     1      12.370  -7.068  16.354  1.00  0.00     0.053 C 
BRANCH   2   3
ATOM      3  C   UNL     1      12.666  -8.009  17.478  1.00  0.00     0.041 C 
ATOM      4  O   UNL     1      13.856  -8.210  17.840  1.00  0.00    -0.550 OA
ATOM      5  O   UNL     1      11.626  -8.625  18.162  1.00  0.00    -0.550 OA
ENDBRANCH   2   3
ENDBRANCH   1   2
BRANCH   1   6
ATOM      6  C   UNL     1      13.129  -7.128  13.914  1.00  0.00     0.000 C 
BRANCH   6   7
ATOM      7  C   UNL     1      14.309  -6.991  12.940  1.00  0.00    -0.000 C 
BRANCH   7   8
ATOM      8  C   UNL     1      15.606  -7.503  13.576  1.00  0.00    -0.003 C 
ATOM      9  C   UNL     1      16.104  -8.764  12.875  1.00  0.00     0.004 C 
ENDBRANCH   7   8
ENDBRANCH   6   7
ENDBRANCH   1   6
TORSDOF 5
ENDMDL
MODEL 5
REMARK VINA RESULT:    -3.885     14.481     17.136
REMARK INTER + INTRA:          -5.275
REMARK INTER:                  -5.126
REMARK INTRA:                  -0.149
REMARK UNBOUND:                -0.255
REMARK SMILES CCCCCCC(=O)[O-]
REMARK SMILES IDX 5 1 6 2 7 3 8 4 9 5 4 6 3 7 2 8 1 9
REMARK H PARENT
REMARK Flexibility Score: inf
ROOT
ATOM      1  C   UNL     1       7.868  -5.780  29.891  1.00  0.00     0.006 C 
ENDROOT
BRANCH   1   2
ATOM      2  C   UNL     1       8.988  -6.410  29.054  1.00  0.00     0.053 C 
BRANCH   2   3
ATOM      3  C   UNL     1       8.413  -7.179  27.907  1.00  0.00     0.041 C 
ATOM      4  O   UNL     1       8.943  -8.262  27.542  1.00  0.00    -0.550 OA
ATOM      5  O   UNL     1       7.263  -6.727  27.273  1.00  0.00    -0.550 OA
ENDBRANCH   2   3
ENDBRANCH   1   2
BRANCH   1   6
ATOM      6  C   UNL     1       7.749  -6.408  31.290  1.00  0.00     0.000 C 
BRANCH   6   7
ATOM      7  C   UNL     1       7.196  -5.426  32.334  1.00  0.00    -0.000 C 
BRANCH   7   8
ATOM      8  C   UNL     1       5.676  -5.568  32.468  1.00  0.00    -0.003 C 
ATOM      9  C   UNL     1       5.226  -6.993  32.160  1.00  0.00     0.004 C 
ENDBRANCH   7   8
ENDBRANCH   6   7
ENDBRANCH   1   6
TORSDOF 5
ENDMDL
MODEL 6
REMARK VINA RESULT:    -3.823     16.049     18.121
REMARK INTER + INTRA:          -5.196
REMARK INTER:                  -4.926
REMARK INTRA:                  -0.270
REMARK UNBOUND:                -0.255
REMARK SMILES CCCCCCC(=O)[O-]
REMARK SMILES IDX 5 1 6 2 7 3 8 4 9 5 4 6 3 7 2 8 1 9
REMARK H PARENT
REMARK Flexibility Score: inf
ROOT
ATOM      1  C   UNL     1       7.581  -6.294  30.656  1.00  0.00     0.006 C 
ENDROOT
BRANCH   1   2
ATOM      2  C   UNL     1       7.345  -5.297  29.515  1.00  0.00     0.053 C 
BRANCH   2   3
ATOM      3  C   UNL     1       6.185  -5.730  28.675  1.00  0.00     0.041 C 
ATOM      4  O   UNL     1       5.734  -4.969  27.778  1.00  0.00    -0.550 OA
ATOM      5  O   UNL     1       5.635  -6.993  28.846  1.00  0.00    -0.550 OA
ENDBRANCH   2   3
ENDBRANCH   1   2
BRANCH   1   6
ATOM      6  C   UNL     1       7.632  -5.616  32.035  1.00  0.00     0.000 C 
BRANCH   6   7
ATOM      7  C   UNL     1       6.267  -5.606  32.740  1.00  0.00    -0.000 C 
BRANCH   7   8
ATOM      8  C   UNL     1       5.451  -6.849  32.370  1.00  0.00    -0.003 C 
ATOM      9  C   UNL     1       4.124  -6.882  33.125  1.00  0.00     0.004 C 
ENDBRANCH   7   8
ENDBRANCH   6   7
ENDBRANCH   1   6
TORSDOF 5
ENDMDL
MODEL 7
REMARK VINA RESULT:    -3.809     15.730     16.979
REMARK INTER + INTRA:          -5.177
REMARK INTER:                  -5.011
REMARK INTRA:                  -0.167
REMARK UNBOUND:                -0.255
REMARK SMILES CCCCCCC(=O)[O-]
REMARK SMILES IDX 5 1 6 2 7 3 8 4 9 5 4 6 3 7 2 8 1 9
REMARK H PARENT
REMARK Flexibility Score: inf
ROOT
ATOM      1  C   UNL     1       7.465  -6.289  30.085  1.00  0.00     0.006 C 
ENDROOT
BRANCH   1   2
ATOM      2  C   UNL     1       7.883  -6.321  31.560  1.00  0.00     0.053 C 
BRANCH   2   3
ATOM      3  C   UNL     1       7.007  -5.418  32.370  1.00  0.00     0.041 C 
ATOM      4  O   UNL     1       5.770  -5.639  32.449  1.00  0.00    -0.550 OA
ATOM      5  O   UNL     1       7.564  -4.363  33.081  1.00  0.00    -0.550 OA
ENDBRANCH   2   3
ENDBRANCH   1   2
BRANCH   1   6
ATOM      6  C   UNL     1       8.669  -6.254  29.129  1.00  0.00     0.000 C 
BRANCH   6   7
ATOM      7  C   UNL     1       8.608  -5.079  28.141  1.00  0.00    -0.000 C 
BRANCH   7   8
ATOM      8  C   UNL     1       7.177  -4.545  28.015  1.00  0.00    -0.003 C 
ATOM      9  C   UNL     1       7.134  -3.281  27.161  1.00  0.00     0.004 C 
ENDBRANCH   7   8
ENDBRANCH   6   7
ENDBRANCH   1   6
TORSDOF 5
ENDMDL
MODEL 8
REMARK VINA RESULT:    -3.808      1.338      2.118
REMARK INTER + INTRA:          -5.177
REMARK INTER:                  -4.835
REMARK INTRA:                  -0.342
REMARK UNBOUND:                -0.255
REMARK SMILES CCCCCCC(=O)[O-]
REMARK SMILES IDX 5 1 6 2 7 3 8 4 9 5 4 6 3 7 2 8 1 9
REMARK H PARENT
REMARK Flexibility Score: inf
ROOT
ATOM      1  C   UNL     1      13.744  -8.076  16.336  1.00  0.00     0.006 C 
ENDROOT
BRANCH   1   2
ATOM      2  C   UNL     1      14.686  -6.944  16.763  1.00  0.00     0.053 C 
BRANCH   2   3
ATOM      3  C   UNL     1      13.924  -5.870  17.472  1.00  0.00     0.041 C 
ATOM      4  O   UNL     1      12.676  -5.780  17.330  1.00  0.00    -0.550 OA
ATOM      5  O   UNL     1      14.584  -5.000  18.330  1.00  0.00    -0.550 OA
ENDBRANCH   2   3
ENDBRANCH   1   2
BRANCH   1   6
ATOM      6  C   UNL     1      13.772  -8.331  14.820  1.00  0.00     0.000 C 
BRANCH   6   7
ATOM      7  C   UNL     1      13.211  -7.151  14.011  1.00  0.00    -0.000 C 
BRANCH   7   8
ATOM      8  C   UNL     1      14.195  -6.720  12.918  1.00  0.00    -0.003 C 
ATOM      9  C   UNL     1      15.526  -7.455  13.053  1.00  0.00     0.004 C 
ENDBRANCH   7   8
ENDBRANCH   6   7
ENDBRANCH   1   6
TORSDOF 5
ENDMDL
MODEL 9
REMARK VINA RESULT:    -3.808      1.400      2.197
REMARK INTER + INTRA:          -5.176
REMARK INTER:                  -4.741
REMARK INTRA:                  -0.436
REMARK UNBOUND:                -0.255
REMARK SMILES CCCCCCC(=O)[O-]
REMARK SMILES IDX 5 1 6 2 7 3 8 4 9 5 4 6 3 7 2 8 1 9
REMARK H PARENT
REMARK Flexibility Score: inf
ROOT
ATOM      1  C   UNL     1      14.670  -9.005  16.102  1.00  0.00     0.006 C 
ENDROOT
BRANCH   1   2
ATOM      2  C   UNL     1      13.514  -8.541  16.997  1.00  0.00     0.053 C 
BRANCH   2   3
ATOM      3  C   UNL     1      12.982  -7.226  16.523  1.00  0.00     0.041 C 
ATOM      4  O   UNL     1      11.760  -7.102  16.243  1.00  0.00    -0.550 OA
ATOM      5  O   UNL     1      13.823  -6.125  16.438  1.00  0.00    -0.550 OA
ENDBRANCH   2   3
ENDBRANCH   1   2
BRANCH   1   6
ATOM      6  C   UNL     1      14.224  -9.289  14.658  1.00  0.00     0.000 C 
BRANCH   6   7
ATOM      7  C   UNL     1      15.295  -8.913  13.623  1.00  0.00    -0.000 C 
BRANCH   7   8
ATOM      8  C   UNL     1      15.379  -7.392  13.451  1.00  0.00    -0.003 C 
ATOM      9  C   UNL     1      14.055  -6.819  12.955  1.00  0.00     0.004 C 
ENDBRANCH   7   8
ENDBRANCH   6   7
ENDBRANCH   1   6
TORSDOF 5
ENDMDL
