MODEL 1
REMARK VINA RESULT:    28.561      0.000      0.000
REMARK INTER + INTRA:          33.341
REMARK INTER:                  33.570
REMARK INTRA:                  -0.229
REMARK UNBOUND:                -0.229
REMARK SMILES O=c1c(O)c(-c2ccc(O)c(O)c2)oc2cc(O)ccc12
REMARK SMILES IDX 5 1 3 2 2 3 1 4 21 5 15 6 14 7 16 8 17 9 19 10 20 11 6 12
REMARK SMILES IDX 7 13 8 14 9 15 13 16 11 17 10 18 12 20 4 22 18 24
REMARK H PARENT 10 19 12 21 4 23 18 25
REMARK Flexibility Score: inf
ROOT
ATOM      1  C   UNL     1      20.194 -12.538 -16.416  1.00  0.00     0.180 A 
ATOM      2  C   UNL     1      20.161 -13.019 -17.741  1.00  0.00     0.208 A 
ATOM      3  C   UNL     1      21.264 -12.780 -18.576  1.00  0.00     0.235 A 
ATOM      4  O   UNL     1      21.254 -13.191 -19.768  1.00  0.00    -0.285 OA
ATOM      5  C   UNL     1      22.376 -12.089 -18.069  1.00  0.00     0.069 A 
ATOM      6  C   UNL     1      22.341 -11.660 -16.724  1.00  0.00     0.142 A 
ATOM      7  O   UNL     1      21.274 -11.900 -15.970  1.00  0.00    -0.452 OA
ATOM      8  C   UNL     1      23.434 -10.977 -16.180  1.00  0.00     0.094 A 
ATOM      9  C   UNL     1      24.564 -10.714 -16.965  1.00  0.00     0.119 A 
ATOM     10  C   UNL     1      24.600 -11.136 -18.298  1.00  0.00     0.047 A 
ATOM     11  C   UNL     1      23.514 -11.820 -18.851  1.00  0.00     0.020 A 
ENDROOT
BRANCH   1  12
ATOM     12  C   UNL     1      19.064 -12.734 -15.480  1.00  0.00     0.025 A 
ATOM     13  C   UNL     1      18.837 -14.003 -14.927  1.00  0.00     0.016 A 
ATOM     14  C   UNL     1      17.790 -14.206 -14.026  1.00  0.00     0.051 A 
ATOM     15  C   UNL     1      16.963 -13.139 -13.651  1.00  0.00     0.157 A 
ATOM     16  C   UNL     1      18.245 -11.660 -15.085  1.00  0.00     0.062 A 
ATOM     17  C   UNL     1      17.196 -11.859 -14.180  1.00  0.00     0.158 A 
BRANCH  15  18
ATOM     18  O   UNL     1      15.917 -13.345 -12.752  1.00  0.00    -0.504 OA
ATOM     19  H   UNL     1      15.210 -14.052 -12.913  1.00  0.00     0.293 HD
ENDBRANCH  15  18
BRANCH  17  20
ATOM     20  O   UNL     1      16.400 -10.773 -13.816  1.00  0.00    -0.504 OA
ATOM     21  H   UNL     1      16.764  -9.994 -13.281  1.00  0.00     0.293 HD
ENDBRANCH  17  20
ENDBRANCH   1  12
BRANCH   2  22
ATOM     22  O   UNL     1      19.061 -13.747 -18.202  1.00  0.00    -0.502 OA
ATOM     23  H   UNL     1      18.940 -13.984 -19.180  1.00  0.00     0.293 HD
ENDBRANCH   2  22
BRANCH   9  24
ATOM     24  O   UNL     1      25.657 -10.034 -16.431  1.00  0.00    -0.508 OA
ATOM     25  H   UNL     1      26.191  -9.374 -16.983  1.00  0.00     0.293 HD
ENDBRANCH   9  24
TORSDOF 5
ENDMDL
MODEL 2
REMARK VINA RESULT:    30.078      4.517      7.426
REMARK INTER + INTRA:          35.124
REMARK INTER:                  35.320
REMARK INTRA:                  -0.196
REMARK UNBOUND:                -0.229
REMARK SMILES O=c1c(O)c(-c2ccc(O)c(O)c2)oc2cc(O)ccc12
REMARK SMILES IDX 5 1 3 2 2 3 1 4 21 5 15 6 14 7 16 8 17 9 19 10 20 11 6 12
REMARK SMILES IDX 7 13 8 14 9 15 13 16 11 17 10 18 12 20 4 22 18 24
REMARK H PARENT 10 19 12 21 4 23 18 25
REMARK Flexibility Score: inf
ROOT
ATOM      1  C   UNL     1      22.550  -8.428 -18.421  1.00  0.00     0.180 A 
ATOM      2  C   UNL     1      23.439  -8.690 -17.359  1.00  0.00     0.208 A 
ATOM      3  C   UNL     1      23.729 -10.024 -17.033  1.00  0.00     0.235 A 
ATOM      4  O   UNL     1      24.513 -10.284 -16.079  1.00  0.00    -0.285 OA
ATOM      5  C   UNL     1      23.146 -11.060 -17.779  1.00  0.00     0.069 A 
ATOM      6  C   UNL     1      22.284 -10.714 -18.844  1.00  0.00     0.142 A 
ATOM      7  O   UNL     1      22.030  -9.438 -19.114  1.00  0.00    -0.452 OA
ATOM      8  C   UNL     1      21.692 -11.717 -19.618  1.00  0.00     0.094 A 
ATOM      9  C   UNL     1      21.948 -13.066 -19.341  1.00  0.00     0.119 A 
ATOM     10  C   UNL     1      22.799 -13.412 -18.286  1.00  0.00     0.047 A 
ATOM     11  C   UNL     1      23.397 -12.416 -17.507  1.00  0.00     0.020 A 
ENDROOT
BRANCH   1  12
ATOM     12  C   UNL     1      22.180  -7.049 -18.815  1.00  0.00     0.025 A 
ATOM     13  C   UNL     1      20.885  -6.578 -18.548  1.00  0.00     0.016 A 
ATOM     14  C   UNL     1      20.521  -5.274 -18.892  1.00  0.00     0.051 A 
ATOM     15  C   UNL     1      21.450  -4.416 -19.493  1.00  0.00     0.157 A 
ATOM     16  C   UNL     1      23.117  -6.178 -19.400  1.00  0.00     0.062 A 
ATOM     17  C   UNL     1      22.756  -4.870 -19.744  1.00  0.00     0.158 A 
BRANCH  15  18
ATOM     18  O   UNL     1      21.083  -3.116 -19.838  1.00  0.00    -0.504 OA
ATOM     19  H   UNL     1      20.482  -2.926 -20.630  1.00  0.00     0.293 HD
ENDBRANCH  15  18
BRANCH  17  20
ATOM     20  O   UNL     1      23.708  -4.036 -20.328  1.00  0.00    -0.504 OA
ATOM     21  H   UNL     1      23.452  -3.204 -20.847  1.00  0.00     0.293 HD
ENDBRANCH  17  20
ENDBRANCH   1  12
BRANCH   2  22
ATOM     22  O   UNL     1      24.042  -7.638 -16.665  1.00  0.00    -0.502 OA
ATOM     23  H   UNL     1      24.755  -7.051 -17.084  1.00  0.00     0.293 HD
ENDBRANCH   2  22
BRANCH   9  24
ATOM     24  O   UNL     1      21.361 -14.072 -20.106  1.00  0.00    -0.508 OA
ATOM     25  H   UNL     1      20.510 -14.535 -19.810  1.00  0.00     0.293 HD
ENDBRANCH   9  24
TORSDOF 5
ENDMDL
MODEL 3
REMARK VINA RESULT:    30.585     10.636     12.444
REMARK INTER + INTRA:          35.720
REMARK INTER:                  35.551
REMARK INTRA:                   0.170
REMARK UNBOUND:                -0.229
REMARK SMILES O=c1c(O)c(-c2ccc(O)c(O)c2)oc2cc(O)ccc12
REMARK SMILES IDX 5 1 3 2 2 3 1 4 21 5 15 6 14 7 16 8 17 9 19 10 20 11 6 12
REMARK SMILES IDX 7 13 8 14 9 15 13 16 11 17 10 18 12 20 4 22 18 24
REMARK H PARENT 10 19 12 21 4 23 18 25
REMARK Flexibility Score: inf
ROOT
ATOM      1  C   UNL     1      28.762 -14.455 -23.310  1.00  0.00     0.180 A 
ATOM      2  C   UNL     1      28.784 -15.180 -22.101  1.00  0.00     0.208 A 
ATOM      3  C   UNL     1      29.057 -16.556 -22.141  1.00  0.00     0.235 A 
ATOM      4  O   UNL     1      29.071 -17.228 -21.074  1.00  0.00    -0.285 OA
ATOM      5  C   UNL     1      29.321 -17.171 -23.375  1.00  0.00     0.069 A 
ATOM      6  C   UNL     1      29.304 -16.372 -24.539  1.00  0.00     0.142 A 
ATOM      7  O   UNL     1      29.033 -15.074 -24.457  1.00  0.00    -0.452 OA
ATOM      8  C   UNL     1      29.572 -16.946 -25.786  1.00  0.00     0.094 A 
ATOM      9  C   UNL     1      29.856 -18.314 -25.886  1.00  0.00     0.119 A 
ATOM     10  C   UNL     1      29.871 -19.109 -24.736  1.00  0.00     0.047 A 
ATOM     11  C   UNL     1      29.606 -18.545 -23.484  1.00  0.00     0.020 A 
ENDROOT
BRANCH   1  12
ATOM     12  C   UNL     1      28.465 -13.005 -23.353  1.00  0.00     0.025 A 
ATOM     13  C   UNL     1      27.632 -12.501 -24.363  1.00  0.00     0.016 A 
ATOM     14  C   UNL     1      27.320 -11.140 -24.410  1.00  0.00     0.051 A 
ATOM     15  C   UNL     1      27.824 -10.266 -23.439  1.00  0.00     0.157 A 
ATOM     16  C   UNL     1      28.952 -12.128 -22.367  1.00  0.00     0.062 A 
ATOM     17  C   UNL     1      28.641 -10.764 -22.410  1.00  0.00     0.158 A 
BRANCH  15  18
ATOM     18  O   UNL     1      27.514  -8.907 -23.490  1.00  0.00    -0.504 OA
ATOM     19  H   UNL     1      28.050  -8.221 -22.974  1.00  0.00     0.293 HD
ENDBRANCH  15  18
BRANCH  17  20
ATOM     20  O   UNL     1      29.146  -9.922 -21.420  1.00  0.00    -0.504 OA
ATOM     21  H   UNL     1      30.103  -9.592 -21.430  1.00  0.00     0.293 HD
ENDBRANCH  17  20
ENDBRANCH   1  12
BRANCH   2  22
ATOM     22  O   UNL     1      28.566 -14.531 -20.883  1.00  0.00    -0.502 OA
ATOM     23  H   UNL     1      27.653 -14.492 -20.446  1.00  0.00     0.293 HD
ENDBRANCH   2  22
BRANCH   9  24
ATOM     24  O   UNL     1      30.123 -18.895 -27.125  1.00  0.00    -0.508 OA
ATOM     25  H   UNL     1      29.681 -19.760 -27.410  1.00  0.00     0.293 HD
ENDBRANCH   9  24
TORSDOF 5
ENDMDL
