MODEL 1
REMARK VINA RESULT:    -4.867      0.000      0.000
REMARK INTER + INTRA:          -7.003
REMARK INTER:                  -6.432
REMARK INTRA:                  -0.571
REMARK UNBOUND:                -0.571
REMARK SMILES C=CCC[C@@H](O)CCC
REMARK SMILES IDX 4 1 5 2 7 3 8 4 9 5 6 6 3 8 2 9 1 10
REMARK H PARENT 6 7
REMARK Flexibility Score: inf
ROOT
ATOM      1  C   UNL     1     137.690 123.847 138.984  1.00  0.00     0.036 C 
ENDROOT
BRANCH   1   2
ATOM      2  C   UNL     1     138.224 122.933 140.109  1.00  0.00     0.114 C 
BRANCH   2   3
ATOM      3  C   UNL     1     137.361 123.012 141.389  1.00  0.00     0.031 C 
BRANCH   3   4
ATOM      4  C   UNL     1     135.943 122.458 141.189  1.00  0.00    -0.001 C 
ATOM      5  C   UNL     1     134.890 123.490 141.583  1.00  0.00     0.004 C 
ENDBRANCH   3   4
ENDBRANCH   2   3
BRANCH   2   6
ATOM      6  O   UNL     1     139.558 123.258 140.417  1.00  0.00    -0.393 OA
ATOM      7  H   UNL     1     139.588 124.227 140.633  1.00  0.00     0.210 HD
ENDBRANCH   2   6
ENDBRANCH   1   2
BRANCH   1   8
ATOM      8  C   UNL     1     137.270 123.038 137.748  1.00  0.00     0.029 C 
BRANCH   8   9
ATOM      9  C   UNL     1     135.782 123.105 137.531  1.00  0.00    -0.035 C 
ATOM     10  C   UNL     1     135.068 124.178 137.881  1.00  0.00     0.004 C 
ENDBRANCH   8   9
ENDBRANCH   1   8
TORSDOF 6
ENDMDL
MODEL 2
REMARK VINA RESULT:    -4.622      2.274      4.314
REMARK INTER + INTRA:          -6.678
REMARK INTER:                  -6.053
REMARK INTRA:                  -0.626
REMARK UNBOUND:                -0.571
REMARK SMILES C=CCC[C@@H](O)CCC
REMARK SMILES IDX 4 1 5 2 7 3 8 4 9 5 6 6 3 8 2 9 1 10
REMARK H PARENT 6 7
REMARK Flexibility Score: inf
ROOT
ATOM      1  C   UNL     1     134.452 123.171 140.016  1.00  0.00     0.036 C 
ENDROOT
BRANCH   1   2
ATOM      2  C   UNL     1     135.103 123.146 138.615  1.00  0.00     0.114 C 
BRANCH   2   3
ATOM      3  C   UNL     1     135.656 124.528 138.200  1.00  0.00     0.031 C 
BRANCH   3   4
ATOM      4  C   UNL     1     137.152 124.691 138.512  1.00  0.00    -0.001 C 
ATOM      5  C   UNL     1     137.932 123.436 138.130  1.00  0.00     0.004 C 
ENDBRANCH   3   4
ENDBRANCH   2   3
BRANCH   2   6
ATOM      6  O   UNL     1     134.182 122.697 137.651  1.00  0.00    -0.393 OA
ATOM      7  H   UNL     1     134.664 122.077 137.043  1.00  0.00     0.210 HD
ENDBRANCH   2   6
ENDBRANCH   1   2
BRANCH   1   8
ATOM      8  C   UNL     1     135.197 122.260 141.003  1.00  0.00     0.029 C 
BRANCH   8   9
ATOM      9  C   UNL     1     136.216 123.034 141.797  1.00  0.00    -0.035 C 
ATOM     10  C   UNL     1     137.524 122.781 141.698  1.00  0.00     0.004 C 
ENDBRANCH   8   9
ENDBRANCH   1   8
TORSDOF 6
ENDMDL
MODEL 3
REMARK VINA RESULT:    -4.606      2.259      3.313
REMARK INTER + INTRA:          -6.658
REMARK INTER:                  -6.153
REMARK INTRA:                  -0.506
REMARK UNBOUND:                -0.571
REMARK SMILES C=CCC[C@@H](O)CCC
REMARK SMILES IDX 4 1 5 2 7 3 8 4 9 5 6 6 3 8 2 9 1 10
REMARK H PARENT 6 7
REMARK Flexibility Score: inf
ROOT
ATOM      1  C   UNL     1     136.633 122.976 137.721  1.00  0.00     0.036 C 
ENDROOT
BRANCH   1   2
ATOM      2  C   UNL     1     135.211 123.127 138.305  1.00  0.00     0.114 C 
BRANCH   2   3
ATOM      3  C   UNL     1     135.114 122.605 139.756  1.00  0.00     0.031 C 
BRANCH   3   4
ATOM      4  C   UNL     1     134.833 123.721 140.775  1.00  0.00    -0.001 C 
ATOM      5  C   UNL     1     135.466 123.403 142.126  1.00  0.00     0.004 C 
ENDBRANCH   3   4
ENDBRANCH   2   3
BRANCH   2   6
ATOM      6  O   UNL     1     134.272 122.457 137.499  1.00  0.00    -0.393 OA
ATOM      7  H   UNL     1     134.339 122.836 136.583  1.00  0.00     0.210 HD
ENDBRANCH   2   6
ENDBRANCH   1   2
BRANCH   1   8
ATOM      8  C   UNL     1     137.641 123.886 138.439  1.00  0.00     0.029 C 
BRANCH   8   9
ATOM      9  C   UNL     1     138.692 123.080 139.153  1.00  0.00    -0.035 C 
ATOM     10  C   UNL     1     138.802 123.090 140.484  1.00  0.00     0.004 C 
ENDBRANCH   8   9
ENDBRANCH   1   8
TORSDOF 6
ENDMDL
MODEL 4
REMARK VINA RESULT:    -4.531      1.913      2.840
REMARK INTER + INTRA:          -6.558
REMARK INTER:                  -6.031
REMARK INTRA:                  -0.527
REMARK UNBOUND:                -0.571
REMARK SMILES C=CCC[C@@H](O)CCC
REMARK SMILES IDX 4 1 5 2 7 3 8 4 9 5 6 6 3 8 2 9 1 10
REMARK H PARENT 6 7
REMARK Flexibility Score: inf
ROOT
ATOM      1  C   UNL     1     135.314 124.216 138.468  1.00  0.00     0.036 C 
ENDROOT
BRANCH   1   2
ATOM      2  C   UNL     1     134.633 123.683 139.748  1.00  0.00     0.114 C 
BRANCH   2   3
ATOM      3  C   UNL     1     135.343 124.163 141.035  1.00  0.00     0.031 C 
BRANCH   3   4
ATOM      4  C   UNL     1     135.926 123.007 141.862  1.00  0.00    -0.001 C 
ATOM      5  C   UNL     1     137.436 122.899 141.665  1.00  0.00     0.004 C 
ENDBRANCH   3   4
ENDBRANCH   2   3
BRANCH   2   6
ATOM      6  O   UNL     1     134.584 122.277 139.733  1.00  0.00    -0.393 OA
ATOM      7  H   UNL     1     134.212 121.999 138.855  1.00  0.00     0.210 HD
ENDBRANCH   2   6
ENDBRANCH   1   2
BRANCH   1   8
ATOM      8  C   UNL     1     135.650 123.080 137.491  1.00  0.00     0.029 C 
BRANCH   8   9
ATOM      9  C   UNL     1     137.125 122.782 137.486  1.00  0.00    -0.035 C 
ATOM     10  C   UNL     1     138.000 123.554 138.136  1.00  0.00     0.004 C 
ENDBRANCH   8   9
ENDBRANCH   1   8
TORSDOF 6
ENDMDL
MODEL 5
REMARK VINA RESULT:    -4.527      0.833      3.238
REMARK INTER + INTRA:          -6.554
REMARK INTER:                  -5.981
REMARK INTRA:                  -0.573
REMARK UNBOUND:                -0.571
REMARK SMILES C=CCC[C@@H](O)CCC
REMARK SMILES IDX 4 1 5 2 7 3 8 4 9 5 6 6 3 8 2 9 1 10
REMARK H PARENT 6 7
REMARK Flexibility Score: inf
ROOT
ATOM      1  C   UNL     1     137.303 122.525 140.944  1.00  0.00     0.036 C 
ENDROOT
BRANCH   1   2
ATOM      2  C   UNL     1     138.188 123.383 140.013  1.00  0.00     0.114 C 
BRANCH   2   3
ATOM      3  C   UNL     1     137.583 123.530 138.599  1.00  0.00     0.031 C 
BRANCH   3   4
ATOM      4  C   UNL     1     136.414 124.525 138.550  1.00  0.00    -0.001 C 
ATOM      5  C   UNL     1     135.214 123.927 137.821  1.00  0.00     0.004 C 
ENDBRANCH   3   4
ENDBRANCH   2   3
BRANCH   2   6
ATOM      6  O   UNL     1     139.481 122.835 139.919  1.00  0.00    -0.393 OA
ATOM      7  H   UNL     1     139.567 122.425 139.019  1.00  0.00     0.210 HD
ENDBRANCH   2   6
ENDBRANCH   1   2
BRANCH   1   8
ATOM      8  C   UNL     1     136.702 123.362 142.084  1.00  0.00     0.029 C 
BRANCH   8   9
ATOM      9  C   UNL     1     135.198 123.324 142.055  1.00  0.00    -0.035 C 
ATOM     10  C   UNL     1     134.530 122.554 141.191  1.00  0.00     0.004 C 
ENDBRANCH   8   9
ENDBRANCH   1   8
TORSDOF 6
ENDMDL
MODEL 6
REMARK VINA RESULT:    -4.451      2.021      2.745
REMARK INTER + INTRA:          -6.453
REMARK INTER:                  -6.180
REMARK INTRA:                  -0.273
REMARK UNBOUND:                -0.571
REMARK SMILES C=CCC[C@@H](O)CCC
REMARK SMILES IDX 4 1 5 2 7 3 8 4 9 5 6 6 3 8 2 9 1 10
REMARK H PARENT 6 7
REMARK Flexibility Score: inf
ROOT
ATOM      1  C   UNL     1     135.026 123.718 138.888  1.00  0.00     0.036 C 
ENDROOT
BRANCH   1   2
ATOM      2  C   UNL     1     134.728 123.010 140.228  1.00  0.00     0.114 C 
BRANCH   2   3
ATOM      3  C   UNL     1     135.577 123.571 141.391  1.00  0.00     0.031 C 
BRANCH   3   4
ATOM      4  C   UNL     1     134.776 123.731 142.692  1.00  0.00    -0.001 C 
ATOM      5  C   UNL     1     133.313 123.347 142.487  1.00  0.00     0.004 C 
ENDBRANCH   3   4
ENDBRANCH   2   3
BRANCH   2   6
ATOM      6  O   UNL     1     134.943 121.624 140.113  1.00  0.00    -0.393 OA
ATOM      7  H   UNL     1     134.691 121.357 139.190  1.00  0.00     0.210 HD
ENDBRANCH   2   6
ENDBRANCH   1   2
BRANCH   1   8
ATOM      8  C   UNL     1     135.381 122.712 137.782  1.00  0.00     0.029 C 
BRANCH   8   9
ATOM      9  C   UNL     1     136.842 122.784 137.428  1.00  0.00    -0.035 C 
ATOM     10  C   UNL     1     137.703 123.519 138.137  1.00  0.00     0.004 C 
ENDBRANCH   8   9
ENDBRANCH   1   8
TORSDOF 6
ENDMDL
MODEL 7
REMARK VINA RESULT:    -4.329      2.133      4.277
REMARK INTER + INTRA:          -6.292
REMARK INTER:                  -5.852
REMARK INTRA:                  -0.439
REMARK UNBOUND:                -0.571
REMARK SMILES C=CCC[C@@H](O)CCC
REMARK SMILES IDX 4 1 5 2 7 3 8 4 9 5 6 6 3 8 2 9 1 10
REMARK H PARENT 6 7
REMARK Flexibility Score: inf
ROOT
ATOM      1  C   UNL     1     135.089 122.214 140.666  1.00  0.00     0.036 C 
ENDROOT
BRANCH   1   2
ATOM      2  C   UNL     1     135.571 122.502 139.227  1.00  0.00     0.114 C 
BRANCH   2   3
ATOM      3  C   UNL     1     134.992 123.822 138.667  1.00  0.00     0.031 C 
BRANCH   3   4
ATOM      4  C   UNL     1     136.056 124.917 138.498  1.00  0.00    -0.001 C 
ATOM      5  C   UNL     1     137.463 124.328 138.554  1.00  0.00     0.004 C 
ENDBRANCH   3   4
ENDBRANCH   2   3
BRANCH   2   6
ATOM      6  O   UNL     1     135.232 121.438 138.370  1.00  0.00    -0.393 OA
ATOM      7  H   UNL     1     134.686 120.795 138.894  1.00  0.00     0.210 HD
ENDBRANCH   2   6
ENDBRANCH   1   2
BRANCH   1   8
ATOM      8  C   UNL     1     135.920 122.982 141.705  1.00  0.00     0.029 C 
BRANCH   8   9
ATOM      9  C   UNL     1     135.051 123.884 142.539  1.00  0.00    -0.035 C 
ATOM     10  C   UNL     1     135.571 124.770 143.393  1.00  0.00     0.004 C 
ENDBRANCH   8   9
ENDBRANCH   1   8
TORSDOF 6
ENDMDL
MODEL 8
REMARK VINA RESULT:    -4.242      2.257      4.298
REMARK INTER + INTRA:          -6.176
REMARK INTER:                  -5.901
REMARK INTRA:                  -0.276
REMARK UNBOUND:                -0.571
REMARK SMILES C=CCC[C@@H](O)CCC
REMARK SMILES IDX 4 1 5 2 7 3 8 4 9 5 6 6 3 8 2 9 1 10
REMARK H PARENT 6 7
REMARK Flexibility Score: inf
ROOT
ATOM      1  C   UNL     1     134.955 123.797 139.968  1.00  0.00     0.036 C 
ENDROOT
BRANCH   1   2
ATOM      2  C   UNL     1     134.802 123.197 138.552  1.00  0.00     0.114 C 
BRANCH   2   3
ATOM      3  C   UNL     1     136.036 122.366 138.131  1.00  0.00     0.031 C 
BRANCH   3   4
ATOM      4  C   UNL     1     137.227 123.239 137.707  1.00  0.00    -0.001 C 
ATOM      5  C   UNL     1     138.312 123.245 138.781  1.00  0.00     0.004 C 
ENDBRANCH   3   4
ENDBRANCH   2   3
BRANCH   2   6
ATOM      6  O   UNL     1     134.573 124.214 137.607  1.00  0.00    -0.393 OA
ATOM      7  H   UNL     1     133.758 123.970 137.096  1.00  0.00     0.210 HD
ENDBRANCH   2   6
ENDBRANCH   1   2
BRANCH   1   8
ATOM      8  C   UNL     1     135.114 122.702 141.033  1.00  0.00     0.029 C 
BRANCH   8   9
ATOM      9  C   UNL     1     134.320 123.026 142.270  1.00  0.00    -0.035 C 
ATOM     10  C   UNL     1     133.082 123.521 142.202  1.00  0.00     0.004 C 
ENDBRANCH   8   9
ENDBRANCH   1   8
TORSDOF 6
ENDMDL
