MODEL 1
REMARK VINA RESULT:    -3.085      0.000      0.000
REMARK INTER + INTRA:          -4.177
REMARK INTER:                  -3.987
REMARK INTRA:                  -0.190
REMARK UNBOUND:                -0.190
REMARK SMILES CCCCCCC=O
REMARK SMILES IDX 4 1 3 2 2 3 1 4 5 5 6 6 7 7 8 8
REMARK H PARENT
REMARK Flexibility Score: inf
ROOT
ATOM      1  C   UNL     1     166.235 166.228 165.688  1.00  0.00     0.000 C 
ENDROOT
BRANCH   1   2
ATOM      2  C   UNL     1     165.933 165.791 167.130  1.00  0.00    -0.000 C 
BRANCH   2   3
ATOM      3  C   UNL     1     164.731 164.838 167.220  1.00  0.00    -0.003 C 
ATOM      4  C   UNL     1     164.422 164.215 165.862  1.00  0.00     0.004 C 
ENDBRANCH   2   3
ENDBRANCH   1   2
BRANCH   1   5
ATOM      5  C   UNL     1     167.277 167.354 165.616  1.00  0.00     0.008 C 
BRANCH   5   6
ATOM      6  C   UNL     1     168.566 166.865 164.947  1.00  0.00     0.072 C 
BRANCH   6   7
ATOM      7  C   UNL     1     169.717 166.907 165.906  1.00  0.00     0.224 C 
ATOM      8  O   UNL     1     169.539 166.708 167.096  1.00  0.00    -0.303 OA
ENDBRANCH   6   7
ENDBRANCH   5   6
ENDBRANCH   1   5
TORSDOF 5
ENDMDL
MODEL 2
REMARK VINA RESULT:    -3.038      2.076      4.426
REMARK INTER + INTRA:          -4.117
REMARK INTER:                  -3.910
REMARK INTRA:                  -0.207
REMARK UNBOUND:                -0.190
REMARK SMILES CCCCCCC=O
REMARK SMILES IDX 4 1 3 2 2 3 1 4 5 5 6 6 7 7 8 8
REMARK H PARENT
REMARK Flexibility Score: inf
ROOT
ATOM      1  C   UNL     1     167.488 166.767 166.656  1.00  0.00     0.000 C 
ENDROOT
BRANCH   1   2
ATOM      2  C   UNL     1     168.022 166.867 165.219  1.00  0.00    -0.000 C 
BRANCH   2   3
ATOM      3  C   UNL     1     169.551 166.735 165.147  1.00  0.00    -0.003 C 
ATOM      4  C   UNL     1     170.188 166.971 166.513  1.00  0.00     0.004 C 
ENDBRANCH   2   3
ENDBRANCH   1   2
BRANCH   1   5
ATOM      5  C   UNL     1     166.005 166.367 166.710  1.00  0.00     0.008 C 
BRANCH   5   6
ATOM      6  C   UNL     1     165.581 165.666 165.414  1.00  0.00     0.072 C 
BRANCH   6   7
ATOM      7  C   UNL     1     164.916 164.355 165.707  1.00  0.00     0.224 C 
ATOM      8  O   UNL     1     165.085 163.801 166.782  1.00  0.00    -0.303 OA
ENDBRANCH   6   7
ENDBRANCH   5   6
ENDBRANCH   1   5
TORSDOF 5
ENDMDL
MODEL 3
REMARK VINA RESULT:    -3.024      1.555      2.449
REMARK INTER + INTRA:          -4.098
REMARK INTER:                  -3.959
REMARK INTRA:                  -0.139
REMARK UNBOUND:                -0.190
REMARK SMILES CCCCCCC=O
REMARK SMILES IDX 4 1 3 2 2 3 1 4 5 5 6 6 7 7 8 8
REMARK H PARENT
REMARK Flexibility Score: inf
ROOT
ATOM      1  C   UNL     1     165.274 164.828 166.677  1.00  0.00     0.000 C 
ENDROOT
BRANCH   1   2
ATOM      2  C   UNL     1     163.781 164.481 166.772  1.00  0.00    -0.000 C 
BRANCH   2   3
ATOM      3  C   UNL     1     163.150 164.201 165.399  1.00  0.00    -0.003 C 
ATOM      4  C   UNL     1     161.637 164.403 165.439  1.00  0.00     0.004 C 
ENDBRANCH   2   3
ENDBRANCH   1   2
BRANCH   1   5
ATOM      5  C   UNL     1     165.593 165.747 165.487  1.00  0.00     0.008 C 
BRANCH   5   6
ATOM      6  C   UNL     1     166.420 166.957 165.937  1.00  0.00     0.072 C 
BRANCH   6   7
ATOM      7  C   UNL     1     167.406 167.355 164.881  1.00  0.00     0.224 C 
ATOM      8  O   UNL     1     168.546 166.921 164.903  1.00  0.00    -0.303 OA
ENDBRANCH   6   7
ENDBRANCH   5   6
ENDBRANCH   1   5
TORSDOF 5
ENDMDL
MODEL 4
REMARK VINA RESULT:    -3.024      2.232      3.490
REMARK INTER + INTRA:          -4.098
REMARK INTER:                  -3.943
REMARK INTRA:                  -0.155
REMARK UNBOUND:                -0.190
REMARK SMILES CCCCCCC=O
REMARK SMILES IDX 4 1 3 2 2 3 1 4 5 5 6 6 7 7 8 8
REMARK H PARENT
REMARK Flexibility Score: inf
ROOT
ATOM      1  C   UNL     1     163.725 164.455 166.585  1.00  0.00     0.000 C 
ENDROOT
BRANCH   1   2
ATOM      2  C   UNL     1     163.044 164.093 165.255  1.00  0.00    -0.000 C 
BRANCH   2   3
ATOM      3  C   UNL     1     161.574 164.536 165.204  1.00  0.00    -0.003 C 
ATOM      4  C   UNL     1     160.862 164.227 166.519  1.00  0.00     0.004 C 
ENDBRANCH   2   3
ENDBRANCH   1   2
BRANCH   1   5
ATOM      5  C   UNL     1     165.237 164.681 166.432  1.00  0.00     0.008 C 
BRANCH   5   6
ATOM      6  C   UNL     1     165.535 165.623 165.261  1.00  0.00     0.072 C 
BRANCH   6   7
ATOM      7  C   UNL     1     166.594 166.618 165.629  1.00  0.00     0.224 C 
ATOM      8  O   UNL     1     166.289 167.700 166.104  1.00  0.00    -0.303 OA
ENDBRANCH   6   7
ENDBRANCH   5   6
ENDBRANCH   1   5
TORSDOF 5
ENDMDL
MODEL 5
REMARK VINA RESULT:    -2.979      2.934      5.046
REMARK INTER + INTRA:          -4.040
REMARK INTER:                  -3.932
REMARK INTRA:                  -0.108
REMARK UNBOUND:                -0.190
REMARK SMILES CCCCCCC=O
REMARK SMILES IDX 4 1 3 2 2 3 1 4 5 5 6 6 7 7 8 8
REMARK H PARENT
REMARK Flexibility Score: inf
ROOT
ATOM      1  C   UNL     1     166.019 166.244 166.353  1.00  0.00     0.000 C 
ENDROOT
BRANCH   1   2
ATOM      2  C   UNL     1     166.862 166.363 165.074  1.00  0.00    -0.000 C 
BRANCH   2   3
ATOM      3  C   UNL     1     167.972 167.419 165.194  1.00  0.00    -0.003 C 
ATOM      4  C   UNL     1     169.346 166.762 165.295  1.00  0.00     0.004 C 
ENDBRANCH   2   3
ENDBRANCH   1   2
BRANCH   1   5
ATOM      5  C   UNL     1     165.197 164.947 166.403  1.00  0.00     0.008 C 
BRANCH   5   6
ATOM      6  C   UNL     1     164.550 164.657 165.044  1.00  0.00     0.072 C 
BRANCH   6   7
ATOM      7  C   UNL     1     163.356 163.763 165.198  1.00  0.00     0.224 C 
ATOM      8  O   UNL     1     162.233 164.235 165.265  1.00  0.00    -0.303 OA
ENDBRANCH   6   7
ENDBRANCH   5   6
ENDBRANCH   1   5
TORSDOF 5
ENDMDL
MODEL 6
REMARK VINA RESULT:    -2.887      3.494      5.550
REMARK INTER + INTRA:          -3.921
REMARK INTER:                  -3.804
REMARK INTRA:                  -0.117
REMARK UNBOUND:                -0.190
REMARK SMILES CCCCCCC=O
REMARK SMILES IDX 4 1 3 2 2 3 1 4 5 5 6 6 7 7 8 8
REMARK H PARENT
REMARK Flexibility Score: inf
ROOT
ATOM      1  C   UNL     1     165.248 164.633 166.578  1.00  0.00     0.000 C 
ENDROOT
BRANCH   1   2
ATOM      2  C   UNL     1     165.595 165.623 165.456  1.00  0.00    -0.000 C 
BRANCH   2   3
ATOM      3  C   UNL     1     166.600 166.696 165.903  1.00  0.00    -0.003 C 
ATOM      4  C   UNL     1     166.422 167.983 165.102  1.00  0.00     0.004 C 
ENDBRANCH   2   3
ENDBRANCH   1   2
BRANCH   1   5
ATOM      5  C   UNL     1     163.734 164.499 166.802  1.00  0.00     0.008 C 
BRANCH   5   6
ATOM      6  C   UNL     1     163.017 164.149 165.494  1.00  0.00     0.072 C 
BRANCH   6   7
ATOM      7  C   UNL     1     161.535 164.339 165.626  1.00  0.00     0.224 C 
ATOM      8  O   UNL     1     161.027 164.490 166.725  1.00  0.00    -0.303 OA
ENDBRANCH   6   7
ENDBRANCH   5   6
ENDBRANCH   1   5
TORSDOF 5
ENDMDL
MODEL 7
REMARK VINA RESULT:    -2.868      3.001      4.860
REMARK INTER + INTRA:          -3.897
REMARK INTER:                  -3.805
REMARK INTRA:                  -0.092
REMARK UNBOUND:                -0.190
REMARK SMILES CCCCCCC=O
REMARK SMILES IDX 4 1 3 2 2 3 1 4 5 5 6 6 7 7 8 8
REMARK H PARENT
REMARK Flexibility Score: inf
ROOT
ATOM      1  C   UNL     1     164.481 164.319 166.206  1.00  0.00     0.000 C 
ENDROOT
BRANCH   1   2
ATOM      2  C   UNL     1     165.340 165.444 165.608  1.00  0.00    -0.000 C 
BRANCH   2   3
ATOM      3  C   UNL     1     166.051 166.281 166.683  1.00  0.00    -0.003 C 
ATOM      4  C   UNL     1     166.949 167.339 166.049  1.00  0.00     0.004 C 
ENDBRANCH   2   3
ENDBRANCH   1   2
BRANCH   1   5
ATOM      5  C   UNL     1     165.209 162.966 166.228  1.00  0.00     0.008 C 
BRANCH   5   6
ATOM      6  C   UNL     1     164.978 162.199 164.922  1.00  0.00     0.072 C 
BRANCH   6   7
ATOM      7  C   UNL     1     165.814 160.956 164.875  1.00  0.00     0.224 C 
ATOM      8  O   UNL     1     166.432 160.588 165.861  1.00  0.00    -0.303 OA
ENDBRANCH   6   7
ENDBRANCH   5   6
ENDBRANCH   1   5
TORSDOF 5
ENDMDL
MODEL 8
REMARK VINA RESULT:    -2.771      1.946      2.784
REMARK INTER + INTRA:          -3.772
REMARK INTER:                  -3.606
REMARK INTRA:                  -0.165
REMARK UNBOUND:                -0.190
REMARK SMILES CCCCCCC=O
REMARK SMILES IDX 4 1 3 2 2 3 1 4 5 5 6 6 7 7 8 8
REMARK H PARENT
REMARK Flexibility Score: inf
ROOT
ATOM      1  C   UNL     1     165.195 164.601 166.759  1.00  0.00     0.000 C 
ENDROOT
BRANCH   1   2
ATOM      2  C   UNL     1     163.664 164.473 166.787  1.00  0.00    -0.000 C 
BRANCH   2   3
ATOM      3  C   UNL     1     163.067 164.196 165.399  1.00  0.00    -0.003 C 
ATOM      4  C   UNL     1     161.567 164.475 165.380  1.00  0.00     0.004 C 
ENDBRANCH   2   3
ENDBRANCH   1   2
BRANCH   1   5
ATOM      5  C   UNL     1     165.675 165.771 165.887  1.00  0.00     0.008 C 
BRANCH   5   6
ATOM      6  C   UNL     1     166.668 166.652 166.653  1.00  0.00     0.072 C 
BRANCH   6   7
ATOM      7  C   UNL     1     166.475 166.516 168.133  1.00  0.00     0.224 C 
ATOM      8  O   UNL     1     167.398 166.734 168.901  1.00  0.00    -0.303 OA
ENDBRANCH   6   7
ENDBRANCH   5   6
ENDBRANCH   1   5
TORSDOF 5
ENDMDL
