MODEL 1
REMARK VINA RESULT:    -4.481      0.000      0.000
REMARK INTER + INTRA:          -5.660
REMARK INTER:                  -5.397
REMARK INTRA:                  -0.262
REMARK UNBOUND:                -0.262
REMARK SMILES O=c1c(O)c(-c2ccc(O)c(O)c2)oc2cc(O)cc(O)c12
REMARK SMILES IDX 5 1 3 2 2 3 1 4 22 5 20 6 19 7 17 8 16 9 15 10 14 11 6 12
REMARK SMILES IDX 7 13 8 14 9 15 13 16 11 17 10 18 12 20 4 22 21 24 18 26
REMARK H PARENT 10 19 12 21 4 23 21 25 18 27
REMARK Flexibility Score: inf
ROOT
ATOM      1  C   UNL     1      -8.153  16.250  32.134  1.00  0.00     0.180 A 
ATOM      2  C   UNL     1      -6.807  16.639  31.987  1.00  0.00     0.208 A 
ATOM      3  C   UNL     1      -6.276  16.767  30.694  1.00  0.00     0.238 A 
ATOM      4  O   UNL     1      -5.074  17.125  30.550  1.00  0.00    -0.285 OA
ATOM      5  C   UNL     1      -7.087  16.485  29.575  1.00  0.00     0.111 A 
ATOM      6  C   UNL     1      -6.628  16.586  28.241  1.00  0.00     0.134 A 
ATOM      7  C   UNL     1      -7.495  16.280  27.181  1.00  0.00     0.093 A 
ATOM      8  C   UNL     1      -8.809  15.876  27.430  1.00  0.00     0.123 A 
ATOM      9  C   UNL     1      -9.268  15.776  28.747  1.00  0.00     0.094 A 
ATOM     10  C   UNL     1      -8.420  16.078  29.817  1.00  0.00     0.146 A 
ATOM     11  O   UNL     1      -8.883  15.979  31.057  1.00  0.00    -0.452 OA
ENDROOT
BRANCH   1  12
ATOM     12  C   UNL     1      -8.791  16.112  33.463  1.00  0.00     0.025 A 
ATOM     13  C   UNL     1      -9.645  17.124  33.927  1.00  0.00     0.016 A 
ATOM     14  C   UNL     1     -10.241  17.024  35.187  1.00  0.00     0.051 A 
ATOM     15  C   UNL     1      -9.979  15.920  36.007  1.00  0.00     0.157 A 
ATOM     16  C   UNL     1      -8.513  15.014  34.298  1.00  0.00     0.062 A 
ATOM     17  C   UNL     1      -9.107  14.913  35.562  1.00  0.00     0.158 A 
BRANCH  15  18
ATOM     18  O   UNL     1     -10.577  15.823  37.263  1.00  0.00    -0.504 OA
ATOM     19  H   UNL     1     -11.560  16.030  37.401  1.00  0.00     0.293 HD
ENDBRANCH  15  18
BRANCH  17  20
ATOM     20  O   UNL     1      -8.815  13.809  36.362  1.00  0.00    -0.504 OA
ATOM     21  H   UNL     1      -8.303  13.893  37.231  1.00  0.00     0.293 HD
ENDBRANCH  17  20
ENDBRANCH   1  12
BRANCH   2  22
ATOM     22  O   UNL     1      -6.010  16.863  33.112  1.00  0.00    -0.502 OA
ATOM     23  H   UNL     1      -6.278  16.549  34.038  1.00  0.00     0.293 HD
ENDBRANCH   2  22
BRANCH   6  24
ATOM     24  O   UNL     1      -5.321  16.985  27.959  1.00  0.00    -0.507 OA
ATOM     25  H   UNL     1      -4.649  16.353  27.539  1.00  0.00     0.293 HD
ENDBRANCH   6  24
BRANCH   8  26
ATOM     26  O   UNL     1      -9.649  15.577  26.360  1.00  0.00    -0.508 OA
ATOM     27  H   UNL     1      -9.328  15.028  25.571  1.00  0.00     0.293 HD
ENDBRANCH   8  26
TORSDOF 6
ENDMDL
MODEL 2
REMARK VINA RESULT:    -4.419      1.557      2.980
REMARK INTER + INTRA:          -5.585
REMARK INTER:                  -5.620
REMARK INTRA:                   0.035
REMARK UNBOUND:                -0.262
REMARK SMILES O=c1c(O)c(-c2ccc(O)c(O)c2)oc2cc(O)cc(O)c12
REMARK SMILES IDX 5 1 3 2 2 3 1 4 22 5 20 6 19 7 17 8 16 9 15 10 14 11 6 12
REMARK SMILES IDX 7 13 8 14 9 15 13 16 11 17 10 18 12 20 4 22 21 24 18 26
REMARK H PARENT 10 19 12 21 4 23 21 25 18 27
REMARK Flexibility Score: inf
ROOT
ATOM      1  C   UNL     1      -8.498  15.730  32.613  1.00  0.00     0.180 A 
ATOM      2  C   UNL     1      -9.715  15.373  31.998  1.00  0.00     0.208 A 
ATOM      3  C   UNL     1      -9.782  15.346  30.597  1.00  0.00     0.238 A 
ATOM      4  O   UNL     1     -10.863  15.018  30.035  1.00  0.00    -0.285 OA
ATOM      5  C   UNL     1      -8.647  15.693  29.836  1.00  0.00     0.111 A 
ATOM      6  C   UNL     1      -8.633  15.694  28.421  1.00  0.00     0.134 A 
ATOM      7  C   UNL     1      -7.465  16.060  27.737  1.00  0.00     0.093 A 
ATOM      8  C   UNL     1      -6.313  16.424  28.438  1.00  0.00     0.123 A 
ATOM      9  C   UNL     1      -6.320  16.425  29.836  1.00  0.00     0.094 A 
ATOM     10  C   UNL     1      -7.474  16.061  30.537  1.00  0.00     0.146 A 
ATOM     11  O   UNL     1      -7.453  16.065  31.864  1.00  0.00    -0.452 OA
ENDROOT
BRANCH   1  12
ATOM     12  C   UNL     1      -8.342  15.764  34.086  1.00  0.00     0.025 A 
ATOM     13  C   UNL     1      -7.653  16.831  34.682  1.00  0.00     0.016 A 
ATOM     14  C   UNL     1      -7.476  16.873  36.067  1.00  0.00     0.051 A 
ATOM     15  C   UNL     1      -7.970  15.841  36.875  1.00  0.00     0.157 A 
ATOM     16  C   UNL     1      -8.819  14.718  34.897  1.00  0.00     0.062 A 
ATOM     17  C   UNL     1      -8.641  14.756  36.285  1.00  0.00     0.158 A 
BRANCH  15  18
ATOM     18  O   UNL     1      -7.794  15.886  38.257  1.00  0.00    -0.504 OA
ATOM     19  H   UNL     1      -8.004  16.722  38.791  1.00  0.00     0.293 HD
ENDBRANCH  15  18
BRANCH  17  20
ATOM     20  O   UNL     1      -9.132  13.706  37.060  1.00  0.00    -0.504 OA
ATOM     21  H   UNL     1      -9.940  13.813  37.662  1.00  0.00     0.293 HD
ENDBRANCH  17  20
ENDBRANCH   1  12
BRANCH   2  22
ATOM     22  O   UNL     1     -10.839  15.083  32.774  1.00  0.00    -0.502 OA
ATOM     23  H   UNL     1     -11.778  15.330  32.483  1.00  0.00     0.293 HD
ENDBRANCH   2  22
BRANCH   6  24
ATOM     24  O   UNL     1      -9.768  15.336  27.692  1.00  0.00    -0.507 OA
ATOM     25  H   UNL     1     -10.069  14.371  27.612  1.00  0.00     0.293 HD
ENDBRANCH   6  24
BRANCH   8  26
ATOM     26  O   UNL     1      -5.166  16.786  27.734  1.00  0.00    -0.508 OA
ATOM     27  H   UNL     1      -4.252  16.435  27.994  1.00  0.00     0.293 HD
ENDBRANCH   8  26
TORSDOF 6
ENDMDL
MODEL 3
REMARK VINA RESULT:    -4.272      1.884      7.221
REMARK INTER + INTRA:          -5.409
REMARK INTER:                  -5.238
REMARK INTRA:                  -0.171
REMARK UNBOUND:                -0.262
REMARK SMILES O=c1c(O)c(-c2ccc(O)c(O)c2)oc2cc(O)cc(O)c12
REMARK SMILES IDX 5 1 3 2 2 3 1 4 22 5 20 6 19 7 17 8 16 9 15 10 14 11 6 12
REMARK SMILES IDX 7 13 8 14 9 15 13 16 11 17 10 18 12 20 4 22 21 24 18 26
REMARK H PARENT 10 19 12 21 4 23 21 25 18 27
REMARK Flexibility Score: inf
ROOT
ATOM      1  C   UNL     1      -8.612  15.762  31.896  1.00  0.00     0.180 A 
ATOM      2  C   UNL     1      -9.789  15.075  32.255  1.00  0.00     0.208 A 
ATOM      3  C   UNL     1     -10.068  14.874  33.616  1.00  0.00     0.238 A 
ATOM      4  O   UNL     1     -11.124  14.270  33.950  1.00  0.00    -0.285 OA
ATOM      5  C   UNL     1      -9.161  15.342  34.590  1.00  0.00     0.111 A 
ATOM      6  C   UNL     1      -9.366  15.177  35.981  1.00  0.00     0.134 A 
ATOM      7  C   UNL     1      -8.413  15.665  36.887  1.00  0.00     0.093 A 
ATOM      8  C   UNL     1      -7.261  16.310  36.431  1.00  0.00     0.123 A 
ATOM      9  C   UNL     1      -7.054  16.476  35.058  1.00  0.00     0.094 A 
ATOM     10  C   UNL     1      -7.994  16.000  34.139  1.00  0.00     0.146 A 
ATOM     11  O   UNL     1      -7.774  16.175  32.841  1.00  0.00    -0.452 OA
ENDROOT
BRANCH   1  12
ATOM     12  C   UNL     1      -8.259  16.029  30.483  1.00  0.00     0.025 A 
ATOM     13  C   UNL     1      -9.075  16.874  29.716  1.00  0.00     0.016 A 
ATOM     14  C   UNL     1      -8.772  17.124  28.375  1.00  0.00     0.051 A 
ATOM     15  C   UNL     1      -7.658  16.520  27.777  1.00  0.00     0.157 A 
ATOM     16  C   UNL     1      -7.153  15.408  29.875  1.00  0.00     0.062 A 
ATOM     17  C   UNL     1      -6.848  15.654  28.531  1.00  0.00     0.158 A 
BRANCH  15  18
ATOM     18  O   UNL     1      -7.357  16.773  26.439  1.00  0.00    -0.504 OA
ATOM     19  H   UNL     1      -7.609  16.119  25.707  1.00  0.00     0.293 HD
ENDBRANCH  15  18
BRANCH  17  20
ATOM     20  O   UNL     1      -5.741  15.026  27.961  1.00  0.00    -0.504 OA
ATOM     21  H   UNL     1      -5.520  14.055  28.141  1.00  0.00     0.293 HD
ENDBRANCH  17  20
ENDBRANCH   1  12
BRANCH   2  22
ATOM     22  O   UNL     1     -10.645  14.577  31.269  1.00  0.00    -0.502 OA
ATOM     23  H   UNL     1     -10.300  14.131  30.427  1.00  0.00     0.293 HD
ENDBRANCH   2  22
BRANCH   6  24
ATOM     24  O   UNL     1     -10.505  14.535  36.468  1.00  0.00    -0.507 OA
ATOM     25  H   UNL     1     -11.408  14.996  36.493  1.00  0.00     0.293 HD
ENDBRANCH   6  24
BRANCH   8  26
ATOM     26  O   UNL     1      -6.329  16.783  37.352  1.00  0.00    -0.508 OA
ATOM     27  H   UNL     1      -5.460  16.291  37.527  1.00  0.00     0.293 HD
ENDBRANCH   8  26
TORSDOF 6
ENDMDL
MODEL 4
REMARK VINA RESULT:    -3.484      7.684     10.318
REMARK INTER + INTRA:          -4.460
REMARK INTER:                  -4.924
REMARK INTRA:                   0.464
REMARK UNBOUND:                -0.262
REMARK SMILES O=c1c(O)c(-c2ccc(O)c(O)c2)oc2cc(O)cc(O)c12
REMARK SMILES IDX 5 1 3 2 2 3 1 4 22 5 20 6 19 7 17 8 16 9 15 10 14 11 6 12
REMARK SMILES IDX 7 13 8 14 9 15 13 16 11 17 10 18 12 20 4 22 21 24 18 26
REMARK H PARENT 10 19 12 21 4 23 21 25 18 27
REMARK Flexibility Score: inf
ROOT
ATOM      1  C   UNL     1       0.373  17.102  29.148  1.00  0.00     0.180 A 
ATOM      2  C   UNL     1       0.551  17.079  27.750  1.00  0.00     0.208 A 
ATOM      3  C   UNL     1       1.855  17.043  27.234  1.00  0.00     0.238 A 
ATOM      4  O   UNL     1       2.027  17.011  25.985  1.00  0.00    -0.285 OA
ATOM      5  C   UNL     1       2.956  17.051  28.117  1.00  0.00     0.111 A 
ATOM      6  C   UNL     1       4.301  17.020  27.677  1.00  0.00     0.134 A 
ATOM      7  C   UNL     1       5.340  17.039  28.619  1.00  0.00     0.093 A 
ATOM      8  C   UNL     1       5.062  17.090  29.987  1.00  0.00     0.123 A 
ATOM      9  C   UNL     1       3.736  17.120  30.426  1.00  0.00     0.094 A 
ATOM     10  C   UNL     1       2.684  17.099  29.504  1.00  0.00     0.146 A 
ATOM     11  O   UNL     1       1.434  17.125  29.948  1.00  0.00    -0.452 OA
ENDROOT
BRANCH   1  12
ATOM     12  C   UNL     1      -0.971  17.122  29.769  1.00  0.00     0.025 A 
ATOM     13  C   UNL     1      -1.085  17.123  31.167  1.00  0.00     0.016 A 
ATOM     14  C   UNL     1      -2.343  17.121  31.775  1.00  0.00     0.051 A 
ATOM     15  C   UNL     1      -3.505  17.101  30.994  1.00  0.00     0.157 A 
ATOM     16  C   UNL     1      -2.140  17.081  28.987  1.00  0.00     0.062 A 
ATOM     17  C   UNL     1      -3.402  17.076  29.593  1.00  0.00     0.158 A 
BRANCH  15  18
ATOM     18  O   UNL     1      -4.760  17.100  31.602  1.00  0.00    -0.504 OA
ATOM     19  H   UNL     1      -4.993  17.759  32.337  1.00  0.00     0.293 HD
ENDBRANCH  15  18
BRANCH  17  20
ATOM     20  O   UNL     1      -4.540  17.042  28.787  1.00  0.00    -0.504 OA
ATOM     21  H   UNL     1      -5.362  16.509  29.040  1.00  0.00     0.293 HD
ENDBRANCH  17  20
ENDBRANCH   1  12
BRANCH   2  22
ATOM     22  O   UNL     1      -0.554  17.123  26.897  1.00  0.00    -0.502 OA
ATOM     23  H   UNL     1      -1.030  16.285  26.584  1.00  0.00     0.293 HD
ENDBRANCH   2  22
BRANCH   6  24
ATOM     24  O   UNL     1       4.612  16.971  26.318  1.00  0.00    -0.507 OA
ATOM     25  H   UNL     1       3.893  16.871  25.610  1.00  0.00     0.293 HD
ENDBRANCH   6  24
BRANCH   8  26
ATOM     26  O   UNL     1       6.114  17.110  30.901  1.00  0.00    -0.508 OA
ATOM     27  H   UNL     1       5.961  17.324  31.879  1.00  0.00     0.293 HD
ENDBRANCH   8  26
TORSDOF 6
ENDMDL
MODEL 5
REMARK VINA RESULT:    -3.452      1.474      2.996
REMARK INTER + INTRA:          -4.421
REMARK INTER:                  -4.663
REMARK INTRA:                   0.242
REMARK UNBOUND:                -0.262
REMARK SMILES O=c1c(O)c(-c2ccc(O)c(O)c2)oc2cc(O)cc(O)c12
REMARK SMILES IDX 5 1 3 2 2 3 1 4 22 5 20 6 19 7 17 8 16 9 15 10 14 11 6 12
REMARK SMILES IDX 7 13 8 14 9 15 13 16 11 17 10 18 12 20 4 22 21 24 18 26
REMARK H PARENT 10 19 12 21 4 23 21 25 18 27
REMARK Flexibility Score: inf
ROOT
ATOM      1  C   UNL     1      -8.738  16.032  31.207  1.00  0.00     0.180 A 
ATOM      2  C   UNL     1      -9.543  16.268  30.076  1.00  0.00     0.208 A 
ATOM      3  C   UNL     1      -8.921  16.521  28.844  1.00  0.00     0.238 A 
ATOM      4  O   UNL     1      -9.632  16.724  27.821  1.00  0.00    -0.285 OA
ATOM      5  C   UNL     1      -7.513  16.555  28.766  1.00  0.00     0.111 A 
ATOM      6  C   UNL     1      -6.810  16.807  27.564  1.00  0.00     0.134 A 
ATOM      7  C   UNL     1      -5.408  16.832  27.570  1.00  0.00     0.093 A 
ATOM      8  C   UNL     1      -4.697  16.611  28.752  1.00  0.00     0.123 A 
ATOM      9  C   UNL     1      -5.386  16.362  29.943  1.00  0.00     0.094 A 
ATOM     10  C   UNL     1      -6.784  16.330  29.957  1.00  0.00     0.146 A 
ATOM     11  O   UNL     1      -7.414  16.086  31.099  1.00  0.00    -0.452 OA
ENDROOT
BRANCH   1  12
ATOM     12  C   UNL     1      -9.319  15.739  32.538  1.00  0.00     0.025 A 
ATOM     13  C   UNL     1     -10.500  16.386  32.932  1.00  0.00     0.016 A 
ATOM     14  C   UNL     1     -11.054  16.140  34.191  1.00  0.00     0.051 A 
ATOM     15  C   UNL     1     -10.428  15.257  35.079  1.00  0.00     0.157 A 
ATOM     16  C   UNL     1      -8.681  14.868  33.440  1.00  0.00     0.062 A 
ATOM     17  C   UNL     1      -9.232  14.622  34.703  1.00  0.00     0.158 A 
BRANCH  15  18
ATOM     18  O   UNL     1     -10.984  15.012  36.334  1.00  0.00    -0.504 OA
ATOM     19  H   UNL     1     -10.404  14.843  37.148  1.00  0.00     0.293 HD
ENDBRANCH  15  18
BRANCH  17  20
ATOM     20  O   UNL     1      -8.577  13.748  35.570  1.00  0.00    -0.504 OA
ATOM     21  H   UNL     1      -7.693  13.982  36.004  1.00  0.00     0.293 HD
ENDBRANCH  17  20
ENDBRANCH   1  12
BRANCH   2  22
ATOM     22  O   UNL     1     -10.935  16.280  30.190  1.00  0.00    -0.502 OA
ATOM     23  H   UNL     1     -11.408  16.142  31.076  1.00  0.00     0.293 HD
ENDBRANCH   2  22
BRANCH   6  24
ATOM     24  O   UNL     1      -7.491  17.032  26.367  1.00  0.00    -0.507 OA
ATOM     25  H   UNL     1      -8.501  17.121  26.336  1.00  0.00     0.293 HD
ENDBRANCH   6  24
BRANCH   8  26
ATOM     26  O   UNL     1      -3.304  16.644  28.732  1.00  0.00    -0.508 OA
ATOM     27  H   UNL     1      -2.797  17.451  28.387  1.00  0.00     0.293 HD
ENDBRANCH   8  26
TORSDOF 6
ENDMDL
MODEL 6
REMARK VINA RESULT:    -3.028     11.876     15.011
REMARK INTER + INTRA:          -3.910
REMARK INTER:                  -4.374
REMARK INTRA:                   0.464
REMARK UNBOUND:                -0.262
REMARK SMILES O=c1c(O)c(-c2ccc(O)c(O)c2)oc2cc(O)cc(O)c12
REMARK SMILES IDX 5 1 3 2 2 3 1 4 22 5 20 6 19 7 17 8 16 9 15 10 14 11 6 12
REMARK SMILES IDX 7 13 8 14 9 15 13 16 11 17 10 18 12 20 4 22 21 24 18 26
REMARK H PARENT 10 19 12 21 4 23 21 25 18 27
REMARK Flexibility Score: inf
ROOT
ATOM      1  C   UNL     1       3.842  17.072  23.971  1.00  0.00     0.180 A 
ATOM      2  C   UNL     1       2.846  17.054  22.974  1.00  0.00     0.208 A 
ATOM      3  C   UNL     1       3.237  17.004  21.627  1.00  0.00     0.238 A 
ATOM      4  O   UNL     1       2.354  16.976  20.726  1.00  0.00    -0.285 OA
ATOM      5  C   UNL     1       4.608  16.995  21.298  1.00  0.00     0.111 A 
ATOM      6  C   UNL     1       5.085  16.949  19.967  1.00  0.00     0.134 A 
ATOM      7  C   UNL     1       6.466  16.951  19.722  1.00  0.00     0.093 A 
ATOM      8  C   UNL     1       7.377  16.999  20.779  1.00  0.00     0.123 A 
ATOM      9  C   UNL     1       6.912  17.043  22.097  1.00  0.00     0.094 A 
ATOM     10  C   UNL     1       5.539  17.040  22.362  1.00  0.00     0.146 A 
ATOM     11  O   UNL     1       5.124  17.078  23.623  1.00  0.00    -0.452 OA
ENDROOT
BRANCH   1  12
ATOM     12  C   UNL     1       3.509  17.106  25.413  1.00  0.00     0.025 A 
ATOM     13  C   UNL     1       4.545  17.114  26.360  1.00  0.00     0.016 A 
ATOM     14  C   UNL     1       4.254  17.124  27.727  1.00  0.00     0.051 A 
ATOM     15  C   UNL     1       2.925  17.110  28.167  1.00  0.00     0.157 A 
ATOM     16  C   UNL     1       2.175  17.070  25.858  1.00  0.00     0.062 A 
ATOM     17  C   UNL     1       1.881  17.077  27.227  1.00  0.00     0.158 A 
BRANCH  15  18
ATOM     18  O   UNL     1       2.637  17.122  29.531  1.00  0.00    -0.504 OA
ATOM     19  H   UNL     1       2.081  16.392  29.962  1.00  0.00     0.293 HD
ENDBRANCH  15  18
BRANCH  17  20
ATOM     20  O   UNL     1       0.547  17.048  27.634  1.00  0.00    -0.504 OA
ATOM     21  H   UNL     1      -0.145  17.685  27.259  1.00  0.00     0.293 HD
ENDBRANCH  17  20
ENDBRANCH   1  12
BRANCH   2  22
ATOM     22  O   UNL     1       1.495  17.115  23.324  1.00  0.00    -0.502 OA
ATOM     23  H   UNL     1       1.172  17.590  24.159  1.00  0.00     0.293 HD
ENDBRANCH   2  22
BRANCH   6  24
ATOM     24  O   UNL     1       4.201  16.902  18.888  1.00  0.00    -0.507 OA
ATOM     25  H   UNL     1       4.255  17.567  18.125  1.00  0.00     0.293 HD
ENDBRANCH   6  24
BRANCH   8  26
ATOM     26  O   UNL     1       8.744  17.002  20.508  1.00  0.00    -0.508 OA
ATOM     27  H   UNL     1       9.243  17.861  20.307  1.00  0.00     0.293 HD
ENDBRANCH   8  26
TORSDOF 6
ENDMDL
MODEL 7
REMARK VINA RESULT:    -2.484      1.652      6.731
REMARK INTER + INTRA:          -3.255
REMARK INTER:                  -3.123
REMARK INTRA:                  -0.132
REMARK UNBOUND:                -0.262
REMARK SMILES O=c1c(O)c(-c2ccc(O)c(O)c2)oc2cc(O)cc(O)c12
REMARK SMILES IDX 5 1 3 2 2 3 1 4 22 5 20 6 19 7 17 8 16 9 15 10 14 11 6 12
REMARK SMILES IDX 7 13 8 14 9 15 13 16 11 17 10 18 12 20 4 22 21 24 18 26
REMARK H PARENT 10 19 12 21 4 23 21 25 18 27
REMARK Flexibility Score: inf
ROOT
ATOM      1  C   UNL     1      -7.732  16.248  32.413  1.00  0.00     0.180 A 
ATOM      2  C   UNL     1      -6.551  16.633  33.079  1.00  0.00     0.208 A 
ATOM      3  C   UNL     1      -6.502  16.542  34.478  1.00  0.00     0.238 A 
ATOM      4  O   UNL     1      -5.446  16.874  35.084  1.00  0.00    -0.285 OA
ATOM      5  C   UNL     1      -7.634  16.091  35.188  1.00  0.00     0.111 A 
ATOM      6  C   UNL     1      -7.667  15.974  36.598  1.00  0.00     0.134 A 
ATOM      7  C   UNL     1      -8.835  15.524  37.231  1.00  0.00     0.093 A 
ATOM      8  C   UNL     1      -9.967  15.190  36.484  1.00  0.00     0.123 A 
ATOM      9  C   UNL     1      -9.940  15.303  35.091  1.00  0.00     0.094 A 
ATOM     10  C   UNL     1      -8.784  15.748  34.441  1.00  0.00     0.146 A 
ATOM     11  O   UNL     1      -8.783  15.841  33.116  1.00  0.00    -0.452 OA
ENDROOT
BRANCH   1  12
ATOM     12  C   UNL     1      -7.854  16.297  30.938  1.00  0.00     0.025 A 
ATOM     13  C   UNL     1      -8.889  17.046  30.357  1.00  0.00     0.016 A 
ATOM     14  C   UNL     1      -9.036  17.089  28.968  1.00  0.00     0.051 A 
ATOM     15  C   UNL     1      -8.161  16.373  28.141  1.00  0.00     0.157 A 
ATOM     16  C   UNL     1      -6.990  15.562  30.107  1.00  0.00     0.062 A 
ATOM     17  C   UNL     1      -7.136  15.602  28.715  1.00  0.00     0.158 A 
BRANCH  15  18
ATOM     18  O   UNL     1      -8.310  16.420  26.755  1.00  0.00    -0.504 OA
ATOM     19  H   UNL     1      -8.249  15.583  26.187  1.00  0.00     0.293 HD
ENDBRANCH  15  18
BRANCH  17  20
ATOM     20  O   UNL     1      -6.258  14.867  27.919  1.00  0.00    -0.504 OA
ATOM     21  H   UNL     1      -6.585  14.231  27.202  1.00  0.00     0.293 HD
ENDBRANCH  17  20
ENDBRANCH   1  12
BRANCH   2  22
ATOM     22  O   UNL     1      -5.461  17.125  32.356  1.00  0.00    -0.502 OA
ATOM     23  H   UNL     1      -5.450  17.150  31.343  1.00  0.00     0.293 HD
ENDBRANCH   2  22
BRANCH   6  24
ATOM     24  O   UNL     1      -6.553  16.300  37.373  1.00  0.00    -0.507 OA
ATOM     25  H   UNL     1      -5.609  16.200  37.018  1.00  0.00     0.293 HD
ENDBRANCH   6  24
BRANCH   8  26
ATOM     26  O   UNL     1     -11.115  14.748  37.138  1.00  0.00    -0.508 OA
ATOM     27  H   UNL     1     -12.038  15.056  36.856  1.00  0.00     0.293 HD
ENDBRANCH   8  26
TORSDOF 6
ENDMDL
MODEL 8
REMARK VINA RESULT:    -2.143      2.434      7.123
REMARK INTER + INTRA:          -2.844
REMARK INTER:                  -2.710
REMARK INTRA:                  -0.134
REMARK UNBOUND:                -0.262
REMARK SMILES O=c1c(O)c(-c2ccc(O)c(O)c2)oc2cc(O)cc(O)c12
REMARK SMILES IDX 5 1 3 2 2 3 1 4 22 5 20 6 19 7 17 8 16 9 15 10 14 11 6 12
REMARK SMILES IDX 7 13 8 14 9 15 13 16 11 17 10 18 12 20 4 22 21 24 18 26
REMARK H PARENT 10 19 12 21 4 23 21 25 18 27
REMARK Flexibility Score: inf
ROOT
ATOM      1  C   UNL     1      -8.965  15.326  33.531  1.00  0.00     0.180 A 
ATOM      2  C   UNL     1      -7.633  15.691  33.807  1.00  0.00     0.208 A 
ATOM      3  C   UNL     1      -7.236  15.843  35.144  1.00  0.00     0.238 A 
ATOM      4  O   UNL     1      -6.042  16.160  35.405  1.00  0.00    -0.285 OA
ATOM      5  C   UNL     1      -8.176  15.650  36.178  1.00  0.00     0.111 A 
ATOM      6  C   UNL     1      -7.857  15.788  37.550  1.00  0.00     0.134 A 
ATOM      7  C   UNL     1      -8.852  15.587  38.519  1.00  0.00     0.093 A 
ATOM      8  C   UNL     1     -10.155  15.254  38.143  1.00  0.00     0.123 A 
ATOM      9  C   UNL     1     -10.475  15.115  36.789  1.00  0.00     0.094 A 
ATOM     10  C   UNL     1      -9.498  15.309  35.808  1.00  0.00     0.146 A 
ATOM     11  O   UNL     1      -9.827  15.167  34.530  1.00  0.00    -0.452 OA
ENDROOT
BRANCH   1  12
ATOM     12  C   UNL     1      -9.455  15.127  32.147  1.00  0.00     0.025 A 
ATOM     13  C   UNL     1      -9.878  13.852  31.742  1.00  0.00     0.016 A 
ATOM     14  C   UNL     1     -10.325  13.637  30.436  1.00  0.00     0.051 A 
ATOM     15  C   UNL     1     -10.339  14.689  29.512  1.00  0.00     0.157 A 
ATOM     16  C   UNL     1      -9.450  16.177  31.211  1.00  0.00     0.062 A 
ATOM     17  C   UNL     1      -9.895  15.964  29.901  1.00  0.00     0.158 A 
BRANCH  15  18
ATOM     18  O   UNL     1     -10.786  14.472  28.209  1.00  0.00    -0.504 OA
ATOM     19  H   UNL     1     -10.153  14.507  27.418  1.00  0.00     0.293 HD
ENDBRANCH  15  18
BRANCH  17  20
ATOM     20  O   UNL     1      -9.883  17.028  29.000  1.00  0.00    -0.504 OA
ATOM     21  H   UNL     1     -10.085  16.903  28.016  1.00  0.00     0.293 HD
ENDBRANCH  17  20
ENDBRANCH   1  12
BRANCH   2  22
ATOM     22  O   UNL     1      -6.734  15.925  32.764  1.00  0.00    -0.502 OA
ATOM     23  H   UNL     1      -5.767  16.179  32.928  1.00  0.00     0.293 HD
ENDBRANCH   2  22
BRANCH   6  24
ATOM     24  O   UNL     1      -6.566  16.123  37.958  1.00  0.00    -0.507 OA
ATOM     25  H   UNL     1      -6.286  16.082  38.931  1.00  0.00     0.293 HD
ENDBRANCH   6  24
BRANCH   8  26
ATOM     26  O   UNL     1     -11.125  15.061  39.125  1.00  0.00    -0.508 OA
ATOM     27  H   UNL     1     -11.454  15.827  39.701  1.00  0.00     0.293 HD
ENDBRANCH   8  26
TORSDOF 6
ENDMDL
