MODEL 1
REMARK VINA RESULT:     3.558      0.000      0.000
REMARK INTER + INTRA:           4.446
REMARK INTER:                   5.430
REMARK INTRA:                  -0.984
REMARK UNBOUND:                -0.984
REMARK SMILES OC[C@@H]1O[C@](CO)(O[C@H]2O[C@H](CO)[C@@H](O)[C@@H](O)[C@H]2O)[C@@H](O)[C@@H]1O
REMARK SMILES IDX 8 1 9 2 11 3 14 4 10 5 16 6 18 7 12 8 13 9 15 11 17 13 19 15
REMARK SMILES IDX 5 17 20 18 4 19 22 20 3 21 6 22 7 23 21 25 23 27 2 29 1 30
REMARK H PARENT 13 10 15 12 17 14 19 16 7 24 21 26 23 28 1 31
REMARK Flexibility Score: inf
ROOT
ATOM      1  O   UNL     1      23.514   6.835  14.667  1.00  0.00    -0.313 OA
ENDROOT
BRANCH   1   2
ATOM      2  C   UNL     1      23.467   7.514  15.914  1.00  0.00     0.285 C 
ATOM      3  C   UNL     1      23.533   9.874  15.375  1.00  0.00     0.178 C 
ATOM      4  C   UNL     1      22.234   9.594  14.576  1.00  0.00     0.177 C 
ATOM      5  O   UNL     1      24.228   8.717  15.841  1.00  0.00    -0.341 OA
ATOM      6  C   UNL     1      21.259   8.698  15.372  1.00  0.00     0.179 C 
ATOM      7  C   UNL     1      21.999   7.738  16.335  1.00  0.00     0.202 C 
BRANCH   3   8
ATOM      8  C   UNL     1      23.325  10.846  16.552  1.00  0.00     0.191 C 
BRANCH   8   9
ATOM      9  O   UNL     1      22.980  12.125  16.085  1.00  0.00    -0.394 OA
ATOM     10  H   UNL     1      23.391  12.782  16.702  1.00  0.00     0.210 HD
ENDBRANCH   8   9
ENDBRANCH   3   8
BRANCH   4  11
ATOM     11  O   UNL     1      22.578   8.996  13.348  1.00  0.00    -0.387 OA
ATOM     12  H   UNL     1      22.814   9.727  12.720  1.00  0.00     0.211 HD
ENDBRANCH   4  11
BRANCH   6  13
ATOM     13  O   UNL     1      20.438   7.984  14.479  1.00  0.00    -0.387 OA
ATOM     14  H   UNL     1      19.516   8.336  14.586  1.00  0.00     0.211 HD
ENDBRANCH   6  13
BRANCH   7  15
ATOM     15  O   UNL     1      21.326   6.506  16.413  1.00  0.00    -0.385 OA
ATOM     16  H   UNL     1      20.681   6.479  15.657  1.00  0.00     0.211 HD
ENDBRANCH   7  15
ENDBRANCH   1   2
BRANCH   1  17
ATOM     17  C   UNL     1      24.405   5.723  14.649  1.00  0.00     0.224 C 
ATOM     18  C   UNL     1      23.754   4.514  15.368  1.00  0.00     0.208 C 
ATOM     19  O   UNL     1      25.629   6.021  15.302  1.00  0.00    -0.337 OA
ATOM     20  C   UNL     1      24.877   3.947  16.227  1.00  0.00     0.180 C 
ATOM     21  C   UNL     1      26.090   4.821  15.879  1.00  0.00     0.179 C 
BRANCH  17  22
ATOM     22  C   UNL     1      24.721   5.428  13.166  1.00  0.00     0.225 C 
BRANCH  22  23
ATOM     23  O   UNL     1      24.218   6.454  12.355  1.00  0.00    -0.391 OA
ATOM     24  H   UNL     1      23.239   6.297  12.285  1.00  0.00     0.210 HD
ENDBRANCH  22  23
ENDBRANCH  17  22
BRANCH  18  25
ATOM     25  O   UNL     1      23.273   3.548  14.465  1.00  0.00    -0.385 OA
ATOM     26  H   UNL     1      22.682   2.942  14.983  1.00  0.00     0.211 HD
ENDBRANCH  18  25
BRANCH  20  27
ATOM     27  O   UNL     1      24.550   3.970  17.599  1.00  0.00    -0.387 OA
ATOM     28  H   UNL     1      23.563   4.026  17.687  1.00  0.00     0.211 HD
ENDBRANCH  20  27
BRANCH  21  29
ATOM     29  C   UNL     1      27.036   5.114  17.054  1.00  0.00     0.191 C 
BRANCH  29  30
ATOM     30  O   UNL     1      27.218   3.969  17.845  1.00  0.00    -0.394 OA
ATOM     31  H   UNL     1      27.170   3.192  17.228  1.00  0.00     0.210 HD
ENDBRANCH  29  30
ENDBRANCH  21  29
ENDBRANCH   1  17
TORSDOF 13
ENDMDL
MODEL 2
REMARK VINA RESULT:     3.709      1.524      5.922
REMARK INTER + INTRA:           4.677
REMARK INTER:                   5.204
REMARK INTRA:                  -0.527
REMARK UNBOUND:                -0.984
REMARK SMILES OC[C@@H]1O[C@](CO)(O[C@H]2O[C@H](CO)[C@@H](O)[C@@H](O)[C@H]2O)[C@@H](O)[C@@H]1O
REMARK SMILES IDX 8 1 9 2 11 3 14 4 10 5 16 6 18 7 12 8 13 9 15 11 17 13 19 15
REMARK SMILES IDX 5 17 20 18 4 19 22 20 3 21 6 22 7 23 21 25 23 27 2 29 1 30
REMARK H PARENT 13 10 15 12 17 14 19 16 7 24 21 26 23 28 1 31
REMARK Flexibility Score: inf
ROOT
ATOM      1  O   UNL     1      25.018   6.179  16.429  1.00  0.00    -0.313 OA
ENDROOT
BRANCH   1   2
ATOM      2  C   UNL     1      25.869   5.098  16.075  1.00  0.00     0.285 C 
ATOM      3  C   UNL     1      27.201   4.641  18.045  1.00  0.00     0.178 C 
ATOM      4  C   UNL     1      25.840   4.383  18.744  1.00  0.00     0.177 C 
ATOM      5  O   UNL     1      27.120   5.225  16.744  1.00  0.00    -0.341 OA
ATOM      6  C   UNL     1      24.899   3.535  17.860  1.00  0.00     0.179 C 
ATOM      7  C   UNL     1      25.156   3.757  16.349  1.00  0.00     0.202 C 
BRANCH   3   8
ATOM      8  C   UNL     1      28.099   3.392  17.983  1.00  0.00     0.191 C 
BRANCH   8   9
ATOM      9  O   UNL     1      29.395   3.732  17.565  1.00  0.00    -0.394 OA
ATOM     10  H   UNL     1      29.903   2.886  17.467  1.00  0.00     0.210 HD
ENDBRANCH   8   9
ENDBRANCH   3   8
BRANCH   4  11
ATOM     11  O   UNL     1      25.252   5.623  19.060  1.00  0.00    -0.387 OA
ATOM     12  H   UNL     1      25.870   6.332  18.741  1.00  0.00     0.211 HD
ENDBRANCH   4  11
BRANCH   6  13
ATOM     13  O   UNL     1      23.560   3.815  18.191  1.00  0.00    -0.387 OA
ATOM     14  H   UNL     1      23.021   3.027  17.921  1.00  0.00     0.211 HD
ENDBRANCH   6  13
BRANCH   7  15
ATOM     15  O   UNL     1      23.947   3.697  15.632  1.00  0.00    -0.385 OA
ATOM     16  H   UNL     1      23.479   4.561  15.779  1.00  0.00     0.211 HD
ENDBRANCH   7  15
ENDBRANCH   1   2
BRANCH   1  17
ATOM     17  C   UNL     1      24.481   6.881  15.312  1.00  0.00     0.224 C 
ATOM     18  C   UNL     1      24.932   8.364  15.354  1.00  0.00     0.208 C 
ATOM     19  O   UNL     1      23.062   6.849  15.305  1.00  0.00    -0.337 OA
ATOM     20  C   UNL     1      23.670   9.143  15.005  1.00  0.00     0.180 C 
ATOM     21  C   UNL     1      22.626   8.055  14.720  1.00  0.00     0.179 C 
BRANCH  17  22
ATOM     22  C   UNL     1      24.975   6.150  14.044  1.00  0.00     0.225 C 
BRANCH  22  23
ATOM     23  O   UNL     1      23.885   5.611  13.346  1.00  0.00    -0.391 OA
ATOM     24  H   UNL     1      23.692   6.243  12.604  1.00  0.00     0.210 HD
ENDBRANCH  22  23
ENDBRANCH  17  22
BRANCH  18  25
ATOM     25  O   UNL     1      25.963   8.637  14.437  1.00  0.00    -0.385 OA
ATOM     26  H   UNL     1      25.596   8.456  13.533  1.00  0.00     0.211 HD
ENDBRANCH  18  25
BRANCH  20  27
ATOM     27  O   UNL     1      23.292  10.018  16.044  1.00  0.00    -0.387 OA
ATOM     28  H   UNL     1      22.301  10.064  16.075  1.00  0.00     0.211 HD
ENDBRANCH  20  27
BRANCH  21  29
ATOM     29  C   UNL     1      21.198   8.392  15.175  1.00  0.00     0.191 C 
BRANCH  29  30
ATOM     30  O   UNL     1      20.681   9.470  14.440  1.00  0.00    -0.394 OA
ATOM     31  H   UNL     1      20.729  10.264  15.036  1.00  0.00     0.210 HD
ENDBRANCH  29  30
ENDBRANCH  21  29
ENDBRANCH   1  17
TORSDOF 13
ENDMDL
MODEL 3
REMARK VINA RESULT:     3.805      1.562      3.003
REMARK INTER + INTRA:           4.823
REMARK INTER:                   4.601
REMARK INTRA:                   0.222
REMARK UNBOUND:                -0.984
REMARK SMILES OC[C@@H]1O[C@](CO)(O[C@H]2O[C@H](CO)[C@@H](O)[C@@H](O)[C@H]2O)[C@@H](O)[C@@H]1O
REMARK SMILES IDX 8 1 9 2 11 3 14 4 10 5 16 6 18 7 12 8 13 9 15 11 17 13 19 15
REMARK SMILES IDX 5 17 20 18 4 19 22 20 3 21 6 22 7 23 21 25 23 27 2 29 1 30
REMARK H PARENT 13 10 15 12 17 14 19 16 7 24 21 26 23 28 1 31
REMARK Flexibility Score: inf
ROOT
ATOM      1  O   UNL     1      23.413   6.383  16.111  1.00  0.00    -0.313 OA
ENDROOT
BRANCH   1   2
ATOM      2  C   UNL     1      22.580   6.507  14.967  1.00  0.00     0.285 C 
ATOM      3  C   UNL     1      21.172   8.431  15.391  1.00  0.00     0.178 C 
ATOM      4  C   UNL     1      22.504   9.220  15.490  1.00  0.00     0.177 C 
ATOM      5  O   UNL     1      21.302   7.010  15.350  1.00  0.00    -0.341 OA
ATOM      6  C   UNL     1      23.481   8.828  14.360  1.00  0.00     0.179 C 
ATOM      7  C   UNL     1      23.284   7.364  13.895  1.00  0.00     0.202 C 
BRANCH   3   8
ATOM      8  C   UNL     1      20.280   8.891  14.223  1.00  0.00     0.191 C 
BRANCH   8   9
ATOM      9  O   UNL     1      18.977   8.384  14.363  1.00  0.00    -0.394 OA
ATOM     10  H   UNL     1      18.538   8.458  13.477  1.00  0.00     0.210 HD
ENDBRANCH   8   9
ENDBRANCH   3   8
BRANCH   4  11
ATOM     11  O   UNL     1      23.076   8.982  16.755  1.00  0.00    -0.387 OA
ATOM     12  H   UNL     1      24.058   8.912  16.626  1.00  0.00     0.211 HD
ENDBRANCH   4  11
BRANCH   6  13
ATOM     13  O   UNL     1      24.805   9.050  14.783  1.00  0.00    -0.387 OA
ATOM     14  H   UNL     1      24.925  10.032  14.864  1.00  0.00     0.211 HD
ENDBRANCH   6  13
BRANCH   7  15
ATOM     15  O   UNL     1      24.520   6.789  13.552  1.00  0.00    -0.385 OA
ATOM     16  H   UNL     1      24.766   7.139  12.655  1.00  0.00     0.211 HD
ENDBRANCH   7  15
ENDBRANCH   1   2
BRANCH   1  17
ATOM     17  C   UNL     1      24.274   5.248  16.077  1.00  0.00     0.224 C 
ATOM     18  C   UNL     1      24.415   4.650  17.501  1.00  0.00     0.208 C 
ATOM     19  O   UNL     1      25.570   5.586  15.608  1.00  0.00    -0.337 OA
ATOM     20  C   UNL     1      25.903   4.352  17.631  1.00  0.00     0.180 C 
ATOM     21  C   UNL     1      26.480   4.729  16.259  1.00  0.00     0.179 C 
BRANCH  17  22
ATOM     22  C   UNL     1      23.656   4.247  15.075  1.00  0.00     0.225 C 
BRANCH  22  23
ATOM     23  O   UNL     1      24.345   3.028  15.130  1.00  0.00    -0.391 OA
ATOM     24  H   UNL     1      25.148   3.137  14.555  1.00  0.00     0.210 HD
ENDBRANCH  22  23
ENDBRANCH  17  22
BRANCH  18  25
ATOM     25  O   UNL     1      23.650   3.482  17.670  1.00  0.00    -0.385 OA
ATOM     26  H   UNL     1      22.763   3.768  18.011  1.00  0.00     0.211 HD
ENDBRANCH  18  25
BRANCH  20  27
ATOM     27  O   UNL     1      26.489   5.067  18.695  1.00  0.00    -0.387 OA
ATOM     28  H   UNL     1      25.766   5.486  19.231  1.00  0.00     0.211 HD
ENDBRANCH  20  27
BRANCH  21  29
ATOM     29  C   UNL     1      27.882   5.355  16.296  1.00  0.00     0.191 C 
BRANCH  29  30
ATOM     30  O   UNL     1      27.834   6.710  15.931  1.00  0.00    -0.394 OA
ATOM     31  H   UNL     1      28.475   6.820  15.180  1.00  0.00     0.210 HD
ENDBRANCH  29  30
ENDBRANCH  21  29
ENDBRANCH   1  17
TORSDOF 13
ENDMDL
MODEL 4
REMARK VINA RESULT:     3.850      2.007      3.864
REMARK INTER + INTRA:           4.892
REMARK INTER:                   5.156
REMARK INTRA:                  -0.263
REMARK UNBOUND:                -0.984
REMARK SMILES OC[C@@H]1O[C@](CO)(O[C@H]2O[C@H](CO)[C@@H](O)[C@@H](O)[C@H]2O)[C@@H](O)[C@@H]1O
REMARK SMILES IDX 8 1 9 2 11 3 14 4 10 5 16 6 18 7 12 8 13 9 15 11 17 13 19 15
REMARK SMILES IDX 5 17 20 18 4 19 22 20 3 21 6 22 7 23 21 25 23 27 2 29 1 30
REMARK H PARENT 13 10 15 12 17 14 19 16 7 24 21 26 23 28 1 31
REMARK Flexibility Score: inf
ROOT
ATOM      1  O   UNL     1      24.823   5.967  16.242  1.00  0.00    -0.313 OA
ENDROOT
BRANCH   1   2
ATOM      2  C   UNL     1      25.609   6.130  15.070  1.00  0.00     0.285 C 
ATOM      3  C   UNL     1      24.035   6.176  13.230  1.00  0.00     0.178 C 
ATOM      4  C   UNL     1      23.426   7.405  13.954  1.00  0.00     0.177 C 
ATOM      5  O   UNL     1      25.003   5.441  13.980  1.00  0.00    -0.341 OA
ATOM      6  C   UNL     1      24.523   8.369  14.457  1.00  0.00     0.179 C 
ATOM      7  C   UNL     1      25.841   7.632  14.799  1.00  0.00     0.202 C 
BRANCH   3   8
ATOM      8  C   UNL     1      24.618   6.514  11.846  1.00  0.00     0.191 C 
BRANCH   8   9
ATOM      9  O   UNL     1      25.380   5.443  11.352  1.00  0.00    -0.394 OA
ATOM     10  H   UNL     1      24.759   4.841  10.866  1.00  0.00     0.210 HD
ENDBRANCH   8   9
ENDBRANCH   3   8
BRANCH   4  11
ATOM     11  O   UNL     1      22.627   6.951  15.022  1.00  0.00    -0.387 OA
ATOM     12  H   UNL     1      22.582   5.961  14.956  1.00  0.00     0.211 HD
ENDBRANCH   4  11
BRANCH   6  13
ATOM     13  O   UNL     1      24.045   9.090  15.568  1.00  0.00    -0.387 OA
ATOM     14  H   UNL     1      23.900  10.025  15.269  1.00  0.00     0.211 HD
ENDBRANCH   6  13
BRANCH   7  15
ATOM     15  O   UNL     1      26.465   8.232  15.907  1.00  0.00    -0.385 OA
ATOM     16  H   UNL     1      26.982   7.520  16.370  1.00  0.00     0.211 HD
ENDBRANCH   7  15
ENDBRANCH   1   2
BRANCH   1  17
ATOM     17  C   UNL     1      24.986   4.700  16.875  1.00  0.00     0.224 C 
ATOM     18  C   UNL     1      24.192   4.669  18.206  1.00  0.00     0.208 C 
ATOM     19  O   UNL     1      26.349   4.430  17.165  1.00  0.00    -0.337 OA
ATOM     20  C   UNL     1      25.149   4.009  19.191  1.00  0.00     0.180 C 
ATOM     21  C   UNL     1      26.374   3.649  18.338  1.00  0.00     0.179 C 
BRANCH  17  22
ATOM     22  C   UNL     1      24.497   3.632  15.871  1.00  0.00     0.225 C 
BRANCH  22  23
ATOM     23  O   UNL     1      23.256   4.007  15.341  1.00  0.00    -0.391 OA
ATOM     24  H   UNL     1      22.843   3.175  14.987  1.00  0.00     0.210 HD
ENDBRANCH  22  23
ENDBRANCH  17  22
BRANCH  18  25
ATOM     25  O   UNL     1      22.995   3.938  18.099  1.00  0.00    -0.385 OA
ATOM     26  H   UNL     1      22.756   3.645  19.017  1.00  0.00     0.211 HD
ENDBRANCH  18  25
BRANCH  20  27
ATOM     27  O   UNL     1      25.455   4.859  20.273  1.00  0.00    -0.387 OA
ATOM     28  H   UNL     1      24.706   5.499  20.394  1.00  0.00     0.211 HD
ENDBRANCH  20  27
BRANCH  21  29
ATOM     29  C   UNL     1      27.725   3.790  19.054  1.00  0.00     0.191 C 
BRANCH  29  30
ATOM     30  O   UNL     1      28.787   3.536  18.172  1.00  0.00    -0.394 OA
ATOM     31  H   UNL     1      29.540   4.112  18.467  1.00  0.00     0.210 HD
ENDBRANCH  29  30
ENDBRANCH  21  29
ENDBRANCH   1  17
TORSDOF 13
ENDMDL
MODEL 5
REMARK VINA RESULT:     4.234      1.928      3.942
REMARK INTER + INTRA:           5.478
REMARK INTER:                   5.189
REMARK INTRA:                   0.289
REMARK UNBOUND:                -0.984
REMARK SMILES OC[C@@H]1O[C@](CO)(O[C@H]2O[C@H](CO)[C@@H](O)[C@@H](O)[C@H]2O)[C@@H](O)[C@@H]1O
REMARK SMILES IDX 8 1 9 2 11 3 14 4 10 5 16 6 18 7 12 8 13 9 15 11 17 13 19 15
REMARK SMILES IDX 5 17 20 18 4 19 22 20 3 21 6 22 7 23 21 25 23 27 2 29 1 30
REMARK H PARENT 13 10 15 12 17 14 19 16 7 24 21 26 23 28 1 31
REMARK Flexibility Score: inf
ROOT
ATOM      1  O   UNL     1      25.429   6.514  16.341  1.00  0.00    -0.313 OA
ENDROOT
BRANCH   1   2
ATOM      2  C   UNL     1      25.904   6.692  15.014  1.00  0.00     0.285 C 
ATOM      3  C   UNL     1      24.056   6.086  13.571  1.00  0.00     0.178 C 
ATOM      4  C   UNL     1      23.288   7.221  14.297  1.00  0.00     0.177 C 
ATOM      5  O   UNL     1      25.310   5.726  14.151  1.00  0.00    -0.341 OA
ATOM      6  C   UNL     1      24.160   8.486  14.456  1.00  0.00     0.179 C 
ATOM      7  C   UNL     1      25.668   8.149  14.564  1.00  0.00     0.202 C 
BRANCH   3   8
ATOM      8  C   UNL     1      24.253   6.352  12.067  1.00  0.00     0.191 C 
BRANCH   8   9
ATOM      9  O   UNL     1      25.237   5.503  11.537  1.00  0.00    -0.394 OA
ATOM     10  H   UNL     1      24.918   4.572  11.657  1.00  0.00     0.210 HD
ENDBRANCH   8   9
ENDBRANCH   3   8
BRANCH   4  11
ATOM     11  O   UNL     1      22.859   6.745  15.552  1.00  0.00    -0.387 OA
ATOM     12  H   UNL     1      22.755   7.534  16.147  1.00  0.00     0.211 HD
ENDBRANCH   4  11
BRANCH   6  13
ATOM     13  O   UNL     1      23.726   9.222  15.576  1.00  0.00    -0.387 OA
ATOM     14  H   UNL     1      23.970   8.698  16.382  1.00  0.00     0.211 HD
ENDBRANCH   6  13
BRANCH   7  15
ATOM     15  O   UNL     1      26.307   9.038  15.447  1.00  0.00    -0.385 OA
ATOM     16  H   UNL     1      26.898   8.493  16.031  1.00  0.00     0.211 HD
ENDBRANCH   7  15
ENDBRANCH   1   2
BRANCH   1  17
ATOM     17  C   UNL     1      25.690   5.220  16.878  1.00  0.00     0.224 C 
ATOM     18  C   UNL     1      24.404   4.355  16.818  1.00  0.00     0.208 C 
ATOM     19  O   UNL     1      26.115   5.289  18.230  1.00  0.00    -0.337 OA
ATOM     20  C   UNL     1      24.362   3.662  18.174  1.00  0.00     0.180 C 
ATOM     21  C   UNL     1      25.653   4.120  18.867  1.00  0.00     0.179 C 
BRANCH  17  22
ATOM     22  C   UNL     1      26.845   4.616  16.050  1.00  0.00     0.225 C 
BRANCH  22  23
ATOM     23  O   UNL     1      28.008   5.378  16.223  1.00  0.00    -0.391 OA
ATOM     24  H   UNL     1      27.885   5.883  17.070  1.00  0.00     0.210 HD
ENDBRANCH  22  23
ENDBRANCH  17  22
BRANCH  18  25
ATOM     25  O   UNL     1      24.437   3.416  15.772  1.00  0.00    -0.385 OA
ATOM     26  H   UNL     1      25.374   3.386  15.445  1.00  0.00     0.211 HD
ENDBRANCH  18  25
BRANCH  20  27
ATOM     27  O   UNL     1      23.197   3.991  18.896  1.00  0.00    -0.387 OA
ATOM     28  H   UNL     1      22.661   3.166  19.025  1.00  0.00     0.211 HD
ENDBRANCH  20  27
BRANCH  21  29
ATOM     29  C   UNL     1      25.531   4.342  20.382  1.00  0.00     0.191 C 
BRANCH  29  30
ATOM     30  O   UNL     1      24.780   5.494  20.660  1.00  0.00    -0.394 OA
ATOM     31  H   UNL     1      25.343   6.267  20.388  1.00  0.00     0.210 HD
ENDBRANCH  29  30
ENDBRANCH  21  29
ENDBRANCH   1  17
TORSDOF 13
ENDMDL
MODEL 6
REMARK VINA RESULT:     4.395      1.805      3.154
REMARK INTER + INTRA:           5.724
REMARK INTER:                   6.364
REMARK INTRA:                  -0.640
REMARK UNBOUND:                -0.984
REMARK SMILES OC[C@@H]1O[C@](CO)(O[C@H]2O[C@H](CO)[C@@H](O)[C@@H](O)[C@H]2O)[C@@H](O)[C@@H]1O
REMARK SMILES IDX 8 1 9 2 11 3 14 4 10 5 16 6 18 7 12 8 13 9 15 11 17 13 19 15
REMARK SMILES IDX 5 17 20 18 4 19 22 20 3 21 6 22 7 23 21 25 23 27 2 29 1 30
REMARK H PARENT 13 10 15 12 17 14 19 16 7 24 21 26 23 28 1 31
REMARK Flexibility Score: inf
ROOT
ATOM      1  O   UNL     1      25.082   6.299  15.964  1.00  0.00    -0.313 OA
ENDROOT
BRANCH   1   2
ATOM      2  C   UNL     1      23.694   6.334  15.666  1.00  0.00     0.285 C 
ATOM      3  C   UNL     1      23.149   8.673  15.356  1.00  0.00     0.178 C 
ATOM      4  C   UNL     1      24.203   8.632  14.219  1.00  0.00     0.177 C 
ATOM      5  O   UNL     1      23.112   7.520  16.198  1.00  0.00    -0.341 OA
ATOM      6  C   UNL     1      24.050   7.366  13.347  1.00  0.00     0.179 C 
ATOM      7  C   UNL     1      23.479   6.169  14.146  1.00  0.00     0.202 C 
BRANCH   3   8
ATOM      8  C   UNL     1      21.726   8.978  14.854  1.00  0.00     0.191 C 
BRANCH   8   9
ATOM      9  O   UNL     1      20.896   7.855  14.999  1.00  0.00    -0.394 OA
ATOM     10  H   UNL     1      20.832   7.660  15.969  1.00  0.00     0.210 HD
ENDBRANCH   8   9
ENDBRANCH   3   8
BRANCH   4  11
ATOM     11  O   UNL     1      25.488   8.696  14.792  1.00  0.00    -0.387 OA
ATOM     12  H   UNL     1      25.387   8.523  15.764  1.00  0.00     0.211 HD
ENDBRANCH   4  11
BRANCH   6  13
ATOM     13  O   UNL     1      25.290   7.040  12.766  1.00  0.00    -0.387 OA
ATOM     14  H   UNL     1      25.993   7.277  13.425  1.00  0.00     0.211 HD
ENDBRANCH   6  13
BRANCH   7  15
ATOM     15  O   UNL     1      24.055   4.965  13.704  1.00  0.00    -0.385 OA
ATOM     16  H   UNL     1      23.922   4.296  14.427  1.00  0.00     0.211 HD
ENDBRANCH   7  15
ENDBRANCH   1   2
BRANCH   1  17
ATOM     17  C   UNL     1      25.499   5.115  16.637  1.00  0.00     0.224 C 
ATOM     18  C   UNL     1      24.322   4.109  16.712  1.00  0.00     0.208 C 
ATOM     19  O   UNL     1      25.933   5.389  17.961  1.00  0.00    -0.337 OA
ATOM     20  C   UNL     1      24.380   3.577  18.139  1.00  0.00     0.180 C 
ATOM     21  C   UNL     1      25.619   4.257  18.739  1.00  0.00     0.179 C 
BRANCH  17  22
ATOM     22  C   UNL     1      26.706   4.554  15.852  1.00  0.00     0.225 C 
BRANCH  22  23
ATOM     23  O   UNL     1      27.782   5.449  15.926  1.00  0.00    -0.391 OA
ATOM     24  H   UNL     1      28.545   5.001  15.473  1.00  0.00     0.210 HD
ENDBRANCH  22  23
ENDBRANCH  17  22
BRANCH  18  25
ATOM     25  O   UNL     1      24.450   3.064  15.778  1.00  0.00    -0.385 OA
ATOM     26  H   UNL     1      24.705   2.253  16.291  1.00  0.00     0.211 HD
ENDBRANCH  18  25
BRANCH  20  27
ATOM     27  O   UNL     1      23.195   3.853  18.849  1.00  0.00    -0.387 OA
ATOM     28  H   UNL     1      22.489   3.225  18.543  1.00  0.00     0.211 HD
ENDBRANCH  20  27
BRANCH  21  29
ATOM     29  C   UNL     1      25.493   4.638  20.222  1.00  0.00     0.191 C 
BRANCH  29  30
ATOM     30  O   UNL     1      24.513   5.626  20.403  1.00  0.00    -0.394 OA
ATOM     31  H   UNL     1      23.670   5.256  20.030  1.00  0.00     0.210 HD
ENDBRANCH  29  30
ENDBRANCH  21  29
ENDBRANCH   1  17
TORSDOF 13
ENDMDL
MODEL 7
REMARK VINA RESULT:     5.802      1.563      5.665
REMARK INTER + INTRA:           7.871
REMARK INTER:                   7.490
REMARK INTRA:                   0.381
REMARK UNBOUND:                -0.984
REMARK SMILES OC[C@@H]1O[C@](CO)(O[C@H]2O[C@H](CO)[C@@H](O)[C@@H](O)[C@H]2O)[C@@H](O)[C@@H]1O
REMARK SMILES IDX 8 1 9 2 11 3 14 4 10 5 16 6 18 7 12 8 13 9 15 11 17 13 19 15
REMARK SMILES IDX 5 17 20 18 4 19 22 20 3 21 6 22 7 23 21 25 23 27 2 29 1 30
REMARK H PARENT 13 10 15 12 17 14 19 16 7 24 21 26 23 28 1 31
REMARK Flexibility Score: inf
ROOT
ATOM      1  O   UNL     1      22.909   6.482  16.639  1.00  0.00    -0.313 OA
ENDROOT
BRANCH   1   2
ATOM      2  C   UNL     1      22.256   5.282  16.249  1.00  0.00     0.285 C 
ATOM      3  C   UNL     1      23.961   3.921  15.198  1.00  0.00     0.178 C 
ATOM      4  C   UNL     1      24.694   4.018  16.562  1.00  0.00     0.177 C 
ATOM      5  O   UNL     1      22.834   4.783  15.046  1.00  0.00    -0.341 OA
ATOM      6  C   UNL     1      23.723   3.805  17.744  1.00  0.00     0.179 C 
ATOM      7  C   UNL     1      22.283   4.268  17.413  1.00  0.00     0.202 C 
BRANCH   3   8
ATOM      8  C   UNL     1      23.552   2.483  14.829  1.00  0.00     0.191 C 
BRANCH   8   9
ATOM      9  O   UNL     1      24.312   1.549  15.552  1.00  0.00    -0.394 OA
ATOM     10  H   UNL     1      23.867   1.426  16.429  1.00  0.00     0.210 HD
ENDBRANCH   8   9
ENDBRANCH   3   8
BRANCH   4  11
ATOM     11  O   UNL     1      25.323   5.275  16.648  1.00  0.00    -0.387 OA
ATOM     12  H   UNL     1      25.757   5.449  15.772  1.00  0.00     0.211 HD
ENDBRANCH   4  11
BRANCH   6  13
ATOM     13  O   UNL     1      24.216   4.466  18.885  1.00  0.00    -0.387 OA
ATOM     14  H   UNL     1      24.379   3.773  19.576  1.00  0.00     0.211 HD
ENDBRANCH   6  13
BRANCH   7  15
ATOM     15  O   UNL     1      21.672   4.822  18.551  1.00  0.00    -0.385 OA
ATOM     16  H   UNL     1      20.931   4.213  18.809  1.00  0.00     0.211 HD
ENDBRANCH   7  15
ENDBRANCH   1   2
BRANCH   1  17
ATOM     17  C   UNL     1      22.843   7.518  15.663  1.00  0.00     0.224 C 
ATOM     18  C   UNL     1      24.134   7.516  14.803  1.00  0.00     0.208 C 
ATOM     19  O   UNL     1      22.713   8.797  16.264  1.00  0.00    -0.337 OA
ATOM     20  C   UNL     1      24.503   8.990  14.688  1.00  0.00     0.180 C 
ATOM     21  C   UNL     1      23.365   9.717  15.419  1.00  0.00     0.179 C 
BRANCH  17  22
ATOM     22  C   UNL     1      21.574   7.260  14.821  1.00  0.00     0.225 C 
BRANCH  22  23
ATOM     23  O   UNL     1      20.771   8.408  14.802  1.00  0.00    -0.391 OA
ATOM     24  H   UNL     1      20.398   8.470  13.883  1.00  0.00     0.210 HD
ENDBRANCH  22  23
ENDBRANCH  17  22
BRANCH  18  25
ATOM     25  O   UNL     1      23.931   6.946  13.533  1.00  0.00    -0.385 OA
ATOM     26  H   UNL     1      23.639   7.681  12.934  1.00  0.00     0.211 HD
ENDBRANCH  18  25
BRANCH  20  27
ATOM     27  O   UNL     1      25.775   9.255  15.235  1.00  0.00    -0.387 OA
ATOM     28  H   UNL     1      25.801  10.202  15.531  1.00  0.00     0.211 HD
ENDBRANCH  20  27
BRANCH  21  29
ATOM     29  C   UNL     1      23.795  10.964  16.207  1.00  0.00     0.191 C 
BRANCH  29  30
ATOM     30  O   UNL     1      22.884  12.015  16.015  1.00  0.00    -0.394 OA
ATOM     31  H   UNL     1      22.209  11.684  15.365  1.00  0.00     0.210 HD
ENDBRANCH  29  30
ENDBRANCH  21  29
ENDBRANCH   1  17
TORSDOF 13
ENDMDL
MODEL 8
REMARK VINA RESULT:     6.167      1.877      5.523
REMARK INTER + INTRA:           8.428
REMARK INTER:                   9.255
REMARK INTRA:                  -0.826
REMARK UNBOUND:                -0.984
REMARK SMILES OC[C@@H]1O[C@](CO)(O[C@H]2O[C@H](CO)[C@@H](O)[C@@H](O)[C@H]2O)[C@@H](O)[C@@H]1O
REMARK SMILES IDX 8 1 9 2 11 3 14 4 10 5 16 6 18 7 12 8 13 9 15 11 17 13 19 15
REMARK SMILES IDX 5 17 20 18 4 19 22 20 3 21 6 22 7 23 21 25 23 27 2 29 1 30
REMARK H PARENT 13 10 15 12 17 14 19 16 7 24 21 26 23 28 1 31
REMARK Flexibility Score: inf
ROOT
ATOM      1  O   UNL     1      25.493   6.737  14.897  1.00  0.00    -0.313 OA
ENDROOT
BRANCH   1   2
ATOM      2  C   UNL     1      25.619   6.813  16.310  1.00  0.00     0.285 C 
ATOM      3  C   UNL     1      25.912   4.531  17.065  1.00  0.00     0.178 C 
ATOM      4  C   UNL     1      27.168   4.530  16.155  1.00  0.00     0.177 C 
ATOM      5  O   UNL     1      25.046   5.656  16.912  1.00  0.00    -0.341 OA
ATOM      6  C   UNL     1      27.986   5.831  16.315  1.00  0.00     0.179 C 
ATOM      7  C   UNL     1      27.097   7.041  16.693  1.00  0.00     0.202 C 
BRANCH   3   8
ATOM      8  C   UNL     1      26.242   4.346  18.557  1.00  0.00     0.191 C 
BRANCH   8   9
ATOM      9  O   UNL     1      25.208   3.660  19.214  1.00  0.00    -0.394 OA
ATOM     10  H   UNL     1      24.908   4.232  19.965  1.00  0.00     0.210 HD
ENDBRANCH   8   9
ENDBRANCH   3   8
BRANCH   4  11
ATOM     11  O   UNL     1      26.759   4.355  14.819  1.00  0.00    -0.387 OA
ATOM     12  H   UNL     1      26.164   3.560  14.795  1.00  0.00     0.211 HD
ENDBRANCH   4  11
BRANCH   6  13
ATOM     13  O   UNL     1      28.708   6.083  15.133  1.00  0.00    -0.387 OA
ATOM     14  H   UNL     1      29.277   5.289  14.963  1.00  0.00     0.211 HD
ENDBRANCH   6  13
BRANCH   7  15
ATOM     15  O   UNL     1      27.579   8.213  16.084  1.00  0.00    -0.385 OA
ATOM     16  H   UNL     1      27.031   8.365  15.269  1.00  0.00     0.211 HD
ENDBRANCH   7  15
ENDBRANCH   1   2
BRANCH   1  17
ATOM     17  C   UNL     1      24.150   6.839  14.431  1.00  0.00     0.224 C 
ATOM     18  C   UNL     1      23.504   8.144  14.965  1.00  0.00     0.208 C 
ATOM     19  O   UNL     1      23.359   5.743  14.866  1.00  0.00    -0.337 OA
ATOM     20  C   UNL     1      22.114   7.712  15.412  1.00  0.00     0.180 C 
ATOM     21  C   UNL     1      22.046   6.225  15.035  1.00  0.00     0.179 C 
BRANCH  17  22
ATOM     22  C   UNL     1      24.207   6.796  12.888  1.00  0.00     0.225 C 
BRANCH  22  23
ATOM     23  O   UNL     1      24.874   5.639  12.465  1.00  0.00    -0.391 OA
ATOM     24  H   UNL     1      24.176   5.033  12.101  1.00  0.00     0.210 HD
ENDBRANCH  22  23
ENDBRANCH  17  22
BRANCH  18  25
ATOM     25  O   UNL     1      23.429   9.145  13.980  1.00  0.00    -0.385 OA
ATOM     26  H   UNL     1      22.540   9.054  13.547  1.00  0.00     0.211 HD
ENDBRANCH  18  25
BRANCH  20  27
ATOM     27  O   UNL     1      21.910   7.947  16.788  1.00  0.00    -0.387 OA
ATOM     28  H   UNL     1      21.193   8.625  16.890  1.00  0.00     0.211 HD
ENDBRANCH  20  27
BRANCH  21  29
ATOM     29  C   UNL     1      21.268   5.342  16.022  1.00  0.00     0.191 C 
BRANCH  29  30
ATOM     30  O   UNL     1      19.930   5.756  16.116  1.00  0.00    -0.394 OA
ATOM     31  H   UNL     1      19.410   5.160  15.514  1.00  0.00     0.210 HD
ENDBRANCH  29  30
ENDBRANCH  21  29
ENDBRANCH   1  17
TORSDOF 13
ENDMDL
