MODEL 1
REMARK VINA RESULT:    -5.417      0.000      0.000
REMARK INTER + INTRA:         -10.561
REMARK INTER:                  -9.851
REMARK INTRA:                  -0.710
REMARK UNBOUND:                -0.710
REMARK SMILES CCCCCCCCCCCCCCCC(=O)[O-]
REMARK SMILES IDX 9 1 10 2 11 3 12 4 13 5 14 6 15 7 16 8 17 9 18 10 8 11 7 12
REMARK SMILES IDX 6 13 5 14 4 15 3 16 2 17 1 18
REMARK H PARENT
REMARK Flexibility Score: inf
ROOT
ATOM      1  C   UNL     1      22.326 -14.687  19.683  1.00  0.00     0.000 C 
ENDROOT
BRANCH   1   2
ATOM      2  C   UNL     1      23.023 -15.902  19.056  1.00  0.00     0.000 C 
BRANCH   2   3
ATOM      3  C   UNL     1      22.799 -15.942  17.539  1.00  0.00     0.000 C 
BRANCH   3   4
ATOM      4  C   UNL     1      23.175 -17.316  16.964  1.00  0.00     0.000 C 
BRANCH   4   5
ATOM      5  C   UNL     1      23.268 -18.405  18.043  1.00  0.00     0.000 C 
BRANCH   5   6
ATOM      6  C   UNL     1      22.109 -19.411  17.972  1.00  0.00     0.006 C 
BRANCH   6   7
ATOM      7  C   UNL     1      21.721 -19.696  16.518  1.00  0.00     0.053 C 
BRANCH   7   8
ATOM      8  C   UNL     1      20.619 -20.708  16.459  1.00  0.00     0.041 C 
ATOM      9  O   UNL     1      20.298 -21.355  17.489  1.00  0.00    -0.550 OA
ATOM     10  O   UNL     1      19.913 -20.899  15.277  1.00  0.00    -0.550 OA
ENDBRANCH   7   8
ENDBRANCH   6   7
ENDBRANCH   5   6
ENDBRANCH   4   5
ENDBRANCH   3   4
ENDBRANCH   2   3
ENDBRANCH   1   2
BRANCH   1  11
ATOM     11  C   UNL     1      23.072 -14.138  20.912  1.00  0.00     0.000 C 
BRANCH  11  12
ATOM     12  C   UNL     1      22.468 -12.857  21.521  1.00  0.00    -0.000 C 
BRANCH  12  13
ATOM     13  C   UNL     1      20.944 -12.702  21.346  1.00  0.00    -0.000 C 
BRANCH  13  14
ATOM     14  C   UNL     1      20.236 -11.946  22.485  1.00  0.00    -0.000 C 
BRANCH  14  15
ATOM     15  C   UNL     1      21.192 -11.042  23.282  1.00  0.00    -0.000 C 
BRANCH  15  16
ATOM     16  C   UNL     1      20.600 -10.600  24.629  1.00  0.00    -0.000 C 
BRANCH  16  17
ATOM     17  C   UNL     1      20.731  -9.086  24.860  1.00  0.00    -0.003 C 
ATOM     18  C   UNL     1      21.382  -8.403  23.661  1.00  0.00     0.004 C 
ENDBRANCH  16  17
ENDBRANCH  15  16
ENDBRANCH  14  15
ENDBRANCH  13  14
ENDBRANCH  12  13
ENDBRANCH  11  12
ENDBRANCH   1  11
TORSDOF 14
ENDMDL
MODEL 2
REMARK VINA RESULT:    -5.383      5.929     10.980
REMARK INTER + INTRA:         -10.499
REMARK INTER:                  -9.799
REMARK INTRA:                  -0.700
REMARK UNBOUND:                -0.710
REMARK SMILES CCCCCCCCCCCCCCCC(=O)[O-]
REMARK SMILES IDX 9 1 10 2 11 3 12 4 13 5 14 6 15 7 16 8 17 9 18 10 8 11 7 12
REMARK SMILES IDX 6 13 5 14 4 15 3 16 2 17 1 18
REMARK H PARENT
REMARK Flexibility Score: inf
ROOT
ATOM      1  C   UNL     1      21.098 -12.614  21.277  1.00  0.00     0.000 C 
ENDROOT
BRANCH   1   2
ATOM      2  C   UNL     1      22.381 -11.887  21.705  1.00  0.00     0.000 C 
BRANCH   2   3
ATOM      3  C   UNL     1      22.059 -10.692  22.611  1.00  0.00     0.000 C 
BRANCH   3   4
ATOM      4  C   UNL     1      20.961 -11.049  23.623  1.00  0.00     0.000 C 
BRANCH   4   5
ATOM      5  C   UNL     1      20.647  -9.896  24.588  1.00  0.00     0.000 C 
BRANCH   5   6
ATOM      6  C   UNL     1      21.378  -8.598  24.218  1.00  0.00     0.006 C 
BRANCH   6   7
ATOM      7  C   UNL     1      20.727  -7.390  24.898  1.00  0.00     0.053 C 
BRANCH   7   8
ATOM      8  C   UNL     1      21.533  -6.958  26.083  1.00  0.00     0.041 C 
ATOM      9  O   UNL     1      21.225  -7.354  27.237  1.00  0.00    -0.550 OA
ATOM     10  O   UNL     1      22.656  -6.158  25.906  1.00  0.00    -0.550 OA
ENDBRANCH   7   8
ENDBRANCH   6   7
ENDBRANCH   5   6
ENDBRANCH   4   5
ENDBRANCH   3   4
ENDBRANCH   2   3
ENDBRANCH   1   2
BRANCH   1  11
ATOM     11  C   UNL     1      21.358 -13.735  20.255  1.00  0.00     0.000 C 
BRANCH  11  12
ATOM     12  C   UNL     1      22.631 -14.566  20.512  1.00  0.00    -0.000 C 
BRANCH  12  13
ATOM     13  C   UNL     1      22.938 -15.643  19.452  1.00  0.00    -0.000 C 
BRANCH  13  14
ATOM     14  C   UNL     1      22.573 -15.251  18.009  1.00  0.00    -0.000 C 
BRANCH  14  15
ATOM     15  C   UNL     1      22.958 -16.331  16.983  1.00  0.00    -0.000 C 
BRANCH  15  16
ATOM     16  C   UNL     1      22.978 -17.742  17.593  1.00  0.00    -0.000 C 
BRANCH  16  17
ATOM     17  C   UNL     1      22.880 -18.844  16.526  1.00  0.00    -0.003 C 
ATOM     18  C   UNL     1      21.676 -19.747  16.780  1.00  0.00     0.004 C 
ENDBRANCH  16  17
ENDBRANCH  15  16
ENDBRANCH  14  15
ENDBRANCH  13  14
ENDBRANCH  12  13
ENDBRANCH  11  12
ENDBRANCH   1  11
TORSDOF 14
ENDMDL
MODEL 3
REMARK VINA RESULT:    -5.359      1.330      2.277
REMARK INTER + INTRA:         -10.456
REMARK INTER:                  -9.811
REMARK INTRA:                  -0.644
REMARK UNBOUND:                -0.710
REMARK SMILES CCCCCCCCCCCCCCCC(=O)[O-]
REMARK SMILES IDX 9 1 10 2 11 3 12 4 13 5 14 6 15 7 16 8 17 9 18 10 8 11 7 12
REMARK SMILES IDX 6 13 5 14 4 15 3 16 2 17 1 18
REMARK H PARENT
REMARK Flexibility Score: inf
ROOT
ATOM      1  C   UNL     1      23.172 -13.906  21.208  1.00  0.00     0.000 C 
ENDROOT
BRANCH   1   2
ATOM      2  C   UNL     1      22.135 -14.283  20.141  1.00  0.00     0.000 C 
BRANCH   2   3
ATOM      3  C   UNL     1      22.721 -15.278  19.132  1.00  0.00     0.000 C 
BRANCH   3   4
ATOM      4  C   UNL     1      23.051 -16.617  19.810  1.00  0.00     0.000 C 
BRANCH   4   5
ATOM      5  C   UNL     1      23.509 -17.690  18.810  1.00  0.00     0.000 C 
BRANCH   5   6
ATOM      6  C   UNL     1      23.056 -17.393  17.373  1.00  0.00     0.006 C 
BRANCH   6   7
ATOM      7  C   UNL     1      23.394 -18.561  16.441  1.00  0.00     0.053 C 
BRANCH   7   8
ATOM      8  C   UNL     1      22.511 -19.734  16.729  1.00  0.00     0.041 C 
ATOM      9  O   UNL     1      21.316 -19.740  16.333  1.00  0.00    -0.550 OA
ATOM     10  O   UNL     1      23.022 -20.843  17.393  1.00  0.00    -0.550 OA
ENDBRANCH   7   8
ENDBRANCH   6   7
ENDBRANCH   5   6
ENDBRANCH   4   5
ENDBRANCH   3   4
ENDBRANCH   2   3
ENDBRANCH   1   2
BRANCH   1  11
ATOM     11  C   UNL     1      23.078 -12.432  21.639  1.00  0.00     0.000 C 
BRANCH  11  12
ATOM     12  C   UNL     1      21.646 -11.917  21.888  1.00  0.00    -0.000 C 
BRANCH  12  13
ATOM     13  C   UNL     1      21.539 -10.697  22.825  1.00  0.00    -0.000 C 
BRANCH  13  14
ATOM     14  C   UNL     1      20.631 -10.903  24.051  1.00  0.00    -0.000 C 
BRANCH  14  15
ATOM     15  C   UNL     1      20.576  -9.666  24.964  1.00  0.00    -0.000 C 
BRANCH  15  16
ATOM     16  C   UNL     1      21.120  -8.403  24.279  1.00  0.00    -0.000 C 
BRANCH  16  17
ATOM     17  C   UNL     1      22.104  -7.629  25.170  1.00  0.00    -0.003 C 
ATOM     18  C   UNL     1      21.447  -7.215  26.483  1.00  0.00     0.004 C 
ENDBRANCH  16  17
ENDBRANCH  15  16
ENDBRANCH  14  15
ENDBRANCH  13  14
ENDBRANCH  12  13
ENDBRANCH  11  12
ENDBRANCH   1  11
TORSDOF 14
ENDMDL
MODEL 4
REMARK VINA RESULT:    -5.263      5.141     10.321
REMARK INTER + INTRA:         -10.281
REMARK INTER:                  -9.633
REMARK INTRA:                  -0.647
REMARK UNBOUND:                -0.710
REMARK SMILES CCCCCCCCCCCCCCCC(=O)[O-]
REMARK SMILES IDX 9 1 10 2 11 3 12 4 13 5 14 6 15 7 16 8 17 9 18 10 8 11 7 12
REMARK SMILES IDX 6 13 5 14 4 15 3 16 2 17 1 18
REMARK H PARENT
REMARK Flexibility Score: inf
ROOT
ATOM      1  C   UNL     1      22.251 -14.520  19.691  1.00  0.00     0.000 C 
ENDROOT
BRANCH   1   2
ATOM      2  C   UNL     1      23.011 -14.509  21.025  1.00  0.00     0.000 C 
BRANCH   2   3
ATOM      3  C   UNL     1      23.292 -13.074  21.486  1.00  0.00     0.000 C 
BRANCH   3   4
ATOM      4  C   UNL     1      21.988 -12.272  21.613  1.00  0.00     0.000 C 
BRANCH   4   5
ATOM      5  C   UNL     1      22.050 -11.212  22.724  1.00  0.00     0.000 C 
BRANCH   5   6
ATOM      6  C   UNL     1      20.659 -10.727  23.158  1.00  0.00     0.006 C 
BRANCH   6   7
ATOM      7  C   UNL     1      20.679 -10.235  24.608  1.00  0.00     0.053 C 
BRANCH   7   8
ATOM      8  C   UNL     1      20.726  -8.740  24.654  1.00  0.00     0.041 C 
ATOM      9  O   UNL     1      19.897  -8.102  25.354  1.00  0.00    -0.550 OA
ATOM     10  O   UNL     1      21.718  -8.053  23.965  1.00  0.00    -0.550 OA
ENDBRANCH   7   8
ENDBRANCH   6   7
ENDBRANCH   5   6
ENDBRANCH   4   5
ENDBRANCH   3   4
ENDBRANCH   2   3
ENDBRANCH   1   2
BRANCH   1  11
ATOM     11  C   UNL     1      22.758 -15.604  18.723  1.00  0.00     0.000 C 
BRANCH  11  12
ATOM     12  C   UNL     1      23.227 -16.909  19.397  1.00  0.00    -0.000 C 
BRANCH  12  13
ATOM     13  C   UNL     1      23.401 -18.113  18.449  1.00  0.00    -0.000 C 
BRANCH  13  14
ATOM     14  C   UNL     1      22.951 -17.863  16.998  1.00  0.00    -0.000 C 
BRANCH  14  15
ATOM     15  C   UNL     1      22.229 -19.074  16.383  1.00  0.00    -0.000 C 
BRANCH  15  16
ATOM     16  C   UNL     1      21.871 -20.141  17.428  1.00  0.00    -0.000 C 
BRANCH  16  17
ATOM     17  C   UNL     1      20.418 -20.624  17.302  1.00  0.00    -0.003 C 
ATOM     18  C   UNL     1      20.052 -20.885  15.843  1.00  0.00     0.004 C 
ENDBRANCH  16  17
ENDBRANCH  15  16
ENDBRANCH  14  15
ENDBRANCH  13  14
ENDBRANCH  12  13
ENDBRANCH  11  12
ENDBRANCH   1  11
TORSDOF 14
ENDMDL
MODEL 5
REMARK VINA RESULT:    -5.121      6.753     11.776
REMARK INTER + INTRA:         -10.022
REMARK INTER:                  -9.513
REMARK INTRA:                  -0.509
REMARK UNBOUND:                -0.710
REMARK SMILES CCCCCCCCCCCCCCCC(=O)[O-]
REMARK SMILES IDX 9 1 10 2 11 3 12 4 13 5 14 6 15 7 16 8 17 9 18 10 8 11 7 12
REMARK SMILES IDX 6 13 5 14 4 15 3 16 2 17 1 18
REMARK H PARENT
REMARK Flexibility Score: inf
ROOT
ATOM      1  C   UNL     1      20.799 -11.487  22.852  1.00  0.00     0.000 C 
ENDROOT
BRANCH   1   2
ATOM      2  C   UNL     1      20.690 -10.745  24.192  1.00  0.00     0.000 C 
BRANCH   2   3
ATOM      3  C   UNL     1      21.127  -9.282  24.048  1.00  0.00     0.000 C 
BRANCH   3   4
ATOM      4  C   UNL     1      20.524  -8.416  25.165  1.00  0.00     0.000 C 
BRANCH   4   5
ATOM      5  C   UNL     1      20.577  -6.914  24.844  1.00  0.00     0.000 C 
BRANCH   5   6
ATOM      6  C   UNL     1      19.182  -6.280  24.746  1.00  0.00     0.006 C 
BRANCH   6   7
ATOM      7  C   UNL     1      19.123  -5.262  23.603  1.00  0.00     0.053 C 
BRANCH   7   8
ATOM      8  C   UNL     1      18.734  -3.913  24.122  1.00  0.00     0.041 C 
ATOM      9  O   UNL     1      17.526  -3.558  24.119  1.00  0.00    -0.550 OA
ATOM     10  O   UNL     1      19.698  -3.068  24.658  1.00  0.00    -0.550 OA
ENDBRANCH   7   8
ENDBRANCH   6   7
ENDBRANCH   5   6
ENDBRANCH   4   5
ENDBRANCH   3   4
ENDBRANCH   2   3
ENDBRANCH   1   2
BRANCH   1  11
ATOM     11  C   UNL     1      22.049 -11.088  22.048  1.00  0.00     0.000 C 
BRANCH  11  12
ATOM     12  C   UNL     1      22.953 -12.263  21.627  1.00  0.00    -0.000 C 
BRANCH  12  13
ATOM     13  C   UNL     1      22.219 -13.466  20.999  1.00  0.00    -0.000 C 
BRANCH  13  14
ATOM     14  C   UNL     1      23.026 -14.777  20.979  1.00  0.00    -0.000 C 
BRANCH  14  15
ATOM     15  C   UNL     1      22.959 -15.495  19.621  1.00  0.00    -0.000 C 
BRANCH  15  16
ATOM     16  C   UNL     1      23.079 -17.021  19.755  1.00  0.00    -0.000 C 
BRANCH  16  17
ATOM     17  C   UNL     1      23.195 -17.723  18.393  1.00  0.00    -0.003 C 
ATOM     18  C   UNL     1      22.944 -16.745  17.248  1.00  0.00     0.004 C 
ENDBRANCH  16  17
ENDBRANCH  15  16
ENDBRANCH  14  15
ENDBRANCH  13  14
ENDBRANCH  12  13
ENDBRANCH  11  12
ENDBRANCH   1  11
TORSDOF 14
ENDMDL
MODEL 6
REMARK VINA RESULT:    -5.042      2.056      4.042
REMARK INTER + INTRA:          -9.878
REMARK INTER:                  -9.213
REMARK INTRA:                  -0.665
REMARK UNBOUND:                -0.710
REMARK SMILES CCCCCCCCCCCCCCCC(=O)[O-]
REMARK SMILES IDX 9 1 10 2 11 3 12 4 13 5 14 6 15 7 16 8 17 9 18 10 8 11 7 12
REMARK SMILES IDX 6 13 5 14 4 15 3 16 2 17 1 18
REMARK H PARENT
REMARK Flexibility Score: inf
ROOT
ATOM      1  C   UNL     1      21.637 -11.237  21.882  1.00  0.00     0.000 C 
ENDROOT
BRANCH   1   2
ATOM      2  C   UNL     1      22.676 -12.350  21.684  1.00  0.00     0.000 C 
BRANCH   2   3
ATOM      3  C   UNL     1      22.089 -13.514  20.878  1.00  0.00     0.000 C 
BRANCH   3   4
ATOM      4  C   UNL     1      23.029 -14.729  20.902  1.00  0.00     0.000 C 
BRANCH   4   5
ATOM      5  C   UNL     1      22.824 -15.661  19.698  1.00  0.00     0.000 C 
BRANCH   5   6
ATOM      6  C   UNL     1      23.156 -17.125  20.018  1.00  0.00     0.006 C 
BRANCH   6   7
ATOM      7  C   UNL     1      23.798 -17.817  18.812  1.00  0.00     0.053 C 
BRANCH   7   8
ATOM      8  C   UNL     1      22.747 -18.287  17.856  1.00  0.00     0.041 C 
ATOM      9  O   UNL     1      22.646 -17.761  16.717  1.00  0.00    -0.550 OA
ATOM     10  O   UNL     1      21.910 -19.341  18.204  1.00  0.00    -0.550 OA
ENDBRANCH   7   8
ENDBRANCH   6   7
ENDBRANCH   5   6
ENDBRANCH   4   5
ENDBRANCH   3   4
ENDBRANCH   2   3
ENDBRANCH   1   2
BRANCH   1  11
ATOM     11  C   UNL     1      20.774 -11.441  23.139  1.00  0.00     0.000 C 
BRANCH  11  12
ATOM     12  C   UNL     1      20.746 -10.243  24.110  1.00  0.00    -0.000 C 
BRANCH  12  13
ATOM     13  C   UNL     1      21.640  -9.052  23.709  1.00  0.00    -0.000 C 
BRANCH  13  14
ATOM     14  C   UNL     1      21.086  -7.670  24.099  1.00  0.00    -0.000 C 
BRANCH  14  15
ATOM     15  C   UNL     1      20.269  -7.703  25.402  1.00  0.00    -0.000 C 
BRANCH  15  16
ATOM     16  C   UNL     1      21.115  -7.359  26.638  1.00  0.00    -0.000 C 
BRANCH  16  17
ATOM     17  C   UNL     1      22.343  -6.503  26.290  1.00  0.00    -0.003 C 
ATOM     18  C   UNL     1      22.025  -5.015  26.404  1.00  0.00     0.004 C 
ENDBRANCH  16  17
ENDBRANCH  15  16
ENDBRANCH  14  15
ENDBRANCH  13  14
ENDBRANCH  12  13
ENDBRANCH  11  12
ENDBRANCH   1  11
TORSDOF 14
ENDMDL
MODEL 7
REMARK VINA RESULT:    -4.980      1.312      3.078
REMARK INTER + INTRA:          -9.767
REMARK INTER:                  -9.116
REMARK INTRA:                  -0.651
REMARK UNBOUND:                -0.710
REMARK SMILES CCCCCCCCCCCCCCCC(=O)[O-]
REMARK SMILES IDX 9 1 10 2 11 3 12 4 13 5 14 6 15 7 16 8 17 9 18 10 8 11 7 12
REMARK SMILES IDX 6 13 5 14 4 15 3 16 2 17 1 18
REMARK H PARENT
REMARK Flexibility Score: inf
ROOT
ATOM      1  C   UNL     1      22.902 -17.090  17.161  1.00  0.00     0.000 C 
ENDROOT
BRANCH   1   2
ATOM      2  C   UNL     1      23.619 -18.172  17.981  1.00  0.00     0.000 C 
BRANCH   2   3
ATOM      3  C   UNL     1      23.411 -19.560  17.362  1.00  0.00     0.000 C 
BRANCH   3   4
ATOM      4  C   UNL     1      21.928 -19.958  17.392  1.00  0.00     0.000 C 
BRANCH   4   5
ATOM      5  C   UNL     1      21.724 -21.480  17.452  1.00  0.00     0.000 C 
BRANCH   5   6
ATOM      6  C   UNL     1      20.289 -21.871  17.830  1.00  0.00     0.006 C 
BRANCH   6   7
ATOM      7  C   UNL     1      19.280 -20.869  17.260  1.00  0.00     0.053 C 
BRANCH   7   8
ATOM      8  C   UNL     1      18.761 -21.343  15.938  1.00  0.00     0.041 C 
ATOM      9  O   UNL     1      17.648 -21.927  15.868  1.00  0.00    -0.550 OA
ATOM     10  O   UNL     1      19.483 -21.094  14.777  1.00  0.00    -0.550 OA
ENDBRANCH   7   8
ENDBRANCH   6   7
ENDBRANCH   5   6
ENDBRANCH   4   5
ENDBRANCH   3   4
ENDBRANCH   2   3
ENDBRANCH   1   2
BRANCH   1  11
ATOM     11  C   UNL     1      22.845 -15.732  17.883  1.00  0.00     0.000 C 
BRANCH  11  12
ATOM     12  C   UNL     1      22.833 -15.815  19.423  1.00  0.00    -0.000 C 
BRANCH  12  13
ATOM     13  C   UNL     1      22.417 -14.518  20.147  1.00  0.00    -0.000 C 
BRANCH  13  14
ATOM     14  C   UNL     1      23.307 -14.132  21.342  1.00  0.00    -0.000 C 
BRANCH  14  15
ATOM     15  C   UNL     1      23.274 -12.624  21.644  1.00  0.00    -0.000 C 
BRANCH  15  16
ATOM     16  C   UNL     1      21.846 -12.061  21.684  1.00  0.00    -0.000 C 
BRANCH  16  17
ATOM     17  C   UNL     1      21.764 -10.716  22.423  1.00  0.00    -0.003 C 
ATOM     18  C   UNL     1      20.960 -10.848  23.714  1.00  0.00     0.004 C 
ENDBRANCH  16  17
ENDBRANCH  15  16
ENDBRANCH  14  15
ENDBRANCH  13  14
ENDBRANCH  12  13
ENDBRANCH  11  12
ENDBRANCH   1  11
TORSDOF 14
ENDMDL
MODEL 8
REMARK VINA RESULT:    -4.963      3.710      7.326
REMARK INTER + INTRA:          -9.735
REMARK INTER:                  -8.724
REMARK INTRA:                  -1.011
REMARK UNBOUND:                -0.710
REMARK SMILES CCCCCCCCCCCCCCCC(=O)[O-]
REMARK SMILES IDX 9 1 10 2 11 3 12 4 13 5 14 6 15 7 16 8 17 9 18 10 8 11 7 12
REMARK SMILES IDX 6 13 5 14 4 15 3 16 2 17 1 18
REMARK H PARENT
REMARK Flexibility Score: inf
ROOT
ATOM      1  C   UNL     1      19.843 -20.534  17.730  1.00  0.00     0.000 C 
ENDROOT
BRANCH   1   2
ATOM      2  C   UNL     1      18.626 -21.399  17.371  1.00  0.00     0.000 C 
BRANCH   2   3
ATOM      3  C   UNL     1      18.748 -21.955  15.947  1.00  0.00     0.000 C 
BRANCH   3   4
ATOM      4  C   UNL     1      17.376 -22.002  15.257  1.00  0.00     0.000 C 
BRANCH   4   5
ATOM      5  C   UNL     1      17.436 -21.554  13.789  1.00  0.00     0.000 C 
BRANCH   5   6
ATOM      6  C   UNL     1      18.737 -20.814  13.447  1.00  0.00     0.006 C 
BRANCH   6   7
ATOM      7  C   UNL     1      18.701 -20.276  12.014  1.00  0.00     0.053 C 
BRANCH   7   8
ATOM      8  C   UNL     1      18.669 -21.404  11.031  1.00  0.00     0.041 C 
ATOM      9  O   UNL     1      17.905 -21.351  10.031  1.00  0.00    -0.550 OA
ATOM     10  O   UNL     1      19.519 -22.492  11.192  1.00  0.00    -0.550 OA
ENDBRANCH   7   8
ENDBRANCH   6   7
ENDBRANCH   5   6
ENDBRANCH   4   5
ENDBRANCH   3   4
ENDBRANCH   2   3
ENDBRANCH   1   2
BRANCH   1  11
ATOM     11  C   UNL     1      20.888 -20.474  16.602  1.00  0.00     0.000 C 
BRANCH  11  12
ATOM     12  C   UNL     1      22.250 -19.878  17.009  1.00  0.00    -0.000 C 
BRANCH  12  13
ATOM     13  C   UNL     1      22.567 -18.493  16.409  1.00  0.00    -0.000 C 
BRANCH  13  14
ATOM     14  C   UNL     1      23.053 -17.445  17.427  1.00  0.00    -0.000 C 
BRANCH  14  15
ATOM     15  C   UNL     1      22.868 -17.900  18.884  1.00  0.00    -0.000 C 
BRANCH  15  16
ATOM     16  C   UNL     1      23.186 -16.788  19.895  1.00  0.00    -0.000 C 
BRANCH  16  17
ATOM     17  C   UNL     1      22.820 -15.392  19.367  1.00  0.00    -0.003 C 
ATOM     18  C   UNL     1      22.551 -14.424  20.516  1.00  0.00     0.004 C 
ENDBRANCH  16  17
ENDBRANCH  15  16
ENDBRANCH  14  15
ENDBRANCH  13  14
ENDBRANCH  12  13
ENDBRANCH  11  12
ENDBRANCH   1  11
TORSDOF 14
ENDMDL
MODEL 9
REMARK VINA RESULT:    -4.833      4.291     10.288
REMARK INTER + INTRA:          -9.499
REMARK INTER:                  -8.616
REMARK INTRA:                  -0.883
REMARK UNBOUND:                -0.710
REMARK SMILES CCCCCCCCCCCCCCCC(=O)[O-]
REMARK SMILES IDX 9 1 10 2 11 3 12 4 13 5 14 6 15 7 16 8 17 9 18 10 8 11 7 12
REMARK SMILES IDX 6 13 5 14 4 15 3 16 2 17 1 18
REMARK H PARENT
REMARK Flexibility Score: inf
ROOT
ATOM      1  C   UNL     1      21.291 -20.081  17.635  1.00  0.00     0.000 C 
ENDROOT
BRANCH   1   2
ATOM      2  C   UNL     1      21.894 -19.414  16.391  1.00  0.00     0.000 C 
BRANCH   2   3
ATOM      3  C   UNL     1      23.266 -18.805  16.705  1.00  0.00     0.000 C 
BRANCH   3   4
ATOM      4  C   UNL     1      23.120 -17.509  17.517  1.00  0.00     0.000 C 
BRANCH   4   5
ATOM      5  C   UNL     1      23.649 -17.648  18.953  1.00  0.00     0.000 C 
BRANCH   5   6
ATOM      6  C   UNL     1      22.919 -16.731  19.945  1.00  0.00     0.006 C 
BRANCH   6   7
ATOM      7  C   UNL     1      22.898 -15.285  19.440  1.00  0.00     0.053 C 
BRANCH   7   8
ATOM      8  C   UNL     1      22.532 -14.348  20.548  1.00  0.00     0.041 C 
ATOM      9  O   UNL     1      21.413 -13.771  20.546  1.00  0.00    -0.550 OA
ATOM     10  O   UNL     1      23.407 -14.151  21.610  1.00  0.00    -0.550 OA
ENDBRANCH   7   8
ENDBRANCH   6   7
ENDBRANCH   5   6
ENDBRANCH   4   5
ENDBRANCH   3   4
ENDBRANCH   2   3
ENDBRANCH   1   2
BRANCH   1  11
ATOM     11  C   UNL     1      20.094 -20.991  17.304  1.00  0.00     0.000 C 
BRANCH  11  12
ATOM     12  C   UNL     1      20.422 -22.193  16.397  1.00  0.00    -0.000 C 
BRANCH  12  13
ATOM     13  C   UNL     1      19.350 -22.531  15.341  1.00  0.00    -0.000 C 
BRANCH  13  14
ATOM     14  C   UNL     1      18.219 -21.495  15.214  1.00  0.00    -0.000 C 
BRANCH  14  15
ATOM     15  C   UNL     1      17.847 -21.198  13.751  1.00  0.00    -0.000 C 
BRANCH  15  16
ATOM     16  C   UNL     1      18.601 -22.094  12.757  1.00  0.00    -0.000 C 
BRANCH  16  17
ATOM     17  C   UNL     1      18.860 -21.394  11.414  1.00  0.00    -0.003 C 
ATOM     18  C   UNL     1      18.928 -19.880  11.589  1.00  0.00     0.004 C 
ENDBRANCH  16  17
ENDBRANCH  15  16
ENDBRANCH  14  15
ENDBRANCH  13  14
ENDBRANCH  12  13
ENDBRANCH  11  12
ENDBRANCH   1  11
TORSDOF 14
ENDMDL
