MODEL 1
REMARK VINA RESULT:    -5.131      0.000      0.000
REMARK INTER + INTRA:          -8.072
REMARK INTER:                  -7.531
REMARK INTRA:                  -0.542
REMARK UNBOUND:                -0.542
REMARK SMILES O=C([O-])CCCCCCCC(=O)[O-]
REMARK SMILES IDX 7 1 6 2 5 3 4 4 2 5 1 6 3 7 8 8 9 9 10 10 11 11 12 12 13 13
REMARK H PARENT
REMARK Flexibility Score: inf
ROOT
ATOM      1  C   UNL     1     -13.042 -16.283  28.912  1.00  0.00     0.000 C 
ENDROOT
BRANCH   1   2
ATOM      2  C   UNL     1     -13.344 -17.401  29.918  1.00  0.00     0.000 C 
BRANCH   2   3
ATOM      3  C   UNL     1     -12.417 -17.308  31.139  1.00  0.00     0.006 C 
BRANCH   3   4
ATOM      4  C   UNL     1     -11.603 -18.590  31.350  1.00  0.00     0.053 C 
BRANCH   4   5
ATOM      5  C   UNL     1     -10.299 -18.548  30.613  1.00  0.00     0.041 C 
ATOM      6  O   UNL     1     -10.171 -19.149  29.515  1.00  0.00    -0.550 OA
ATOM      7  O   UNL     1      -9.215 -17.869  31.158  1.00  0.00    -0.550 OA
ENDBRANCH   4   5
ENDBRANCH   3   4
ENDBRANCH   2   3
ENDBRANCH   1   2
BRANCH   1   8
ATOM      8  C   UNL     1     -12.166 -16.797  27.765  1.00  0.00     0.000 C 
BRANCH   8   9
ATOM      9  C   UNL     1     -10.824 -16.055  27.722  1.00  0.00     0.006 C 
BRANCH   9  10
ATOM     10  C   UNL     1     -10.598 -15.407  26.353  1.00  0.00     0.053 C 
BRANCH  10  11
ATOM     11  C   UNL     1      -9.243 -14.775  26.291  1.00  0.00     0.041 C 
ATOM     12  O   UNL     1      -8.219 -15.439  26.603  1.00  0.00    -0.550 OA
ATOM     13  O   UNL     1      -9.105 -13.469  25.841  1.00  0.00    -0.550 OA
ENDBRANCH  10  11
ENDBRANCH   9  10
ENDBRANCH   8   9
ENDBRANCH   1   8
TORSDOF 8
ENDMDL
MODEL 2
REMARK VINA RESULT:    -5.012      0.982      5.134
REMARK INTER + INTRA:          -7.898
REMARK INTER:                  -7.383
REMARK INTRA:                  -0.515
REMARK UNBOUND:                -0.542
REMARK SMILES O=C([O-])CCCCCCCC(=O)[O-]
REMARK SMILES IDX 7 1 6 2 5 3 4 4 2 5 1 6 3 7 8 8 9 9 10 10 11 11 12 12 13 13
REMARK H PARENT
REMARK Flexibility Score: inf
ROOT
ATOM      1  C   UNL     1     -13.023 -16.085  28.496  1.00  0.00     0.000 C 
ENDROOT
BRANCH   1   2
ATOM      2  C   UNL     1     -12.007 -16.690  27.519  1.00  0.00     0.000 C 
BRANCH   2   3
ATOM      3  C   UNL     1     -11.309 -15.593  26.701  1.00  0.00     0.006 C 
BRANCH   3   4
ATOM      4  C   UNL     1      -9.803 -15.526  26.984  1.00  0.00     0.053 C 
BRANCH   4   5
ATOM      5  C   UNL     1      -9.140 -14.435  26.200  1.00  0.00     0.041 C 
ATOM      6  O   UNL     1      -7.958 -14.092  26.466  1.00  0.00    -0.550 OA
ATOM      7  O   UNL     1      -9.840 -13.776  25.197  1.00  0.00    -0.550 OA
ENDBRANCH   4   5
ENDBRANCH   3   4
ENDBRANCH   2   3
ENDBRANCH   1   2
BRANCH   1   8
ATOM      8  C   UNL     1     -13.420 -17.100  29.574  1.00  0.00     0.000 C 
BRANCH   8   9
ATOM      9  C   UNL     1     -12.475 -18.308  29.568  1.00  0.00     0.006 C 
BRANCH   9  10
ATOM     10  C   UNL     1     -11.776 -18.466  30.920  1.00  0.00     0.053 C 
BRANCH  10  11
ATOM     11  C   UNL     1     -10.309 -18.205  30.785  1.00  0.00     0.041 C 
ATOM     12  O   UNL     1      -9.474 -19.090  31.113  1.00  0.00    -0.550 OA
ATOM     13  O   UNL     1      -9.862 -17.003  30.252  1.00  0.00    -0.550 OA
ENDBRANCH  10  11
ENDBRANCH   9  10
ENDBRANCH   8   9
ENDBRANCH   1   8
TORSDOF 8
ENDMDL
MODEL 3
REMARK VINA RESULT:    -4.972      1.676      2.589
REMARK INTER + INTRA:          -7.840
REMARK INTER:                  -7.471
REMARK INTRA:                  -0.369
REMARK UNBOUND:                -0.542
REMARK SMILES O=C([O-])CCCCCCCC(=O)[O-]
REMARK SMILES IDX 7 1 6 2 5 3 4 4 2 5 1 6 3 7 8 8 9 9 10 10 11 11 12 12 13 13
REMARK H PARENT
REMARK Flexibility Score: inf
ROOT
ATOM      1  C   UNL     1     -10.629 -15.871  27.614  1.00  0.00     0.000 C 
ENDROOT
BRANCH   1   2
ATOM      2  C   UNL     1     -11.952 -16.648  27.630  1.00  0.00     0.000 C 
BRANCH   2   3
ATOM      3  C   UNL     1     -12.100 -17.456  28.928  1.00  0.00     0.006 C 
BRANCH   3   4
ATOM      4  C   UNL     1     -10.885 -18.352  29.196  1.00  0.00     0.053 C 
BRANCH   4   5
ATOM      5  C   UNL     1     -10.707 -18.622  30.659  1.00  0.00     0.041 C 
ATOM      6  O   UNL     1      -9.591 -18.998  31.104  1.00  0.00    -0.550 OA
ATOM      7  O   UNL     1     -11.785 -18.489  31.527  1.00  0.00    -0.550 OA
ENDBRANCH   4   5
ENDBRANCH   3   4
ENDBRANCH   2   3
ENDBRANCH   1   2
BRANCH   1   8
ATOM      8  C   UNL     1     -10.396 -15.211  26.250  1.00  0.00     0.000 C 
BRANCH   8   9
ATOM      9  C   UNL     1      -9.107 -14.381  26.254  1.00  0.00     0.006 C 
BRANCH   9  10
ATOM     10  C   UNL     1      -7.888 -15.260  26.547  1.00  0.00     0.053 C 
BRANCH  10  11
ATOM     11  C   UNL     1      -6.984 -14.591  27.534  1.00  0.00     0.041 C 
ATOM     12  O   UNL     1      -7.440 -14.181  28.634  1.00  0.00    -0.550 OA
ATOM     13  O   UNL     1      -5.629 -14.462  27.260  1.00  0.00    -0.550 OA
ENDBRANCH  10  11
ENDBRANCH   9  10
ENDBRANCH   8   9
ENDBRANCH   1   8
TORSDOF 8
ENDMDL
MODEL 4
REMARK VINA RESULT:    -4.942      1.604      5.459
REMARK INTER + INTRA:          -7.795
REMARK INTER:                  -7.354
REMARK INTRA:                  -0.442
REMARK UNBOUND:                -0.542
REMARK SMILES O=C([O-])CCCCCCCC(=O)[O-]
REMARK SMILES IDX 7 1 6 2 5 3 4 4 2 5 1 6 3 7 8 8 9 9 10 10 11 11 12 12 13 13
REMARK H PARENT
REMARK Flexibility Score: inf
ROOT
ATOM      1  C   UNL     1     -10.628 -15.985  27.643  1.00  0.00     0.000 C 
ENDROOT
BRANCH   1   2
ATOM      2  C   UNL     1     -10.546 -15.212  26.321  1.00  0.00     0.000 C 
BRANCH   2   3
ATOM      3  C   UNL     1      -9.251 -14.389  26.243  1.00  0.00     0.006 C 
BRANCH   3   4
ATOM      4  C   UNL     1      -8.001 -15.251  26.463  1.00  0.00     0.053 C 
BRANCH   4   5
ATOM      5  C   UNL     1      -7.056 -14.618  27.438  1.00  0.00     0.041 C 
ATOM      6  O   UNL     1      -7.433 -14.359  28.611  1.00  0.00    -0.550 OA
ATOM      7  O   UNL     1      -5.766 -14.285  27.039  1.00  0.00    -0.550 OA
ENDBRANCH   4   5
ENDBRANCH   3   4
ENDBRANCH   2   3
ENDBRANCH   1   2
BRANCH   1   8
ATOM      8  C   UNL     1     -11.998 -16.654  27.805  1.00  0.00     0.000 C 
BRANCH   8   9
ATOM      9  C   UNL     1     -12.584 -16.378  29.195  1.00  0.00     0.006 C 
BRANCH   9  10
ATOM     10  C   UNL     1     -11.531 -16.583  30.287  1.00  0.00     0.053 C 
BRANCH  10  11
ATOM     11  C   UNL     1     -11.410 -18.034  30.632  1.00  0.00     0.041 C 
ATOM     12  O   UNL     1     -12.399 -18.660  31.096  1.00  0.00    -0.550 OA
ATOM     13  O   UNL     1     -10.219 -18.708  30.396  1.00  0.00    -0.550 OA
ENDBRANCH  10  11
ENDBRANCH   9  10
ENDBRANCH   8   9
ENDBRANCH   1   8
TORSDOF 8
ENDMDL
MODEL 5
REMARK VINA RESULT:    -4.809      2.784      4.310
REMARK INTER + INTRA:          -7.599
REMARK INTER:                  -7.249
REMARK INTRA:                  -0.351
REMARK UNBOUND:                -0.542
REMARK SMILES O=C([O-])CCCCCCCC(=O)[O-]
REMARK SMILES IDX 7 1 6 2 5 3 4 4 2 5 1 6 3 7 8 8 9 9 10 10 11 11 12 12 13 13
REMARK H PARENT
REMARK Flexibility Score: inf
ROOT
ATOM      1  C   UNL     1      -9.450 -14.564  26.047  1.00  0.00     0.000 C 
ENDROOT
BRANCH   1   2
ATOM      2  C   UNL     1     -10.744 -15.283  26.447  1.00  0.00     0.000 C 
BRANCH   2   3
ATOM      3  C   UNL     1     -10.542 -16.113  27.724  1.00  0.00     0.006 C 
BRANCH   3   4
ATOM      4  C   UNL     1     -11.735 -17.031  28.016  1.00  0.00     0.053 C 
BRANCH   4   5
ATOM      5  C   UNL     1     -12.369 -16.713  29.336  1.00  0.00     0.041 C 
ATOM      6  O   UNL     1     -11.746 -16.031  30.191  1.00  0.00    -0.550 OA
ATOM      7  O   UNL     1     -13.637 -17.198  29.632  1.00  0.00    -0.550 OA
ENDBRANCH   4   5
ENDBRANCH   3   4
ENDBRANCH   2   3
ENDBRANCH   1   2
BRANCH   1   8
ATOM      8  C   UNL     1      -8.225 -15.261  26.650  1.00  0.00     0.000 C 
BRANCH   8   9
ATOM      9  C   UNL     1      -7.018 -14.315  26.691  1.00  0.00     0.006 C 
BRANCH   9  10
ATOM     10  C   UNL     1      -6.060 -14.694  27.823  1.00  0.00     0.053 C 
BRANCH  10  11
ATOM     11  C   UNL     1      -6.152 -13.704  28.941  1.00  0.00     0.041 C 
ATOM     12  O   UNL     1      -5.274 -12.810  29.070  1.00  0.00    -0.550 OA
ATOM     13  O   UNL     1      -7.233 -13.736  29.812  1.00  0.00    -0.550 OA
ENDBRANCH  10  11
ENDBRANCH   9  10
ENDBRANCH   8   9
ENDBRANCH   1   8
TORSDOF 8
ENDMDL
MODEL 6
REMARK VINA RESULT:    -4.724      3.266      7.090
REMARK INTER + INTRA:          -7.475
REMARK INTER:                  -7.268
REMARK INTRA:                  -0.207
REMARK UNBOUND:                -0.542
REMARK SMILES O=C([O-])CCCCCCCC(=O)[O-]
REMARK SMILES IDX 7 1 6 2 5 3 4 4 2 5 1 6 3 7 8 8 9 9 10 10 11 11 12 12 13 13
REMARK H PARENT
REMARK Flexibility Score: inf
ROOT
ATOM      1  C   UNL     1     -12.917 -17.573  31.387  1.00  0.00     0.000 C 
ENDROOT
BRANCH   1   2
ATOM      2  C   UNL     1     -13.159 -17.591  29.872  1.00  0.00     0.000 C 
BRANCH   2   3
ATOM      3  C   UNL     1     -12.774 -16.247  29.237  1.00  0.00     0.006 C 
BRANCH   3   4
ATOM      4  C   UNL     1     -12.484 -16.376  27.737  1.00  0.00     0.053 C 
BRANCH   4   5
ATOM      5  C   UNL     1     -11.089 -15.941  27.403  1.00  0.00     0.041 C 
ATOM      6  O   UNL     1     -10.860 -15.301  26.343  1.00  0.00    -0.550 OA
ATOM      7  O   UNL     1     -10.037 -16.273  28.248  1.00  0.00    -0.550 OA
ENDBRANCH   4   5
ENDBRANCH   3   4
ENDBRANCH   2   3
ENDBRANCH   1   2
BRANCH   1   8
ATOM      8  C   UNL     1     -12.398 -18.930  31.877  1.00  0.00     0.000 C 
BRANCH   8   9
ATOM      9  C   UNL     1     -12.883 -19.222  33.302  1.00  0.00     0.006 C 
BRANCH   9  10
ATOM     10  C   UNL     1     -12.304 -20.542  33.820  1.00  0.00     0.053 C 
BRANCH  10  11
ATOM     11  C   UNL     1     -13.392 -21.551  34.013  1.00  0.00     0.041 C 
ATOM     12  O   UNL     1     -13.370 -22.324  35.007  1.00  0.00    -0.550 OA
ATOM     13  O   UNL     1     -14.456 -21.606  33.123  1.00  0.00    -0.550 OA
ENDBRANCH  10  11
ENDBRANCH   9  10
ENDBRANCH   8   9
ENDBRANCH   1   8
TORSDOF 8
ENDMDL
MODEL 7
REMARK VINA RESULT:    -4.692      3.308      7.060
REMARK INTER + INTRA:          -7.429
REMARK INTER:                  -7.093
REMARK INTRA:                  -0.336
REMARK UNBOUND:                -0.542
REMARK SMILES O=C([O-])CCCCCCCC(=O)[O-]
REMARK SMILES IDX 7 1 6 2 5 3 4 4 2 5 1 6 3 7 8 8 9 9 10 10 11 11 12 12 13 13
REMARK H PARENT
REMARK Flexibility Score: inf
ROOT
ATOM      1  C   UNL     1     -10.709 -19.011  31.377  1.00  0.00     0.000 C 
ENDROOT
BRANCH   1   2
ATOM      2  C   UNL     1     -10.196 -18.715  29.962  1.00  0.00     0.000 C 
BRANCH   2   3
ATOM      3  C   UNL     1     -11.189 -17.834  29.189  1.00  0.00     0.006 C 
BRANCH   3   4
ATOM      4  C   UNL     1     -10.533 -16.561  28.643  1.00  0.00     0.053 C 
BRANCH   4   5
ATOM      5  C   UNL     1     -11.276 -16.017  27.460  1.00  0.00     0.041 C 
ATOM      6  O   UNL     1     -12.508 -16.239  27.328  1.00  0.00    -0.550 OA
ATOM      7  O   UNL     1     -10.598 -15.293  26.487  1.00  0.00    -0.550 OA
ENDBRANCH   4   5
ENDBRANCH   3   4
ENDBRANCH   2   3
ENDBRANCH   1   2
BRANCH   1   8
ATOM      8  C   UNL     1     -12.163 -18.554  31.542  1.00  0.00     0.000 C 
BRANCH   8   9
ATOM      9  C   UNL     1     -12.895 -19.410  32.582  1.00  0.00     0.006 C 
BRANCH   9  10
ATOM     10  C   UNL     1     -11.908 -20.251  33.396  1.00  0.00     0.053 C 
BRANCH  10  11
ATOM     11  C   UNL     1     -12.639 -21.127  34.364  1.00  0.00     0.041 C 
ATOM     12  O   UNL     1     -12.095 -22.172  34.809  1.00  0.00    -0.550 OA
ATOM     13  O   UNL     1     -13.902 -20.764  34.813  1.00  0.00    -0.550 OA
ENDBRANCH  10  11
ENDBRANCH   9  10
ENDBRANCH   8   9
ENDBRANCH   1   8
TORSDOF 8
ENDMDL
MODEL 8
REMARK VINA RESULT:    -4.594      3.635      4.338
REMARK INTER + INTRA:          -7.285
REMARK INTER:                  -6.921
REMARK INTRA:                  -0.364
REMARK UNBOUND:                -0.542
REMARK SMILES O=C([O-])CCCCCCCC(=O)[O-]
REMARK SMILES IDX 7 1 6 2 5 3 4 4 2 5 1 6 3 7 8 8 9 9 10 10 11 11 12 12 13 13
REMARK H PARENT
REMARK Flexibility Score: inf
ROOT
ATOM      1  C   UNL     1     -12.735 -17.848  31.247  1.00  0.00     0.000 C 
ENDROOT
BRANCH   1   2
ATOM      2  C   UNL     1     -13.094 -18.321  32.661  1.00  0.00     0.000 C 
BRANCH   2   3
ATOM      3  C   UNL     1     -12.488 -19.702  32.950  1.00  0.00     0.006 C 
BRANCH   3   4
ATOM      4  C   UNL     1     -13.562 -20.779  33.143  1.00  0.00     0.053 C 
BRANCH   4   5
ATOM      5  C   UNL     1     -13.575 -21.306  34.546  1.00  0.00     0.041 C 
ATOM      6  O   UNL     1     -14.467 -20.937  35.354  1.00  0.00    -0.550 OA
ATOM      7  O   UNL     1     -12.580 -22.179  34.969  1.00  0.00    -0.550 OA
ENDBRANCH   4   5
ENDBRANCH   3   4
ENDBRANCH   2   3
ENDBRANCH   1   2
BRANCH   1   8
ATOM      8  C   UNL     1     -11.316 -18.285  30.865  1.00  0.00     0.000 C 
BRANCH   8   9
ATOM      9  C   UNL     1     -11.128 -18.275  29.343  1.00  0.00     0.006 C 
BRANCH   9  10
ATOM     10  C   UNL     1     -10.556 -16.936  28.868  1.00  0.00     0.053 C 
BRANCH  10  11
ATOM     11  C   UNL     1     -11.464 -16.307  27.859  1.00  0.00     0.041 C 
ATOM     12  O   UNL     1     -10.991 -15.820  26.798  1.00  0.00    -0.550 OA
ATOM     13  O   UNL     1     -12.837 -16.302  28.065  1.00  0.00    -0.550 OA
ENDBRANCH  10  11
ENDBRANCH   9  10
ENDBRANCH   8   9
ENDBRANCH   1   8
TORSDOF 8
ENDMDL
MODEL 9
REMARK VINA RESULT:    -4.558      3.566      5.050
REMARK INTER + INTRA:          -7.232
REMARK INTER:                  -6.641
REMARK INTRA:                  -0.590
REMARK UNBOUND:                -0.542
REMARK SMILES O=C([O-])CCCCCCCC(=O)[O-]
REMARK SMILES IDX 7 1 6 2 5 3 4 4 2 5 1 6 3 7 8 8 9 9 10 10 11 11 12 12 13 13
REMARK H PARENT
REMARK Flexibility Score: inf
ROOT
ATOM      1  C   UNL     1     -13.185 -17.888  32.233  1.00  0.00     0.000 C 
ENDROOT
BRANCH   1   2
ATOM      2  C   UNL     1     -13.125 -19.410  32.410  1.00  0.00     0.000 C 
BRANCH   2   3
ATOM      3  C   UNL     1     -12.288 -19.789  33.641  1.00  0.00     0.006 C 
BRANCH   3   4
ATOM      4  C   UNL     1     -12.549 -21.229  34.100  1.00  0.00     0.053 C 
BRANCH   4   5
ATOM      5  C   UNL     1     -13.990 -21.446  34.449  1.00  0.00     0.041 C 
ATOM      6  O   UNL     1     -14.675 -22.293  33.818  1.00  0.00    -0.550 OA
ATOM      7  O   UNL     1     -14.585 -20.688  35.451  1.00  0.00    -0.550 OA
ENDBRANCH   4   5
ENDBRANCH   3   4
ENDBRANCH   2   3
ENDBRANCH   1   2
BRANCH   1   8
ATOM      8  C   UNL     1     -13.142 -17.504  30.750  1.00  0.00     0.000 C 
BRANCH   8   9
ATOM      9  C   UNL     1     -12.552 -18.639  29.904  1.00  0.00     0.006 C 
BRANCH   9  10
ATOM     10  C   UNL     1     -11.208 -18.231  29.295  1.00  0.00     0.053 C 
BRANCH  10  11
ATOM     11  C   UNL     1     -10.178 -18.058  30.365  1.00  0.00     0.041 C 
ATOM     12  O   UNL     1      -9.780 -19.052  31.028  1.00  0.00    -0.550 OA
ATOM     13  O   UNL     1      -9.621 -16.807  30.599  1.00  0.00    -0.550 OA
ENDBRANCH  10  11
ENDBRANCH   9  10
ENDBRANCH   8   9
ENDBRANCH   1   8
TORSDOF 8
ENDMDL
