MODEL 1
REMARK VINA RESULT:    -3.886      0.000      0.000
REMARK INTER + INTRA:          -4.500
REMARK INTER:                  -4.454
REMARK INTRA:                  -0.046
REMARK UNBOUND:                -0.046
REMARK SMILES O=C([O-])c1cc(O)c(O)c(O)c1
REMARK SMILES IDX 4 1 5 2 12 3 6 4 10 5 8 6 2 7 1 8 3 9 7 10 11 12 9 14
REMARK H PARENT 7 11 11 13 9 15
REMARK Flexibility Score: inf
ROOT
ATOM      1  C   UNL     1       0.505  17.306  15.206  1.00  0.00     0.005 A 
ATOM      2  C   UNL     1       0.467  15.952  15.573  1.00  0.00     0.060 A 
ATOM      3  C   UNL     1       1.242  18.205  15.995  1.00  0.00     0.060 A 
ATOM      4  C   UNL     1       1.151  15.503  16.710  1.00  0.00     0.162 A 
ATOM      5  C   UNL     1       1.929  17.769  17.134  1.00  0.00     0.162 A 
ATOM      6  C   UNL     1       1.885  16.403  17.496  1.00  0.00     0.200 A 
ENDROOT
BRANCH   1   7
ATOM      7  C   UNL     1      -0.219  17.774  14.003  1.00  0.00     0.072 C 
ATOM      8  O   UNL     1      -1.125  18.644  14.099  1.00  0.00    -0.545 OA
ATOM      9  O   UNL     1       0.091  17.261  12.750  1.00  0.00    -0.545 OA
ENDBRANCH   1   7
BRANCH   4  10
ATOM     10  O   UNL     1       1.107  14.156  17.067  1.00  0.00    -0.504 OA
ATOM     11  H   UNL     1       1.859  13.519  16.832  1.00  0.00     0.293 HD
ENDBRANCH   4  10
BRANCH   5  12
ATOM     12  O   UNL     1       2.639  18.722  17.869  1.00  0.00    -0.504 OA
ATOM     13  H   UNL     1       2.795  18.668  18.864  1.00  0.00     0.293 HD
ENDBRANCH   5  12
BRANCH   6  14
ATOM     14  O   UNL     1       2.548  15.902  18.620  1.00  0.00    -0.502 OA
ATOM     15  H   UNL     1       3.399  15.360  18.580  1.00  0.00     0.293 HD
ENDBRANCH   6  14
TORSDOF 4
ENDMDL
MODEL 2
REMARK VINA RESULT:    -3.884      1.753      3.094
REMARK INTER + INTRA:          -4.498
REMARK INTER:                  -4.447
REMARK INTRA:                  -0.051
REMARK UNBOUND:                -0.046
REMARK SMILES O=C([O-])c1cc(O)c(O)c(O)c1
REMARK SMILES IDX 4 1 5 2 12 3 6 4 10 5 8 6 2 7 1 8 3 9 7 10 11 12 9 14
REMARK H PARENT 7 11 11 13 9 15
REMARK Flexibility Score: inf
ROOT
ATOM      1  C   UNL     1       1.303  16.327  17.077  1.00  0.00     0.005 A 
ATOM      2  C   UNL     1       0.250  15.423  16.867  1.00  0.00     0.060 A 
ATOM      3  C   UNL     1       2.333  15.977  17.965  1.00  0.00     0.060 A 
ATOM      4  C   UNL     1       0.225  14.191  17.534  1.00  0.00     0.162 A 
ATOM      5  C   UNL     1       2.320  14.750  18.638  1.00  0.00     0.162 A 
ATOM      6  C   UNL     1       1.255  13.845  18.420  1.00  0.00     0.200 A 
ENDROOT
BRANCH   1   7
ATOM      7  C   UNL     1       1.324  17.626  16.369  1.00  0.00     0.072 C 
ATOM      8  O   UNL     1       0.691  17.780  15.292  1.00  0.00    -0.545 OA
ATOM      9  O   UNL     1       2.045  18.697  16.885  1.00  0.00    -0.545 OA
ENDBRANCH   1   7
BRANCH   4  10
ATOM     10  O   UNL     1      -0.825  13.300  17.318  1.00  0.00    -0.504 OA
ATOM     11  H   UNL     1      -0.797  12.350  17.670  1.00  0.00     0.293 HD
ENDBRANCH   4  10
BRANCH   5  12
ATOM     12  O   UNL     1       3.379  14.473  19.506  1.00  0.00    -0.504 OA
ATOM     13  H   UNL     1       3.411  13.675  20.123  1.00  0.00     0.293 HD
ENDBRANCH   5  12
BRANCH   6  14
ATOM     14  O   UNL     1       1.181  12.604  19.059  1.00  0.00    -0.502 OA
ATOM     15  H   UNL     1       0.339  12.051  19.126  1.00  0.00     0.293 HD
ENDBRANCH   6  14
TORSDOF 4
ENDMDL
MODEL 3
REMARK VINA RESULT:    -3.842      0.398      2.468
REMARK INTER + INTRA:          -4.450
REMARK INTER:                  -4.399
REMARK INTRA:                  -0.051
REMARK UNBOUND:                -0.046
REMARK SMILES O=C([O-])c1cc(O)c(O)c(O)c1
REMARK SMILES IDX 4 1 5 2 12 3 6 4 10 5 8 6 2 7 1 8 3 9 7 10 11 12 9 14
REMARK H PARENT 7 11 11 13 9 15
REMARK Flexibility Score: inf
ROOT
ATOM      1  C   UNL     1       0.395  17.092  15.277  1.00  0.00     0.005 A 
ATOM      2  C   UNL     1       1.156  18.023  16.000  1.00  0.00     0.060 A 
ATOM      3  C   UNL     1       0.409  15.745  15.677  1.00  0.00     0.060 A 
ATOM      4  C   UNL     1       1.919  17.617  17.102  1.00  0.00     0.162 A 
ATOM      5  C   UNL     1       1.167  15.326  16.776  1.00  0.00     0.162 A 
ATOM      6  C   UNL     1       1.932  16.272  17.498  1.00  0.00     0.200 A 
ENDROOT
BRANCH   1   7
ATOM      7  C   UNL     1      -0.410  17.526  14.114  1.00  0.00     0.072 C 
ATOM      8  O   UNL     1      -0.776  18.726  14.000  1.00  0.00    -0.545 OA
ATOM      9  O   UNL     1      -0.775  16.614  13.130  1.00  0.00    -0.545 OA
ENDBRANCH   1   7
BRANCH   4  10
ATOM     10  O   UNL     1       2.673  18.550  17.813  1.00  0.00    -0.504 OA
ATOM     11  H   UNL     1       3.149  19.315  17.348  1.00  0.00     0.293 HD
ENDBRANCH   4  10
BRANCH   5  12
ATOM     12  O   UNL     1       1.131  13.971  17.113  1.00  0.00    -0.504 OA
ATOM     13  H   UNL     1       0.300  13.400  17.073  1.00  0.00     0.293 HD
ENDBRANCH   5  12
BRANCH   6  14
ATOM     14  O   UNL     1       2.711  15.921  18.605  1.00  0.00    -0.502 OA
ATOM     15  H   UNL     1       3.449  16.497  18.982  1.00  0.00     0.293 HD
ENDBRANCH   6  14
TORSDOF 4
ENDMDL
MODEL 4
REMARK VINA RESULT:    -3.740      1.614      4.444
REMARK INTER + INTRA:          -4.333
REMARK INTER:                  -4.280
REMARK INTRA:                  -0.053
REMARK UNBOUND:                -0.046
REMARK SMILES O=C([O-])c1cc(O)c(O)c(O)c1
REMARK SMILES IDX 4 1 5 2 12 3 6 4 10 5 8 6 2 7 1 8 3 9 7 10 11 12 9 14
REMARK H PARENT 7 11 11 13 9 15
REMARK Flexibility Score: inf
ROOT
ATOM      1  C   UNL     1       0.766  14.749  17.392  1.00  0.00     0.005 A 
ATOM      2  C   UNL     1       1.712  15.596  17.987  1.00  0.00     0.060 A 
ATOM      3  C   UNL     1       0.057  15.204  16.267  1.00  0.00     0.060 A 
ATOM      4  C   UNL     1       1.948  16.876  17.470  1.00  0.00     0.162 A 
ATOM      5  C   UNL     1       0.282  16.481  15.741  1.00  0.00     0.162 A 
ATOM      6  C   UNL     1       1.239  17.328  16.348  1.00  0.00     0.200 A 
ENDROOT
BRANCH   1   7
ATOM      7  C   UNL     1       0.521  13.397  17.942  1.00  0.00     0.072 C 
ATOM      8  O   UNL     1       1.113  13.014  18.985  1.00  0.00    -0.545 OA
ATOM      9  O   UNL     1      -0.365  12.531  17.313  1.00  0.00    -0.545 OA
ENDBRANCH   1   7
BRANCH   4  10
ATOM     10  O   UNL     1       2.891  17.711  18.069  1.00  0.00    -0.504 OA
ATOM     11  H   UNL     1       3.505  18.300  17.519  1.00  0.00     0.293 HD
ENDBRANCH   4  10
BRANCH   5  12
ATOM     12  O   UNL     1      -0.460  16.863  14.621  1.00  0.00    -0.504 OA
ATOM     13  H   UNL     1      -1.233  17.511  14.648  1.00  0.00     0.293 HD
ENDBRANCH   5  12
BRANCH   6  14
ATOM     14  O   UNL     1       1.513  18.614  15.873  1.00  0.00    -0.502 OA
ATOM     15  H   UNL     1       2.131  19.267  16.331  1.00  0.00     0.293 HD
ENDBRANCH   6  14
TORSDOF 4
ENDMDL
MODEL 5
REMARK VINA RESULT:    -3.704      1.617      4.012
REMARK INTER + INTRA:          -4.292
REMARK INTER:                  -4.246
REMARK INTRA:                  -0.046
REMARK UNBOUND:                -0.046
REMARK SMILES O=C([O-])c1cc(O)c(O)c(O)c1
REMARK SMILES IDX 4 1 5 2 12 3 6 4 10 5 8 6 2 7 1 8 3 9 7 10 11 12 9 14
REMARK H PARENT 7 11 11 13 9 15
REMARK Flexibility Score: inf
ROOT
ATOM      1  C   UNL     1       0.545  15.146  17.531  1.00  0.00     0.005 A 
ATOM      2  C   UNL     1      -0.042  15.495  16.305  1.00  0.00     0.060 A 
ATOM      3  C   UNL     1       1.527  15.988  18.080  1.00  0.00     0.060 A 
ATOM      4  C   UNL     1       0.346  16.664  15.637  1.00  0.00     0.162 A 
ATOM      5  C   UNL     1       1.924  17.158  17.422  1.00  0.00     0.162 A 
ATOM      6  C   UNL     1       1.327  17.502  16.187  1.00  0.00     0.200 A 
ENDROOT
BRANCH   1   7
ATOM      7  C   UNL     1       0.131  13.911  18.233  1.00  0.00     0.072 C 
ATOM      8  O   UNL     1      -1.062  13.754  18.605  1.00  0.00    -0.545 OA
ATOM      9  O   UNL     1       1.055  12.905  18.491  1.00  0.00    -0.545 OA
ENDBRANCH   1   7
BRANCH   4  10
ATOM     10  O   UNL     1      -0.243  17.002  14.419  1.00  0.00    -0.504 OA
ATOM     11  H   UNL     1       0.131  17.741  13.835  1.00  0.00     0.293 HD
ENDBRANCH   4  10
BRANCH   5  12
ATOM     12  O   UNL     1       2.906  17.944  18.030  1.00  0.00    -0.504 OA
ATOM     13  H   UNL     1       2.769  18.903  18.311  1.00  0.00     0.293 HD
ENDBRANCH   5  12
BRANCH   6  14
ATOM     14  O   UNL     1       1.676  18.655  15.479  1.00  0.00    -0.502 OA
ATOM     15  H   UNL     1       2.449  18.709  14.832  1.00  0.00     0.293 HD
ENDBRANCH   6  14
TORSDOF 4
ENDMDL
MODEL 6
REMARK VINA RESULT:    -3.678     10.005     11.424
REMARK INTER + INTRA:          -4.262
REMARK INTER:                  -4.209
REMARK INTRA:                  -0.053
REMARK UNBOUND:                -0.046
REMARK SMILES O=C([O-])c1cc(O)c(O)c(O)c1
REMARK SMILES IDX 4 1 5 2 12 3 6 4 10 5 8 6 2 7 1 8 3 9 7 10 11 12 9 14
REMARK H PARENT 7 11 11 13 9 15
REMARK Flexibility Score: inf
ROOT
ATOM      1  C   UNL     1       5.227   8.527  12.276  1.00  0.00     0.005 A 
ATOM      2  C   UNL     1       6.604   8.635  12.516  1.00  0.00     0.060 A 
ATOM      3  C   UNL     1       4.630   7.255  12.291  1.00  0.00     0.060 A 
ATOM      4  C   UNL     1       7.375   7.492  12.767  1.00  0.00     0.162 A 
ATOM      5  C   UNL     1       5.389   6.106  12.540  1.00  0.00     0.162 A 
ATOM      6  C   UNL     1       6.778   6.224  12.781  1.00  0.00     0.200 A 
ENDROOT
BRANCH   1   7
ATOM      7  C   UNL     1       4.417   9.738  12.012  1.00  0.00     0.072 C 
ATOM      8  O   UNL     1       4.969  10.861  11.875  1.00  0.00    -0.545 OA
ATOM      9  O   UNL     1       3.033   9.651  11.912  1.00  0.00    -0.545 OA
ENDBRANCH   1   7
BRANCH   4  10
ATOM     10  O   UNL     1       8.744   7.610  13.004  1.00  0.00    -0.504 OA
ATOM     11  H   UNL     1       9.191   8.515  13.101  1.00  0.00     0.293 HD
ENDBRANCH   4  10
BRANCH   5  12
ATOM     12  O   UNL     1       4.726   4.876  12.539  1.00  0.00    -0.504 OA
ATOM     13  H   UNL     1       5.120   4.021  12.175  1.00  0.00     0.293 HD
ENDBRANCH   5  12
BRANCH   6  14
ATOM     14  O   UNL     1       7.593   5.118  13.036  1.00  0.00    -0.502 OA
ATOM     15  H   UNL     1       8.369   4.840  12.452  1.00  0.00     0.293 HD
ENDBRANCH   6  14
TORSDOF 4
ENDMDL
MODEL 7
REMARK VINA RESULT:    -3.554      9.981     11.180
REMARK INTER + INTRA:          -4.119
REMARK INTER:                  -4.067
REMARK INTRA:                  -0.053
REMARK UNBOUND:                -0.046
REMARK SMILES O=C([O-])c1cc(O)c(O)c(O)c1
REMARK SMILES IDX 4 1 5 2 12 3 6 4 10 5 8 6 2 7 1 8 3 9 7 10 11 12 9 14
REMARK H PARENT 7 11 11 13 9 15
REMARK Flexibility Score: inf
ROOT
ATOM      1  C   UNL     1       5.187   8.572  12.236  1.00  0.00     0.005 A 
ATOM      2  C   UNL     1       4.618   7.291  12.177  1.00  0.00     0.060 A 
ATOM      3  C   UNL     1       6.556   8.697  12.528  1.00  0.00     0.060 A 
ATOM      4  C   UNL     1       5.402   6.152  12.406  1.00  0.00     0.162 A 
ATOM      5  C   UNL     1       7.350   7.568  12.759  1.00  0.00     0.162 A 
ATOM      6  C   UNL     1       6.768   6.280  12.697  1.00  0.00     0.200 A 
ENDROOT
BRANCH   1   7
ATOM      7  C   UNL     1       4.354   9.771  11.993  1.00  0.00     0.072 C 
ATOM      8  O   UNL     1       4.886  10.907  11.875  1.00  0.00    -0.545 OA
ATOM      9  O   UNL     1       2.973   9.660  11.892  1.00  0.00    -0.545 OA
ENDBRANCH   1   7
BRANCH   4  10
ATOM     10  O   UNL     1       4.827   4.883  12.345  1.00  0.00    -0.504 OA
ATOM     11  H   UNL     1       4.015   4.640  12.901  1.00  0.00     0.293 HD
ENDBRANCH   4  10
BRANCH   5  12
ATOM     12  O   UNL     1       8.702   7.771  13.043  1.00  0.00    -0.504 OA
ATOM     13  H   UNL     1       9.447   7.632  12.377  1.00  0.00     0.293 HD
ENDBRANCH   5  12
BRANCH   6  14
ATOM     14  O   UNL     1       7.503   5.111  12.917  1.00  0.00    -0.502 OA
ATOM     15  H   UNL     1       8.430   4.949  12.551  1.00  0.00     0.293 HD
ENDBRANCH   6  14
TORSDOF 4
ENDMDL
MODEL 8
REMARK VINA RESULT:    -3.451      1.968      4.526
REMARK INTER + INTRA:          -4.002
REMARK INTER:                  -3.957
REMARK INTRA:                  -0.045
REMARK UNBOUND:                -0.046
REMARK SMILES O=C([O-])c1cc(O)c(O)c(O)c1
REMARK SMILES IDX 4 1 5 2 12 3 6 4 10 5 8 6 2 7 1 8 3 9 7 10 11 12 9 14
REMARK H PARENT 7 11 11 13 9 15
REMARK Flexibility Score: inf
ROOT
ATOM      1  C   UNL     1       1.818  14.880  16.929  1.00  0.00     0.005 A 
ATOM      2  C   UNL     1       2.260  14.215  15.776  1.00  0.00     0.060 A 
ATOM      3  C   UNL     1       1.221  16.145  16.800  1.00  0.00     0.060 A 
ATOM      4  C   UNL     1       2.111  14.804  14.513  1.00  0.00     0.162 A 
ATOM      5  C   UNL     1       1.066  16.744  15.545  1.00  0.00     0.162 A 
ATOM      6  C   UNL     1       1.515  16.067  14.387  1.00  0.00     0.200 A 
ENDROOT
BRANCH   1   7
ATOM      7  C   UNL     1       1.978  14.253  18.261  1.00  0.00     0.072 C 
ATOM      8  O   UNL     1       2.942  14.570  19.006  1.00  0.00    -0.545 OA
ATOM      9  O   UNL     1       1.066  13.304  18.706  1.00  0.00    -0.545 OA
ENDBRANCH   1   7
BRANCH   4  10
ATOM     10  O   UNL     1       2.554  14.136  13.373  1.00  0.00    -0.504 OA
ATOM     11  H   UNL     1       3.521  14.178  13.074  1.00  0.00     0.293 HD
ENDBRANCH   4  10
BRANCH   5  12
ATOM     12  O   UNL     1       0.463  18.003  15.496  1.00  0.00    -0.504 OA
ATOM     13  H   UNL     1      -0.027  18.365  14.691  1.00  0.00     0.293 HD
ENDBRANCH   5  12
BRANCH   6  14
ATOM     14  O   UNL     1       1.391  16.608  13.104  1.00  0.00    -0.502 OA
ATOM     15  H   UNL     1       0.569  16.510  12.526  1.00  0.00     0.293 HD
ENDBRANCH   6  14
TORSDOF 4
ENDMDL
MODEL 9
REMARK VINA RESULT:    -3.401      1.871      3.370
REMARK INTER + INTRA:          -3.945
REMARK INTER:                  -3.894
REMARK INTRA:                  -0.051
REMARK UNBOUND:                -0.046
REMARK SMILES O=C([O-])c1cc(O)c(O)c(O)c1
REMARK SMILES IDX 4 1 5 2 12 3 6 4 10 5 8 6 2 7 1 8 3 9 7 10 11 12 9 14
REMARK H PARENT 7 11 11 13 9 15
REMARK Flexibility Score: inf
ROOT
ATOM      1  C   UNL     1       0.592  16.019  16.498  1.00  0.00     0.005 A 
ATOM      2  C   UNL     1       1.705  15.937  17.348  1.00  0.00     0.060 A 
ATOM      3  C   UNL     1      -0.336  14.964  16.486  1.00  0.00     0.060 A 
ATOM      4  C   UNL     1       1.891  14.820  18.172  1.00  0.00     0.162 A 
ATOM      5  C   UNL     1      -0.161  13.842  17.304  1.00  0.00     0.162 A 
ATOM      6  C   UNL     1       0.964  13.768  18.158  1.00  0.00     0.200 A 
ENDROOT
BRANCH   1   7
ATOM      7  C   UNL     1       0.400  17.203  15.630  1.00  0.00     0.072 C 
ATOM      8  O   UNL     1      -0.755  17.551  15.268  1.00  0.00    -0.545 OA
ATOM      9  O   UNL     1       1.493  17.946  15.201  1.00  0.00    -0.545 OA
ENDBRANCH   1   7
BRANCH   4  10
ATOM     10  O   UNL     1       3.000  14.748  19.013  1.00  0.00    -0.504 OA
ATOM     11  H   UNL     1       3.671  15.505  19.075  1.00  0.00     0.293 HD
ENDBRANCH   4  10
BRANCH   5  12
ATOM     12  O   UNL     1      -1.125  12.832  17.238  1.00  0.00    -0.504 OA
ATOM     13  H   UNL     1      -2.026  12.879  17.690  1.00  0.00     0.293 HD
ENDBRANCH   5  12
BRANCH   6  14
ATOM     14  O   UNL     1       1.198  12.676  19.000  1.00  0.00    -0.502 OA
ATOM     15  H   UNL     1       0.470  12.089  19.380  1.00  0.00     0.293 HD
ENDBRANCH   6  14
TORSDOF 4
ENDMDL
