MODEL 1
REMARK VINA RESULT:    -3.994      0.000      0.000
REMARK INTER + INTRA:          -6.108
REMARK INTER:                  -5.394
REMARK INTRA:                  -0.714
REMARK UNBOUND:                -0.714
REMARK SMILES CCCCCCC=CC(=O)[O-]
REMARK SMILES IDX 5 1 6 2 7 3 8 4 9 5 10 6 11 7 4 8 3 9 2 10 1 11
REMARK H PARENT
REMARK Flexibility Score: inf
ROOT
ATOM      1  C   UNL     1       0.358  -0.970  -7.325  1.00  0.00     0.004 C 
ENDROOT
BRANCH   1   2
ATOM      2  C   UNL     1       1.397  -1.129  -6.203  1.00  0.00     0.027 C 
BRANCH   2   3
ATOM      3  C   UNL     1       2.181  -2.398  -6.367  1.00  0.00    -0.025 C 
ATOM      4  C   UNL     1       1.654  -3.590  -6.063  1.00  0.00     0.020 C 
BRANCH   4   5
ATOM      5  C   UNL     1       2.408  -4.845  -6.201  1.00  0.00     0.064 C 
ATOM      6  O   UNL     1       2.543  -5.634  -5.227  1.00  0.00    -0.545 OA
ATOM      7  O   UNL     1       2.984  -5.167  -7.423  1.00  0.00    -0.545 OA
ENDBRANCH   4   5
ENDBRANCH   2   3
ENDBRANCH   1   2
BRANCH   1   8
ATOM      8  C   UNL     1       1.000  -0.797  -8.713  1.00  0.00     0.000 C 
BRANCH   8   9
ATOM      9  C   UNL     1       0.694  -1.922  -9.720  1.00  0.00    -0.000 C 
BRANCH   9  10
ATOM     10  C   UNL     1      -0.222  -3.039  -9.189  1.00  0.00    -0.003 C 
ATOM     11  C   UNL     1       0.267  -4.438  -9.562  1.00  0.00     0.004 C 
ENDBRANCH   9  10
ENDBRANCH   8   9
ENDBRANCH   1   8
TORSDOF 6
ENDMDL
MODEL 2
REMARK VINA RESULT:    -3.803      1.886      3.136
REMARK INTER + INTRA:          -5.850
REMARK INTER:                  -5.119
REMARK INTRA:                  -0.732
REMARK UNBOUND:                -0.714
REMARK SMILES CCCCCCC=CC(=O)[O-]
REMARK SMILES IDX 5 1 6 2 7 3 8 4 9 5 10 6 11 7 4 8 3 9 2 10 1 11
REMARK H PARENT
REMARK Flexibility Score: inf
ROOT
ATOM      1  C   UNL     1       1.176  -3.030  -5.832  1.00  0.00     0.004 C 
ENDROOT
BRANCH   1   2
ATOM      2  C   UNL     1       2.291  -4.063  -6.060  1.00  0.00     0.027 C 
BRANCH   2   3
ATOM      3  C   UNL     1       2.037  -4.870  -7.300  1.00  0.00    -0.025 C 
ATOM      4  C   UNL     1       0.800  -5.043  -7.780  1.00  0.00     0.020 C 
BRANCH   4   5
ATOM      5  C   UNL     1       0.526  -5.841  -8.985  1.00  0.00     0.064 C 
ATOM      6  O   UNL     1       1.333  -6.727  -9.377  1.00  0.00    -0.545 OA
ATOM      7  O   UNL     1      -0.640  -5.616  -9.704  1.00  0.00    -0.545 OA
ENDBRANCH   4   5
ENDBRANCH   2   3
ENDBRANCH   1   2
BRANCH   1   8
ATOM      8  C   UNL     1       1.553  -1.625  -6.335  1.00  0.00     0.000 C 
BRANCH   8   9
ATOM      9  C   UNL     1       0.506  -0.954  -7.248  1.00  0.00    -0.000 C 
BRANCH   9  10
ATOM     10  C   UNL     1       0.534  -1.415  -8.716  1.00  0.00    -0.003 C 
ATOM     11  C   UNL     1       1.952  -1.607  -9.253  1.00  0.00     0.004 C 
ENDBRANCH   9  10
ENDBRANCH   8   9
ENDBRANCH   1   8
TORSDOF 6
ENDMDL
MODEL 3
REMARK VINA RESULT:    -3.774      2.981      4.291
REMARK INTER + INTRA:          -5.812
REMARK INTER:                  -5.173
REMARK INTRA:                  -0.639
REMARK UNBOUND:                -0.714
REMARK SMILES CCCCCCC=CC(=O)[O-]
REMARK SMILES IDX 5 1 6 2 7 3 8 4 9 5 10 6 11 7 4 8 3 9 2 10 1 11
REMARK H PARENT
REMARK Flexibility Score: inf
ROOT
ATOM      1  C   UNL     1       2.608  -2.773  -6.648  1.00  0.00     0.004 C 
ENDROOT
BRANCH   1   2
ATOM      2  C   UNL     1       1.869  -1.597  -5.989  1.00  0.00     0.027 C 
BRANCH   2   3
ATOM      3  C   UNL     1       0.732  -1.121  -6.847  1.00  0.00    -0.025 C 
ATOM      4  C   UNL     1       0.891  -0.896  -8.155  1.00  0.00     0.020 C 
BRANCH   4   5
ATOM      5  C   UNL     1      -0.204  -0.415  -9.012  1.00  0.00     0.064 C 
ATOM      6  O   UNL     1      -1.326  -0.988  -9.018  1.00  0.00    -0.545 OA
ATOM      7  O   UNL     1       0.002   0.688  -9.829  1.00  0.00    -0.545 OA
ENDBRANCH   4   5
ENDBRANCH   2   3
ENDBRANCH   1   2
BRANCH   1   8
ATOM      8  C   UNL     1       2.142  -4.142  -6.120  1.00  0.00     0.000 C 
BRANCH   8   9
ATOM      9  C   UNL     1       0.829  -4.667  -6.731  1.00  0.00    -0.000 C 
BRANCH   9  10
ATOM     10  C   UNL     1       0.944  -5.178  -8.179  1.00  0.00    -0.003 C 
ATOM     11  C   UNL     1       0.147  -4.334  -9.173  1.00  0.00     0.004 C 
ENDBRANCH   9  10
ENDBRANCH   8   9
ENDBRANCH   1   8
TORSDOF 6
ENDMDL
MODEL 4
REMARK VINA RESULT:    -3.651      2.798      4.564
REMARK INTER + INTRA:          -5.646
REMARK INTER:                  -4.958
REMARK INTRA:                  -0.687
REMARK UNBOUND:                -0.714
REMARK SMILES CCCCCCC=CC(=O)[O-]
REMARK SMILES IDX 5 1 6 2 7 3 8 4 9 5 10 6 11 7 4 8 3 9 2 10 1 11
REMARK H PARENT
REMARK Flexibility Score: inf
ROOT
ATOM      1  C   UNL     1       1.325  -4.889  -7.867  1.00  0.00     0.004 C 
ENDROOT
BRANCH   1   2
ATOM      2  C   UNL     1       2.376  -4.837  -8.987  1.00  0.00     0.027 C 
BRANCH   2   3
ATOM      3  C   UNL     1       3.225  -3.604  -8.877  1.00  0.00    -0.025 C 
ATOM      4  C   UNL     1       2.903  -2.474  -9.517  1.00  0.00     0.020 C 
BRANCH   4   5
ATOM      5  C   UNL     1       3.728  -1.259  -9.437  1.00  0.00     0.064 C 
ATOM      6  O   UNL     1       4.936  -1.314  -9.081  1.00  0.00    -0.545 OA
ATOM      7  O   UNL     1       3.168  -0.030  -9.756  1.00  0.00    -0.545 OA
ENDBRANCH   4   5
ENDBRANCH   2   3
ENDBRANCH   1   2
BRANCH   1   8
ATOM      8  C   UNL     1       1.898  -4.503  -6.492  1.00  0.00     0.000 C 
BRANCH   8   9
ATOM      9  C   UNL     1       1.163  -3.352  -5.776  1.00  0.00    -0.000 C 
BRANCH   9  10
ATOM     10  C   UNL     1       1.715  -1.946  -6.070  1.00  0.00    -0.003 C 
ATOM     11  C   UNL     1       0.769  -1.102  -6.925  1.00  0.00     0.004 C 
ENDBRANCH   9  10
ENDBRANCH   8   9
ENDBRANCH   1   8
TORSDOF 6
ENDMDL
MODEL 5
REMARK VINA RESULT:    -3.474      1.964      2.328
REMARK INTER + INTRA:          -5.407
REMARK INTER:                  -5.075
REMARK INTRA:                  -0.332
REMARK UNBOUND:                -0.714
REMARK SMILES CCCCCCC=CC(=O)[O-]
REMARK SMILES IDX 5 1 6 2 7 3 8 4 9 5 10 6 11 7 4 8 3 9 2 10 1 11
REMARK H PARENT
REMARK Flexibility Score: inf
ROOT
ATOM      1  C   UNL     1       0.120  -0.791  -8.351  1.00  0.00     0.004 C 
ENDROOT
BRANCH   1   2
ATOM      2  C   UNL     1       0.733  -1.261  -7.022  1.00  0.00     0.027 C 
BRANCH   2   3
ATOM      3  C   UNL     1       1.038  -2.731  -7.055  1.00  0.00    -0.025 C 
ATOM      4  C   UNL     1       2.223  -3.207  -6.658  1.00  0.00     0.020 C 
BRANCH   4   5
ATOM      5  C   UNL     1       2.550  -4.641  -6.696  1.00  0.00     0.064 C 
ATOM      6  O   UNL     1       2.647  -5.315  -5.636  1.00  0.00    -0.545 OA
ATOM      7  O   UNL     1       2.757  -5.263  -7.920  1.00  0.00    -0.545 OA
ENDBRANCH   4   5
ENDBRANCH   2   3
ENDBRANCH   1   2
BRANCH   1   8
ATOM      8  C   UNL     1      -0.441  -1.951  -9.192  1.00  0.00     0.000 C 
BRANCH   8   9
ATOM      9  C   UNL     1      -1.792  -1.668  -9.880  1.00  0.00    -0.000 C 
BRANCH   9  10
ATOM     10  C   UNL     1      -2.628  -0.549  -9.234  1.00  0.00    -0.003 C 
ATOM     11  C   UNL     1      -4.109  -0.909  -9.110  1.00  0.00     0.004 C 
ENDBRANCH   9  10
ENDBRANCH   8   9
ENDBRANCH   1   8
TORSDOF 6
ENDMDL
MODEL 6
REMARK VINA RESULT:    -3.407     15.508     16.875
REMARK INTER + INTRA:          -5.316
REMARK INTER:                  -4.932
REMARK INTRA:                  -0.384
REMARK UNBOUND:                -0.714
REMARK SMILES CCCCCCC=CC(=O)[O-]
REMARK SMILES IDX 5 1 6 2 7 3 8 4 9 5 10 6 11 7 4 8 3 9 2 10 1 11
REMARK H PARENT
REMARK Flexibility Score: inf
ROOT
ATOM      1  C   UNL     1       9.666   7.828   4.566  1.00  0.00     0.004 C 
ENDROOT
BRANCH   1   2
ATOM      2  C   UNL     1       9.782   6.491   3.816  1.00  0.00     0.027 C 
BRANCH   2   3
ATOM      3  C   UNL     1       9.015   5.408   4.518  1.00  0.00    -0.025 C 
ATOM      4  C   UNL     1       9.092   4.131   4.126  1.00  0.00     0.020 C 
BRANCH   4   5
ATOM      5  C   UNL     1       8.338   3.056   4.788  1.00  0.00     0.064 C 
ATOM      6  O   UNL     1       8.841   1.910   4.947  1.00  0.00    -0.545 OA
ATOM      7  O   UNL     1       7.051   3.304   5.246  1.00  0.00    -0.545 OA
ENDBRANCH   4   5
ENDBRANCH   2   3
ENDBRANCH   1   2
BRANCH   1   8
ATOM      8  C   UNL     1       8.206   8.243   4.824  1.00  0.00     0.000 C 
BRANCH   8   9
ATOM      9  C   UNL     1       7.736   9.494   4.055  1.00  0.00    -0.000 C 
BRANCH   9  10
ATOM     10  C   UNL     1       8.770  10.087   3.082  1.00  0.00    -0.003 C 
ATOM     11  C   UNL     1       8.397   9.877   1.615  1.00  0.00     0.004 C 
ENDBRANCH   9  10
ENDBRANCH   8   9
ENDBRANCH   1   8
TORSDOF 6
ENDMDL
MODEL 7
REMARK VINA RESULT:    -3.304     12.378     13.927
REMARK INTER + INTRA:          -5.176
REMARK INTER:                  -4.659
REMARK INTRA:                  -0.517
REMARK UNBOUND:                -0.714
REMARK SMILES CCCCCCC=CC(=O)[O-]
REMARK SMILES IDX 5 1 6 2 7 3 8 4 9 5 10 6 11 7 4 8 3 9 2 10 1 11
REMARK H PARENT
REMARK Flexibility Score: inf
ROOT
ATOM      1  C   UNL     1      -5.228  -8.994   2.736  1.00  0.00     0.004 C 
ENDROOT
BRANCH   1   2
ATOM      2  C   UNL     1      -6.594  -9.015   2.033  1.00  0.00     0.027 C 
BRANCH   2   3
ATOM      3  C   UNL     1      -6.807  -7.769   1.224  1.00  0.00    -0.025 C 
ATOM      4  C   UNL     1      -7.091  -7.823  -0.082  1.00  0.00     0.020 C 
BRANCH   4   5
ATOM      5  C   UNL     1      -7.289  -6.615  -0.898  1.00  0.00     0.064 C 
ATOM      6  O   UNL     1      -6.734  -5.525  -0.593  1.00  0.00    -0.545 OA
ATOM      7  O   UNL     1      -8.100  -6.675  -2.023  1.00  0.00    -0.545 OA
ENDBRANCH   4   5
ENDBRANCH   2   3
ENDBRANCH   1   2
BRANCH   1   8
ATOM      8  C   UNL     1      -5.332  -9.253   4.250  1.00  0.00     0.000 C 
BRANCH   8   9
ATOM      9  C   UNL     1      -6.003  -8.127   5.062  1.00  0.00    -0.000 C 
BRANCH   9  10
ATOM     10  C   UNL     1      -5.467  -6.712   4.777  1.00  0.00    -0.003 C 
ATOM     11  C   UNL     1      -6.557  -5.746   4.313  1.00  0.00     0.004 C 
ENDBRANCH   9  10
ENDBRANCH   8   9
ENDBRANCH   1   8
TORSDOF 6
ENDMDL
MODEL 8
REMARK VINA RESULT:    -3.283      3.343      4.739
REMARK INTER + INTRA:          -5.149
REMARK INTER:                  -4.672
REMARK INTRA:                  -0.477
REMARK UNBOUND:                -0.714
REMARK SMILES CCCCCCC=CC(=O)[O-]
REMARK SMILES IDX 5 1 6 2 7 3 8 4 9 5 10 6 11 7 4 8 3 9 2 10 1 11
REMARK H PARENT
REMARK Flexibility Score: inf
ROOT
ATOM      1  C   UNL     1       2.721  -2.080  -7.763  1.00  0.00     0.004 C 
ENDROOT
BRANCH   1   2
ATOM      2  C   UNL     1       2.102  -1.125  -8.796  1.00  0.00     0.027 C 
BRANCH   2   3
ATOM      3  C   UNL     1       0.653  -1.443  -9.028  1.00  0.00    -0.025 C 
ATOM      4  C   UNL     1      -0.294  -0.504  -8.920  1.00  0.00     0.020 C 
BRANCH   4   5
ATOM      5  C   UNL     1      -1.720  -0.795  -9.128  1.00  0.00     0.064 C 
ATOM      6  O   UNL     1      -2.092  -1.828  -9.747  1.00  0.00    -0.545 OA
ATOM      7  O   UNL     1      -2.676   0.084  -8.635  1.00  0.00    -0.545 OA
ENDBRANCH   4   5
ENDBRANCH   2   3
ENDBRANCH   1   2
BRANCH   1   8
ATOM      8  C   UNL     1       2.113  -1.917  -6.359  1.00  0.00     0.000 C 
BRANCH   8   9
ATOM      9  C   UNL     1       1.182  -3.062  -5.911  1.00  0.00    -0.000 C 
BRANCH   9  10
ATOM     10  C   UNL     1       1.581  -4.459  -6.419  1.00  0.00    -0.003 C 
ATOM     11  C   UNL     1       0.675  -4.965  -7.541  1.00  0.00     0.004 C 
ENDBRANCH   9  10
ENDBRANCH   8   9
ENDBRANCH   1   8
TORSDOF 6
ENDMDL
MODEL 9
REMARK VINA RESULT:    -3.250     16.321     17.623
REMARK INTER + INTRA:          -5.104
REMARK INTER:                  -4.829
REMARK INTRA:                  -0.275
REMARK UNBOUND:                -0.714
REMARK SMILES CCCCCCC=CC(=O)[O-]
REMARK SMILES IDX 5 1 6 2 7 3 8 4 9 5 10 6 11 7 4 8 3 9 2 10 1 11
REMARK H PARENT
REMARK Flexibility Score: inf
ROOT
ATOM      1  C   UNL     1       8.424   3.333   5.644  1.00  0.00     0.004 C 
ENDROOT
BRANCH   1   2
ATOM      2  C   UNL     1       9.575   3.347   6.662  1.00  0.00     0.027 C 
BRANCH   2   3
ATOM      3  C   UNL     1       9.181   2.657   7.936  1.00  0.00    -0.025 C 
ATOM      4  C   UNL     1       8.072   1.913   8.013  1.00  0.00     0.020 C 
BRANCH   4   5
ATOM      5  C   UNL     1       7.658   1.241   9.254  1.00  0.00     0.064 C 
ATOM      6  O   UNL     1       8.505   0.885  10.117  1.00  0.00    -0.545 OA
ATOM      7  O   UNL     1       6.311   0.992   9.480  1.00  0.00    -0.545 OA
ENDBRANCH   4   5
ENDBRANCH   2   3
ENDBRANCH   1   2
BRANCH   1   8
ATOM      8  C   UNL     1       8.648   4.311   4.476  1.00  0.00     0.000 C 
BRANCH   8   9
ATOM      9  C   UNL     1       9.768   5.347   4.696  1.00  0.00    -0.000 C 
BRANCH   9  10
ATOM     10  C   UNL     1       9.602   6.660   3.910  1.00  0.00    -0.003 C 
ATOM     11  C   UNL     1       9.740   7.902   4.791  1.00  0.00     0.004 C 
ENDBRANCH   9  10
ENDBRANCH   8   9
ENDBRANCH   1   8
TORSDOF 6
ENDMDL
