MODEL 1
REMARK VINA RESULT:    -3.125      0.000      0.000
REMARK INTER + INTRA:          -3.713
REMARK INTER:                  -3.673
REMARK INTRA:                  -0.040
REMARK UNBOUND:                -0.040
REMARK SMILES CCCCC(=O)[O-]
REMARK SMILES IDX 4 1 5 2 6 3 7 4 3 5 2 6 1 7
REMARK H PARENT
REMARK Flexibility Score: inf
ROOT
ATOM      1  C   UNL     1      26.984   6.375  14.894  1.00  0.00     0.053 C 
ENDROOT
BRANCH   1   2
ATOM      2  C   UNL     1      27.151   6.395  13.405  1.00  0.00     0.041 C 
ATOM      3  O   UNL     1      26.620   5.499  12.696  1.00  0.00    -0.550 OA
ATOM      4  O   UNL     1      27.862   7.421  12.795  1.00  0.00    -0.550 OA
ENDBRANCH   1   2
BRANCH   1   5
ATOM      5  C   UNL     1      25.542   6.052  15.320  1.00  0.00     0.006 C 
BRANCH   5   6
ATOM      6  C   UNL     1      24.695   7.295  15.647  1.00  0.00    -0.003 C 
ATOM      7  C   UNL     1      23.444   6.973  16.464  1.00  0.00     0.004 C 
ENDBRANCH   5   6
ENDBRANCH   1   5
TORSDOF 3
ENDMDL
MODEL 2
REMARK VINA RESULT:    -3.100      2.552      3.640
REMARK INTER + INTRA:          -3.684
REMARK INTER:                  -3.668
REMARK INTRA:                  -0.016
REMARK UNBOUND:                -0.040
REMARK SMILES CCCCC(=O)[O-]
REMARK SMILES IDX 4 1 5 2 6 3 7 4 3 5 2 6 1 7
REMARK H PARENT
REMARK Flexibility Score: inf
ROOT
ATOM      1  C   UNL     1      27.817   5.938  14.505  1.00  0.00     0.053 C 
ENDROOT
BRANCH   1   2
ATOM      2  C   UNL     1      27.258   6.877  13.480  1.00  0.00     0.041 C 
ATOM      3  O   UNL     1      26.018   7.097  13.433  1.00  0.00    -0.550 OA
ATOM      4  O   UNL     1      28.106   7.536  12.600  1.00  0.00    -0.550 OA
ENDBRANCH   1   2
BRANCH   1   5
ATOM      5  C   UNL     1      28.885   6.601  15.391  1.00  0.00     0.006 C 
BRANCH   5   6
ATOM      6  C   UNL     1      29.275   5.769  16.626  1.00  0.00    -0.003 C 
ATOM      7  C   UNL     1      30.583   6.227  17.271  1.00  0.00     0.004 C 
ENDBRANCH   5   6
ENDBRANCH   1   5
TORSDOF 3
ENDMDL
MODEL 3
REMARK VINA RESULT:    -3.075      5.357      6.260
REMARK INTER + INTRA:          -3.654
REMARK INTER:                  -3.606
REMARK INTRA:                  -0.049
REMARK UNBOUND:                -0.040
REMARK SMILES CCCCC(=O)[O-]
REMARK SMILES IDX 4 1 5 2 6 3 7 4 3 5 2 6 1 7
REMARK H PARENT
REMARK Flexibility Score: inf
ROOT
ATOM      1  C   UNL     1      22.082   6.431  12.224  1.00  0.00     0.053 C 
ENDROOT
BRANCH   1   2
ATOM      2  C   UNL     1      20.987   7.262  12.822  1.00  0.00     0.041 C 
ATOM      3  O   UNL     1      20.641   7.085  14.020  1.00  0.00    -0.550 OA
ATOM      4  O   UNL     1      20.372   8.253  12.068  1.00  0.00    -0.550 OA
ENDBRANCH   1   2
BRANCH   1   5
ATOM      5  C   UNL     1      23.160   7.285  11.536  1.00  0.00     0.006 C 
BRANCH   5   6
ATOM      6  C   UNL     1      23.145   7.191  10.000  1.00  0.00    -0.003 C 
ATOM      7  C   UNL     1      24.500   6.805   9.407  1.00  0.00     0.004 C 
ENDBRANCH   5   6
ENDBRANCH   1   5
TORSDOF 3
ENDMDL
MODEL 4
REMARK VINA RESULT:    -3.020      5.284      6.233
REMARK INTER + INTRA:          -3.589
REMARK INTER:                  -3.508
REMARK INTRA:                  -0.081
REMARK UNBOUND:                -0.040
REMARK SMILES CCCCC(=O)[O-]
REMARK SMILES IDX 4 1 5 2 6 3 7 4 3 5 2 6 1 7
REMARK H PARENT
REMARK Flexibility Score: inf
ROOT
ATOM      1  C   UNL     1      23.803   6.681  10.874  1.00  0.00     0.053 C 
ENDROOT
BRANCH   1   2
ATOM      2  C   UNL     1      22.579   7.539  10.988  1.00  0.00     0.041 C 
ATOM      3  O   UNL     1      22.148   8.163   9.982  1.00  0.00    -0.550 OA
ATOM      4  O   UNL     1      21.896   7.624  12.194  1.00  0.00    -0.550 OA
ENDBRANCH   1   2
BRANCH   1   5
ATOM      5  C   UNL     1      24.438   6.744   9.475  1.00  0.00     0.006 C 
BRANCH   5   6
ATOM      6  C   UNL     1      24.066   5.557   8.568  1.00  0.00    -0.003 C 
ATOM      7  C   UNL     1      23.585   4.333   9.346  1.00  0.00     0.004 C 
ENDBRANCH   5   6
ENDBRANCH   1   5
TORSDOF 3
ENDMDL
MODEL 5
REMARK VINA RESULT:    -3.003      7.798      8.199
REMARK INTER + INTRA:          -3.569
REMARK INTER:                  -3.553
REMARK INTRA:                  -0.016
REMARK UNBOUND:                -0.040
REMARK SMILES CCCCC(=O)[O-]
REMARK SMILES IDX 4 1 5 2 6 3 7 4 3 5 2 6 1 7
REMARK H PARENT
REMARK Flexibility Score: inf
ROOT
ATOM      1  C   UNL     1      20.384   6.471  10.159  1.00  0.00     0.053 C 
ENDROOT
BRANCH   1   2
ATOM      2  C   UNL     1      21.275   7.497  10.789  1.00  0.00     0.041 C 
ATOM      3  O   UNL     1      22.232   7.992  10.135  1.00  0.00    -0.550 OA
ATOM      4  O   UNL     1      21.031   7.934  12.085  1.00  0.00    -0.550 OA
ENDBRANCH   1   2
BRANCH   1   5
ATOM      5  C   UNL     1      19.115   7.088   9.546  1.00  0.00     0.006 C 
BRANCH   5   6
ATOM      6  C   UNL     1      18.495   6.246   8.417  1.00  0.00    -0.003 C 
ATOM      7  C   UNL     1      17.732   7.085   7.391  1.00  0.00     0.004 C 
ENDBRANCH   5   6
ENDBRANCH   1   5
TORSDOF 3
ENDMDL
MODEL 6
REMARK VINA RESULT:    -2.998      1.758      2.317
REMARK INTER + INTRA:          -3.564
REMARK INTER:                  -3.484
REMARK INTRA:                  -0.080
REMARK UNBOUND:                -0.040
REMARK SMILES CCCCC(=O)[O-]
REMARK SMILES IDX 4 1 5 2 6 3 7 4 3 5 2 6 1 7
REMARK H PARENT
REMARK Flexibility Score: inf
ROOT
ATOM      1  C   UNL     1      24.866   6.105  15.597  1.00  0.00     0.053 C 
ENDROOT
BRANCH   1   2
ATOM      2  C   UNL     1      25.962   6.777  14.827  1.00  0.00     0.041 C 
ATOM      3  O   UNL     1      25.718   7.307  13.710  1.00  0.00    -0.550 OA
ATOM      4  O   UNL     1      27.245   6.848  15.355  1.00  0.00    -0.550 OA
ENDBRANCH   1   2
BRANCH   1   5
ATOM      5  C   UNL     1      23.858   7.108  16.184  1.00  0.00     0.006 C 
BRANCH   5   6
ATOM      6  C   UNL     1      22.387   6.708  15.975  1.00  0.00    -0.003 C 
ATOM      7  C   UNL     1      21.986   6.637  14.502  1.00  0.00     0.004 C 
ENDBRANCH   5   6
ENDBRANCH   1   5
TORSDOF 3
ENDMDL
MODEL 7
REMARK VINA RESULT:    -2.968      9.486      9.997
REMARK INTER + INTRA:          -3.528
REMARK INTER:                  -3.410
REMARK INTRA:                  -0.119
REMARK UNBOUND:                -0.040
REMARK SMILES CCCCC(=O)[O-]
REMARK SMILES IDX 4 1 5 2 6 3 7 4 3 5 2 6 1 7
REMARK H PARENT
REMARK Flexibility Score: inf
ROOT
ATOM      1  C   UNL     1      18.296   6.442   9.387  1.00  0.00     0.053 C 
ENDROOT
BRANCH   1   2
ATOM      2  C   UNL     1      19.043   7.616   9.943  1.00  0.00     0.041 C 
ATOM      3  O   UNL     1      20.302   7.626   9.936  1.00  0.00    -0.550 OA
ATOM      4  O   UNL     1      18.350   8.713  10.438  1.00  0.00    -0.550 OA
ENDBRANCH   1   2
BRANCH   1   5
ATOM      5  C   UNL     1      18.235   6.456   7.851  1.00  0.00     0.006 C 
BRANCH   5   6
ATOM      6  C   UNL     1      17.371   7.591   7.271  1.00  0.00    -0.003 C 
ATOM      7  C   UNL     1      15.942   7.594   7.811  1.00  0.00     0.004 C 
ENDBRANCH   5   6
ENDBRANCH   1   5
TORSDOF 3
ENDMDL
MODEL 8
REMARK VINA RESULT:    -2.967     13.034     13.556
REMARK INTER + INTRA:          -3.527
REMARK INTER:                  -3.490
REMARK INTRA:                  -0.037
REMARK UNBOUND:                -0.040
REMARK SMILES CCCCC(=O)[O-]
REMARK SMILES IDX 4 1 5 2 6 3 7 4 3 5 2 6 1 7
REMARK H PARENT
REMARK Flexibility Score: inf
ROOT
ATOM      1  C   UNL     1      34.832   0.254  21.704  1.00  0.00     0.053 C 
ENDROOT
BRANCH   1   2
ATOM      2  C   UNL     1      35.078  -1.192  22.012  1.00  0.00     0.041 C 
ATOM      3  O   UNL     1      34.320  -1.808  22.807  1.00  0.00    -0.550 OA
ATOM      4  O   UNL     1      36.124  -1.869  21.398  1.00  0.00    -0.550 OA
ENDBRANCH   1   2
BRANCH   1   5
ATOM      5  C   UNL     1      33.851   0.907  22.692  1.00  0.00     0.006 C 
BRANCH   5   6
ATOM      6  C   UNL     1      33.972   2.440  22.769  1.00  0.00    -0.003 C 
ATOM      7  C   UNL     1      35.352   2.956  22.362  1.00  0.00     0.004 C 
ENDBRANCH   5   6
ENDBRANCH   1   5
TORSDOF 3
ENDMDL
MODEL 9
REMARK VINA RESULT:    -2.935      8.481      9.070
REMARK INTER + INTRA:          -3.489
REMARK INTER:                  -3.468
REMARK INTRA:                  -0.021
REMARK UNBOUND:                -0.040
REMARK SMILES CCCCC(=O)[O-]
REMARK SMILES IDX 4 1 5 2 6 3 7 4 3 5 2 6 1 7
REMARK H PARENT
REMARK Flexibility Score: inf
ROOT
ATOM      1  C   UNL     1      19.566   7.070  10.253  1.00  0.00     0.053 C 
ENDROOT
BRANCH   1   2
ATOM      2  C   UNL     1      19.537   7.548  11.673  1.00  0.00     0.041 C 
ATOM      3  O   UNL     1      18.463   7.513  12.331  1.00  0.00    -0.550 OA
ATOM      4  O   UNL     1      20.701   8.001  12.281  1.00  0.00    -0.550 OA
ENDBRANCH   1   2
BRANCH   1   5
ATOM      5  C   UNL     1      18.479   7.730   9.387  1.00  0.00     0.006 C 
BRANCH   5   6
ATOM      6  C   UNL     1      18.100   6.917   8.136  1.00  0.00    -0.003 C 
ATOM      7  C   UNL     1      17.076   7.623   7.248  1.00  0.00     0.004 C 
ENDBRANCH   5   6
ENDBRANCH   1   5
TORSDOF 3
ENDMDL
