MODEL 1
REMARK VINA RESULT:    -3.405      0.000      0.000
REMARK INTER + INTRA:          -7.538
REMARK INTER:                  -6.191
REMARK INTRA:                  -1.347
REMARK UNBOUND:                -1.347
REMARK SMILES CCCCCCCCCCCCCCCC(=O)[O-]
REMARK SMILES IDX 9 1 10 2 11 3 12 4 13 5 14 6 15 7 16 8 17 9 18 10 8 11 7 12
REMARK SMILES IDX 6 13 5 14 4 15 3 16 2 17 1 18
REMARK H PARENT
REMARK Flexibility Score: inf
ROOT
ATOM      1  C   UNL     1      15.712  15.993   7.288  1.00  0.00     0.000 C 
ENDROOT
BRANCH   1   2
ATOM      2  C   UNL     1      16.834  14.945   7.368  1.00  0.00     0.000 C 
BRANCH   2   3
ATOM      3  C   UNL     1      16.299  13.515   7.560  1.00  0.00     0.000 C 
BRANCH   3   4
ATOM      4  C   UNL     1      14.882  13.334   6.994  1.00  0.00     0.000 C 
BRANCH   4   5
ATOM      5  C   UNL     1      13.892  12.797   8.038  1.00  0.00     0.000 C 
BRANCH   5   6
ATOM      6  C   UNL     1      14.376  13.104   9.461  1.00  0.00     0.006 C 
BRANCH   6   7
ATOM      7  C   UNL     1      14.000  11.976  10.426  1.00  0.00     0.053 C 
BRANCH   7   8
ATOM      8  C   UNL     1      15.137  11.676  11.350  1.00  0.00     0.041 C 
ATOM      9  O   UNL     1      16.316  11.636  10.912  1.00  0.00    -0.550 OA
ATOM     10  O   UNL     1      14.899  11.488  12.706  1.00  0.00    -0.550 OA
ENDBRANCH   7   8
ENDBRANCH   6   7
ENDBRANCH   5   6
ENDBRANCH   4   5
ENDBRANCH   3   4
ENDBRANCH   2   3
ENDBRANCH   1   2
BRANCH   1  11
ATOM     11  C   UNL     1      15.814  17.053   8.399  1.00  0.00     0.000 C 
BRANCH  11  12
ATOM     12  C   UNL     1      16.081  16.435   9.781  1.00  0.00    -0.000 C 
BRANCH  12  13
ATOM     13  C   UNL     1      16.903  17.357  10.694  1.00  0.00    -0.000 C 
BRANCH  13  14
ATOM     14  C   UNL     1      16.153  17.645  12.002  1.00  0.00    -0.000 C 
BRANCH  14  15
ATOM     15  C   UNL     1      15.862  19.142  12.211  1.00  0.00    -0.000 C 
BRANCH  15  16
ATOM     16  C   UNL     1      14.940  19.783  11.153  1.00  0.00    -0.000 C 
BRANCH  16  17
ATOM     17  C   UNL     1      13.653  20.415  11.712  1.00  0.00    -0.003 C 
ATOM     18  C   UNL     1      13.133  19.703  12.960  1.00  0.00     0.004 C 
ENDBRANCH  16  17
ENDBRANCH  15  16
ENDBRANCH  14  15
ENDBRANCH  13  14
ENDBRANCH  12  13
ENDBRANCH  11  12
ENDBRANCH   1  11
TORSDOF 14
ENDMDL
MODEL 2
REMARK VINA RESULT:    -3.252      1.194      2.086
REMARK INTER + INTRA:          -7.261
REMARK INTER:                  -6.424
REMARK INTRA:                  -0.837
REMARK UNBOUND:                -1.347
REMARK SMILES CCCCCCCCCCCCCCCC(=O)[O-]
REMARK SMILES IDX 9 1 10 2 11 3 12 4 13 5 14 6 15 7 16 8 17 9 18 10 8 11 7 12
REMARK SMILES IDX 6 13 5 14 4 15 3 16 2 17 1 18
REMARK H PARENT
REMARK Flexibility Score: inf
ROOT
ATOM      1  C   UNL     1      16.206  13.962   7.525  1.00  0.00     0.000 C 
ENDROOT
BRANCH   1   2
ATOM      2  C   UNL     1      14.841  13.493   6.993  1.00  0.00     0.000 C 
BRANCH   2   3
ATOM      3  C   UNL     1      13.999  12.780   8.066  1.00  0.00     0.000 C 
BRANCH   3   4
ATOM      4  C   UNL     1      14.456  13.114   9.494  1.00  0.00     0.000 C 
BRANCH   4   5
ATOM      5  C   UNL     1      13.935  12.108  10.532  1.00  0.00     0.000 C 
BRANCH   5   6
ATOM      6  C   UNL     1      13.762  12.774  11.902  1.00  0.00     0.006 C 
BRANCH   6   7
ATOM      7  C   UNL     1      14.424  11.944  13.005  1.00  0.00     0.053 C 
BRANCH   7   8
ATOM      8  C   UNL     1      15.886  11.784  12.735  1.00  0.00     0.041 C 
ATOM      9  O   UNL     1      16.389  10.634  12.634  1.00  0.00    -0.550 OA
ATOM     10  O   UNL     1      16.686  12.904  12.548  1.00  0.00    -0.550 OA
ENDBRANCH   7   8
ENDBRANCH   6   7
ENDBRANCH   5   6
ENDBRANCH   4   5
ENDBRANCH   3   4
ENDBRANCH   2   3
ENDBRANCH   1   2
BRANCH   1  11
ATOM     11  C   UNL     1      16.395  15.485   7.404  1.00  0.00     0.000 C 
BRANCH  11  12
ATOM     12  C   UNL     1      16.599  16.164   8.767  1.00  0.00    -0.000 C 
BRANCH  12  13
ATOM     13  C   UNL     1      15.615  17.319   9.008  1.00  0.00    -0.000 C 
BRANCH  13  14
ATOM     14  C   UNL     1      16.273  18.440   9.824  1.00  0.00    -0.000 C 
BRANCH  14  15
ATOM     15  C   UNL     1      15.273  19.203  10.712  1.00  0.00    -0.000 C 
BRANCH  15  16
ATOM     16  C   UNL     1      15.744  20.594  11.183  1.00  0.00    -0.000 C 
BRANCH  16  17
ATOM     17  C   UNL     1      14.716  21.380  12.015  1.00  0.00    -0.003 C 
ATOM     18  C   UNL     1      13.303  20.806  11.912  1.00  0.00     0.004 C 
ENDBRANCH  16  17
ENDBRANCH  15  16
ENDBRANCH  14  15
ENDBRANCH  13  14
ENDBRANCH  12  13
ENDBRANCH  11  12
ENDBRANCH   1  11
TORSDOF 14
ENDMDL
MODEL 3
REMARK VINA RESULT:    -3.241      3.499      6.564
REMARK INTER + INTRA:          -7.241
REMARK INTER:                  -5.567
REMARK INTRA:                  -1.674
REMARK UNBOUND:                -1.347
REMARK SMILES CCCCCCCCCCCCCCCC(=O)[O-]
REMARK SMILES IDX 9 1 10 2 11 3 12 4 13 5 14 6 15 7 16 8 17 9 18 10 8 11 7 12
REMARK SMILES IDX 6 13 5 14 4 15 3 16 2 17 1 18
REMARK H PARENT
REMARK Flexibility Score: inf
ROOT
ATOM      1  C   UNL     1      16.408  14.584   7.956  1.00  0.00     0.000 C 
ENDROOT
BRANCH   1   2
ATOM      2  C   UNL     1      15.868  15.943   7.480  1.00  0.00     0.000 C 
BRANCH   2   3
ATOM      3  C   UNL     1      15.549  16.897   8.645  1.00  0.00     0.000 C 
BRANCH   3   4
ATOM      4  C   UNL     1      16.384  16.597   9.899  1.00  0.00     0.000 C 
BRANCH   4   5
ATOM      5  C   UNL     1      16.056  17.539  11.067  1.00  0.00     0.000 C 
BRANCH   5   6
ATOM      6  C   UNL     1      15.158  18.693  10.605  1.00  0.00     0.006 C 
BRANCH   6   7
ATOM      7  C   UNL     1      15.797  20.048  10.921  1.00  0.00     0.053 C 
BRANCH   7   8
ATOM      8  C   UNL     1      14.803  20.957  11.572  1.00  0.00     0.041 C 
ATOM      9  O   UNL     1      15.156  22.098  11.972  1.00  0.00    -0.550 OA
ATOM     10  O   UNL     1      13.476  20.564  11.693  1.00  0.00    -0.550 OA
ENDBRANCH   7   8
ENDBRANCH   6   7
ENDBRANCH   5   6
ENDBRANCH   4   5
ENDBRANCH   3   4
ENDBRANCH   2   3
ENDBRANCH   1   2
BRANCH   1  11
ATOM     11  C   UNL     1      15.739  13.398   7.239  1.00  0.00     0.000 C 
BRANCH  11  12
ATOM     12  C   UNL     1      14.374  13.037   7.845  1.00  0.00    -0.000 C 
BRANCH  12  13
ATOM     13  C   UNL     1      14.320  13.265   9.364  1.00  0.00    -0.000 C 
BRANCH  13  14
ATOM     14  C   UNL     1      14.011  11.957  10.105  1.00  0.00    -0.000 C 
BRANCH  14  15
ATOM     15  C   UNL     1      15.159  11.503  11.025  1.00  0.00    -0.000 C 
BRANCH  15  16
ATOM     16  C   UNL     1      16.386  12.437  11.052  1.00  0.00    -0.000 C 
BRANCH  16  17
ATOM     17  C   UNL     1      16.653  13.118  12.406  1.00  0.00    -0.003 C 
ATOM     18  C   UNL     1      15.607  14.176  12.755  1.00  0.00     0.004 C 
ENDBRANCH  16  17
ENDBRANCH  15  16
ENDBRANCH  14  15
ENDBRANCH  13  14
ENDBRANCH  12  13
ENDBRANCH  11  12
ENDBRANCH   1  11
TORSDOF 14
ENDMDL
MODEL 4
REMARK VINA RESULT:    -3.198      3.462      6.909
REMARK INTER + INTRA:          -7.163
REMARK INTER:                  -5.512
REMARK INTRA:                  -1.651
REMARK UNBOUND:                -1.347
REMARK SMILES CCCCCCCCCCCCCCCC(=O)[O-]
REMARK SMILES IDX 9 1 10 2 11 3 12 4 13 5 14 6 15 7 16 8 17 9 18 10 8 11 7 12
REMARK SMILES IDX 6 13 5 14 4 15 3 16 2 17 1 18
REMARK H PARENT
REMARK Flexibility Score: inf
ROOT
ATOM      1  C   UNL     1      16.834  15.659  10.535  1.00  0.00     0.000 C 
ENDROOT
BRANCH   1   2
ATOM      2  C   UNL     1      16.102  16.333   9.362  1.00  0.00     0.000 C 
BRANCH   2   3
ATOM      3  C   UNL     1      15.593  17.743   9.711  1.00  0.00     0.000 C 
BRANCH   3   4
ATOM      4  C   UNL     1      16.545  18.850   9.230  1.00  0.00     0.000 C 
BRANCH   4   5
ATOM      5  C   UNL     1      16.916  19.836  10.348  1.00  0.00     0.000 C 
BRANCH   5   6
ATOM      6  C   UNL     1      15.898  19.775  11.493  1.00  0.00     0.006 C 
BRANCH   6   7
ATOM      7  C   UNL     1      15.132  21.095  11.620  1.00  0.00     0.053 C 
BRANCH   7   8
ATOM      8  C   UNL     1      13.677  20.837  11.850  1.00  0.00     0.041 C 
ATOM      9  O   UNL     1      12.861  21.796  11.879  1.00  0.00    -0.550 OA
ATOM     10  O   UNL     1      13.214  19.534  11.986  1.00  0.00    -0.550 OA
ENDBRANCH   7   8
ENDBRANCH   6   7
ENDBRANCH   5   6
ENDBRANCH   4   5
ENDBRANCH   3   4
ENDBRANCH   2   3
ENDBRANCH   1   2
BRANCH   1  11
ATOM     11  C   UNL     1      16.356  16.176  11.904  1.00  0.00     0.000 C 
BRANCH  11  12
ATOM     12  C   UNL     1      16.088  15.038  12.902  1.00  0.00    -0.000 C 
BRANCH  12  13
ATOM     13  C   UNL     1      15.844  13.688  12.211  1.00  0.00    -0.000 C 
BRANCH  13  14
ATOM     14  C   UNL     1      14.349  13.337  12.202  1.00  0.00    -0.000 C 
BRANCH  14  15
ATOM     15  C   UNL     1      13.944  12.463  11.001  1.00  0.00    -0.000 C 
BRANCH  15  16
ATOM     16  C   UNL     1      14.787  12.670   9.727  1.00  0.00    -0.000 C 
BRANCH  16  17
ATOM     17  C   UNL     1      13.980  13.021   8.465  1.00  0.00    -0.003 C 
ATOM     18  C   UNL     1      14.864  13.287   7.248  1.00  0.00     0.004 C 
ENDBRANCH  16  17
ENDBRANCH  15  16
ENDBRANCH  14  15
ENDBRANCH  13  14
ENDBRANCH  12  13
ENDBRANCH  11  12
ENDBRANCH   1  11
TORSDOF 14
ENDMDL
MODEL 5
REMARK VINA RESULT:    -3.191      2.976      6.177
REMARK INTER + INTRA:          -7.150
REMARK INTER:                  -5.568
REMARK INTRA:                  -1.582
REMARK UNBOUND:                -1.347
REMARK SMILES CCCCCCCCCCCCCCCC(=O)[O-]
REMARK SMILES IDX 9 1 10 2 11 3 12 4 13 5 14 6 15 7 16 8 17 9 18 10 8 11 7 12
REMARK SMILES IDX 6 13 5 14 4 15 3 16 2 17 1 18
REMARK H PARENT
REMARK Flexibility Score: inf
ROOT
ATOM      1  C   UNL     1      14.888  13.218   7.097  1.00  0.00     0.000 C 
ENDROOT
BRANCH   1   2
ATOM      2  C   UNL     1      16.148  13.854   7.706  1.00  0.00     0.000 C 
BRANCH   2   3
ATOM      3  C   UNL     1      16.507  15.201   7.054  1.00  0.00     0.000 C 
BRANCH   3   4
ATOM      4  C   UNL     1      16.708  16.322   8.086  1.00  0.00     0.000 C 
BRANCH   4   5
ATOM      5  C   UNL     1      16.792  15.792   9.525  1.00  0.00     0.000 C 
BRANCH   5   6
ATOM      6  C   UNL     1      16.270  16.832  10.524  1.00  0.00     0.006 C 
BRANCH   6   7
ATOM      7  C   UNL     1      15.545  17.972   9.803  1.00  0.00     0.053 C 
BRANCH   7   8
ATOM      8  C   UNL     1      15.314  19.119  10.735  1.00  0.00     0.041 C 
ATOM      9  O   UNL     1      16.043  20.143  10.672  1.00  0.00    -0.550 OA
ATOM     10  O   UNL     1      14.262  19.077  11.642  1.00  0.00    -0.550 OA
ENDBRANCH   7   8
ENDBRANCH   6   7
ENDBRANCH   5   6
ENDBRANCH   4   5
ENDBRANCH   3   4
ENDBRANCH   2   3
ENDBRANCH   1   2
BRANCH   1  11
ATOM     11  C   UNL     1      13.858  12.808   8.165  1.00  0.00     0.000 C 
BRANCH  11  12
ATOM     12  C   UNL     1      14.336  13.115   9.593  1.00  0.00    -0.000 C 
BRANCH  12  13
ATOM     13  C   UNL     1      13.790  12.120  10.628  1.00  0.00    -0.000 C 
BRANCH  13  14
ATOM     14  C   UNL     1      14.130  12.570  12.055  1.00  0.00    -0.000 C 
BRANCH  14  15
ATOM     15  C   UNL     1      15.418  13.411  12.128  1.00  0.00    -0.000 C 
BRANCH  15  16
ATOM     16  C   UNL     1      16.711  12.609  12.379  1.00  0.00    -0.000 C 
BRANCH  16  17
ATOM     17  C   UNL     1      16.498  11.118  12.696  1.00  0.00    -0.003 C 
ATOM     18  C   UNL     1      17.124  10.194  11.653  1.00  0.00     0.004 C 
ENDBRANCH  16  17
ENDBRANCH  15  16
ENDBRANCH  14  15
ENDBRANCH  13  14
ENDBRANCH  12  13
ENDBRANCH  11  12
ENDBRANCH   1  11
TORSDOF 14
ENDMDL
MODEL 6
REMARK VINA RESULT:    -2.963      1.547      2.116
REMARK INTER + INTRA:          -6.736
REMARK INTER:                  -5.209
REMARK INTRA:                  -1.526
REMARK UNBOUND:                -1.347
REMARK SMILES CCCCCCCCCCCCCCCC(=O)[O-]
REMARK SMILES IDX 9 1 10 2 11 3 12 4 13 5 14 6 15 7 16 8 17 9 18 10 8 11 7 12
REMARK SMILES IDX 6 13 5 14 4 15 3 16 2 17 1 18
REMARK H PARENT
REMARK Flexibility Score: inf
ROOT
ATOM      1  C   UNL     1      15.714  16.146   7.610  1.00  0.00     0.000 C 
ENDROOT
BRANCH   1   2
ATOM      2  C   UNL     1      15.812  14.616   7.488  1.00  0.00     0.000 C 
BRANCH   2   3
ATOM      3  C   UNL     1      17.125  14.057   8.066  1.00  0.00     0.000 C 
BRANCH   3   4
ATOM      4  C   UNL     1      16.922  13.346   9.413  1.00  0.00     0.000 C 
BRANCH   4   5
ATOM      5  C   UNL     1      16.981  14.312  10.606  1.00  0.00     0.000 C 
BRANCH   5   6
ATOM      6  C   UNL     1      15.817  14.061  11.572  1.00  0.00     0.006 C 
BRANCH   6   7
ATOM      7  C   UNL     1      15.487  12.568  11.661  1.00  0.00     0.053 C 
BRANCH   7   8
ATOM      8  C   UNL     1      14.053  12.326  11.313  1.00  0.00     0.041 C 
ATOM      9  O   UNL     1      13.142  12.664  12.113  1.00  0.00    -0.550 OA
ATOM     10  O   UNL     1      13.719  11.771  10.084  1.00  0.00    -0.550 OA
ENDBRANCH   7   8
ENDBRANCH   6   7
ENDBRANCH   5   6
ENDBRANCH   4   5
ENDBRANCH   3   4
ENDBRANCH   2   3
ENDBRANCH   1   2
BRANCH   1  11
ATOM     11  C   UNL     1      17.084  16.809   7.840  1.00  0.00     0.000 C 
BRANCH  11  12
ATOM     12  C   UNL     1      17.018  17.959   8.857  1.00  0.00    -0.000 C 
BRANCH  12  13
ATOM     13  C   UNL     1      15.746  17.918   9.718  1.00  0.00    -0.000 C 
BRANCH  13  14
ATOM     14  C   UNL     1      16.096  17.843  11.211  1.00  0.00    -0.000 C 
BRANCH  14  15
ATOM     15  C   UNL     1      15.680  19.105  11.989  1.00  0.00    -0.000 C 
BRANCH  15  16
ATOM     16  C   UNL     1      14.772  20.082  11.216  1.00  0.00    -0.000 C 
BRANCH  16  17
ATOM     17  C   UNL     1      13.441  20.419  11.910  1.00  0.00    -0.003 C 
ATOM     18  C   UNL     1      13.143  21.917  11.930  1.00  0.00     0.004 C 
ENDBRANCH  16  17
ENDBRANCH  15  16
ENDBRANCH  14  15
ENDBRANCH  13  14
ENDBRANCH  12  13
ENDBRANCH  11  12
ENDBRANCH   1  11
TORSDOF 14
ENDMDL
MODEL 7
REMARK VINA RESULT:    -2.925      1.830      2.793
REMARK INTER + INTRA:          -6.667
REMARK INTER:                  -5.464
REMARK INTRA:                  -1.203
REMARK UNBOUND:                -1.347
REMARK SMILES CCCCCCCCCCCCCCCC(=O)[O-]
REMARK SMILES IDX 9 1 10 2 11 3 12 4 13 5 14 6 15 7 16 8 17 9 18 10 8 11 7 12
REMARK SMILES IDX 6 13 5 14 4 15 3 16 2 17 1 18
REMARK H PARENT
REMARK Flexibility Score: inf
ROOT
ATOM      1  C   UNL     1      15.827  15.655   8.862  1.00  0.00     0.000 C 
ENDROOT
BRANCH   1   2
ATOM      2  C   UNL     1      16.943  15.362   9.879  1.00  0.00     0.000 C 
BRANCH   2   3
ATOM      3  C   UNL     1      16.508  15.627  11.331  1.00  0.00     0.000 C 
BRANCH   3   4
ATOM      4  C   UNL     1      16.705  14.403  12.239  1.00  0.00     0.000 C 
BRANCH   4   5
ATOM      5  C   UNL     1      16.908  13.104  11.445  1.00  0.00     0.000 C 
BRANCH   5   6
ATOM      6  C   UNL     1      16.090  11.958  12.050  1.00  0.00     0.006 C 
BRANCH   6   7
ATOM      7  C   UNL     1      15.207  11.293  10.990  1.00  0.00     0.053 C 
BRANCH   7   8
ATOM      8  C   UNL     1      14.111  12.217  10.565  1.00  0.00     0.041 C 
ATOM      9  O   UNL     1      13.377  12.768  11.427  1.00  0.00    -0.550 OA
ATOM     10  O   UNL     1      13.930  12.508   9.218  1.00  0.00    -0.550 OA
ENDBRANCH   7   8
ENDBRANCH   6   7
ENDBRANCH   5   6
ENDBRANCH   4   5
ENDBRANCH   3   4
ENDBRANCH   2   3
ENDBRANCH   1   2
BRANCH   1  11
ATOM     11  C   UNL     1      15.500  17.156   8.761  1.00  0.00     0.000 C 
BRANCH  11  12
ATOM     12  C   UNL     1      16.761  18.033   8.728  1.00  0.00    -0.000 C 
BRANCH  12  13
ATOM     13  C   UNL     1      16.635  19.286   9.609  1.00  0.00    -0.000 C 
BRANCH  13  14
ATOM     14  C   UNL     1      15.402  19.195  10.518  1.00  0.00    -0.000 C 
BRANCH  14  15
ATOM     15  C   UNL     1      15.470  20.156  11.720  1.00  0.00    -0.000 C 
BRANCH  15  16
ATOM     16  C   UNL     1      14.532  21.377  11.637  1.00  0.00    -0.000 C 
BRANCH  16  17
ATOM     17  C   UNL     1      13.216  21.240  12.423  1.00  0.00    -0.003 C 
ATOM     18  C   UNL     1      13.032  19.852  13.036  1.00  0.00     0.004 C 
ENDBRANCH  16  17
ENDBRANCH  15  16
ENDBRANCH  14  15
ENDBRANCH  13  14
ENDBRANCH  12  13
ENDBRANCH  11  12
ENDBRANCH   1  11
TORSDOF 14
ENDMDL
MODEL 8
REMARK VINA RESULT:    -2.871      3.415      7.089
REMARK INTER + INTRA:          -6.567
REMARK INTER:                  -5.111
REMARK INTRA:                  -1.456
REMARK UNBOUND:                -1.347
REMARK SMILES CCCCCCCCCCCCCCCC(=O)[O-]
REMARK SMILES IDX 9 1 10 2 11 3 12 4 13 5 14 6 15 7 16 8 17 9 18 10 8 11 7 12
REMARK SMILES IDX 6 13 5 14 4 15 3 16 2 17 1 18
REMARK H PARENT
REMARK Flexibility Score: inf
ROOT
ATOM      1  C   UNL     1      16.525  14.615  12.640  1.00  0.00     0.000 C 
ENDROOT
BRANCH   1   2
ATOM      2  C   UNL     1      16.299  16.046  12.126  1.00  0.00     0.000 C 
BRANCH   2   3
ATOM      3  C   UNL     1      16.430  16.156  10.596  1.00  0.00     0.000 C 
BRANCH   3   4
ATOM      4  C   UNL     1      16.336  17.607  10.098  1.00  0.00     0.000 C 
BRANCH   4   5
ATOM      5  C   UNL     1      16.284  18.624  11.247  1.00  0.00     0.000 C 
BRANCH   5   6
ATOM      6  C   UNL     1      15.631  19.934  10.791  1.00  0.00     0.006 C 
BRANCH   6   7
ATOM      7  C   UNL     1      15.099  20.730  11.986  1.00  0.00     0.053 C 
BRANCH   7   8
ATOM      8  C   UNL     1      13.604  20.721  12.000  1.00  0.00     0.041 C 
ATOM      9  O   UNL     1      12.979  19.645  12.194  1.00  0.00    -0.550 OA
ATOM     10  O   UNL     1      12.899  21.908  11.847  1.00  0.00    -0.550 OA
ENDBRANCH   7   8
ENDBRANCH   6   7
ENDBRANCH   5   6
ENDBRANCH   4   5
ENDBRANCH   3   4
ENDBRANCH   2   3
ENDBRANCH   1   2
BRANCH   1  11
ATOM     11  C   UNL     1      16.382  13.559  11.529  1.00  0.00     0.000 C 
BRANCH  11  12
ATOM     12  C   UNL     1      15.091  12.736  11.661  1.00  0.00    -0.000 C 
BRANCH  12  13
ATOM     13  C   UNL     1      14.550  12.259  10.305  1.00  0.00    -0.000 C 
BRANCH  13  14
ATOM     14  C   UNL     1      14.274  13.449   9.375  1.00  0.00    -0.000 C 
BRANCH  14  15
ATOM     15  C   UNL     1      14.108  13.034   7.902  1.00  0.00    -0.000 C 
BRANCH  15  16
ATOM     16  C   UNL     1      15.376  13.174   7.035  1.00  0.00    -0.000 C 
BRANCH  16  17
ATOM     17  C   UNL     1      16.440  14.135   7.593  1.00  0.00    -0.003 C 
ATOM     18  C   UNL     1      16.369  15.528   6.970  1.00  0.00     0.004 C 
ENDBRANCH  16  17
ENDBRANCH  15  16
ENDBRANCH  14  15
ENDBRANCH  13  14
ENDBRANCH  12  13
ENDBRANCH  11  12
ENDBRANCH   1  11
TORSDOF 14
ENDMDL
MODEL 9
REMARK VINA RESULT:    -2.864      3.495      6.692
REMARK INTER + INTRA:          -6.555
REMARK INTER:                  -4.825
REMARK INTRA:                  -1.730
REMARK UNBOUND:                -1.347
REMARK SMILES CCCCCCCCCCCCCCCC(=O)[O-]
REMARK SMILES IDX 9 1 10 2 11 3 12 4 13 5 14 6 15 7 16 8 17 9 18 10 8 11 7 12
REMARK SMILES IDX 6 13 5 14 4 15 3 16 2 17 1 18
REMARK H PARENT
REMARK Flexibility Score: inf
ROOT
ATOM      1  C   UNL     1      16.766  15.239   9.770  1.00  0.00     0.000 C 
ENDROOT
BRANCH   1   2
ATOM      2  C   UNL     1      15.941  16.169   8.865  1.00  0.00     0.000 C 
BRANCH   2   3
ATOM      3  C   UNL     1      15.663  17.537   9.513  1.00  0.00     0.000 C 
BRANCH   3   4
ATOM      4  C   UNL     1      16.639  18.624   9.038  1.00  0.00     0.000 C 
BRANCH   4   5
ATOM      5  C   UNL     1      16.668  19.842   9.975  1.00  0.00     0.000 C 
BRANCH   5   6
ATOM      6  C   UNL     1      15.950  19.536  11.294  1.00  0.00     0.006 C 
BRANCH   6   7
ATOM      7  C   UNL     1      15.264  20.786  11.851  1.00  0.00     0.053 C 
BRANCH   7   8
ATOM      8  C   UNL     1      13.779  20.609  11.864  1.00  0.00     0.041 C 
ATOM      9  O   UNL     1      13.280  19.468  12.049  1.00  0.00    -0.550 OA
ATOM     10  O   UNL     1      12.946  21.711  11.721  1.00  0.00    -0.550 OA
ENDBRANCH   7   8
ENDBRANCH   6   7
ENDBRANCH   5   6
ENDBRANCH   4   5
ENDBRANCH   3   4
ENDBRANCH   2   3
ENDBRANCH   1   2
BRANCH   1  11
ATOM     11  C   UNL     1      17.072  15.869  11.141  1.00  0.00     0.000 C 
BRANCH  11  12
ATOM     12  C   UNL     1      16.962  14.857  12.292  1.00  0.00    -0.000 C 
BRANCH  12  13
ATOM     13  C   UNL     1      15.586  14.883  12.975  1.00  0.00    -0.000 C 
BRANCH  13  14
ATOM     14  C   UNL     1      14.912  13.506  12.903  1.00  0.00    -0.000 C 
BRANCH  14  15
ATOM     15  C   UNL     1      15.791  12.442  12.219  1.00  0.00    -0.000 C 
BRANCH  15  16
ATOM     16  C   UNL     1      15.299  11.978  10.833  1.00  0.00    -0.000 C 
BRANCH  16  17
ATOM     17  C   UNL     1      14.075  12.737  10.292  1.00  0.00    -0.003 C 
ATOM     18  C   UNL     1      14.056  12.826   8.767  1.00  0.00     0.004 C 
ENDBRANCH  16  17
ENDBRANCH  15  16
ENDBRANCH  14  15
ENDBRANCH  13  14
ENDBRANCH  12  13
ENDBRANCH  11  12
ENDBRANCH   1  11
TORSDOF 14
ENDMDL
