MODEL 1
REMARK VINA RESULT:    -4.827      0.000      0.000
REMARK INTER + INTRA:          -5.621
REMARK INTER:                  -5.532
REMARK INTRA:                  -0.089
REMARK UNBOUND:                -0.089
REMARK SMILES C=Cc1ccc(O)c(OC)c1
REMARK SMILES IDX 8 1 6 2 5 3 4 4 3 5 11 6 9 7 10 8 7 9 2 11 1 12
REMARK H PARENT 7 10
REMARK Flexibility Score: inf
ROOT
ATOM      1  C   UNL     1      41.870 -39.339  -4.026  1.00  0.00     0.161 A 
ATOM      2  C   UNL     1      40.596 -39.640  -4.538  1.00  0.00     0.157 A 
ATOM      3  C   UNL     1      40.426 -40.733  -5.392  1.00  0.00     0.051 A 
ATOM      4  C   UNL     1      41.514 -41.530  -5.748  1.00  0.00     0.012 A 
ATOM      5  C   UNL     1      42.802 -41.240  -5.257  1.00  0.00    -0.022 A 
ATOM      6  C   UNL     1      42.966 -40.149  -4.388  1.00  0.00     0.058 A 
ENDROOT
BRANCH   1   7
ATOM      7  O   UNL     1      42.011 -38.239  -3.166  1.00  0.00    -0.493 OA
ATOM      8  C   UNL     1      43.234 -37.549  -2.928  1.00  0.00     0.278 C 
ENDBRANCH   1   7
BRANCH   2   9
ATOM      9  O   UNL     1      39.485 -38.866  -4.206  1.00  0.00    -0.504 OA
ATOM     10  H   UNL     1      38.572 -39.026  -4.615  1.00  0.00     0.293 HD
ENDBRANCH   2   9
BRANCH   5  11
ATOM     11  C   UNL     1      43.990 -42.061  -5.597  1.00  0.00     0.000 C 
ATOM     12  C   UNL     1      44.101 -42.801  -6.701  1.00  0.00     0.009 C 
ENDBRANCH   5  11
TORSDOF 3
ENDMDL
MODEL 2
REMARK VINA RESULT:    -4.487      1.237      2.730
REMARK INTER + INTRA:          -5.231
REMARK INTER:                  -5.151
REMARK INTRA:                  -0.081
REMARK UNBOUND:                -0.089
REMARK SMILES C=Cc1ccc(O)c(OC)c1
REMARK SMILES IDX 8 1 6 2 5 3 4 4 3 5 11 6 9 7 10 8 7 9 2 11 1 12
REMARK H PARENT 7 10
REMARK Flexibility Score: inf
ROOT
ATOM      1  C   UNL     1      40.497 -40.518  -5.011  1.00  0.00     0.161 A 
ATOM      2  C   UNL     1      40.669 -39.804  -3.813  1.00  0.00     0.157 A 
ATOM      3  C   UNL     1      41.919 -39.777  -3.189  1.00  0.00     0.051 A 
ATOM      4  C   UNL     1      43.003 -40.460  -3.742  1.00  0.00     0.012 A 
ATOM      5  C   UNL     1      42.850 -41.193  -4.934  1.00  0.00    -0.022 A 
ATOM      6  C   UNL     1      41.595 -41.206  -5.567  1.00  0.00     0.058 A 
ENDROOT
BRANCH   1   7
ATOM      7  O   UNL     1      39.232 -40.523  -5.620  1.00  0.00    -0.493 OA
ATOM      8  C   UNL     1      38.796 -39.573  -6.587  1.00  0.00     0.278 C 
ENDBRANCH   1   7
BRANCH   2   9
ATOM      9  O   UNL     1      39.610 -39.110  -3.229  1.00  0.00    -0.504 OA
ATOM     10  H   UNL     1      38.642 -39.329  -3.432  1.00  0.00     0.293 HD
ENDBRANCH   2   9
BRANCH   5  11
ATOM     11  C   UNL     1      43.971 -41.929  -5.569  1.00  0.00     0.000 C 
ATOM     12  C   UNL     1      43.845 -42.706  -6.646  1.00  0.00     0.009 C 
ENDBRANCH   5  11
TORSDOF 3
ENDMDL
MODEL 3
REMARK VINA RESULT:    -4.177      1.825      3.530
REMARK INTER + INTRA:          -4.876
REMARK INTER:                  -4.782
REMARK INTRA:                  -0.094
REMARK UNBOUND:                -0.089
REMARK SMILES C=Cc1ccc(O)c(OC)c1
REMARK SMILES IDX 8 1 6 2 5 3 4 4 3 5 11 6 9 7 10 8 7 9 2 11 1 12
REMARK H PARENT 7 10
REMARK Flexibility Score: inf
ROOT
ATOM      1  C   UNL     1      42.303 -40.007  -4.097  1.00  0.00     0.161 A 
ATOM      2  C   UNL     1      42.731 -40.787  -5.185  1.00  0.00     0.157 A 
ATOM      3  C   UNL     1      41.807 -41.550  -5.904  1.00  0.00     0.051 A 
ATOM      4  C   UNL     1      40.458 -41.550  -5.548  1.00  0.00     0.012 A 
ATOM      5  C   UNL     1      40.009 -40.786  -4.454  1.00  0.00    -0.022 A 
ATOM      6  C   UNL     1      40.939 -40.009  -3.742  1.00  0.00     0.058 A 
ENDROOT
BRANCH   1   7
ATOM      7  O   UNL     1      43.252 -39.245  -3.396  1.00  0.00    -0.493 OA
ATOM      8  C   UNL     1      43.085 -37.878  -3.034  1.00  0.00     0.278 C 
ENDBRANCH   1   7
BRANCH   2   9
ATOM      9  O   UNL     1      44.071 -40.814  -5.570  1.00  0.00    -0.504 OA
ATOM     10  H   UNL     1      44.454 -41.554  -6.146  1.00  0.00     0.293 HD
ENDBRANCH   2   9
BRANCH   5  11
ATOM     11  C   UNL     1      38.585 -40.743  -4.040  1.00  0.00     0.000 C 
ATOM     12  C   UNL     1      37.555 -40.814  -4.885  1.00  0.00     0.009 C 
ENDBRANCH   5  11
TORSDOF 3
ENDMDL
MODEL 4
REMARK VINA RESULT:    -3.610      2.234      3.497
REMARK INTER + INTRA:          -4.226
REMARK INTER:                  -4.143
REMARK INTRA:                  -0.084
REMARK UNBOUND:                -0.089
REMARK SMILES C=Cc1ccc(O)c(OC)c1
REMARK SMILES IDX 8 1 6 2 5 3 4 4 3 5 11 6 9 7 10 8 7 9 2 11 1 12
REMARK H PARENT 7 10
REMARK Flexibility Score: inf
ROOT
ATOM      1  C   UNL     1      42.913 -39.663  -1.630  1.00  0.00     0.161 A 
ATOM      2  C   UNL     1      42.892 -38.279  -1.873  1.00  0.00     0.157 A 
ATOM      3  C   UNL     1      42.739 -37.801  -3.177  1.00  0.00     0.051 A 
ATOM      4  C   UNL     1      42.613 -38.687  -4.247  1.00  0.00     0.012 A 
ATOM      5  C   UNL     1      42.645 -40.078  -4.028  1.00  0.00    -0.022 A 
ATOM      6  C   UNL     1      42.784 -40.555  -2.714  1.00  0.00     0.058 A 
ENDROOT
BRANCH   1   7
ATOM      7  O   UNL     1      43.062 -40.116  -0.309  1.00  0.00    -0.493 OA
ATOM      8  C   UNL     1      42.261 -41.128   0.294  1.00  0.00     0.278 C 
ENDBRANCH   1   7
BRANCH   2   9
ATOM      9  O   UNL     1      43.016 -37.362  -0.830  1.00  0.00    -0.504 OA
ATOM     10  H   UNL     1      43.824 -37.343  -0.219  1.00  0.00     0.293 HD
ENDBRANCH   2   9
BRANCH   5  11
ATOM     11  C   UNL     1      42.506 -41.063  -5.129  1.00  0.00     0.000 C 
ATOM     12  C   UNL     1      41.344 -41.406  -5.687  1.00  0.00     0.009 C 
ENDBRANCH   5  11
TORSDOF 3
ENDMDL
MODEL 5
REMARK VINA RESULT:    -3.597      1.909      3.685
REMARK INTER + INTRA:          -4.212
REMARK INTER:                  -4.117
REMARK INTRA:                  -0.095
REMARK UNBOUND:                -0.089
REMARK SMILES C=Cc1ccc(O)c(OC)c1
REMARK SMILES IDX 8 1 6 2 5 3 4 4 3 5 11 6 9 7 10 8 7 9 2 11 1 12
REMARK H PARENT 7 10
REMARK Flexibility Score: inf
ROOT
ATOM      1  C   UNL     1      41.090 -38.549  -4.274  1.00  0.00     0.161 A 
ATOM      2  C   UNL     1      42.086 -39.528  -4.431  1.00  0.00     0.157 A 
ATOM      3  C   UNL     1      41.755 -40.786  -4.941  1.00  0.00     0.051 A 
ATOM      4  C   UNL     1      40.437 -41.085  -5.291  1.00  0.00     0.012 A 
ATOM      5  C   UNL     1      39.421 -40.124  -5.130  1.00  0.00    -0.022 A 
ATOM      6  C   UNL     1      39.761 -38.855  -4.631  1.00  0.00     0.058 A 
ENDROOT
BRANCH   1   7
ATOM      7  O   UNL     1      41.452 -37.291  -3.766  1.00  0.00    -0.493 OA
ATOM      8  C   UNL     1      41.782 -36.159  -4.565  1.00  0.00     0.278 C 
ENDBRANCH   1   7
BRANCH   2   9
ATOM      9  O   UNL     1      43.413 -39.267  -4.091  1.00  0.00    -0.504 OA
ATOM     10  H   UNL     1      43.830 -39.613  -3.235  1.00  0.00     0.293 HD
ENDBRANCH   2   9
BRANCH   5  11
ATOM     11  C   UNL     1      38.008 -40.386  -5.497  1.00  0.00     0.000 C 
ATOM     12  C   UNL     1      37.153 -41.081  -4.744  1.00  0.00     0.009 C 
ENDBRANCH   5  11
TORSDOF 3
ENDMDL
MODEL 6
REMARK VINA RESULT:    -3.564      2.423      4.151
REMARK INTER + INTRA:          -4.175
REMARK INTER:                  -4.083
REMARK INTRA:                  -0.092
REMARK UNBOUND:                -0.089
REMARK SMILES C=Cc1ccc(O)c(OC)c1
REMARK SMILES IDX 8 1 6 2 5 3 4 4 3 5 11 6 9 7 10 8 7 9 2 11 1 12
REMARK H PARENT 7 10
REMARK Flexibility Score: inf
ROOT
ATOM      1  C   UNL     1      40.931 -40.356  -2.707  1.00  0.00     0.161 A 
ATOM      2  C   UNL     1      41.919 -40.480  -3.700  1.00  0.00     0.157 A 
ATOM      3  C   UNL     1      41.556 -40.796  -5.011  1.00  0.00     0.051 A 
ATOM      4  C   UNL     1      40.217 -40.997  -5.348  1.00  0.00     0.012 A 
ATOM      5  C   UNL     1      39.212 -40.891  -4.367  1.00  0.00    -0.022 A 
ATOM      6  C   UNL     1      39.579 -40.559  -3.052  1.00  0.00     0.058 A 
ENDROOT
BRANCH   1   7
ATOM      7  O   UNL     1      41.323 -40.031  -1.399  1.00  0.00    -0.493 OA
ATOM      8  C   UNL     1      41.347 -40.948  -0.310  1.00  0.00     0.278 C 
ENDBRANCH   1   7
BRANCH   2   9
ATOM      9  O   UNL     1      43.268 -40.287  -3.402  1.00  0.00    -0.504 OA
ATOM     10  H   UNL     1      43.709 -39.377  -3.455  1.00  0.00     0.293 HD
ENDBRANCH   2   9
BRANCH   5  11
ATOM     11  C   UNL     1      37.773 -41.085  -4.674  1.00  0.00     0.000 C 
ATOM     12  C   UNL     1      36.797 -40.290  -4.233  1.00  0.00     0.009 C 
ENDBRANCH   5  11
TORSDOF 3
ENDMDL
MODEL 7
REMARK VINA RESULT:    -3.563      2.581      3.726
REMARK INTER + INTRA:          -4.173
REMARK INTER:                  -4.087
REMARK INTRA:                  -0.087
REMARK UNBOUND:                -0.089
REMARK SMILES C=Cc1ccc(O)c(OC)c1
REMARK SMILES IDX 8 1 6 2 5 3 4 4 3 5 11 6 9 7 10 8 7 9 2 11 1 12
REMARK H PARENT 7 10
REMARK Flexibility Score: inf
ROOT
ATOM      1  C   UNL     1      38.296 -38.449  -5.183  1.00  0.00     0.161 A 
ATOM      2  C   UNL     1      37.196 -39.149  -4.658  1.00  0.00     0.157 A 
ATOM      3  C   UNL     1      37.304 -40.513  -4.378  1.00  0.00     0.051 A 
ATOM      4  C   UNL     1      38.497 -41.195  -4.621  1.00  0.00     0.012 A 
ATOM      5  C   UNL     1      39.608 -40.517  -5.159  1.00  0.00    -0.022 A 
ATOM      6  C   UNL     1      39.500 -39.141  -5.425  1.00  0.00     0.058 A 
ENDROOT
BRANCH   1   7
ATOM      7  O   UNL     1      38.161 -37.077  -5.449  1.00  0.00    -0.493 OA
ATOM      8  C   UNL     1      38.908 -36.050  -4.803  1.00  0.00     0.278 C 
ENDBRANCH   1   7
BRANCH   2   9
ATOM      9  O   UNL     1      35.986 -38.503  -4.403  1.00  0.00    -0.504 OA
ATOM     10  H   UNL     1      35.468 -38.019  -5.126  1.00  0.00     0.293 HD
ENDBRANCH   2   9
BRANCH   5  11
ATOM     11  C   UNL     1      40.903 -41.191  -5.427  1.00  0.00     0.000 C 
ATOM     12  C   UNL     1      42.073 -40.796  -4.924  1.00  0.00     0.009 C 
ENDBRANCH   5  11
TORSDOF 3
ENDMDL
MODEL 8
REMARK VINA RESULT:    -3.482     18.486     19.581
REMARK INTER + INTRA:          -4.080
REMARK INTER:                  -3.990
REMARK INTRA:                  -0.091
REMARK UNBOUND:                -0.089
REMARK SMILES C=Cc1ccc(O)c(OC)c1
REMARK SMILES IDX 8 1 6 2 5 3 4 4 3 5 11 6 9 7 10 8 7 9 2 11 1 12
REMARK H PARENT 7 10
REMARK Flexibility Score: inf
ROOT
ATOM      1  C   UNL     1      28.846 -30.367   4.785  1.00  0.00     0.161 A 
ATOM      2  C   UNL     1      29.123 -29.975   3.464  1.00  0.00     0.157 A 
ATOM      3  C   UNL     1      28.218 -30.275   2.443  1.00  0.00     0.051 A 
ATOM      4  C   UNL     1      27.040 -30.968   2.720  1.00  0.00     0.012 A 
ATOM      5  C   UNL     1      26.748 -31.382   4.034  1.00  0.00    -0.022 A 
ATOM      6  C   UNL     1      27.653 -31.066   5.061  1.00  0.00     0.058 A 
ENDROOT
BRANCH   1   7
ATOM      7  O   UNL     1      29.770 -30.047   5.794  1.00  0.00    -0.493 OA
ATOM      8  C   UNL     1      29.420 -29.679   7.124  1.00  0.00     0.278 C 
ENDBRANCH   1   7
BRANCH   2   9
ATOM      9  O   UNL     1      30.291 -29.282   3.148  1.00  0.00    -0.504 OA
ATOM     10  H   UNL     1      31.202 -29.577   3.478  1.00  0.00     0.293 HD
ENDBRANCH   2   9
BRANCH   5  11
ATOM     11  C   UNL     1      25.505 -32.113   4.384  1.00  0.00     0.000 C 
ATOM     12  C   UNL     1      24.331 -31.931   3.778  1.00  0.00     0.009 C 
ENDBRANCH   5  11
TORSDOF 3
ENDMDL
