MODEL 1
REMARK VINA RESULT:    -4.597      0.000      0.000
REMARK INTER + INTRA:          -6.987
REMARK INTER:                  -7.016
REMARK INTRA:                   0.029
REMARK UNBOUND:                 0.029
REMARK SMILES CC1=CCC[C@@H](C)C(=O)C[C@H](C(C)C)C(=O)C1
REMARK SMILES IDX 8 1 9 2 6 3 7 4 5 5 4 6 3 7 2 8 1 9 10 11 11 12 15 13 16 14
REMARK SMILES IDX 17 15 12 17 13 18 14 19
REMARK H PARENT
REMARK Flexibility Score: 70.00
ROOT
ATOM      1  C   UNL     1     -13.150 -33.700  28.519  1.00  0.00     0.136 C 
ATOM      2  O   UNL     1     -13.788 -33.032  27.717  1.00  0.00    -0.299 OA
ENDROOT
BRANCH   1   3
ATOM      3  C   UNL     1     -12.589 -35.043  28.099  1.00  0.00     0.053 C 
ATOM      4  C   UNL     1     -12.074 -34.969  26.656  1.00  0.00     0.016 C 
BRANCH   3   5
ATOM      5  C   UNL     1     -13.620 -36.187  28.248  1.00  0.00     0.015 C 
BRANCH   5   6
ATOM      6  C   UNL     1     -13.224 -37.287  29.251  1.00  0.00     0.028 C 
BRANCH   6   7
ATOM      7  C   UNL     1     -11.940 -36.958  29.977  1.00  0.00    -0.028 C 
ATOM      8  C   UNL     1     -11.855 -36.316  31.165  1.00  0.00    -0.070 CG0
ATOM      9  C   UNL     1     -10.478 -36.051  31.721  1.00  0.00     0.039 C 
ATOM     10  G   UNL     1     -13.070 -35.944  31.997  1.00  0.00     0.000 G0
ENDBRANCH   6   7
ENDBRANCH   5   6
ENDBRANCH   3   5
ENDBRANCH   1   3
BRANCH   1  11
ATOM     11  C   UNL     1     -12.876 -33.149  29.903  1.00  0.00     0.087 C 
BRANCH  11  12
ATOM     12  C   UNL     1     -13.922 -33.579  30.964  1.00  0.00     0.066 C 
BRANCH  12  13
ATOM     13  C   UNL     1     -13.288 -34.404  32.079  1.00  0.00     0.140 C 
ATOM     14  O   UNL     1     -12.893 -33.815  33.076  1.00  0.00    -0.299 OA
BRANCH  13  15
ATOM     15  C   UNL     1     -13.064 -35.903  32.002  1.00  0.00     0.106 CG0
ATOM     16  G   UNL     1     -11.866 -36.320  31.166  1.00  0.00     0.000 G0
ENDBRANCH  13  15
ENDBRANCH  12  13
BRANCH  12  17
ATOM     17  C   UNL     1     -14.749 -32.379  31.527  1.00  0.00    -0.006 C 
ATOM     18  C   UNL     1     -15.761 -32.853  32.586  1.00  0.00     0.008 C 
ATOM     19  C   UNL     1     -15.507 -31.620  30.423  1.00  0.00     0.008 C 
ENDBRANCH  12  17
ENDBRANCH  11  12
ENDBRANCH   1  11
TORSDOF 1
ENDMDL
MODEL 2
REMARK VINA RESULT:    -4.488      2.071      4.738
REMARK INTER + INTRA:          -6.821
REMARK INTER:                  -7.357
REMARK INTRA:                   0.536
REMARK UNBOUND:                 0.029
REMARK SMILES CC1=CCC[C@@H](C)C(=O)C[C@H](C(C)C)C(=O)C1
REMARK SMILES IDX 8 1 9 2 6 3 7 4 5 5 4 6 3 7 2 8 1 9 10 11 11 12 15 13 16 14
REMARK SMILES IDX 17 15 12 17 13 18 14 19
REMARK H PARENT
REMARK Flexibility Score: 70.00
ROOT
ATOM      1  C   UNL     1     -12.540 -34.267  32.296  1.00  0.00     0.136 C 
ATOM      2  O   UNL     1     -11.569 -33.839  32.906  1.00  0.00    -0.299 OA
ENDROOT
BRANCH   1   3
ATOM      3  C   UNL     1     -13.630 -33.312  31.856  1.00  0.00     0.053 C 
ATOM      4  C   UNL     1     -14.859 -33.465  32.759  1.00  0.00     0.016 C 
BRANCH   3   5
ATOM      5  C   UNL     1     -14.022 -33.507  30.372  1.00  0.00     0.015 C 
BRANCH   5   6
ATOM      6  C   UNL     1     -13.098 -32.801  29.361  1.00  0.00     0.028 C 
BRANCH   6   7
ATOM      7  C   UNL     1     -12.833 -33.653  28.142  1.00  0.00    -0.028 C 
ATOM      8  C   UNL     1     -11.717 -34.387  27.927  1.00  0.00    -0.070 CG0
ATOM      9  C   UNL     1     -11.620 -35.154  26.632  1.00  0.00     0.039 C 
ATOM     10  G   UNL     1     -10.617 -34.548  28.962  1.00  0.00     0.000 G0
ENDBRANCH   6   7
ENDBRANCH   5   6
ENDBRANCH   3   5
ENDBRANCH   1   3
BRANCH   1  11
ATOM     11  C   UNL     1     -12.609 -35.736  31.933  1.00  0.00     0.087 C 
BRANCH  11  12
ATOM     12  C   UNL     1     -12.315 -36.024  30.438  1.00  0.00     0.066 C 
BRANCH  12  13
ATOM     13  C   UNL     1     -10.909 -35.583  30.045  1.00  0.00     0.140 C 
ATOM     14  O   UNL     1      -9.965 -36.052  30.666  1.00  0.00    -0.299 OA
BRANCH  13  15
ATOM     15  C   UNL     1     -10.613 -34.551  28.972  1.00  0.00     0.106 CG0
ATOM     16  G   UNL     1     -11.710 -34.385  27.935  1.00  0.00     0.000 G0
ENDBRANCH  13  15
ENDBRANCH  12  13
BRANCH  12  17
ATOM     17  C   UNL     1     -12.592 -37.508  30.037  1.00  0.00    -0.006 C 
ATOM     18  C   UNL     1     -13.775 -37.603  29.055  1.00  0.00     0.008 C 
ATOM     19  C   UNL     1     -12.890 -38.399  31.256  1.00  0.00     0.008 C 
ENDBRANCH  12  17
ENDBRANCH  11  12
ENDBRANCH   1  11
TORSDOF 1
ENDMDL
MODEL 3
REMARK VINA RESULT:    -4.283      1.912      3.558
REMARK INTER + INTRA:          -6.507
REMARK INTER:                  -7.204
REMARK INTRA:                   0.697
REMARK UNBOUND:                 0.029
REMARK SMILES CC1=CCC[C@@H](C)C(=O)C[C@H](C(C)C)C(=O)C1
REMARK SMILES IDX 8 1 9 2 6 3 7 4 5 5 4 6 3 7 2 8 1 9 10 11 11 12 15 13 16 14
REMARK SMILES IDX 17 15 12 17 13 18 14 19
REMARK H PARENT
REMARK Flexibility Score: 70.00
ROOT
ATOM      1  C   UNL     1     -11.934 -36.809  29.448  1.00  0.00     0.136 C 
ATOM      2  O   UNL     1     -10.915 -36.861  30.124  1.00  0.00    -0.299 OA
ENDROOT
BRANCH   1   3
ATOM      3  C   UNL     1     -13.026 -37.838  29.656  1.00  0.00     0.053 C 
ATOM      4  C   UNL     1     -14.193 -37.567  28.699  1.00  0.00     0.016 C 
BRANCH   3   5
ATOM      5  C   UNL     1     -13.525 -37.882  31.119  1.00  0.00     0.015 C 
BRANCH   5   6
ATOM      6  C   UNL     1     -12.949 -36.782  32.032  1.00  0.00     0.028 C 
BRANCH   6   7
ATOM      7  C   UNL     1     -13.858 -35.578  32.112  1.00  0.00    -0.028 C 
ATOM      8  C   UNL     1     -13.462 -34.288  31.999  1.00  0.00    -0.070 CG0
ATOM      9  C   UNL     1     -14.515 -33.217  32.135  1.00  0.00     0.039 C 
ATOM     10  G   UNL     1     -12.042 -33.884  31.646  1.00  0.00     0.000 G0
ENDBRANCH   6   7
ENDBRANCH   5   6
ENDBRANCH   3   5
ENDBRANCH   1   3
BRANCH   1  11
ATOM     11  C   UNL     1     -12.118 -35.680  28.455  1.00  0.00     0.087 C 
BRANCH  11  12
ATOM     12  C   UNL     1     -12.671 -34.376  29.089  1.00  0.00     0.066 C 
BRANCH  12  13
ATOM     13  C   UNL     1     -11.735 -33.829  30.161  1.00  0.00     0.140 C 
ATOM     14  O   UNL     1     -10.654 -33.380  29.805  1.00  0.00    -0.299 OA
BRANCH  13  15
ATOM     15  C   UNL     1     -12.037 -33.863  31.648  1.00  0.00     0.106 CG0
ATOM     16  G   UNL     1     -13.453 -34.289  31.996  1.00  0.00     0.000 G0
ENDBRANCH  13  15
ENDBRANCH  12  13
BRANCH  12  17
ATOM     17  C   UNL     1     -13.038 -33.291  28.027  1.00  0.00    -0.006 C 
ATOM     18  C   UNL     1     -14.051 -32.281  28.597  1.00  0.00     0.008 C 
ATOM     19  C   UNL     1     -13.621 -33.902  26.740  1.00  0.00     0.008 C 
ENDBRANCH  12  17
ENDBRANCH  11  12
ENDBRANCH   1  11
TORSDOF 1
ENDMDL
MODEL 4
REMARK VINA RESULT:    -4.094      1.653      1.919
REMARK INTER + INTRA:          -6.220
REMARK INTER:                  -6.570
REMARK INTRA:                   0.350
REMARK UNBOUND:                 0.029
REMARK SMILES CC1=CCC[C@@H](C)C(=O)C[C@H](C(C)C)C(=O)C1
REMARK SMILES IDX 8 1 9 2 6 3 7 4 5 5 4 6 3 7 2 8 1 9 10 11 11 12 15 13 16 14
REMARK SMILES IDX 17 15 12 17 13 18 14 19
REMARK H PARENT
REMARK Flexibility Score: 70.00
ROOT
ATOM      1  C   UNL     1     -13.177 -34.450  29.257  1.00  0.00     0.136 C 
ATOM      2  O   UNL     1     -13.580 -35.585  29.472  1.00  0.00    -0.299 OA
ENDROOT
BRANCH   1   3
ATOM      3  C   UNL     1     -12.391 -34.159  27.995  1.00  0.00     0.053 C 
ATOM      4  C   UNL     1     -13.314 -34.229  26.773  1.00  0.00     0.016 C 
BRANCH   3   5
ATOM      5  C   UNL     1     -11.186 -35.113  27.817  1.00  0.00     0.015 C 
BRANCH   5   6
ATOM      6  C   UNL     1     -10.090 -34.977  28.892  1.00  0.00     0.028 C 
BRANCH   6   7
ATOM      7  C   UNL     1     -10.342 -35.879  30.077  1.00  0.00    -0.028 C 
ATOM      8  C   UNL     1     -10.663 -35.463  31.324  1.00  0.00    -0.070 CG0
ATOM      9  C   UNL     1     -10.849 -36.515  32.389  1.00  0.00     0.039 C 
ATOM     10  G   UNL     1     -10.937 -34.009  31.669  1.00  0.00     0.000 G0
ENDBRANCH   6   7
ENDBRANCH   5   6
ENDBRANCH   3   5
ENDBRANCH   1   3
BRANCH   1  11
ATOM     11  C   UNL     1     -13.524 -33.336  30.222  1.00  0.00     0.087 C 
BRANCH  11  12
ATOM     12  C   UNL     1     -13.617 -33.798  31.700  1.00  0.00     0.066 C 
BRANCH  12  13
ATOM     13  C   UNL     1     -12.255 -33.770  32.387  1.00  0.00     0.140 C 
ATOM     14  O   UNL     1     -12.217 -33.477  33.574  1.00  0.00    -0.299 OA
BRANCH  13  15
ATOM     15  C   UNL     1     -10.941 -34.024  31.673  1.00  0.00     0.106 CG0
ATOM     16  G   UNL     1     -10.677 -35.480  31.334  1.00  0.00     0.000 G0
ENDBRANCH  13  15
ENDBRANCH  12  13
BRANCH  12  17
ATOM     17  C   UNL     1     -14.696 -33.017  32.516  1.00  0.00    -0.006 C 
ATOM     18  C   UNL     1     -15.662 -33.986  33.224  1.00  0.00     0.008 C 
ATOM     19  C   UNL     1     -15.517 -32.058  31.636  1.00  0.00     0.008 C 
ENDBRANCH  12  17
ENDBRANCH  11  12
ENDBRANCH   1  11
TORSDOF 1
ENDMDL
MODEL 5
REMARK VINA RESULT:    -3.964      2.085      3.979
REMARK INTER + INTRA:          -6.020
REMARK INTER:                  -6.054
REMARK INTRA:                   0.034
REMARK UNBOUND:                 0.029
REMARK SMILES CC1=CCC[C@@H](C)C(=O)C[C@H](C(C)C)C(=O)C1
REMARK SMILES IDX 8 1 9 2 6 3 7 4 5 5 4 6 3 7 2 8 1 9 10 11 11 12 15 13 16 14
REMARK SMILES IDX 17 15 12 17 13 18 14 19
REMARK H PARENT
REMARK Flexibility Score: 70.00
ROOT
ATOM      1  C   UNL     1     -12.137 -33.808  30.644  1.00  0.00     0.136 C 
ATOM      2  O   UNL     1     -12.878 -34.153  31.556  1.00  0.00    -0.299 OA
ENDROOT
BRANCH   1   3
ATOM      3  C   UNL     1     -10.699 -33.439  30.945  1.00  0.00     0.053 C 
ATOM      4  C   UNL     1      -9.977 -33.044  29.651  1.00  0.00     0.016 C 
BRANCH   3   5
ATOM      5  C   UNL     1      -9.936 -34.575  31.665  1.00  0.00     0.015 C 
BRANCH   5   6
ATOM      6  C   UNL     1     -10.024 -35.951  30.977  1.00  0.00     0.028 C 
BRANCH   6   7
ATOM      7  C   UNL     1     -10.971 -36.885  31.693  1.00  0.00    -0.028 C 
ATOM      8  C   UNL     1     -11.994 -37.557  31.115  1.00  0.00    -0.070 CG0
ATOM      9  C   UNL     1     -12.852 -38.425  32.002  1.00  0.00     0.039 C 
ATOM     10  G   UNL     1     -12.249 -37.554  29.618  1.00  0.00     0.000 G0
ENDBRANCH   6   7
ENDBRANCH   5   6
ENDBRANCH   3   5
ENDBRANCH   1   3
BRANCH   1  11
ATOM     11  C   UNL     1     -12.650 -33.816  29.219  1.00  0.00     0.087 C 
BRANCH  11  12
ATOM     12  C   UNL     1     -12.346 -35.131  28.454  1.00  0.00     0.066 C 
BRANCH  12  13
ATOM     13  C   UNL     1     -13.014 -36.333  29.113  1.00  0.00     0.140 C 
ATOM     14  O   UNL     1     -14.224 -36.294  29.287  1.00  0.00    -0.299 OA
BRANCH  13  15
ATOM     15  C   UNL     1     -12.261 -37.549  29.619  1.00  0.00     0.106 CG0
ATOM     16  G   UNL     1     -11.991 -37.549  31.114  1.00  0.00     0.000 G0
ENDBRANCH  13  15
ENDBRANCH  12  13
BRANCH  12  17
ATOM     17  C   UNL     1     -12.681 -35.041  26.931  1.00  0.00    -0.006 C 
ATOM     18  C   UNL     1     -11.400 -34.877  26.093  1.00  0.00     0.008 C 
ATOM     19  C   UNL     1     -13.635 -33.878  26.608  1.00  0.00     0.008 C 
ENDBRANCH  12  17
ENDBRANCH  11  12
ENDBRANCH   1  11
TORSDOF 1
ENDMDL
MODEL 6
REMARK VINA RESULT:    -3.937      2.521      4.899
REMARK INTER + INTRA:          -5.979
REMARK INTER:                  -6.373
REMARK INTRA:                   0.394
REMARK UNBOUND:                 0.029
REMARK SMILES CC1=CCC[C@@H](C)C(=O)C[C@H](C(C)C)C(=O)C1
REMARK SMILES IDX 8 1 9 2 6 3 7 4 5 5 4 6 3 7 2 8 1 9 10 11 11 12 15 13 16 14
REMARK SMILES IDX 17 15 12 17 13 18 14 19
REMARK H PARENT
REMARK Flexibility Score: 70.00
ROOT
ATOM      1  C   UNL     1     -11.855 -34.385  32.347  1.00  0.00     0.136 C 
ATOM      2  O   UNL     1     -12.746 -33.557  32.487  1.00  0.00    -0.299 OA
ENDROOT
BRANCH   1   3
ATOM      3  C   UNL     1     -10.407 -33.943  32.390  1.00  0.00     0.053 C 
ATOM      4  C   UNL     1     -10.067 -33.388  33.778  1.00  0.00     0.016 C 
BRANCH   3   5
ATOM      5  C   UNL     1     -10.075 -32.903  31.294  1.00  0.00     0.015 C 
BRANCH   5   6
ATOM      6  C   UNL     1     -10.086 -33.453  29.855  1.00  0.00     0.028 C 
BRANCH   6   7
ATOM      7  C   UNL     1     -11.375 -33.131  29.135  1.00  0.00    -0.028 C 
ATOM      8  C   UNL     1     -12.122 -34.015  28.434  1.00  0.00    -0.070 CG0
ATOM      9  C   UNL     1     -13.368 -33.500  27.758  1.00  0.00     0.039 C 
ATOM     10  G   UNL     1     -11.819 -35.502  28.383  1.00  0.00     0.000 G0
ENDBRANCH   6   7
ENDBRANCH   5   6
ENDBRANCH   3   5
ENDBRANCH   1   3
BRANCH   1  11
ATOM     11  C   UNL     1     -12.211 -35.849  32.197  1.00  0.00     0.087 C 
BRANCH  11  12
ATOM     12  C   UNL     1     -12.761 -36.217  30.794  1.00  0.00     0.066 C 
BRANCH  12  13
ATOM     13  C   UNL     1     -11.669 -36.172  29.730  1.00  0.00     0.140 C 
ATOM     14  O   UNL     1     -10.582 -36.662  30.003  1.00  0.00    -0.299 OA
BRANCH  13  15
ATOM     15  C   UNL     1     -11.829 -35.504  28.378  1.00  0.00     0.106 CG0
ATOM     16  G   UNL     1     -12.141 -34.019  28.439  1.00  0.00     0.000 G0
ENDBRANCH  13  15
ENDBRANCH  12  13
BRANCH  12  17
ATOM     17  C   UNL     1     -13.533 -37.575  30.779  1.00  0.00    -0.006 C 
ATOM     18  C   UNL     1     -12.842 -38.613  31.682  1.00  0.00     0.008 C 
ATOM     19  C   UNL     1     -13.661 -38.160  29.361  1.00  0.00     0.008 C 
ENDBRANCH  12  17
ENDBRANCH  11  12
ENDBRANCH   1  11
TORSDOF 1
ENDMDL
MODEL 7
REMARK VINA RESULT:    -3.932      2.066      3.976
REMARK INTER + INTRA:          -5.972
REMARK INTER:                  -6.302
REMARK INTRA:                   0.330
REMARK UNBOUND:                 0.029
REMARK SMILES CC1=CCC[C@@H](C)C(=O)C[C@H](C(C)C)C(=O)C1
REMARK SMILES IDX 8 1 9 2 6 3 7 4 5 5 4 6 3 7 2 8 1 9 10 11 11 12 15 13 16 14
REMARK SMILES IDX 17 15 12 17 13 18 14 19
REMARK H PARENT
REMARK Flexibility Score: 70.00
ROOT
ATOM      1  C   UNL     1     -12.668 -34.823  28.582  1.00  0.00     0.136 C 
ATOM      2  O   UNL     1     -12.385 -35.019  27.408  1.00  0.00    -0.299 OA
ENDROOT
BRANCH   1   3
ATOM      3  C   UNL     1     -12.548 -33.427  29.160  1.00  0.00     0.053 C 
ATOM      4  C   UNL     1     -13.571 -32.495  28.499  1.00  0.00     0.016 C 
BRANCH   3   5
ATOM      5  C   UNL     1     -11.119 -32.850  29.017  1.00  0.00     0.015 C 
BRANCH   5   6
ATOM      6  C   UNL     1     -10.051 -33.549  29.880  1.00  0.00     0.028 C 
BRANCH   6   7
ATOM      7  C   UNL     1     -10.127 -33.127  31.329  1.00  0.00    -0.028 C 
ATOM      8  C   UNL     1     -10.431 -33.941  32.366  1.00  0.00    -0.070 CG0
ATOM      9  C   UNL     1     -10.487 -33.331  33.744  1.00  0.00     0.039 C 
ATOM     10  G   UNL     1     -10.618 -35.441  32.218  1.00  0.00     0.000 G0
ENDBRANCH   6   7
ENDBRANCH   5   6
ENDBRANCH   3   5
ENDBRANCH   1   3
BRANCH   1  11
ATOM     11  C   UNL     1     -13.195 -35.964  29.428  1.00  0.00     0.087 C 
BRANCH  11  12
ATOM     12  C   UNL     1     -12.119 -36.618  30.334  1.00  0.00     0.066 C 
BRANCH  12  13
ATOM     13  C   UNL     1     -11.948 -35.856  31.645  1.00  0.00     0.140 C 
ATOM     14  O   UNL     1     -12.957 -35.512  32.245  1.00  0.00    -0.299 OA
BRANCH  13  15
ATOM     15  C   UNL     1     -10.604 -35.447  32.218  1.00  0.00     0.106 CG0
ATOM     16  G   UNL     1     -10.415 -33.949  32.382  1.00  0.00     0.000 G0
ENDBRANCH  13  15
ENDBRANCH  12  13
BRANCH  12  17
ATOM     17  C   UNL     1     -12.367 -38.140  30.574  1.00  0.00    -0.006 C 
ATOM     18  C   UNL     1     -13.594 -38.631  29.782  1.00  0.00     0.008 C 
ATOM     19  C   UNL     1     -12.574 -38.474  32.062  1.00  0.00     0.008 C 
ENDBRANCH  12  17
ENDBRANCH  11  12
ENDBRANCH   1  11
TORSDOF 1
ENDMDL
MODEL 8
REMARK VINA RESULT:    -3.851      1.876      3.194
REMARK INTER + INTRA:          -5.848
REMARK INTER:                  -7.131
REMARK INTRA:                   1.283
REMARK UNBOUND:                 0.029
REMARK SMILES CC1=CCC[C@@H](C)C(=O)C[C@H](C(C)C)C(=O)C1
REMARK SMILES IDX 8 1 9 2 6 3 7 4 5 5 4 6 3 7 2 8 1 9 10 11 11 12 15 13 16 14
REMARK SMILES IDX 17 15 12 17 13 18 14 19
REMARK H PARENT
REMARK Flexibility Score: 70.00
ROOT
ATOM      1  C   UNL     1     -10.650 -34.620  31.367  1.00  0.00     0.136 C 
ATOM      2  O   UNL     1     -10.200 -35.604  31.939  1.00  0.00    -0.299 OA
ENDROOT
BRANCH   1   3
ATOM      3  C   UNL     1     -10.100 -34.223  30.012  1.00  0.00     0.053 C 
ATOM      4  C   UNL     1     -10.365 -32.735  29.753  1.00  0.00     0.016 C 
BRANCH   3   5
ATOM      5  C   UNL     1     -10.679 -35.083  28.865  1.00  0.00     0.015 C 
BRANCH   5   6
ATOM      6  C   UNL     1     -11.968 -34.529  28.228  1.00  0.00     0.028 C 
BRANCH   6   7
ATOM      7  C   UNL     1     -13.023 -35.597  28.058  1.00  0.00    -0.028 C 
ATOM      8  C   UNL     1     -13.297 -36.576  28.952  1.00  0.00    -0.070 CG0
ATOM      9  C   UNL     1     -14.370 -37.573  28.592  1.00  0.00     0.039 C 
ATOM     10  G   UNL     1     -12.651 -36.652  30.324  1.00  0.00     0.000 G0
ENDBRANCH   6   7
ENDBRANCH   5   6
ENDBRANCH   3   5
ENDBRANCH   1   3
BRANCH   1  11
ATOM     11  C   UNL     1     -11.793 -33.848  31.991  1.00  0.00     0.087 C 
BRANCH  11  12
ATOM     12  C   UNL     1     -13.193 -34.297  31.497  1.00  0.00     0.066 C 
BRANCH  12  13
ATOM     13  C   UNL     1     -13.301 -35.817  31.415  1.00  0.00     0.140 C 
ATOM     14  O   UNL     1     -13.907 -36.398  32.305  1.00  0.00    -0.299 OA
BRANCH  13  15
ATOM     15  C   UNL     1     -12.651 -36.656  30.330  1.00  0.00     0.106 CG0
ATOM     16  G   UNL     1     -13.301 -36.535  28.963  1.00  0.00     0.000 G0
ENDBRANCH  13  15
ENDBRANCH  12  13
BRANCH  12  17
ATOM     17  C   UNL     1     -14.361 -33.675  32.325  1.00  0.00    -0.006 C 
ATOM     18  C   UNL     1     -15.039 -32.529  31.550  1.00  0.00     0.008 C 
ATOM     19  C   UNL     1     -13.892 -33.139  33.689  1.00  0.00     0.008 C 
ENDBRANCH  12  17
ENDBRANCH  11  12
ENDBRANCH   1  11
TORSDOF 1
ENDMDL
MODEL 9
REMARK VINA RESULT:    -3.604      2.241      4.061
REMARK INTER + INTRA:          -5.470
REMARK INTER:                  -6.783
REMARK INTRA:                   1.313
REMARK UNBOUND:                 0.029
REMARK SMILES CC1=CCC[C@@H](C)C(=O)C[C@H](C(C)C)C(=O)C1
REMARK SMILES IDX 8 1 9 2 6 3 7 4 5 5 4 6 3 7 2 8 1 9 10 11 11 12 15 13 16 14
REMARK SMILES IDX 17 15 12 17 13 18 14 19
REMARK H PARENT
REMARK Flexibility Score: 70.00
ROOT
ATOM      1  C   UNL     1     -10.336 -33.970  30.046  1.00  0.00     0.136 C 
ATOM      2  O   UNL     1      -9.952 -32.841  29.770  1.00  0.00    -0.299 OA
ENDROOT
BRANCH   1   3
ATOM      3  C   UNL     1     -10.695 -34.311  31.478  1.00  0.00     0.053 C 
ATOM      4  C   UNL     1     -10.066 -33.292  32.435  1.00  0.00     0.016 C 
BRANCH   3   5
ATOM      5  C   UNL     1     -10.274 -35.749  31.866  1.00  0.00     0.015 C 
BRANCH   5   6
ATOM      6  C   UNL     1     -11.426 -36.652  32.346  1.00  0.00     0.028 C 
BRANCH   6   7
ATOM      7  C   UNL     1     -11.978 -37.509  31.230  1.00  0.00    -0.028 C 
ATOM      8  C   UNL     1     -12.980 -37.154  30.393  1.00  0.00    -0.070 CG0
ATOM      9  C   UNL     1     -13.415 -38.158  29.355  1.00  0.00     0.039 C 
ATOM     10  G   UNL     1     -13.608 -35.771  30.388  1.00  0.00     0.000 G0
ENDBRANCH   6   7
ENDBRANCH   5   6
ENDBRANCH   3   5
ENDBRANCH   1   3
BRANCH   1  11
ATOM     11  C   UNL     1     -10.507 -34.994  28.943  1.00  0.00     0.087 C 
BRANCH  11  12
ATOM     12  C   UNL     1     -11.956 -35.090  28.400  1.00  0.00     0.066 C 
BRANCH  12  13
ATOM     13  C   UNL     1     -12.985 -34.750  29.474  1.00  0.00     0.140 C 
ATOM     14  O   UNL     1     -13.277 -33.573  29.637  1.00  0.00    -0.299 OA
BRANCH  13  15
ATOM     15  C   UNL     1     -13.622 -35.775  30.393  1.00  0.00     0.106 CG0
ATOM     16  G   UNL     1     -12.948 -37.136  30.385  1.00  0.00     0.000 G0
ENDBRANCH  13  15
ENDBRANCH  12  13
BRANCH  12  17
ATOM     17  C   UNL     1     -12.176 -34.255  27.099  1.00  0.00    -0.006 C 
ATOM     18  C   UNL     1     -13.673 -34.168  26.745  1.00  0.00     0.008 C 
ATOM     19  C   UNL     1     -11.417 -34.837  25.893  1.00  0.00     0.008 C 
ENDBRANCH  12  17
ENDBRANCH  11  12
ENDBRANCH   1  11
TORSDOF 1
ENDMDL
