MODEL 1
REMARK VINA RESULT:    -3.128      0.000      0.000
REMARK INTER + INTRA:          -3.717
REMARK INTER:                  -3.677
REMARK INTRA:                  -0.040
REMARK UNBOUND:                -0.040
REMARK SMILES O=C([O-])CCC(=O)[O-]
REMARK SMILES IDX 4 1 2 2 1 3 3 4 5 5 6 6 7 7 8 8
REMARK H PARENT
REMARK Flexibility Score: inf
ROOT
ATOM      1  C   UNL     1       5.050  -7.651 -12.287  1.00  0.00     0.059 C 
ENDROOT
BRANCH   1   2
ATOM      2  C   UNL     1       5.686  -8.492 -11.227  1.00  0.00     0.042 C 
ATOM      3  O   UNL     1       5.714  -8.092 -10.033  1.00  0.00    -0.550 OA
ATOM      4  O   UNL     1       6.291  -9.696 -11.564  1.00  0.00    -0.550 OA
ENDBRANCH   1   2
BRANCH   1   5
ATOM      5  C   UNL     1       5.558  -8.057 -13.671  1.00  0.00     0.059 C 
BRANCH   5   6
ATOM      6  C   UNL     1       5.266  -6.986 -14.673  1.00  0.00     0.042 C 
ATOM      7  O   UNL     1       5.183  -5.783 -14.308  1.00  0.00    -0.550 OA
ATOM      8  O   UNL     1       5.134  -7.308 -16.018  1.00  0.00    -0.550 OA
ENDBRANCH   5   6
ENDBRANCH   1   5
TORSDOF 3
ENDMDL
MODEL 2
REMARK VINA RESULT:    -3.122     14.706     15.631
REMARK INTER + INTRA:          -3.710
REMARK INTER:                  -3.586
REMARK INTRA:                  -0.124
REMARK UNBOUND:                -0.040
REMARK SMILES O=C([O-])CCC(=O)[O-]
REMARK SMILES IDX 4 1 2 2 1 3 3 4 5 5 6 6 7 7 8 8
REMARK H PARENT
REMARK Flexibility Score: inf
ROOT
ATOM      1  C   UNL     1      17.294 -16.189 -15.804  1.00  0.00     0.059 C 
ENDROOT
BRANCH   1   2
ATOM      2  C   UNL     1      16.862 -14.796 -16.133  1.00  0.00     0.042 C 
ATOM      3  O   UNL     1      17.234 -13.830 -15.415  1.00  0.00    -0.550 OA
ATOM      4  O   UNL     1      16.007 -14.568 -17.204  1.00  0.00    -0.550 OA
ENDBRANCH   1   2
BRANCH   1   5
ATOM      5  C   UNL     1      18.638 -16.175 -15.074  1.00  0.00     0.059 C 
BRANCH   5   6
ATOM      6  C   UNL     1      19.767 -16.190 -16.055  1.00  0.00     0.042 C 
ATOM      7  O   UNL     1      20.424 -15.138 -16.281  1.00  0.00    -0.550 OA
ATOM      8  O   UNL     1      20.128 -17.375 -16.684  1.00  0.00    -0.550 OA
ENDBRANCH   5   6
ENDBRANCH   1   5
TORSDOF 3
ENDMDL
MODEL 3
REMARK VINA RESULT:    -3.094      1.451      2.059
REMARK INTER + INTRA:          -3.676
REMARK INTER:                  -3.645
REMARK INTRA:                  -0.031
REMARK UNBOUND:                -0.040
REMARK SMILES O=C([O-])CCC(=O)[O-]
REMARK SMILES IDX 4 1 2 2 1 3 3 4 5 5 6 6 7 7 8 8
REMARK H PARENT
REMARK Flexibility Score: inf
ROOT
ATOM      1  C   UNL     1       6.031  -9.240 -12.035  1.00  0.00     0.059 C 
ENDROOT
BRANCH   1   2
ATOM      2  C   UNL     1       6.026  -9.980 -10.735  1.00  0.00     0.042 C 
ATOM      3  O   UNL     1       6.940  -9.783  -9.890  1.00  0.00    -0.550 OA
ATOM      4  O   UNL     1       5.041 -10.925 -10.476  1.00  0.00    -0.550 OA
ENDBRANCH   1   2
BRANCH   1   5
ATOM      5  C   UNL     1       5.062  -8.058 -11.982  1.00  0.00     0.059 C 
BRANCH   5   6
ATOM      6  C   UNL     1       4.986  -7.382 -13.314  1.00  0.00     0.042 C 
ATOM      7  O   UNL     1       4.978  -8.066 -14.372  1.00  0.00    -0.550 OA
ATOM      8  O   UNL     1       4.875  -6.000 -13.387  1.00  0.00    -0.550 OA
ENDBRANCH   5   6
ENDBRANCH   1   5
TORSDOF 3
ENDMDL
MODEL 4
REMARK VINA RESULT:    -3.092     14.719     15.519
REMARK INTER + INTRA:          -3.674
REMARK INTER:                  -3.554
REMARK INTRA:                  -0.120
REMARK UNBOUND:                -0.040
REMARK SMILES O=C([O-])CCC(=O)[O-]
REMARK SMILES IDX 4 1 2 2 1 3 3 4 5 5 6 6 7 7 8 8
REMARK H PARENT
REMARK Flexibility Score: inf
ROOT
ATOM      1  C   UNL     1      18.654 -16.131 -15.064  1.00  0.00     0.059 C 
ENDROOT
BRANCH   1   2
ATOM      2  C   UNL     1      19.782 -16.213 -16.043  1.00  0.00     0.042 C 
ATOM      3  O   UNL     1      20.031 -17.298 -16.634  1.00  0.00    -0.550 OA
ATOM      4  O   UNL     1      20.591 -15.106 -16.267  1.00  0.00    -0.550 OA
ENDBRANCH   1   2
BRANCH   1   5
ATOM      5  C   UNL     1      17.310 -16.149 -15.793  1.00  0.00     0.059 C 
BRANCH   5   6
ATOM      6  C   UNL     1      16.886 -14.759 -16.147  1.00  0.00     0.042 C 
ATOM      7  O   UNL     1      17.343 -13.775 -15.507  1.00  0.00    -0.550 OA
ATOM      8  O   UNL     1      16.025 -14.545 -17.215  1.00  0.00    -0.550 OA
ENDBRANCH   5   6
ENDBRANCH   1   5
TORSDOF 3
ENDMDL
MODEL 5
REMARK VINA RESULT:    -3.032     19.678     20.593
REMARK INTER + INTRA:          -3.604
REMARK INTER:                  -3.541
REMARK INTRA:                  -0.063
REMARK UNBOUND:                -0.040
REMARK SMILES O=C([O-])CCC(=O)[O-]
REMARK SMILES IDX 4 1 2 2 1 3 3 4 5 5 6 6 7 7 8 8
REMARK H PARENT
REMARK Flexibility Score: inf
ROOT
ATOM      1  C   UNL     1      23.550 -13.459  -7.320  1.00  0.00     0.059 C 
ENDROOT
BRANCH   1   2
ATOM      2  C   UNL     1      24.157 -13.104  -6.000  1.00  0.00     0.042 C 
ATOM      3  O   UNL     1      24.118 -11.915  -5.584  1.00  0.00    -0.550 OA
ATOM      4  O   UNL     1      24.810 -14.074  -5.251  1.00  0.00    -0.550 OA
ENDBRANCH   1   2
BRANCH   1   5
ATOM      5  C   UNL     1      24.564 -14.199  -8.195  1.00  0.00     0.059 C 
BRANCH   5   6
ATOM      6  C   UNL     1      23.944 -15.420  -8.797  1.00  0.00     0.042 C 
ATOM      7  O   UNL     1      22.690 -15.538  -8.841  1.00  0.00    -0.550 OA
ATOM      8  O   UNL     1      24.748 -16.405  -9.355  1.00  0.00    -0.550 OA
ENDBRANCH   5   6
ENDBRANCH   1   5
TORSDOF 3
ENDMDL
MODEL 6
REMARK VINA RESULT:    -2.943     19.757     20.852
REMARK INTER + INTRA:          -3.499
REMARK INTER:                  -3.434
REMARK INTRA:                  -0.065
REMARK UNBOUND:                -0.040
REMARK SMILES O=C([O-])CCC(=O)[O-]
REMARK SMILES IDX 4 1 2 2 1 3 3 4 5 5 6 6 7 7 8 8
REMARK H PARENT
REMARK Flexibility Score: inf
ROOT
ATOM      1  C   UNL     1      24.745 -14.480  -8.169  1.00  0.00     0.059 C 
ENDROOT
BRANCH   1   2
ATOM      2  C   UNL     1      24.054 -15.589  -8.896  1.00  0.00     0.042 C 
ATOM      3  O   UNL     1      24.727 -16.460  -9.510  1.00  0.00    -0.550 OA
ATOM      4  O   UNL     1      22.667 -15.635  -8.939  1.00  0.00    -0.550 OA
ENDBRANCH   1   2
BRANCH   1   5
ATOM      5  C   UNL     1      23.726 -13.587  -7.459  1.00  0.00     0.059 C 
BRANCH   5   6
ATOM      6  C   UNL     1      24.183 -13.270  -6.071  1.00  0.00     0.042 C 
ATOM      7  O   UNL     1      24.742 -14.155  -5.369  1.00  0.00    -0.550 OA
ATOM      8  O   UNL     1      24.039 -11.983  -5.568  1.00  0.00    -0.550 OA
ENDBRANCH   5   6
ENDBRANCH   1   5
TORSDOF 3
ENDMDL
MODEL 7
REMARK VINA RESULT:    -2.805     18.942     19.746
REMARK INTER + INTRA:          -3.337
REMARK INTER:                  -3.221
REMARK INTRA:                  -0.117
REMARK UNBOUND:                -0.040
REMARK SMILES O=C([O-])CCC(=O)[O-]
REMARK SMILES IDX 4 1 2 2 1 3 3 4 5 5 6 6 7 7 8 8
REMARK H PARENT
REMARK Flexibility Score: inf
ROOT
ATOM      1  C   UNL     1      22.996 -17.790 -17.017  1.00  0.00     0.059 C 
ENDROOT
BRANCH   1   2
ATOM      2  C   UNL     1      21.752 -18.619 -16.992  1.00  0.00     0.042 C 
ATOM      3  O   UNL     1      20.642 -18.107 -17.299  1.00  0.00    -0.550 OA
ATOM      4  O   UNL     1      21.808 -19.945 -16.581  1.00  0.00    -0.550 OA
ENDBRANCH   1   2
BRANCH   1   5
ATOM      5  C   UNL     1      22.807 -16.566 -17.914  1.00  0.00     0.059 C 
BRANCH   5   6
ATOM      6  C   UNL     1      22.778 -15.315 -17.096  1.00  0.00     0.042 C 
ATOM      7  O   UNL     1      23.749 -14.512 -17.131  1.00  0.00    -0.550 OA
ATOM      8  O   UNL     1      21.660 -15.009 -16.331  1.00  0.00    -0.550 OA
ENDBRANCH   5   6
ENDBRANCH   1   5
TORSDOF 3
ENDMDL
MODEL 8
REMARK VINA RESULT:    -2.788     18.957     19.903
REMARK INTER + INTRA:          -3.317
REMARK INTER:                  -3.199
REMARK INTRA:                  -0.118
REMARK UNBOUND:                -0.040
REMARK SMILES O=C([O-])CCC(=O)[O-]
REMARK SMILES IDX 4 1 2 2 1 3 3 4 5 5 6 6 7 7 8 8
REMARK H PARENT
REMARK Flexibility Score: inf
ROOT
ATOM      1  C   UNL     1      22.817 -16.585 -17.927  1.00  0.00     0.059 C 
ENDROOT
BRANCH   1   2
ATOM      2  C   UNL     1      22.792 -15.318 -17.132  1.00  0.00     0.042 C 
ATOM      3  O   UNL     1      23.783 -14.540 -17.149  1.00  0.00    -0.550 OA
ATOM      4  O   UNL     1      21.697 -15.020 -16.332  1.00  0.00    -0.550 OA
ENDBRANCH   1   2
BRANCH   1   5
ATOM      5  C   UNL     1      22.995 -17.793 -17.007  1.00  0.00     0.059 C 
BRANCH   5   6
ATOM      6  C   UNL     1      21.747 -18.615 -16.971  1.00  0.00     0.042 C 
ATOM      7  O   UNL     1      20.648 -18.114 -17.332  1.00  0.00    -0.550 OA
ATOM      8  O   UNL     1      21.802 -19.949 -16.588  1.00  0.00    -0.550 OA
ENDBRANCH   5   6
ENDBRANCH   1   5
TORSDOF 3
ENDMDL
MODEL 9
REMARK VINA RESULT:    -2.786     14.448     15.342
REMARK INTER + INTRA:          -3.315
REMARK INTER:                  -3.244
REMARK INTRA:                  -0.071
REMARK UNBOUND:                -0.040
REMARK SMILES O=C([O-])CCC(=O)[O-]
REMARK SMILES IDX 4 1 2 2 1 3 3 4 5 5 6 6 7 7 8 8
REMARK H PARENT
REMARK Flexibility Score: inf
ROOT
ATOM      1  C   UNL     1       5.185 -23.167  -9.453  1.00  0.00     0.059 C 
ENDROOT
BRANCH   1   2
ATOM      2  C   UNL     1       6.062 -22.835  -8.288  1.00  0.00     0.042 C 
ATOM      3  O   UNL     1       6.128 -23.617  -7.302  1.00  0.00    -0.550 OA
ATOM      4  O   UNL     1       6.768 -21.639  -8.266  1.00  0.00    -0.550 OA
ENDBRANCH   1   2
BRANCH   1   5
ATOM      5  C   UNL     1       5.263 -22.067 -10.513  1.00  0.00     0.059 C 
BRANCH   5   6
ATOM      6  C   UNL     1       5.652 -22.641 -11.838  1.00  0.00     0.042 C 
ATOM      7  O   UNL     1       5.870 -21.881 -12.819  1.00  0.00    -0.550 OA
ATOM      8  O   UNL     1       5.824 -24.012 -11.978  1.00  0.00    -0.550 OA
ENDBRANCH   5   6
ENDBRANCH   1   5
TORSDOF 3
ENDMDL
