MODEL 1
REMARK VINA RESULT:    -3.394      0.000      0.000
REMARK INTER + INTRA:          -4.795
REMARK INTER:                  -4.485
REMARK INTRA:                  -0.310
REMARK UNBOUND:                -0.310
REMARK SMILES CCCCCCCO
REMARK SMILES IDX 5 1 4 2 3 3 2 4 1 5 6 6 7 7 8 8
REMARK H PARENT 8 9
REMARK Flexibility Score: inf
ROOT
ATOM      1  C   UNL     1     161.244 163.623 182.482  1.00  0.00     0.002 C 
ENDROOT
BRANCH   1   2
ATOM      2  C   UNL     1     160.693 162.525 183.406  1.00  0.00     0.000 C 
BRANCH   2   3
ATOM      3  C   UNL     1     161.062 161.111 182.929  1.00  0.00    -0.000 C 
BRANCH   3   4
ATOM      4  C   UNL     1     159.880 160.386 182.267  1.00  0.00    -0.003 C 
ATOM      5  C   UNL     1     159.981 160.362 180.742  1.00  0.00     0.004 C 
ENDBRANCH   3   4
ENDBRANCH   2   3
ENDBRANCH   1   2
BRANCH   1   6
ATOM      6  C   UNL     1     160.259 164.003 181.365  1.00  0.00     0.028 C 
BRANCH   6   7
ATOM      7  C   UNL     1     160.938 164.044 179.992  1.00  0.00     0.156 C 
BRANCH   7   8
ATOM      8  O   UNL     1     160.061 163.597 178.992  1.00  0.00    -0.396 OA
ATOM      9  H   UNL     1     159.968 164.339 178.339  1.00  0.00     0.210 HD
ENDBRANCH   7   8
ENDBRANCH   6   7
ENDBRANCH   1   6
TORSDOF 6
ENDMDL
MODEL 2
REMARK VINA RESULT:    -3.323      1.131      2.673
REMARK INTER + INTRA:          -4.702
REMARK INTER:                  -4.379
REMARK INTRA:                  -0.323
REMARK UNBOUND:                -0.310
REMARK SMILES CCCCCCCO
REMARK SMILES IDX 5 1 4 2 3 3 2 4 1 5 6 6 7 7 8 8
REMARK H PARENT 8 9
REMARK Flexibility Score: inf
ROOT
ATOM      1  C   UNL     1     161.446 160.625 180.189  1.00  0.00     0.002 C 
ENDROOT
BRANCH   1   2
ATOM      2  C   UNL     1     160.023 160.295 180.665  1.00  0.00     0.000 C 
BRANCH   2   3
ATOM      3  C   UNL     1     159.876 160.380 182.194  1.00  0.00    -0.000 C 
BRANCH   3   4
ATOM      4  C   UNL     1     161.072 161.078 182.861  1.00  0.00    -0.003 C 
ATOM      5  C   UNL     1     160.707 162.440 183.449  1.00  0.00     0.004 C 
ENDBRANCH   3   4
ENDBRANCH   2   3
ENDBRANCH   1   2
BRANCH   1   6
ATOM      6  C   UNL     1     161.466 161.701 179.093  1.00  0.00     0.028 C 
BRANCH   6   7
ATOM      7  C   UNL     1     161.061 163.077 179.633  1.00  0.00     0.156 C 
BRANCH   7   8
ATOM      8  O   UNL     1     160.015 163.620 178.872  1.00  0.00    -0.396 OA
ATOM      9  H   UNL     1     159.174 163.429 179.362  1.00  0.00     0.210 HD
ENDBRANCH   7   8
ENDBRANCH   6   7
ENDBRANCH   1   6
TORSDOF 6
ENDMDL
MODEL 3
REMARK VINA RESULT:    -3.167      2.488      3.185
REMARK INTER + INTRA:          -4.495
REMARK INTER:                  -4.193
REMARK INTRA:                  -0.302
REMARK UNBOUND:                -0.310
REMARK SMILES CCCCCCCO
REMARK SMILES IDX 5 1 4 2 3 3 2 4 1 5 6 6 7 7 8 8
REMARK H PARENT 8 9
REMARK Flexibility Score: inf
ROOT
ATOM      1  C   UNL     1     162.572 162.087 183.065  1.00  0.00     0.002 C 
ENDROOT
BRANCH   1   2
ATOM      2  C   UNL     1     161.180 161.932 183.699  1.00  0.00     0.000 C 
BRANCH   2   3
ATOM      3  C   UNL     1     160.291 160.935 182.937  1.00  0.00    -0.000 C 
BRANCH   3   4
ATOM      4  C   UNL     1     160.095 161.327 181.464  1.00  0.00    -0.003 C 
ATOM      5  C   UNL     1     160.054 160.118 180.531  1.00  0.00     0.004 C 
ENDBRANCH   3   4
ENDBRANCH   2   3
ENDBRANCH   1   2
BRANCH   1   6
ATOM      6  C   UNL     1     163.346 160.760 183.014  1.00  0.00     0.028 C 
BRANCH   6   7
ATOM      7  C   UNL     1     164.254 160.675 181.783  1.00  0.00     0.156 C 
BRANCH   7   8
ATOM      8  O   UNL     1     163.515 160.320 180.645  1.00  0.00    -0.396 OA
ATOM      9  H   UNL     1     164.123 159.800 180.057  1.00  0.00     0.210 HD
ENDBRANCH   7   8
ENDBRANCH   6   7
ENDBRANCH   1   6
TORSDOF 6
ENDMDL
MODEL 4
REMARK VINA RESULT:    -3.139      1.671      2.193
REMARK INTER + INTRA:          -4.459
REMARK INTER:                  -4.183
REMARK INTRA:                  -0.276
REMARK UNBOUND:                -0.310
REMARK SMILES CCCCCCCO
REMARK SMILES IDX 5 1 4 2 3 3 2 4 1 5 6 6 7 7 8 8
REMARK H PARENT 8 9
REMARK Flexibility Score: inf
ROOT
ATOM      1  C   UNL     1     160.202 161.682 182.075  1.00  0.00     0.002 C 
ENDROOT
BRANCH   1   2
ATOM      2  C   UNL     1     160.938 161.745 183.423  1.00  0.00     0.000 C 
BRANCH   2   3
ATOM      3  C   UNL     1     162.432 162.074 183.264  1.00  0.00    -0.000 C 
BRANCH   3   4
ATOM      4  C   UNL     1     163.273 160.836 182.916  1.00  0.00    -0.003 C 
ATOM      5  C   UNL     1     163.801 160.864 181.483  1.00  0.00     0.004 C 
ENDBRANCH   3   4
ENDBRANCH   2   3
ENDBRANCH   1   2
BRANCH   1   6
ATOM      6  C   UNL     1     160.217 163.027 181.331  1.00  0.00     0.028 C 
BRANCH   6   7
ATOM      7  C   UNL     1     160.773 162.889 179.910  1.00  0.00     0.156 C 
BRANCH   7   8
ATOM      8  O   UNL     1     160.067 163.711 179.020  1.00  0.00    -0.396 OA
ATOM      9  H   UNL     1     160.728 164.068 178.371  1.00  0.00     0.210 HD
ENDBRANCH   7   8
ENDBRANCH   6   7
ENDBRANCH   1   6
TORSDOF 6
ENDMDL
MODEL 5
REMARK VINA RESULT:    -3.114      2.313      3.445
REMARK INTER + INTRA:          -4.424
REMARK INTER:                  -4.073
REMARK INTRA:                  -0.351
REMARK UNBOUND:                -0.310
REMARK SMILES CCCCCCCO
REMARK SMILES IDX 5 1 4 2 3 3 2 4 1 5 6 6 7 7 8 8
REMARK H PARENT 8 9
REMARK Flexibility Score: inf
ROOT
ATOM      1  C   UNL     1     160.248 161.257 181.145  1.00  0.00     0.002 C 
ENDROOT
BRANCH   1   2
ATOM      2  C   UNL     1     160.035 160.675 182.552  1.00  0.00     0.000 C 
BRANCH   2   3
ATOM      3  C   UNL     1     160.664 161.545 183.653  1.00  0.00    -0.000 C 
BRANCH   3   4
ATOM      4  C   UNL     1     161.254 162.854 183.103  1.00  0.00    -0.003 C 
ATOM      5  C   UNL     1     162.771 162.931 183.263  1.00  0.00     0.004 C 
ENDBRANCH   3   4
ENDBRANCH   2   3
ENDBRANCH   1   2
BRANCH   1   6
ATOM      6  C   UNL     1     161.062 160.322 180.237  1.00  0.00     0.028 C 
BRANCH   6   7
ATOM      7  C   UNL     1     162.420 160.925 179.864  1.00  0.00     0.156 C 
BRANCH   7   8
ATOM      8  O   UNL     1     163.429 160.432 180.705  1.00  0.00    -0.396 OA
ATOM      9  H   UNL     1     164.173 160.134 180.119  1.00  0.00     0.210 HD
ENDBRANCH   7   8
ENDBRANCH   6   7
ENDBRANCH   1   6
TORSDOF 6
ENDMDL
MODEL 6
REMARK VINA RESULT:    -3.075      2.601      3.217
REMARK INTER + INTRA:          -4.374
REMARK INTER:                  -4.058
REMARK INTRA:                  -0.316
REMARK UNBOUND:                -0.310
REMARK SMILES CCCCCCCO
REMARK SMILES IDX 5 1 4 2 3 3 2 4 1 5 6 6 7 7 8 8
REMARK H PARENT 8 9
REMARK Flexibility Score: inf
ROOT
ATOM      1  C   UNL     1     163.246 160.812 183.154  1.00  0.00     0.002 C 
ENDROOT
BRANCH   1   2
ATOM      2  C   UNL     1     162.309 162.017 182.974  1.00  0.00     0.000 C 
BRANCH   2   3
ATOM      3  C   UNL     1     160.922 161.786 183.597  1.00  0.00    -0.000 C 
BRANCH   3   4
ATOM      4  C   UNL     1     160.152 160.646 182.912  1.00  0.00    -0.003 C 
ATOM      5  C   UNL     1     160.020 160.846 181.403  1.00  0.00     0.004 C 
ENDBRANCH   3   4
ENDBRANCH   2   3
ENDBRANCH   1   2
BRANCH   1   6
ATOM      6  C   UNL     1     164.194 160.618 181.960  1.00  0.00     0.028 C 
BRANCH   6   7
ATOM      7  C   UNL     1     163.627 161.229 180.675  1.00  0.00     0.156 C 
BRANCH   7   8
ATOM      8  O   UNL     1     163.279 160.224 179.760  1.00  0.00    -0.396 OA
ATOM      9  H   UNL     1     162.315 160.032 179.896  1.00  0.00     0.210 HD
ENDBRANCH   7   8
ENDBRANCH   6   7
ENDBRANCH   1   6
TORSDOF 6
ENDMDL
MODEL 7
REMARK VINA RESULT:    -3.022     16.048     17.395
REMARK INTER + INTRA:          -4.303
REMARK INTER:                  -3.958
REMARK INTRA:                  -0.345
REMARK UNBOUND:                -0.310
REMARK SMILES CCCCCCCO
REMARK SMILES IDX 5 1 4 2 3 3 2 4 1 5 6 6 7 7 8 8
REMARK H PARENT 8 9
REMARK Flexibility Score: inf
ROOT
ATOM      1  C   UNL     1     164.809 177.492 182.550  1.00  0.00     0.002 C 
ENDROOT
BRANCH   1   2
ATOM      2  C   UNL     1     166.217 177.633 183.150  1.00  0.00     0.000 C 
BRANCH   2   3
ATOM      3  C   UNL     1     166.297 178.740 184.214  1.00  0.00    -0.000 C 
BRANCH   3   4
ATOM      4  C   UNL     1     166.918 180.036 183.668  1.00  0.00    -0.003 C 
ATOM      5  C   UNL     1     168.261 179.803 182.978  1.00  0.00     0.004 C 
ENDBRANCH   3   4
ENDBRANCH   2   3
ENDBRANCH   1   2
BRANCH   1   6
ATOM      6  C   UNL     1     164.813 177.553 181.014  1.00  0.00     0.028 C 
BRANCH   6   7
ATOM      7  C   UNL     1     165.998 178.364 180.478  1.00  0.00     0.156 C 
BRANCH   7   8
ATOM      8  O   UNL     1     165.641 179.710 180.309  1.00  0.00    -0.396 OA
ATOM      9  H   UNL     1     166.238 180.081 179.608  1.00  0.00     0.210 HD
ENDBRANCH   7   8
ENDBRANCH   6   7
ENDBRANCH   1   6
TORSDOF 6
ENDMDL
MODEL 8
REMARK VINA RESULT:    -3.005      1.943      2.345
REMARK INTER + INTRA:          -4.281
REMARK INTER:                  -4.161
REMARK INTRA:                  -0.120
REMARK UNBOUND:                -0.310
REMARK SMILES CCCCCCCO
REMARK SMILES IDX 5 1 4 2 3 3 2 4 1 5 6 6 7 7 8 8
REMARK H PARENT 8 9
REMARK Flexibility Score: inf
ROOT
ATOM      1  C   UNL     1     160.305 163.405 181.959  1.00  0.00     0.002 C 
ENDROOT
BRANCH   1   2
ATOM      2  C   UNL     1     160.761 162.816 183.303  1.00  0.00     0.000 C 
BRANCH   2   3
ATOM      3  C   UNL     1     161.034 161.305 183.224  1.00  0.00    -0.000 C 
BRANCH   3   4
ATOM      4  C   UNL     1     162.185 160.965 182.264  1.00  0.00    -0.003 C 
ATOM      5  C   UNL     1     163.557 161.064 182.928  1.00  0.00     0.004 C 
ENDBRANCH   3   4
ENDBRANCH   2   3
ENDBRANCH   1   2
BRANCH   1   6
ATOM      6  C   UNL     1     159.875 164.876 182.075  1.00  0.00     0.028 C 
BRANCH   6   7
ATOM      7  C   UNL     1     160.683 165.783 181.142  1.00  0.00     0.156 C 
BRANCH   7   8
ATOM      8  O   UNL     1     159.875 166.808 180.626  1.00  0.00    -0.396 OA
ATOM      9  H   UNL     1     159.106 166.908 181.245  1.00  0.00     0.210 HD
ENDBRANCH   7   8
ENDBRANCH   6   7
ENDBRANCH   1   6
TORSDOF 6
ENDMDL
MODEL 9
REMARK VINA RESULT:    -2.903      4.417      5.522
REMARK INTER + INTRA:          -4.146
REMARK INTER:                  -4.030
REMARK INTRA:                  -0.115
REMARK UNBOUND:                -0.310
REMARK SMILES CCCCCCCO
REMARK SMILES IDX 5 1 4 2 3 3 2 4 1 5 6 6 7 7 8 8
REMARK H PARENT 8 9
REMARK Flexibility Score: inf
ROOT
ATOM      1  C   UNL     1     163.607 160.784 182.358  1.00  0.00     0.002 C 
ENDROOT
BRANCH   1   2
ATOM      2  C   UNL     1     164.576 159.978 183.238  1.00  0.00     0.000 C 
BRANCH   2   3
ATOM      3  C   UNL     1     166.050 160.240 182.887  1.00  0.00    -0.000 C 
BRANCH   3   4
ATOM      4  C   UNL     1     166.946 160.323 184.134  1.00  0.00    -0.003 C 
ATOM      5  C   UNL     1     167.280 161.761 184.527  1.00  0.00     0.004 C 
ENDBRANCH   3   4
ENDBRANCH   2   3
ENDBRANCH   1   2
BRANCH   1   6
ATOM      6  C   UNL     1     162.572 161.564 183.184  1.00  0.00     0.028 C 
BRANCH   6   7
ATOM      7  C   UNL     1     161.137 161.145 182.846  1.00  0.00     0.156 C 
BRANCH   7   8
ATOM      8  O   UNL     1     160.272 161.439 183.910  1.00  0.00    -0.396 OA
ATOM      9  H   UNL     1     160.390 162.402 184.120  1.00  0.00     0.210 HD
ENDBRANCH   7   8
ENDBRANCH   6   7
ENDBRANCH   1   6
TORSDOF 6
ENDMDL
