MODEL 1
REMARK VINA RESULT:    -4.460      0.000      0.000
REMARK INTER + INTRA:          -8.067
REMARK INTER:                  -6.807
REMARK INTRA:                  -1.260
REMARK UNBOUND:                -1.260
REMARK SMILES CCCCCCCCCC=CC(=O)[O-]
REMARK SMILES IDX 7 1 8 2 9 3 10 4 11 5 12 6 13 7 14 8 6 9 5 10 4 11 3 12 2 13
REMARK SMILES IDX 1 14
REMARK H PARENT
REMARK Flexibility Score: inf
ROOT
ATOM      1  C   UNL     1      18.702  23.177  53.551  1.00  0.00     0.000 C 
ENDROOT
BRANCH   1   2
ATOM      2  C   UNL     1      19.412  24.518  53.328  1.00  0.00     0.004 C 
BRANCH   2   3
ATOM      3  C   UNL     1      20.655  24.635  54.219  1.00  0.00     0.027 C 
BRANCH   3   4
ATOM      4  C   UNL     1      20.551  25.813  55.145  1.00  0.00    -0.025 C 
ATOM      5  C   UNL     1      19.700  26.816  54.906  1.00  0.00     0.020 C 
BRANCH   5   6
ATOM      6  C   UNL     1      19.578  27.968  55.811  1.00  0.00     0.064 C 
ATOM      7  O   UNL     1      20.614  28.481  56.308  1.00  0.00    -0.545 OA
ATOM      8  O   UNL     1      18.333  28.501  56.128  1.00  0.00    -0.545 OA
ENDBRANCH   5   6
ENDBRANCH   3   4
ENDBRANCH   2   3
ENDBRANCH   1   2
BRANCH   1   9
ATOM      9  C   UNL     1      17.233  23.388  53.938  1.00  0.00     0.000 C 
BRANCH   9  10
ATOM     10  C   UNL     1      16.872  24.880  53.933  1.00  0.00     0.000 C 
BRANCH  10  11
ATOM     11  C   UNL     1      16.290  25.360  55.275  1.00  0.00    -0.000 C 
BRANCH  11  12
ATOM     12  C   UNL     1      17.047  24.873  56.527  1.00  0.00    -0.000 C 
BRANCH  12  13
ATOM     13  C   UNL     1      16.732  25.649  57.819  1.00  0.00    -0.003 C 
ATOM     14  C   UNL     1      15.421  25.213  58.471  1.00  0.00     0.004 C 
ENDBRANCH  12  13
ENDBRANCH  11  12
ENDBRANCH  10  11
ENDBRANCH   9  10
ENDBRANCH   1   9
TORSDOF 9
ENDMDL
MODEL 2
REMARK VINA RESULT:    -4.238      1.276      1.915
REMARK INTER + INTRA:          -7.728
REMARK INTER:                  -6.719
REMARK INTRA:                  -1.009
REMARK UNBOUND:                -1.260
REMARK SMILES CCCCCCCCCC=CC(=O)[O-]
REMARK SMILES IDX 7 1 8 2 9 3 10 4 11 5 12 6 13 7 14 8 6 9 5 10 4 11 3 12 2 13
REMARK SMILES IDX 1 14
REMARK H PARENT
REMARK Flexibility Score: inf
ROOT
ATOM      1  C   UNL     1      17.035  25.557  52.423  1.00  0.00     0.000 C 
ENDROOT
BRANCH   1   2
ATOM      2  C   UNL     1      18.042  24.401  52.437  1.00  0.00     0.004 C 
BRANCH   2   3
ATOM      3  C   UNL     1      18.614  24.187  53.843  1.00  0.00     0.027 C 
BRANCH   3   4
ATOM      4  C   UNL     1      19.671  25.206  54.161  1.00  0.00    -0.025 C 
ATOM      5  C   UNL     1      19.468  26.161  55.073  1.00  0.00     0.020 C 
BRANCH   5   6
ATOM      6  C   UNL     1      20.499  27.156  55.404  1.00  0.00     0.064 C 
ATOM      7  O   UNL     1      20.176  28.366  55.537  1.00  0.00    -0.545 OA
ATOM      8  O   UNL     1      21.829  26.782  55.572  1.00  0.00    -0.545 OA
ENDBRANCH   5   6
ENDBRANCH   3   4
ENDBRANCH   2   3
ENDBRANCH   1   2
BRANCH   1   9
ATOM      9  C   UNL     1      15.896  25.309  53.420  1.00  0.00     0.000 C 
BRANCH   9  10
ATOM     10  C   UNL     1      15.646  26.549  54.289  1.00  0.00     0.000 C 
BRANCH  10  11
ATOM     11  C   UNL     1      15.294  26.199  55.746  1.00  0.00    -0.000 C 
BRANCH  11  12
ATOM     12  C   UNL     1      16.319  25.302  56.469  1.00  0.00    -0.000 C 
BRANCH  12  13
ATOM     13  C   UNL     1      16.186  25.269  58.002  1.00  0.00    -0.003 C 
ATOM     14  C   UNL     1      14.771  25.588  58.483  1.00  0.00     0.004 C 
ENDBRANCH  12  13
ENDBRANCH  11  12
ENDBRANCH  10  11
ENDBRANCH   9  10
ENDBRANCH   1   9
TORSDOF 9
ENDMDL
MODEL 3
REMARK VINA RESULT:    -4.224      2.816      5.111
REMARK INTER + INTRA:          -7.706
REMARK INTER:                  -6.373
REMARK INTRA:                  -1.334
REMARK UNBOUND:                -1.260
REMARK SMILES CCCCCCCCCC=CC(=O)[O-]
REMARK SMILES IDX 7 1 8 2 9 3 10 4 11 5 12 6 13 7 14 8 6 9 5 10 4 11 3 12 2 13
REMARK SMILES IDX 1 14
REMARK H PARENT
REMARK Flexibility Score: inf
ROOT
ATOM      1  C   UNL     1      14.154  25.999  58.526  1.00  0.00     0.000 C 
ENDROOT
BRANCH   1   2
ATOM      2  C   UNL     1      15.243  24.920  58.578  1.00  0.00     0.004 C 
BRANCH   2   3
ATOM      3  C   UNL     1      16.547  25.426  57.949  1.00  0.00     0.027 C 
BRANCH   3   4
ATOM      4  C   UNL     1      16.884  24.655  56.704  1.00  0.00    -0.025 C 
ATOM      5  C   UNL     1      17.344  25.267  55.608  1.00  0.00     0.020 C 
BRANCH   5   6
ATOM      6  C   UNL     1      17.692  24.525  54.388  1.00  0.00     0.064 C 
ATOM      7  O   UNL     1      17.260  23.352  54.229  1.00  0.00    -0.545 OA
ATOM      8  O   UNL     1      18.492  25.096  53.404  1.00  0.00    -0.545 OA
ENDBRANCH   5   6
ENDBRANCH   3   4
ENDBRANCH   2   3
ENDBRANCH   1   2
BRANCH   1   9
ATOM      9  C   UNL     1      13.831  26.387  57.077  1.00  0.00     0.000 C 
BRANCH   9  10
ATOM     10  C   UNL     1      14.200  27.852  56.804  1.00  0.00     0.000 C 
BRANCH  10  11
ATOM     11  C   UNL     1      14.584  28.621  58.081  1.00  0.00    -0.000 C 
BRANCH  11  12
ATOM     12  C   UNL     1      16.007  29.215  58.084  1.00  0.00    -0.000 C 
BRANCH  12  13
ATOM     13  C   UNL     1      16.843  28.902  56.829  1.00  0.00    -0.003 C 
ATOM     14  C   UNL     1      18.312  28.626  57.146  1.00  0.00     0.004 C 
ENDBRANCH  12  13
ENDBRANCH  11  12
ENDBRANCH  10  11
ENDBRANCH   9  10
ENDBRANCH   1   9
TORSDOF 9
ENDMDL
MODEL 4
REMARK VINA RESULT:    -4.182      2.784      4.599
REMARK INTER + INTRA:          -7.643
REMARK INTER:                  -6.042
REMARK INTRA:                  -1.602
REMARK UNBOUND:                -1.260
REMARK SMILES CCCCCCCCCC=CC(=O)[O-]
REMARK SMILES IDX 7 1 8 2 9 3 10 4 11 5 12 6 13 7 14 8 6 9 5 10 4 11 3 12 2 13
REMARK SMILES IDX 1 14
REMARK H PARENT
REMARK Flexibility Score: inf
ROOT
ATOM      1  C   UNL     1      15.288  25.059  58.554  1.00  0.00     0.000 C 
ENDROOT
BRANCH   1   2
ATOM      2  C   UNL     1      16.632  25.482  57.950  1.00  0.00     0.004 C 
BRANCH   2   3
ATOM      3  C   UNL     1      17.010  24.581  56.767  1.00  0.00     0.027 C 
BRANCH   3   4
ATOM      4  C   UNL     1      17.386  25.394  55.562  1.00  0.00    -0.025 C 
ATOM      5  C   UNL     1      16.519  25.607  54.566  1.00  0.00     0.020 C 
BRANCH   5   6
ATOM      6  C   UNL     1      16.869  26.412  53.387  1.00  0.00     0.064 C 
ATOM      7  O   UNL     1      16.427  27.587  53.283  1.00  0.00    -0.545 OA
ATOM      8  O   UNL     1      17.680  25.897  52.381  1.00  0.00    -0.545 OA
ENDBRANCH   5   6
ENDBRANCH   3   4
ENDBRANCH   2   3
ENDBRANCH   1   2
BRANCH   1   9
ATOM      9  C   UNL     1      14.252  26.184  58.436  1.00  0.00     0.000 C 
BRANCH   9  10
ATOM     10  C   UNL     1      13.737  26.307  56.995  1.00  0.00     0.000 C 
BRANCH  10  11
ATOM     11  C   UNL     1      14.033  27.681  56.368  1.00  0.00    -0.000 C 
BRANCH  11  12
ATOM     12  C   UNL     1      14.940  28.602  57.209  1.00  0.00    -0.000 C 
BRANCH  12  13
ATOM     13  C   UNL     1      16.321  28.892  56.592  1.00  0.00    -0.003 C 
ATOM     14  C   UNL     1      17.435  28.966  57.634  1.00  0.00     0.004 C 
ENDBRANCH  12  13
ENDBRANCH  11  12
ENDBRANCH  10  11
ENDBRANCH   9  10
ENDBRANCH   1   9
TORSDOF 9
ENDMDL
MODEL 5
REMARK VINA RESULT:    -4.166      1.973      4.743
REMARK INTER + INTRA:          -7.619
REMARK INTER:                  -6.336
REMARK INTRA:                  -1.283
REMARK UNBOUND:                -1.260
REMARK SMILES CCCCCCCCCC=CC(=O)[O-]
REMARK SMILES IDX 7 1 8 2 9 3 10 4 11 5 12 6 13 7 14 8 6 9 5 10 4 11 3 12 2 13
REMARK SMILES IDX 1 14
REMARK H PARENT
REMARK Flexibility Score: inf
ROOT
ATOM      1  C   UNL     1      13.900  27.505  58.286  1.00  0.00     0.000 C 
ENDROOT
BRANCH   1   2
ATOM      2  C   UNL     1      14.612  28.545  57.414  1.00  0.00     0.004 C 
BRANCH   2   3
ATOM      3  C   UNL     1      15.927  28.997  58.061  1.00  0.00     0.027 C 
BRANCH   3   4
ATOM      4  C   UNL     1      17.045  29.027  57.058  1.00  0.00    -0.025 C 
ATOM      5  C   UNL     1      18.241  28.497  57.330  1.00  0.00     0.020 C 
BRANCH   5   6
ATOM      6  C   UNL     1      19.340  28.507  56.352  1.00  0.00     0.064 C 
ATOM      7  O   UNL     1      19.087  28.331  55.131  1.00  0.00    -0.545 OA
ATOM      8  O   UNL     1      20.656  28.707  56.755  1.00  0.00    -0.545 OA
ENDBRANCH   5   6
ENDBRANCH   3   4
ENDBRANCH   2   3
ENDBRANCH   1   2
BRANCH   1   9
ATOM      9  C   UNL     1      14.130  26.086  57.750  1.00  0.00     0.000 C 
BRANCH   9  10
ATOM     10  C   UNL     1      15.261  25.385  58.515  1.00  0.00     0.000 C 
BRANCH  10  11
ATOM     11  C   UNL     1      16.510  25.144  57.649  1.00  0.00    -0.000 C 
BRANCH  11  12
ATOM     12  C   UNL     1      16.334  25.449  56.148  1.00  0.00    -0.000 C 
BRANCH  12  13
ATOM     13  C   UNL     1      17.532  25.064  55.262  1.00  0.00    -0.003 C 
ATOM     14  C   UNL     1      17.270  23.820  54.414  1.00  0.00     0.004 C 
ENDBRANCH  12  13
ENDBRANCH  11  12
ENDBRANCH  10  11
ENDBRANCH   9  10
ENDBRANCH   1   9
TORSDOF 9
ENDMDL
MODEL 6
REMARK VINA RESULT:    -4.163      6.207      8.773
REMARK INTER + INTRA:          -7.614
REMARK INTER:                  -6.623
REMARK INTRA:                  -0.991
REMARK UNBOUND:                -1.260
REMARK SMILES CCCCCCCCCC=CC(=O)[O-]
REMARK SMILES IDX 7 1 8 2 9 3 10 4 11 5 12 6 13 7 14 8 6 9 5 10 4 11 3 12 2 13
REMARK SMILES IDX 1 14
REMARK H PARENT
REMARK Flexibility Score: inf
ROOT
ATOM      1  C   UNL     1      26.853  25.503  54.643  1.00  0.00     0.000 C 
ENDROOT
BRANCH   1   2
ATOM      2  C   UNL     1      26.136  25.592  53.290  1.00  0.00     0.004 C 
BRANCH   2   3
ATOM      3  C   UNL     1      24.632  25.824  53.480  1.00  0.00     0.027 C 
BRANCH   3   4
ATOM      4  C   UNL     1      23.829  24.715  52.863  1.00  0.00    -0.025 C 
ATOM      5  C   UNL     1      23.205  23.803  53.615  1.00  0.00     0.020 C 
BRANCH   5   6
ATOM      6  C   UNL     1      22.404  22.720  53.025  1.00  0.00     0.064 C 
ATOM      7  O   UNL     1      22.788  22.173  51.958  1.00  0.00    -0.545 OA
ATOM      8  O   UNL     1      21.226  22.290  53.628  1.00  0.00    -0.545 OA
ENDBRANCH   5   6
ENDBRANCH   3   4
ENDBRANCH   2   3
ENDBRANCH   1   2
BRANCH   1   9
ATOM      9  C   UNL     1      25.998  26.111  55.761  1.00  0.00     0.000 C 
BRANCH   9  10
ATOM     10  C   UNL     1      25.851  25.134  56.936  1.00  0.00     0.000 C 
BRANCH  10  11
ATOM     11  C   UNL     1      26.328  23.711  56.594  1.00  0.00    -0.000 C 
BRANCH  11  12
ATOM     12  C   UNL     1      27.188  23.031  57.678  1.00  0.00    -0.000 C 
BRANCH  12  13
ATOM     13  C   UNL     1      28.516  22.437  57.174  1.00  0.00    -0.003 C 
ATOM     14  C   UNL     1      29.286  23.389  56.261  1.00  0.00     0.004 C 
ENDBRANCH  12  13
ENDBRANCH  11  12
ENDBRANCH  10  11
ENDBRANCH   9  10
ENDBRANCH   1   9
TORSDOF 9
ENDMDL
MODEL 7
REMARK VINA RESULT:    -4.157      6.315      8.678
REMARK INTER + INTRA:          -7.604
REMARK INTER:                  -6.387
REMARK INTRA:                  -1.217
REMARK UNBOUND:                -1.260
REMARK SMILES CCCCCCCCCC=CC(=O)[O-]
REMARK SMILES IDX 7 1 8 2 9 3 10 4 11 5 12 6 13 7 14 8 6 9 5 10 4 11 3 12 2 13
REMARK SMILES IDX 1 14
REMARK H PARENT
REMARK Flexibility Score: inf
ROOT
ATOM      1  C   UNL     1      27.028  23.122  57.728  1.00  0.00     0.000 C 
ENDROOT
BRANCH   1   2
ATOM      2  C   UNL     1      26.110  24.270  57.293  1.00  0.00     0.004 C 
BRANCH   2   3
ATOM      3  C   UNL     1      26.720  25.046  56.119  1.00  0.00     0.027 C 
BRANCH   3   4
ATOM      4  C   UNL     1      25.959  26.312  55.850  1.00  0.00    -0.025 C 
ATOM      5  C   UNL     1      24.709  26.288  55.377  1.00  0.00     0.020 C 
BRANCH   5   6
ATOM      6  C   UNL     1      23.947  27.520  55.123  1.00  0.00     0.064 C 
ATOM      7  O   UNL     1      24.504  28.485  54.537  1.00  0.00    -0.545 OA
ATOM      8  O   UNL     1      22.619  27.637  55.520  1.00  0.00    -0.545 OA
ENDBRANCH   5   6
ENDBRANCH   3   4
ENDBRANCH   2   3
ENDBRANCH   1   2
BRANCH   1   9
ATOM      9  C   UNL     1      28.260  23.026  56.820  1.00  0.00     0.000 C 
BRANCH   9  10
ATOM     10  C   UNL     1      28.445  21.596  56.293  1.00  0.00     0.000 C 
BRANCH  10  11
ATOM     11  C   UNL     1      27.282  21.131  55.399  1.00  0.00    -0.000 C 
BRANCH  11  12
ATOM     12  C   UNL     1      27.063  21.967  54.123  1.00  0.00    -0.000 C 
BRANCH  12  13
ATOM     13  C   UNL     1      25.595  22.322  53.823  1.00  0.00    -0.003 C 
ATOM     14  C   UNL     1      24.603  21.423  54.558  1.00  0.00     0.004 C 
ENDBRANCH  12  13
ENDBRANCH  11  12
ENDBRANCH  10  11
ENDBRANCH   9  10
ENDBRANCH   1   9
TORSDOF 9
ENDMDL
MODEL 8
REMARK VINA RESULT:    -4.109      2.601      3.758
REMARK INTER + INTRA:          -7.532
REMARK INTER:                  -6.337
REMARK INTRA:                  -1.195
REMARK UNBOUND:                -1.260
REMARK SMILES CCCCCCCCCC=CC(=O)[O-]
REMARK SMILES IDX 7 1 8 2 9 3 10 4 11 5 12 6 13 7 14 8 6 9 5 10 4 11 3 12 2 13
REMARK SMILES IDX 1 14
REMARK H PARENT
REMARK Flexibility Score: inf
ROOT
ATOM      1  C   UNL     1      15.898  26.213  52.560  1.00  0.00     0.000 C 
ENDROOT
BRANCH   1   2
ATOM      2  C   UNL     1      17.164  25.359  52.420  1.00  0.00     0.004 C 
BRANCH   2   3
ATOM      3  C   UNL     1      17.024  24.039  53.189  1.00  0.00     0.027 C 
BRANCH   3   4
ATOM      4  C   UNL     1      18.367  23.493  53.581  1.00  0.00    -0.025 C 
ATOM      5  C   UNL     1      19.498  24.140  53.280  1.00  0.00     0.020 C 
BRANCH   5   6
ATOM      6  C   UNL     1      20.819  23.624  53.669  1.00  0.00     0.064 C 
ATOM      7  O   UNL     1      20.974  22.388  53.855  1.00  0.00    -0.545 OA
ATOM      8  O   UNL     1      21.902  24.480  53.837  1.00  0.00    -0.545 OA
ENDBRANCH   5   6
ENDBRANCH   3   4
ENDBRANCH   2   3
ENDBRANCH   1   2
BRANCH   1   9
ATOM      9  C   UNL     1      16.136  27.401  53.500  1.00  0.00     0.000 C 
BRANCH   9  10
ATOM     10  C   UNL     1      15.542  27.131  54.890  1.00  0.00     0.000 C 
BRANCH  10  11
ATOM     11  C   UNL     1      16.573  27.284  56.023  1.00  0.00    -0.000 C 
BRANCH  11  12
ATOM     12  C   UNL     1      17.519  26.082  56.213  1.00  0.00    -0.000 C 
BRANCH  12  13
ATOM     13  C   UNL     1      16.861  24.827  56.814  1.00  0.00    -0.003 C 
ATOM     14  C   UNL     1      16.036  25.128  58.065  1.00  0.00     0.004 C 
ENDBRANCH  12  13
ENDBRANCH  11  12
ENDBRANCH  10  11
ENDBRANCH   9  10
ENDBRANCH   1   9
TORSDOF 9
ENDMDL
MODEL 9
REMARK VINA RESULT:    -4.066      2.320      3.822
REMARK INTER + INTRA:          -7.465
REMARK INTER:                  -6.215
REMARK INTRA:                  -1.250
REMARK UNBOUND:                -1.260
REMARK SMILES CCCCCCCCCC=CC(=O)[O-]
REMARK SMILES IDX 7 1 8 2 9 3 10 4 11 5 12 6 13 7 14 8 6 9 5 10 4 11 3 12 2 13
REMARK SMILES IDX 1 14
REMARK H PARENT
REMARK Flexibility Score: inf
ROOT
ATOM      1  C   UNL     1      15.656  27.138  55.057  1.00  0.00     0.000 C 
ENDROOT
BRANCH   1   2
ATOM      2  C   UNL     1      16.184  26.808  53.655  1.00  0.00     0.004 C 
BRANCH   2   3
ATOM      3  C   UNL     1      16.165  25.296  53.403  1.00  0.00     0.027 C 
BRANCH   3   4
ATOM      4  C   UNL     1      17.500  24.678  53.706  1.00  0.00    -0.025 C 
ATOM      5  C   UNL     1      18.627  25.396  53.666  1.00  0.00     0.020 C 
BRANCH   5   6
ATOM      6  C   UNL     1      19.939  24.807  53.973  1.00  0.00     0.064 C 
ATOM      7  O   UNL     1      20.627  25.281  54.915  1.00  0.00    -0.545 OA
ATOM      8  O   UNL     1      20.433  23.735  53.239  1.00  0.00    -0.545 OA
ENDBRANCH   5   6
ENDBRANCH   3   4
ENDBRANCH   2   3
ENDBRANCH   1   2
BRANCH   1   9
ATOM      9  C   UNL     1      16.780  27.661  55.960  1.00  0.00     0.000 C 
BRANCH   9  10
ATOM     10  C   UNL     1      17.195  26.603  56.992  1.00  0.00     0.000 C 
BRANCH  10  11
ATOM     11  C   UNL     1      16.167  25.466  57.130  1.00  0.00    -0.000 C 
BRANCH  11  12
ATOM     12  C   UNL     1      15.340  25.487  58.431  1.00  0.00    -0.000 C 
BRANCH  12  13
ATOM     13  C   UNL     1      13.920  26.064  58.288  1.00  0.00    -0.003 C 
ATOM     14  C   UNL     1      13.880  27.586  58.419  1.00  0.00     0.004 C 
ENDBRANCH  12  13
ENDBRANCH  11  12
ENDBRANCH  10  11
ENDBRANCH   9  10
ENDBRANCH   1   9
TORSDOF 9
ENDMDL
