MODEL 1
REMARK VINA RESULT:    -5.662      0.000      0.000
REMARK INTER + INTRA:          -6.271
REMARK INTER:                  -6.158
REMARK INTRA:                  -0.113
REMARK UNBOUND:                -0.113
REMARK SMILES Cc1ccc(C(C)C)cc1O
REMARK SMILES IDX 1 1 2 2 10 3 9 4 5 5 4 6 3 7 11 8 6 10 7 11 8 12
REMARK H PARENT 11 9
REMARK Flexibility Score: inf
ROOT
ATOM      1  C   UNL     1      18.847  -6.768  34.727  1.00  0.00     0.048 C 
ATOM      2  C   UNL     1      17.858  -5.669  34.448  1.00  0.00    -0.009 A 
ATOM      3  C   UNL     1      17.120  -5.067  35.491  1.00  0.00     0.118 A 
ATOM      4  C   UNL     1      16.208  -4.046  35.199  1.00  0.00     0.050 A 
ATOM      5  C   UNL     1      16.012  -3.609  33.877  1.00  0.00    -0.042 A 
ATOM      6  C   UNL     1      16.749  -4.213  32.847  1.00  0.00     0.004 A 
ATOM      7  C   UNL     1      17.661  -5.232  33.129  1.00  0.00     0.007 A 
ENDROOT
BRANCH   3   8
ATOM      8  O   UNL     1      17.271  -5.458  36.824  1.00  0.00    -0.508 OA
ATOM      9  H   UNL     1      17.387  -6.422  37.106  1.00  0.00     0.293 HD
ENDBRANCH   3   8
BRANCH   5  10
ATOM     10  C   UNL     1      15.024  -2.503  33.555  1.00  0.00     0.013 C 
ATOM     11  C   UNL     1      15.746  -1.240  33.072  1.00  0.00     0.012 C 
ATOM     12  C   UNL     1      14.123  -2.199  34.759  1.00  0.00     0.012 C 
ENDBRANCH   5  10
TORSDOF 2
ENDMDL
MODEL 2
REMARK VINA RESULT:    -5.405     12.127     13.514
REMARK INTER + INTRA:          -5.991
REMARK INTER:                  -5.864
REMARK INTRA:                  -0.128
REMARK UNBOUND:                -0.113
REMARK SMILES Cc1ccc(C(C)C)cc1O
REMARK SMILES IDX 1 1 2 2 10 3 9 4 5 5 4 6 3 7 11 8 6 10 7 11 8 12
REMARK H PARENT 11 9
REMARK Flexibility Score: inf
ROOT
ATOM      1  C   UNL     1      23.382   6.222  30.611  1.00  0.00     0.048 C 
ATOM      2  C   UNL     1      24.161   5.100  29.983  1.00  0.00    -0.009 A 
ATOM      3  C   UNL     1      25.565   5.169  29.848  1.00  0.00     0.118 A 
ATOM      4  C   UNL     1      26.261   4.107  29.259  1.00  0.00     0.050 A 
ATOM      5  C   UNL     1      25.582   2.967  28.795  1.00  0.00    -0.042 A 
ATOM      6  C   UNL     1      24.186   2.906  28.932  1.00  0.00     0.004 A 
ATOM      7  C   UNL     1      23.483   3.960  29.519  1.00  0.00     0.007 A 
ENDROOT
BRANCH   3   8
ATOM      8  O   UNL     1      26.296   6.275  30.290  1.00  0.00    -0.508 OA
ATOM      9  H   UNL     1      26.510   7.067  29.697  1.00  0.00     0.293 HD
ENDBRANCH   3   8
BRANCH   5  10
ATOM     10  C   UNL     1      26.332   1.813  28.155  1.00  0.00     0.013 C 
ATOM     11  C   UNL     1      27.202   2.299  26.990  1.00  0.00     0.012 C 
ATOM     12  C   UNL     1      25.367   0.710  27.702  1.00  0.00     0.012 C 
ENDBRANCH   5  10
TORSDOF 2
ENDMDL
MODEL 3
REMARK VINA RESULT:    -5.256     11.710     13.128
REMARK INTER + INTRA:          -5.830
REMARK INTER:                  -5.732
REMARK INTRA:                  -0.098
REMARK UNBOUND:                -0.113
REMARK SMILES Cc1ccc(C(C)C)cc1O
REMARK SMILES IDX 1 1 2 2 10 3 9 4 5 5 4 6 3 7 11 8 6 10 7 11 8 12
REMARK H PARENT 11 9
REMARK Flexibility Score: inf
ROOT
ATOM      1  C   UNL     1      24.799   5.975  29.683  1.00  0.00     0.048 C 
ATOM      2  C   UNL     1      25.168   4.586  29.239  1.00  0.00    -0.009 A 
ATOM      3  C   UNL     1      24.259   3.513  29.360  1.00  0.00     0.118 A 
ATOM      4  C   UNL     1      24.633   2.232  28.936  1.00  0.00     0.050 A 
ATOM      5  C   UNL     1      25.907   1.995  28.390  1.00  0.00    -0.042 A 
ATOM      6  C   UNL     1      26.805   3.068  28.274  1.00  0.00     0.004 A 
ATOM      7  C   UNL     1      26.441   4.349  28.693  1.00  0.00     0.007 A 
ENDROOT
BRANCH   3   8
ATOM      8  O   UNL     1      22.980   3.685  29.894  1.00  0.00    -0.508 OA
ATOM      9  H   UNL     1      22.795   4.250  30.713  1.00  0.00     0.293 HD
ENDBRANCH   3   8
BRANCH   5  10
ATOM     10  C   UNL     1      26.318   0.609  27.930  1.00  0.00     0.013 C 
ATOM     11  C   UNL     1      25.434   0.126  26.774  1.00  0.00     0.012 C 
ATOM     12  C   UNL     1      26.298  -0.388  29.096  1.00  0.00     0.012 C 
ENDBRANCH   5  10
TORSDOF 2
ENDMDL
MODEL 4
REMARK VINA RESULT:    -5.238      1.427      2.042
REMARK INTER + INTRA:          -5.810
REMARK INTER:                  -5.682
REMARK INTRA:                  -0.128
REMARK UNBOUND:                -0.113
REMARK SMILES Cc1ccc(C(C)C)cc1O
REMARK SMILES IDX 1 1 2 2 10 3 9 4 5 5 4 6 3 7 11 8 6 10 7 11 8 12
REMARK H PARENT 11 9
REMARK Flexibility Score: inf
ROOT
ATOM      1  C   UNL     1      18.868  -6.691  35.083  1.00  0.00     0.048 C 
ATOM      2  C   UNL     1      17.886  -5.630  34.672  1.00  0.00    -0.009 A 
ATOM      3  C   UNL     1      17.711  -5.281  33.314  1.00  0.00     0.118 A 
ATOM      4  C   UNL     1      16.787  -4.289  32.963  1.00  0.00     0.050 A 
ATOM      5  C   UNL     1      16.028  -3.630  33.946  1.00  0.00    -0.042 A 
ATOM      6  C   UNL     1      16.208  -3.982  35.293  1.00  0.00     0.004 A 
ATOM      7  C   UNL     1      17.126  -4.971  35.652  1.00  0.00     0.007 A 
ENDROOT
BRANCH   3   8
ATOM      8  O   UNL     1      18.436  -5.900  32.293  1.00  0.00    -0.508 OA
ATOM      9  H   UNL     1      18.512  -5.516  31.360  1.00  0.00     0.293 HD
ENDBRANCH   3   8
BRANCH   5  10
ATOM     10  C   UNL     1      15.026  -2.554  33.571  1.00  0.00     0.013 C 
ATOM     11  C   UNL     1      15.735  -1.283  33.088  1.00  0.00     0.012 C 
ATOM     12  C   UNL     1      14.080  -2.248  34.739  1.00  0.00     0.012 C 
ENDBRANCH   5  10
TORSDOF 2
ENDMDL
MODEL 5
REMARK VINA RESULT:    -5.227     11.066     11.939
REMARK INTER + INTRA:          -5.798
REMARK INTER:                  -5.690
REMARK INTRA:                  -0.108
REMARK UNBOUND:                -0.113
REMARK SMILES Cc1ccc(C(C)C)cc1O
REMARK SMILES IDX 1 1 2 2 10 3 9 4 5 5 4 6 3 7 11 8 6 10 7 11 8 12
REMARK H PARENT 11 9
REMARK Flexibility Score: inf
ROOT
ATOM      1  C   UNL     1      25.611  -5.275  28.538  1.00  0.00     0.048 C 
ATOM      2  C   UNL     1      25.257  -4.315  27.436  1.00  0.00    -0.009 A 
ATOM      3  C   UNL     1      26.027  -3.155  27.200  1.00  0.00     0.118 A 
ATOM      4  C   UNL     1      25.671  -2.281  26.166  1.00  0.00     0.050 A 
ATOM      5  C   UNL     1      24.553  -2.541  25.354  1.00  0.00    -0.042 A 
ATOM      6  C   UNL     1      23.792  -3.696  25.595  1.00  0.00     0.004 A 
ATOM      7  C   UNL     1      24.140  -4.573  26.625  1.00  0.00     0.007 A 
ENDROOT
BRANCH   3   8
ATOM      8  O   UNL     1      27.149  -2.844  27.972  1.00  0.00    -0.508 OA
ATOM      9  H   UNL     1      27.248  -1.970  28.472  1.00  0.00     0.293 HD
ENDBRANCH   3   8
BRANCH   5  10
ATOM     10  C   UNL     1      24.162  -1.597  24.232  1.00  0.00     0.013 C 
ATOM     11  C   UNL     1      25.357  -0.746  23.785  1.00  0.00     0.012 C 
ATOM     12  C   UNL     1      22.976  -0.714  24.640  1.00  0.00     0.012 C 
ENDBRANCH   5  10
TORSDOF 2
ENDMDL
MODEL 6
REMARK VINA RESULT:    -5.136      1.328      3.947
REMARK INTER + INTRA:          -5.699
REMARK INTER:                  -5.572
REMARK INTRA:                  -0.127
REMARK UNBOUND:                -0.113
REMARK SMILES Cc1ccc(C(C)C)cc1O
REMARK SMILES IDX 1 1 2 2 10 3 9 4 5 5 4 6 3 7 11 8 6 10 7 11 8 12
REMARK H PARENT 11 9
REMARK Flexibility Score: inf
ROOT
ATOM      1  C   UNL     1      15.227  -2.830  35.556  1.00  0.00     0.048 C 
ATOM      2  C   UNL     1      16.095  -3.718  34.709  1.00  0.00    -0.009 A 
ATOM      3  C   UNL     1      16.715  -4.866  35.250  1.00  0.00     0.118 A 
ATOM      4  C   UNL     1      17.518  -5.674  34.435  1.00  0.00     0.050 A 
ATOM      5  C   UNL     1      17.718  -5.358  33.080  1.00  0.00    -0.042 A 
ATOM      6  C   UNL     1      17.099  -4.215  32.550  1.00  0.00     0.004 A 
ATOM      7  C   UNL     1      16.297  -3.404  33.355  1.00  0.00     0.007 A 
ENDROOT
BRANCH   3   8
ATOM      8  O   UNL     1      16.553  -5.232  36.588  1.00  0.00    -0.508 OA
ATOM      9  H   UNL     1      16.917  -6.095  36.972  1.00  0.00     0.293 HD
ENDBRANCH   3   8
BRANCH   5  10
ATOM     10  C   UNL     1      18.588  -6.230  32.192  1.00  0.00     0.013 C 
ATOM     11  C   UNL     1      18.248  -6.022  30.711  1.00  0.00     0.012 C 
ATOM     12  C   UNL     1      18.471  -7.708  32.584  1.00  0.00     0.012 C 
ENDBRANCH   5  10
TORSDOF 2
ENDMDL
MODEL 7
REMARK VINA RESULT:    -5.114     11.326     12.444
REMARK INTER + INTRA:          -5.675
REMARK INTER:                  -5.549
REMARK INTRA:                  -0.126
REMARK UNBOUND:                -0.113
REMARK SMILES Cc1ccc(C(C)C)cc1O
REMARK SMILES IDX 1 1 2 2 10 3 9 4 5 5 4 6 3 7 11 8 6 10 7 11 8 12
REMARK H PARENT 11 9
REMARK Flexibility Score: inf
ROOT
ATOM      1  C   UNL     1      23.711  -5.245  27.158  1.00  0.00     0.048 C 
ATOM      2  C   UNL     1      24.240  -3.994  26.512  1.00  0.00    -0.009 A 
ATOM      3  C   UNL     1      25.243  -3.217  27.132  1.00  0.00     0.118 A 
ATOM      4  C   UNL     1      25.715  -2.058  26.504  1.00  0.00     0.050 A 
ATOM      5  C   UNL     1      25.203  -1.652  25.259  1.00  0.00    -0.042 A 
ATOM      6  C   UNL     1      24.206  -2.430  24.649  1.00  0.00     0.004 A 
ATOM      7  C   UNL     1      23.730  -3.587  25.268  1.00  0.00     0.007 A 
ENDROOT
BRANCH   3   8
ATOM      8  O   UNL     1      25.791  -3.569  28.368  1.00  0.00    -0.508 OA
ATOM      9  H   UNL     1      25.420  -4.315  28.943  1.00  0.00     0.293 HD
ENDBRANCH   3   8
BRANCH   5  10
ATOM     10  C   UNL     1      25.710  -0.397  24.574  1.00  0.00     0.013 C 
ATOM     11  C   UNL     1      25.618  -0.524  23.049  1.00  0.00     0.012 C 
ATOM     12  C   UNL     1      27.141  -0.066  25.016  1.00  0.00     0.012 C 
ENDBRANCH   5  10
TORSDOF 2
ENDMDL
MODEL 8
REMARK VINA RESULT:    -5.050     10.922     12.288
REMARK INTER + INTRA:          -5.605
REMARK INTER:                  -5.478
REMARK INTRA:                  -0.127
REMARK UNBOUND:                -0.113
REMARK SMILES Cc1ccc(C(C)C)cc1O
REMARK SMILES IDX 1 1 2 2 10 3 9 4 5 5 4 6 3 7 11 8 6 10 7 11 8 12
REMARK H PARENT 11 9
REMARK Flexibility Score: inf
ROOT
ATOM      1  C   UNL     1      24.580  -1.020  23.938  1.00  0.00     0.048 C 
ATOM      2  C   UNL     1      24.675  -2.054  25.026  1.00  0.00    -0.009 A 
ATOM      3  C   UNL     1      25.634  -1.946  26.057  1.00  0.00     0.118 A 
ATOM      4  C   UNL     1      25.696  -2.925  27.056  1.00  0.00     0.050 A 
ATOM      5  C   UNL     1      24.815  -4.020  27.049  1.00  0.00    -0.042 A 
ATOM      6  C   UNL     1      23.865  -4.121  26.021  1.00  0.00     0.004 A 
ATOM      7  C   UNL     1      23.796  -3.149  25.020  1.00  0.00     0.007 A 
ENDROOT
BRANCH   3   8
ATOM      8  O   UNL     1      26.536  -0.881  26.118  1.00  0.00    -0.508 OA
ATOM      9  H   UNL     1      27.028  -0.528  25.307  1.00  0.00     0.293 HD
ENDBRANCH   3   8
BRANCH   5  10
ATOM     10  C   UNL     1      24.879  -5.085  28.129  1.00  0.00     0.013 C 
ATOM     11  C   UNL     1      26.330  -5.399  28.510  1.00  0.00     0.012 C 
ATOM     12  C   UNL     1      24.133  -6.354  27.699  1.00  0.00     0.012 C 
ENDBRANCH   5  10
TORSDOF 2
ENDMDL
MODEL 9
REMARK VINA RESULT:    -5.041     11.078     11.881
REMARK INTER + INTRA:          -5.595
REMARK INTER:                  -5.468
REMARK INTRA:                  -0.127
REMARK UNBOUND:                -0.113
REMARK SMILES Cc1ccc(C(C)C)cc1O
REMARK SMILES IDX 1 1 2 2 10 3 9 4 5 5 4 6 3 7 11 8 6 10 7 11 8 12
REMARK H PARENT 11 9
REMARK Flexibility Score: inf
ROOT
ATOM      1  C   UNL     1      25.988  -5.052  28.621  1.00  0.00     0.048 C 
ATOM      2  C   UNL     1      25.519  -4.180  27.489  1.00  0.00    -0.009 A 
ATOM      3  C   UNL     1      24.437  -4.565  26.668  1.00  0.00     0.118 A 
ATOM      4  C   UNL     1      24.024  -3.730  25.622  1.00  0.00     0.050 A 
ATOM      5  C   UNL     1      24.673  -2.507  25.376  1.00  0.00    -0.042 A 
ATOM      6  C   UNL     1      25.748  -2.132  26.197  1.00  0.00     0.004 A 
ATOM      7  C   UNL     1      26.166  -2.958  27.241  1.00  0.00     0.007 A 
ENDROOT
BRANCH   3   8
ATOM      8  O   UNL     1      23.753  -5.767  26.863  1.00  0.00    -0.508 OA
ATOM      9  H   UNL     1      23.765  -6.524  26.192  1.00  0.00     0.293 HD
ENDBRANCH   3   8
BRANCH   5  10
ATOM     10  C   UNL     1      24.229  -1.599  24.244  1.00  0.00     0.013 C 
ATOM     11  C   UNL     1      25.392  -0.733  23.743  1.00  0.00     0.012 C 
ATOM     12  C   UNL     1      23.036  -0.732  24.666  1.00  0.00     0.012 C 
ENDBRANCH   5  10
TORSDOF 2
ENDMDL
