MODEL 1
REMARK VINA RESULT:    -3.452      0.000      0.000
REMARK INTER + INTRA:          -8.365
REMARK INTER:                  -6.075
REMARK INTRA:                  -2.290
REMARK UNBOUND:                -2.290
REMARK SMILES CCCCCCC=CCCCCCCCC(=O)[O-]
REMARK SMILES IDX 10 1 11 2 12 3 13 4 14 5 15 6 16 7 17 8 18 9 9 10 8 11 7 12
REMARK SMILES IDX 6 13 5 14 4 15 3 16 2 17 1 18
REMARK H PARENT
REMARK Flexibility Score: inf
ROOT
ATOM      1  C   UNL     1      60.829  33.483  59.051  1.00  0.00     0.004 C 
ENDROOT
BRANCH   1   2
ATOM      2  C   UNL     1      61.079  32.848  60.425  1.00  0.00     0.000 C 
BRANCH   2   3
ATOM      3  C   UNL     1      60.782  31.339  60.449  1.00  0.00     0.000 C 
BRANCH   3   4
ATOM      4  C   UNL     1      61.184  30.652  61.771  1.00  0.00     0.000 C 
BRANCH   4   5
ATOM      5  C   UNL     1      62.593  30.037  61.701  1.00  0.00     0.006 C 
BRANCH   5   6
ATOM      6  C   UNL     1      62.714  28.984  60.592  1.00  0.00     0.053 C 
BRANCH   6   7
ATOM      7  C   UNL     1      61.903  27.762  60.895  1.00  0.00     0.041 C 
ATOM      8  O   UNL     1      62.170  27.059  61.905  1.00  0.00    -0.550 OA
ATOM      9  O   UNL     1      60.875  27.380  60.043  1.00  0.00    -0.550 OA
ENDBRANCH   6   7
ENDBRANCH   5   6
ENDBRANCH   4   5
ENDBRANCH   3   4
ENDBRANCH   2   3
ENDBRANCH   1   2
BRANCH   1  10
ATOM     10  C   UNL     1      61.318  34.936  59.021  1.00  0.00     0.027 C 
BRANCH  10  11
ATOM     11  C   UNL     1      61.229  35.556  60.392  1.00  0.00    -0.031 C 
ATOM     12  C   UNL     1      62.284  36.001  61.101  1.00  0.00    -0.031 C 
BRANCH  12  13
ATOM     13  C   UNL     1      63.705  36.039  60.595  1.00  0.00     0.027 C 
BRANCH  13  14
ATOM     14  C   UNL     1      64.629  35.090  61.381  1.00  0.00     0.004 C 
BRANCH  14  15
ATOM     15  C   UNL     1      64.494  33.606  60.993  1.00  0.00     0.000 C 
BRANCH  15  16
ATOM     16  C   UNL     1      64.654  33.367  59.482  1.00  0.00    -0.000 C 
BRANCH  16  17
ATOM     17  C   UNL     1      64.710  31.874  59.124  1.00  0.00    -0.003 C 
ATOM     18  C   UNL     1      63.722  31.491  58.021  1.00  0.00     0.004 C 
ENDBRANCH  16  17
ENDBRANCH  15  16
ENDBRANCH  14  15
ENDBRANCH  13  14
ENDBRANCH  12  13
ENDBRANCH  10  11
ENDBRANCH   1  10
TORSDOF 13
ENDMDL
MODEL 2
REMARK VINA RESULT:    -3.329      1.710      2.627
REMARK INTER + INTRA:          -8.149
REMARK INTER:                  -5.651
REMARK INTRA:                  -2.498
REMARK UNBOUND:                -2.290
REMARK SMILES CCCCCCC=CCCCCCCCC(=O)[O-]
REMARK SMILES IDX 10 1 11 2 12 3 13 4 14 5 15 6 16 7 17 8 18 9 9 10 8 11 7 12
REMARK SMILES IDX 6 13 5 14 4 15 3 16 2 17 1 18
REMARK H PARENT
REMARK Flexibility Score: inf
ROOT
ATOM      1  C   UNL     1      61.781  32.367  58.195  1.00  0.00     0.004 C 
ENDROOT
BRANCH   1   2
ATOM      2  C   UNL     1      60.821  31.751  59.222  1.00  0.00     0.000 C 
BRANCH   2   3
ATOM      3  C   UNL     1      61.248  32.020  60.675  1.00  0.00     0.000 C 
BRANCH   3   4
ATOM      4  C   UNL     1      60.957  30.844  61.631  1.00  0.00     0.000 C 
BRANCH   4   5
ATOM      5  C   UNL     1      62.061  29.773  61.588  1.00  0.00     0.006 C 
BRANCH   5   6
ATOM      6  C   UNL     1      63.463  30.387  61.479  1.00  0.00     0.053 C 
BRANCH   6   7
ATOM      7  C   UNL     1      64.190  29.902  60.263  1.00  0.00     0.041 C 
ATOM      8  O   UNL     1      65.445  29.973  60.204  1.00  0.00    -0.550 OA
ATOM      9  O   UNL     1      63.477  29.402  59.180  1.00  0.00    -0.550 OA
ENDBRANCH   6   7
ENDBRANCH   5   6
ENDBRANCH   4   5
ENDBRANCH   3   4
ENDBRANCH   2   3
ENDBRANCH   1   2
BRANCH   1  10
ATOM     10  C   UNL     1      61.160  33.603  57.535  1.00  0.00     0.027 C 
BRANCH  10  11
ATOM     11  C   UNL     1      62.138  34.751  57.528  1.00  0.00    -0.031 C 
ATOM     12  C   UNL     1      62.133  35.766  58.412  1.00  0.00    -0.031 C 
BRANCH  12  13
ATOM     13  C   UNL     1      61.212  35.863  59.605  1.00  0.00     0.027 C 
BRANCH  13  14
ATOM     14  C   UNL     1      61.961  35.668  60.936  1.00  0.00     0.004 C 
BRANCH  14  15
ATOM     15  C   UNL     1      63.315  36.398  61.016  1.00  0.00     0.000 C 
BRANCH  15  16
ATOM     16  C   UNL     1      64.477  35.460  61.386  1.00  0.00    -0.000 C 
BRANCH  16  17
ATOM     17  C   UNL     1      64.174  33.990  61.057  1.00  0.00    -0.003 C 
ATOM     18  C   UNL     1      64.879  33.509  59.789  1.00  0.00     0.004 C 
ENDBRANCH  16  17
ENDBRANCH  15  16
ENDBRANCH  14  15
ENDBRANCH  13  14
ENDBRANCH  12  13
ENDBRANCH  10  11
ENDBRANCH   1  10
TORSDOF 13
ENDMDL
MODEL 3
REMARK VINA RESULT:    -3.315      0.870      2.662
REMARK INTER + INTRA:          -8.124
REMARK INTER:                  -5.633
REMARK INTRA:                  -2.491
REMARK UNBOUND:                -2.290
REMARK SMILES CCCCCCC=CCCCCCCCC(=O)[O-]
REMARK SMILES IDX 10 1 11 2 12 3 13 4 14 5 15 6 16 7 17 8 18 9 9 10 8 11 7 12
REMARK SMILES IDX 6 13 5 14 4 15 3 16 2 17 1 18
REMARK H PARENT
REMARK Flexibility Score: inf
ROOT
ATOM      1  C   UNL     1      60.901  32.401  58.077  1.00  0.00     0.004 C 
ENDROOT
BRANCH   1   2
ATOM      2  C   UNL     1      60.135  31.989  59.342  1.00  0.00     0.000 C 
BRANCH   2   3
ATOM      3  C   UNL     1      61.002  32.048  60.612  1.00  0.00     0.000 C 
BRANCH   3   4
ATOM      4  C   UNL     1      61.017  30.727  61.409  1.00  0.00     0.000 C 
BRANCH   4   5
ATOM      5  C   UNL     1      62.447  30.223  61.673  1.00  0.00     0.006 C 
BRANCH   5   6
ATOM      6  C   UNL     1      62.850  29.091  60.718  1.00  0.00     0.053 C 
BRANCH   6   7
ATOM      7  C   UNL     1      61.949  27.902  60.855  1.00  0.00     0.041 C 
ATOM      8  O   UNL     1      62.000  27.184  61.888  1.00  0.00    -0.550 OA
ATOM      9  O   UNL     1      61.079  27.567  59.826  1.00  0.00    -0.550 OA
ENDBRANCH   6   7
ENDBRANCH   5   6
ENDBRANCH   4   5
ENDBRANCH   3   4
ENDBRANCH   2   3
ENDBRANCH   1   2
BRANCH   1  10
ATOM     10  C   UNL     1      62.343  31.882  58.115  1.00  0.00     0.027 C 
BRANCH  10  11
ATOM     11  C   UNL     1      63.312  32.975  57.740  1.00  0.00    -0.031 C 
ATOM     12  C   UNL     1      64.358  33.362  58.493  1.00  0.00    -0.031 C 
BRANCH  12  13
ATOM     13  C   UNL     1      64.783  32.698  59.781  1.00  0.00     0.027 C 
BRANCH  13  14
ATOM     14  C   UNL     1      64.266  33.449  61.022  1.00  0.00     0.004 C 
BRANCH  14  15
ATOM     15  C   UNL     1      64.838  34.869  61.189  1.00  0.00     0.000 C 
BRANCH  15  16
ATOM     16  C   UNL     1      63.747  35.953  61.210  1.00  0.00    -0.000 C 
BRANCH  16  17
ATOM     17  C   UNL     1      62.357  35.395  60.868  1.00  0.00    -0.003 C 
ATOM     18  C   UNL     1      61.835  35.892  59.519  1.00  0.00     0.004 C 
ENDBRANCH  16  17
ENDBRANCH  15  16
ENDBRANCH  14  15
ENDBRANCH  13  14
ENDBRANCH  12  13
ENDBRANCH  10  11
ENDBRANCH   1  10
TORSDOF 13
ENDMDL
MODEL 4
REMARK VINA RESULT:    -3.290     11.109     13.092
REMARK INTER + INTRA:          -8.081
REMARK INTER:                  -5.775
REMARK INTRA:                  -2.306
REMARK UNBOUND:                -2.290
REMARK SMILES CCCCCCC=CCCCCCCCC(=O)[O-]
REMARK SMILES IDX 10 1 11 2 12 3 13 4 14 5 15 6 16 7 17 8 18 9 9 10 8 11 7 12
REMARK SMILES IDX 6 13 5 14 4 15 3 16 2 17 1 18
REMARK H PARENT
REMARK Flexibility Score: inf
ROOT
ATOM      1  C   UNL     1      55.346  29.669  51.249  1.00  0.00     0.004 C 
ENDROOT
BRANCH   1   2
ATOM      2  C   UNL     1      56.384  28.970  50.361  1.00  0.00     0.000 C 
BRANCH   2   3
ATOM      3  C   UNL     1      57.785  28.931  50.996  1.00  0.00     0.000 C 
BRANCH   3   4
ATOM      4  C   UNL     1      58.913  29.342  50.026  1.00  0.00     0.000 C 
BRANCH   4   5
ATOM      5  C   UNL     1      59.955  28.225  49.840  1.00  0.00     0.006 C 
BRANCH   5   6
ATOM      6  C   UNL     1      59.304  26.857  49.598  1.00  0.00     0.053 C 
BRANCH   6   7
ATOM      7  C   UNL     1      60.135  25.741  50.151  1.00  0.00     0.041 C 
ATOM      8  O   UNL     1      59.614  24.619  50.387  1.00  0.00    -0.550 OA
ATOM      9  O   UNL     1      61.478  25.950  50.439  1.00  0.00    -0.550 OA
ENDBRANCH   6   7
ENDBRANCH   5   6
ENDBRANCH   4   5
ENDBRANCH   3   4
ENDBRANCH   2   3
ENDBRANCH   1   2
BRANCH   1  10
ATOM     10  C   UNL     1      54.162  28.741  51.544  1.00  0.00     0.027 C 
BRANCH  10  11
ATOM     11  C   UNL     1      53.342  28.513  50.299  1.00  0.00    -0.031 C 
ATOM     12  C   UNL     1      53.122  27.309  49.738  1.00  0.00    -0.031 C 
BRANCH  12  13
ATOM     13  C   UNL     1      53.575  25.992  50.321  1.00  0.00     0.027 C 
BRANCH  13  14
ATOM     14  C   UNL     1      54.932  25.539  49.751  1.00  0.00     0.004 C 
BRANCH  14  15
ATOM     15  C   UNL     1      56.069  25.481  50.788  1.00  0.00     0.000 C 
BRANCH  15  16
ATOM     16  C   UNL     1      55.553  25.398  52.235  1.00  0.00    -0.000 C 
BRANCH  16  17
ATOM     17  C   UNL     1      56.383  26.252  53.206  1.00  0.00    -0.003 C 
ATOM     18  C   UNL     1      57.879  25.941  53.140  1.00  0.00     0.004 C 
ENDBRANCH  16  17
ENDBRANCH  15  16
ENDBRANCH  14  15
ENDBRANCH  13  14
ENDBRANCH  12  13
ENDBRANCH  10  11
ENDBRANCH   1  10
TORSDOF 13
ENDMDL
MODEL 5
REMARK VINA RESULT:    -3.271      3.287      6.159
REMARK INTER + INTRA:          -8.048
REMARK INTER:                  -5.577
REMARK INTRA:                  -2.471
REMARK UNBOUND:                -2.290
REMARK SMILES CCCCCCC=CCCCCCCCC(=O)[O-]
REMARK SMILES IDX 10 1 11 2 12 3 13 4 14 5 15 6 16 7 17 8 18 9 9 10 8 11 7 12
REMARK SMILES IDX 6 13 5 14 4 15 3 16 2 17 1 18
REMARK H PARENT
REMARK Flexibility Score: inf
ROOT
ATOM      1  C   UNL     1      64.180  30.934  58.833  1.00  0.00     0.004 C 
ENDROOT
BRANCH   1   2
ATOM      2  C   UNL     1      63.949  32.429  59.097  1.00  0.00     0.000 C 
BRANCH   2   3
ATOM      3  C   UNL     1      64.277  32.839  60.543  1.00  0.00     0.000 C 
BRANCH   3   4
ATOM      4  C   UNL     1      63.768  34.247  60.915  1.00  0.00     0.000 C 
BRANCH   4   5
ATOM      5  C   UNL     1      62.278  34.433  60.580  1.00  0.00     0.006 C 
BRANCH   5   6
ATOM      6  C   UNL     1      61.813  35.881  60.784  1.00  0.00     0.053 C 
BRANCH   6   7
ATOM      7  C   UNL     1      60.859  36.314  59.713  1.00  0.00     0.041 C 
ATOM      8  O   UNL     1      59.649  35.970  59.765  1.00  0.00    -0.550 OA
ATOM      9  O   UNL     1      61.315  37.069  58.639  1.00  0.00    -0.550 OA
ENDBRANCH   6   7
ENDBRANCH   5   6
ENDBRANCH   4   5
ENDBRANCH   3   4
ENDBRANCH   2   3
ENDBRANCH   1   2
BRANCH   1  10
ATOM     10  C   UNL     1      64.407  30.174  60.145  1.00  0.00     0.027 C 
BRANCH  10  11
ATOM     11  C   UNL     1      63.399  29.063  60.297  1.00  0.00    -0.031 C 
ATOM     12  C   UNL     1      62.342  29.097  61.130  1.00  0.00    -0.031 C 
BRANCH  12  13
ATOM     13  C   UNL     1      61.945  30.289  61.967  1.00  0.00     0.027 C 
BRANCH  13  14
ATOM     14  C   UNL     1      60.869  31.150  61.281  1.00  0.00     0.004 C 
BRANCH  14  15
ATOM     15  C   UNL     1      60.060  30.413  60.198  1.00  0.00     0.000 C 
BRANCH  15  16
ATOM     16  C   UNL     1      60.296  30.979  58.788  1.00  0.00    -0.000 C 
BRANCH  16  17
ATOM     17  C   UNL     1      59.815  32.431  58.648  1.00  0.00    -0.003 C 
ATOM     18  C   UNL     1      60.601  33.218  57.598  1.00  0.00     0.004 C 
ENDBRANCH  16  17
ENDBRANCH  15  16
ENDBRANCH  14  15
ENDBRANCH  13  14
ENDBRANCH  12  13
ENDBRANCH  10  11
ENDBRANCH   1  10
TORSDOF 13
ENDMDL
MODEL 6
REMARK VINA RESULT:    -3.248      2.437      3.874
REMARK INTER + INTRA:          -8.007
REMARK INTER:                  -5.902
REMARK INTRA:                  -2.105
REMARK UNBOUND:                -2.290
REMARK SMILES CCCCCCC=CCCCCCCCC(=O)[O-]
REMARK SMILES IDX 10 1 11 2 12 3 13 4 14 5 15 6 16 7 17 8 18 9 9 10 8 11 7 12
REMARK SMILES IDX 6 13 5 14 4 15 3 16 2 17 1 18
REMARK H PARENT
REMARK Flexibility Score: inf
ROOT
ATOM      1  C   UNL     1      61.192  32.003  60.949  1.00  0.00     0.004 C 
ENDROOT
BRANCH   1   2
ATOM      2  C   UNL     1      60.846  30.593  61.447  1.00  0.00     0.000 C 
BRANCH   2   3
ATOM      3  C   UNL     1      62.092  29.740  61.741  1.00  0.00     0.000 C 
BRANCH   3   4
ATOM      4  C   UNL     1      63.419  30.451  61.404  1.00  0.00     0.000 C 
BRANCH   4   5
ATOM      5  C   UNL     1      64.092  29.861  60.152  1.00  0.00     0.006 C 
BRANCH   5   6
ATOM      6  C   UNL     1      65.608  30.098  60.141  1.00  0.00     0.053 C 
BRANCH   6   7
ATOM      7  C   UNL     1      66.117  30.372  58.759  1.00  0.00     0.041 C 
ATOM      8  O   UNL     1      65.321  30.397  57.784  1.00  0.00    -0.550 OA
ATOM      9  O   UNL     1      67.476  30.564  58.544  1.00  0.00    -0.550 OA
ENDBRANCH   6   7
ENDBRANCH   5   6
ENDBRANCH   4   5
ENDBRANCH   3   4
ENDBRANCH   2   3
ENDBRANCH   1   2
BRANCH   1  10
ATOM     10  C   UNL     1      60.690  32.218  59.517  1.00  0.00     0.027 C 
BRANCH  10  11
ATOM     11  C   UNL     1      60.960  33.631  59.065  1.00  0.00    -0.031 C 
ATOM     12  C   UNL     1      62.166  34.097  58.688  1.00  0.00    -0.031 C 
BRANCH  12  13
ATOM     13  C   UNL     1      63.413  33.255  58.564  1.00  0.00     0.027 C 
BRANCH  13  14
ATOM     14  C   UNL     1      64.596  33.847  59.352  1.00  0.00     0.004 C 
BRANCH  14  15
ATOM     15  C   UNL     1      64.433  33.790  60.882  1.00  0.00     0.000 C 
BRANCH  15  16
ATOM     16  C   UNL     1      64.729  35.136  61.563  1.00  0.00    -0.000 C 
BRANCH  16  17
ATOM     17  C   UNL     1      64.116  36.326  60.808  1.00  0.00    -0.003 C 
ATOM     18  C   UNL     1      62.689  36.643  61.259  1.00  0.00     0.004 C 
ENDBRANCH  16  17
ENDBRANCH  15  16
ENDBRANCH  14  15
ENDBRANCH  13  14
ENDBRANCH  12  13
ENDBRANCH  10  11
ENDBRANCH   1  10
TORSDOF 13
ENDMDL
MODEL 7
REMARK VINA RESULT:    -3.239     10.295     12.459
REMARK INTER + INTRA:          -7.991
REMARK INTER:                  -5.359
REMARK INTRA:                  -2.633
REMARK UNBOUND:                -2.290
REMARK SMILES CCCCCCC=CCCCCCCCC(=O)[O-]
REMARK SMILES IDX 10 1 11 2 12 3 13 4 14 5 15 6 16 7 17 8 18 9 9 10 8 11 7 12
REMARK SMILES IDX 6 13 5 14 4 15 3 16 2 17 1 18
REMARK H PARENT
REMARK Flexibility Score: inf
ROOT
ATOM      1  C   UNL     1      57.987  29.549  51.791  1.00  0.00     0.004 C 
ENDROOT
BRANCH   1   2
ATOM      2  C   UNL     1      57.630  29.096  50.369  1.00  0.00     0.000 C 
BRANCH   2   3
ATOM      3  C   UNL     1      58.856  29.007  49.444  1.00  0.00     0.000 C 
BRANCH   3   4
ATOM      4  C   UNL     1      59.823  27.861  49.810  1.00  0.00     0.000 C 
BRANCH   4   5
ATOM      5  C   UNL     1      59.129  26.488  49.792  1.00  0.00     0.006 C 
BRANCH   5   6
ATOM      6  C   UNL     1      60.111  25.337  50.051  1.00  0.00     0.053 C 
BRANCH   6   7
ATOM      7  C   UNL     1      60.028  24.842  51.462  1.00  0.00     0.041 C 
ATOM      8  O   UNL     1      60.668  25.425  52.377  1.00  0.00    -0.550 OA
ATOM      9  O   UNL     1      59.272  23.716  51.761  1.00  0.00    -0.550 OA
ENDBRANCH   6   7
ENDBRANCH   5   6
ENDBRANCH   4   5
ENDBRANCH   3   4
ENDBRANCH   2   3
ENDBRANCH   1   2
BRANCH   1  10
ATOM     10  C   UNL     1      57.150  28.797  52.833  1.00  0.00     0.027 C 
BRANCH  10  11
ATOM     11  C   UNL     1      57.791  27.477  53.179  1.00  0.00    -0.031 C 
ATOM     12  C   UNL     1      57.188  26.279  53.061  1.00  0.00    -0.031 C 
BRANCH  12  13
ATOM     13  C   UNL     1      55.815  26.062  52.473  1.00  0.00     0.027 C 
BRANCH  13  14
ATOM     14  C   UNL     1      55.868  25.771  50.962  1.00  0.00     0.004 C 
BRANCH  14  15
ATOM     15  C   UNL     1      54.877  26.597  50.121  1.00  0.00     0.000 C 
BRANCH  15  16
ATOM     16  C   UNL     1      54.030  27.558  50.972  1.00  0.00    -0.000 C 
BRANCH  16  17
ATOM     17  C   UNL     1      53.880  28.942  50.323  1.00  0.00    -0.003 C 
ATOM     18  C   UNL     1      54.119  30.088  51.308  1.00  0.00     0.004 C 
ENDBRANCH  16  17
ENDBRANCH  15  16
ENDBRANCH  14  15
ENDBRANCH  13  14
ENDBRANCH  12  13
ENDBRANCH  10  11
ENDBRANCH   1  10
TORSDOF 13
ENDMDL
MODEL 8
REMARK VINA RESULT:    -3.226      3.545      5.915
REMARK INTER + INTRA:          -7.969
REMARK INTER:                  -5.323
REMARK INTRA:                  -2.646
REMARK UNBOUND:                -2.290
REMARK SMILES CCCCCCC=CCCCCCCCC(=O)[O-]
REMARK SMILES IDX 10 1 11 2 12 3 13 4 14 5 15 6 16 7 17 8 18 9 9 10 8 11 7 12
REMARK SMILES IDX 6 13 5 14 4 15 3 16 2 17 1 18
REMARK H PARENT
REMARK Flexibility Score: inf
ROOT
ATOM      1  C   UNL     1      63.847  32.445  58.441  1.00  0.00     0.004 C 
ENDROOT
BRANCH   1   2
ATOM      2  C   UNL     1      62.350  32.698  58.213  1.00  0.00     0.000 C 
BRANCH   2   3
ATOM      3  C   UNL     1      61.868  34.024  58.826  1.00  0.00     0.000 C 
BRANCH   3   4
ATOM      4  C   UNL     1      61.943  34.055  60.367  1.00  0.00     0.000 C 
BRANCH   4   5
ATOM      5  C   UNL     1      62.749  35.259  60.885  1.00  0.00     0.006 C 
BRANCH   5   6
ATOM      6  C   UNL     1      64.184  34.877  61.270  1.00  0.00     0.053 C 
BRANCH   6   7
ATOM      7  C   UNL     1      65.195  35.619  60.451  1.00  0.00     0.041 C 
ATOM      8  O   UNL     1      66.327  35.889  60.932  1.00  0.00    -0.550 OA
ATOM      9  O   UNL     1      64.874  36.043  59.167  1.00  0.00    -0.550 OA
ENDBRANCH   6   7
ENDBRANCH   5   6
ENDBRANCH   4   5
ENDBRANCH   3   4
ENDBRANCH   2   3
ENDBRANCH   1   2
BRANCH   1  10
ATOM     10  C   UNL     1      64.082  31.063  59.061  1.00  0.00     0.027 C 
BRANCH  10  11
ATOM     11  C   UNL     1      64.512  31.192  60.501  1.00  0.00    -0.031 C 
ATOM     12  C   UNL     1      63.816  30.722  61.553  1.00  0.00    -0.031 C 
BRANCH  12  13
ATOM     13  C   UNL     1      62.549  29.908  61.451  1.00  0.00     0.027 C 
BRANCH  13  14
ATOM     14  C   UNL     1      61.285  30.780  61.564  1.00  0.00     0.004 C 
BRANCH  14  15
ATOM     15  C   UNL     1      60.165  30.408  60.575  1.00  0.00     0.000 C 
BRANCH  15  16
ATOM     16  C   UNL     1      60.655  29.499  59.434  1.00  0.00    -0.000 C 
BRANCH  16  17
ATOM     17  C   UNL     1      60.004  29.844  58.086  1.00  0.00    -0.003 C 
ATOM     18  C   UNL     1      59.093  31.070  58.164  1.00  0.00     0.004 C 
ENDBRANCH  16  17
ENDBRANCH  15  16
ENDBRANCH  14  15
ENDBRANCH  13  14
ENDBRANCH  12  13
ENDBRANCH  10  11
ENDBRANCH   1  10
TORSDOF 13
ENDMDL
MODEL 9
REMARK VINA RESULT:    -3.218     11.000     12.690
REMARK INTER + INTRA:          -7.953
REMARK INTER:                  -6.133
REMARK INTRA:                  -1.820
REMARK UNBOUND:                -2.290
REMARK SMILES CCCCCCC=CCCCCCCCC(=O)[O-]
REMARK SMILES IDX 10 1 11 2 12 3 13 4 14 5 15 6 16 7 17 8 18 9 9 10 8 11 7 12
REMARK SMILES IDX 6 13 5 14 4 15 3 16 2 17 1 18
REMARK H PARENT
REMARK Flexibility Score: inf
ROOT
ATOM      1  C   UNL     1      59.230  25.925  49.858  1.00  0.00     0.004 C 
ENDROOT
BRANCH   1   2
ATOM      2  C   UNL     1      58.920  25.366  51.253  1.00  0.00     0.000 C 
BRANCH   2   3
ATOM      3  C   UNL     1      59.453  23.938  51.458  1.00  0.00     0.000 C 
BRANCH   3   4
ATOM      4  C   UNL     1      60.543  23.535  50.443  1.00  0.00     0.000 C 
BRANCH   4   5
ATOM      5  C   UNL     1      61.937  23.451  51.089  1.00  0.00     0.006 C 
BRANCH   5   6
ATOM      6  C   UNL     1      62.708  24.773  50.984  1.00  0.00     0.053 C 
BRANCH   6   7
ATOM      7  C   UNL     1      64.049  24.585  50.344  1.00  0.00     0.041 C 
ATOM      8  O   UNL     1      64.748  25.585  50.030  1.00  0.00    -0.550 OA
ATOM      9  O   UNL     1      64.512  23.306  50.063  1.00  0.00    -0.550 OA
ENDBRANCH   6   7
ENDBRANCH   5   6
ENDBRANCH   4   5
ENDBRANCH   3   4
ENDBRANCH   2   3
ENDBRANCH   1   2
BRANCH   1  10
ATOM     10  C   UNL     1      60.006  27.243  49.954  1.00  0.00     0.027 C 
BRANCH  10  11
ATOM     11  C   UNL     1      59.267  28.348  49.242  1.00  0.00    -0.031 C 
ATOM     12  C   UNL     1      58.480  29.257  49.848  1.00  0.00    -0.031 C 
BRANCH  12  13
ATOM     13  C   UNL     1      58.294  29.373  51.342  1.00  0.00     0.027 C 
BRANCH  13  14
ATOM     14  C   UNL     1      56.882  28.951  51.787  1.00  0.00     0.004 C 
BRANCH  14  15
ATOM     15  C   UNL     1      55.764  29.327  50.798  1.00  0.00     0.000 C 
BRANCH  15  16
ATOM     16  C   UNL     1      54.863  28.135  50.434  1.00  0.00    -0.000 C 
BRANCH  16  17
ATOM     17  C   UNL     1      55.545  26.782  50.690  1.00  0.00    -0.003 C 
ATOM     18  C   UNL     1      55.030  25.675  49.769  1.00  0.00     0.004 C 
ENDBRANCH  16  17
ENDBRANCH  15  16
ENDBRANCH  14  15
ENDBRANCH  13  14
ENDBRANCH  12  13
ENDBRANCH  10  11
ENDBRANCH   1  10
TORSDOF 13
ENDMDL
