MODEL 1
REMARK VINA RESULT:    -3.451      0.000      0.000
REMARK INTER + INTRA:          -5.353
REMARK INTER:                  -4.863
REMARK INTRA:                  -0.491
REMARK UNBOUND:                -0.491
REMARK SMILES C=CCCCCCCC(=O)[O-]
REMARK SMILES IDX 6 1 7 2 8 3 9 4 10 5 11 6 5 7 4 8 3 9 2 10 1 11
REMARK H PARENT
REMARK Flexibility Score: inf
ROOT
ATOM      1  C   UNL     1      51.965 -40.436 -30.365  1.00  0.00     0.000 C 
ENDROOT
BRANCH   1   2
ATOM      2  C   UNL     1      52.985 -41.305 -31.123  1.00  0.00     0.006 C 
BRANCH   2   3
ATOM      3  C   UNL     1      53.354 -40.772 -32.518  1.00  0.00     0.053 C 
BRANCH   3   4
ATOM      4  C   UNL     1      54.836 -40.718 -32.724  1.00  0.00     0.041 C 
ATOM      5  O   UNL     1      55.606 -40.536 -31.744  1.00  0.00    -0.550 OA
ATOM      6  O   UNL     1      55.366 -40.834 -34.003  1.00  0.00    -0.550 OA
ENDBRANCH   3   4
ENDBRANCH   2   3
ENDBRANCH   1   2
BRANCH   1   7
ATOM      7  C   UNL     1      52.085 -40.579 -28.837  1.00  0.00     0.000 C 
BRANCH   7   8
ATOM      8  C   UNL     1      50.902 -41.343 -28.220  1.00  0.00     0.004 C 
BRANCH   8   9
ATOM      9  C   UNL     1      49.647 -41.302 -29.106  1.00  0.00     0.027 C 
BRANCH   9  10
ATOM     10  C   UNL     1      49.136 -42.687 -29.388  1.00  0.00    -0.035 C 
ATOM     11  C   UNL     1      49.389 -43.310 -30.544  1.00  0.00     0.004 C 
ENDBRANCH   9  10
ENDBRANCH   8   9
ENDBRANCH   7   8
ENDBRANCH   1   7
TORSDOF 7
ENDMDL
MODEL 2
REMARK VINA RESULT:    -3.369     11.362     11.935
REMARK INTER + INTRA:          -5.239
REMARK INTER:                  -4.932
REMARK INTRA:                  -0.307
REMARK UNBOUND:                -0.491
REMARK SMILES C=CCCCCCCC(=O)[O-]
REMARK SMILES IDX 6 1 7 2 8 3 9 4 10 5 11 6 5 7 4 8 3 9 2 10 1 11
REMARK H PARENT
REMARK Flexibility Score: inf
ROOT
ATOM      1  C   UNL     1      46.825 -29.884 -30.246  1.00  0.00     0.000 C 
ENDROOT
BRANCH   1   2
ATOM      2  C   UNL     1      47.478 -28.979 -31.306  1.00  0.00     0.006 C 
BRANCH   2   3
ATOM      3  C   UNL     1      48.992 -28.782 -31.122  1.00  0.00     0.053 C 
BRANCH   3   4
ATOM      4  C   UNL     1      49.586 -27.943 -32.212  1.00  0.00     0.041 C 
ATOM      5  O   UNL     1      49.115 -27.994 -33.379  1.00  0.00    -0.550 OA
ATOM      6  O   UNL     1      50.681 -27.132 -31.947  1.00  0.00    -0.550 OA
ENDBRANCH   3   4
ENDBRANCH   2   3
ENDBRANCH   1   2
BRANCH   1   7
ATOM      7  C   UNL     1      47.814 -30.328 -29.154  1.00  0.00     0.000 C 
BRANCH   7   8
ATOM      8  C   UNL     1      47.861 -31.855 -28.984  1.00  0.00     0.004 C 
BRANCH   8   9
ATOM      9  C   UNL     1      46.503 -32.520 -29.257  1.00  0.00     0.027 C 
BRANCH   9  10
ATOM     10  C   UNL     1      46.657 -33.999 -29.482  1.00  0.00    -0.035 C 
ATOM     11  C   UNL     1      46.626 -34.872 -28.470  1.00  0.00     0.004 C 
ENDBRANCH   9  10
ENDBRANCH   8   9
ENDBRANCH   7   8
ENDBRANCH   1   7
TORSDOF 7
ENDMDL
MODEL 3
REMARK VINA RESULT:    -3.332     13.691     14.319
REMARK INTER + INTRA:          -5.186
REMARK INTER:                  -4.850
REMARK INTRA:                  -0.336
REMARK UNBOUND:                -0.491
REMARK SMILES C=CCCCCCCC(=O)[O-]
REMARK SMILES IDX 6 1 7 2 8 3 9 4 10 5 11 6 5 7 4 8 3 9 2 10 1 11
REMARK H PARENT
REMARK Flexibility Score: inf
ROOT
ATOM      1  C   UNL     1      46.527 -29.393 -30.677  1.00  0.00     0.000 C 
ENDROOT
BRANCH   1   2
ATOM      2  C   UNL     1      46.539 -28.418 -31.869  1.00  0.00     0.006 C 
BRANCH   2   3
ATOM      3  C   UNL     1      47.709 -27.421 -31.857  1.00  0.00     0.053 C 
BRANCH   3   4
ATOM      4  C   UNL     1      48.981 -28.042 -32.345  1.00  0.00     0.041 C 
ATOM      5  O   UNL     1      49.305 -27.954 -33.559  1.00  0.00    -0.550 OA
ATOM      6  O   UNL     1      49.793 -28.749 -31.467  1.00  0.00    -0.550 OA
ENDBRANCH   3   4
ENDBRANCH   2   3
ENDBRANCH   1   2
BRANCH   1   7
ATOM      7  C   UNL     1      45.203 -29.356 -29.895  1.00  0.00     0.000 C 
BRANCH   7   8
ATOM      8  C   UNL     1      44.091 -28.609 -30.648  1.00  0.00     0.004 C 
BRANCH   8   9
ATOM      9  C   UNL     1      42.687 -28.975 -30.142  1.00  0.00     0.027 C 
BRANCH   9  10
ATOM     10  C   UNL     1      41.701 -29.037 -31.275  1.00  0.00    -0.035 C 
ATOM     11  C   UNL     1      42.056 -28.762 -32.534  1.00  0.00     0.004 C 
ENDBRANCH   9  10
ENDBRANCH   8   9
ENDBRANCH   7   8
ENDBRANCH   1   7
TORSDOF 7
ENDMDL
MODEL 4
REMARK VINA RESULT:    -3.331     13.698     14.247
REMARK INTER + INTRA:          -5.185
REMARK INTER:                  -4.877
REMARK INTRA:                  -0.308
REMARK UNBOUND:                -0.491
REMARK SMILES C=CCCCCCCC(=O)[O-]
REMARK SMILES IDX 6 1 7 2 8 3 9 4 10 5 11 6 5 7 4 8 3 9 2 10 1 11
REMARK H PARENT
REMARK Flexibility Score: inf
ROOT
ATOM      1  C   UNL     1      46.070 -28.340 -31.718  1.00  0.00     0.000 C 
ENDROOT
BRANCH   1   2
ATOM      2  C   UNL     1      47.490 -28.758 -32.143  1.00  0.00     0.006 C 
BRANCH   2   3
ATOM      3  C   UNL     1      48.561 -27.680 -31.911  1.00  0.00     0.053 C 
BRANCH   3   4
ATOM      4  C   UNL     1      49.811 -27.954 -32.690  1.00  0.00     0.041 C 
ATOM      5  O   UNL     1      50.893 -28.188 -32.091  1.00  0.00    -0.550 OA
ATOM      6  O   UNL     1      49.788 -27.916 -34.079  1.00  0.00    -0.550 OA
ENDBRANCH   3   4
ENDBRANCH   2   3
ENDBRANCH   1   2
BRANCH   1   7
ATOM      7  C   UNL     1      45.586 -29.079 -30.458  1.00  0.00     0.000 C 
BRANCH   7   8
ATOM      8  C   UNL     1      44.300 -28.472 -29.874  1.00  0.00     0.004 C 
BRANCH   8   9
ATOM      9  C   UNL     1      43.034 -29.187 -30.368  1.00  0.00     0.027 C 
BRANCH   9  10
ATOM     10  C   UNL     1      42.303 -28.356 -31.387  1.00  0.00    -0.035 C 
ATOM     11  C   UNL     1      42.097 -28.791 -32.634  1.00  0.00     0.004 C 
ENDBRANCH   9  10
ENDBRANCH   8   9
ENDBRANCH   7   8
ENDBRANCH   1   7
TORSDOF 7
ENDMDL
MODEL 5
REMARK VINA RESULT:    -3.315     11.593     12.182
REMARK INTER + INTRA:          -5.163
REMARK INTER:                  -4.848
REMARK INTRA:                  -0.314
REMARK UNBOUND:                -0.491
REMARK SMILES C=CCCCCCCC(=O)[O-]
REMARK SMILES IDX 6 1 7 2 8 3 9 4 10 5 11 6 5 7 4 8 3 9 2 10 1 11
REMARK H PARENT
REMARK Flexibility Score: inf
ROOT
ATOM      1  C   UNL     1      47.302 -29.814 -30.057  1.00  0.00     0.000 C 
ENDROOT
BRANCH   1   2
ATOM      2  C   UNL     1      46.836 -28.784 -31.102  1.00  0.00     0.006 C 
BRANCH   2   3
ATOM      3  C   UNL     1      47.674 -28.769 -32.391  1.00  0.00     0.053 C 
BRANCH   3   4
ATOM      4  C   UNL     1      48.838 -27.831 -32.292  1.00  0.00     0.041 C 
ATOM      5  O   UNL     1      48.856 -26.934 -31.409  1.00  0.00    -0.550 OA
ATOM      6  O   UNL     1      49.886 -27.925 -33.200  1.00  0.00    -0.550 OA
ENDBRANCH   3   4
ENDBRANCH   2   3
ENDBRANCH   1   2
BRANCH   1   7
ATOM      7  C   UNL     1      46.176 -30.766 -29.618  1.00  0.00     0.000 C 
BRANCH   7   8
ATOM      8  C   UNL     1      46.600 -31.694 -28.468  1.00  0.00     0.004 C 
BRANCH   8   9
ATOM      9  C   UNL     1      47.927 -32.414 -28.751  1.00  0.00     0.027 C 
BRANCH   9  10
ATOM     10  C   UNL     1      47.692 -33.746 -29.409  1.00  0.00    -0.035 C 
ATOM     11  C   UNL     1      46.547 -34.417 -29.250  1.00  0.00     0.004 C 
ENDBRANCH   9  10
ENDBRANCH   8   9
ENDBRANCH   7   8
ENDBRANCH   1   7
TORSDOF 7
ENDMDL
MODEL 6
REMARK VINA RESULT:    -3.277     12.655     13.377
REMARK INTER + INTRA:          -5.108
REMARK INTER:                  -4.740
REMARK INTRA:                  -0.368
REMARK UNBOUND:                -0.491
REMARK SMILES C=CCCCCCCC(=O)[O-]
REMARK SMILES IDX 6 1 7 2 8 3 9 4 10 5 11 6 5 7 4 8 3 9 2 10 1 11
REMARK H PARENT
REMARK Flexibility Score: inf
ROOT
ATOM      1  C   UNL     1      51.014 -28.925 -31.333  1.00  0.00     0.000 C 
ENDROOT
BRANCH   1   2
ATOM      2  C   UNL     1      52.527 -29.119 -31.127  1.00  0.00     0.006 C 
BRANCH   2   3
ATOM      3  C   UNL     1      53.389 -27.953 -31.638  1.00  0.00     0.053 C 
BRANCH   3   4
ATOM      4  C   UNL     1      54.558 -27.683 -30.741  1.00  0.00     0.041 C 
ATOM      5  O   UNL     1      54.380 -27.165 -29.607  1.00  0.00    -0.550 OA
ATOM      6  O   UNL     1      55.847 -27.970 -31.172  1.00  0.00    -0.550 OA
ENDBRANCH   3   4
ENDBRANCH   2   3
ENDBRANCH   1   2
BRANCH   1   7
ATOM      7  C   UNL     1      50.688 -27.723 -32.236  1.00  0.00     0.000 C 
BRANCH   7   8
ATOM      8  C   UNL     1      49.463 -27.971 -33.131  1.00  0.00     0.004 C 
BRANCH   8   9
ATOM      9  C   UNL     1      48.140 -27.645 -32.422  1.00  0.00     0.027 C 
BRANCH   9  10
ATOM     10  C   UNL     1      47.340 -28.892 -32.164  1.00  0.00    -0.035 C 
ATOM     11  C   UNL     1      47.004 -29.270 -30.927  1.00  0.00     0.004 C 
ENDBRANCH   9  10
ENDBRANCH   8   9
ENDBRANCH   7   8
ENDBRANCH   1   7
TORSDOF 7
ENDMDL
MODEL 7
REMARK VINA RESULT:    -3.274      3.980      6.121
REMARK INTER + INTRA:          -5.104
REMARK INTER:                  -4.837
REMARK INTRA:                  -0.267
REMARK UNBOUND:                -0.491
REMARK SMILES C=CCCCCCCC(=O)[O-]
REMARK SMILES IDX 6 1 7 2 8 3 9 4 10 5 11 6 5 7 4 8 3 9 2 10 1 11
REMARK H PARENT
REMARK Flexibility Score: inf
ROOT
ATOM      1  C   UNL     1      51.726 -40.437 -30.376  1.00  0.00     0.000 C 
ENDROOT
BRANCH   1   2
ATOM      2  C   UNL     1      50.393 -41.112 -30.003  1.00  0.00     0.006 C 
BRANCH   2   3
ATOM      3  C   UNL     1      50.163 -41.261 -28.490  1.00  0.00     0.053 C 
BRANCH   3   4
ATOM      4  C   UNL     1      48.749 -41.639 -28.172  1.00  0.00     0.041 C 
ATOM      5  O   UNL     1      47.896 -40.748 -27.923  1.00  0.00    -0.550 OA
ATOM      6  O   UNL     1      48.382 -42.978 -28.117  1.00  0.00    -0.550 OA
ENDBRANCH   3   4
ENDBRANCH   2   3
ENDBRANCH   1   2
BRANCH   1   7
ATOM      7  C   UNL     1      52.574 -41.289 -31.337  1.00  0.00     0.000 C 
BRANCH   7   8
ATOM      8  C   UNL     1      54.039 -41.405 -30.888  1.00  0.00     0.004 C 
BRANCH   8   9
ATOM      9  C   UNL     1      55.024 -40.898 -31.952  1.00  0.00     0.027 C 
BRANCH   9  10
ATOM     10  C   UNL     1      54.304 -40.489 -33.207  1.00  0.00    -0.035 C 
ATOM     11  C   UNL     1      54.726 -40.869 -34.417  1.00  0.00     0.004 C 
ENDBRANCH   9  10
ENDBRANCH   8   9
ENDBRANCH   7   8
ENDBRANCH   1   7
TORSDOF 7
ENDMDL
MODEL 8
REMARK VINA RESULT:    -3.260     13.479     14.515
REMARK INTER + INTRA:          -5.085
REMARK INTER:                  -4.764
REMARK INTRA:                  -0.321
REMARK UNBOUND:                -0.491
REMARK SMILES C=CCCCCCCC(=O)[O-]
REMARK SMILES IDX 6 1 7 2 8 3 9 4 10 5 11 6 5 7 4 8 3 9 2 10 1 11
REMARK H PARENT
REMARK Flexibility Score: inf
ROOT
ATOM      1  C   UNL     1      43.840 -29.613 -29.753  1.00  0.00     0.000 C 
ENDROOT
BRANCH   1   2
ATOM      2  C   UNL     1      42.496 -30.320 -30.006  1.00  0.00     0.006 C 
BRANCH   2   3
ATOM      3  C   UNL     1      41.340 -29.370 -30.358  1.00  0.00     0.053 C 
BRANCH   3   4
ATOM      4  C   UNL     1      41.675 -28.484 -31.518  1.00  0.00     0.041 C 
ATOM      5  O   UNL     1      41.916 -28.984 -32.649  1.00  0.00    -0.550 OA
ATOM      6  O   UNL     1      41.757 -27.108 -31.343  1.00  0.00    -0.550 OA
ENDBRANCH   3   4
ENDBRANCH   2   3
ENDBRANCH   1   2
BRANCH   1   7
ATOM      7  C   UNL     1      44.862 -30.518 -29.043  1.00  0.00     0.000 C 
BRANCH   7   8
ATOM      8  C   UNL     1      46.271 -30.408 -29.649  1.00  0.00     0.004 C 
BRANCH   8   9
ATOM      9  C   UNL     1      47.181 -31.576 -29.240  1.00  0.00     0.027 C 
BRANCH   9  10
ATOM     10  C   UNL     1      46.389 -32.840 -29.048  1.00  0.00    -0.035 C 
ATOM     11  C   UNL     1      46.753 -33.992 -29.619  1.00  0.00     0.004 C 
ENDBRANCH   9  10
ENDBRANCH   8   9
ENDBRANCH   7   8
ENDBRANCH   1   7
TORSDOF 7
ENDMDL
MODEL 9
REMARK VINA RESULT:    -3.256     10.906     11.577
REMARK INTER + INTRA:          -5.079
REMARK INTER:                  -4.733
REMARK INTRA:                  -0.346
REMARK UNBOUND:                -0.491
REMARK SMILES C=CCCCCCCC(=O)[O-]
REMARK SMILES IDX 6 1 7 2 8 3 9 4 10 5 11 6 5 7 4 8 3 9 2 10 1 11
REMARK H PARENT
REMARK Flexibility Score: inf
ROOT
ATOM      1  C   UNL     1      49.296 -30.743 -29.143  1.00  0.00     0.000 C 
ENDROOT
BRANCH   1   2
ATOM      2  C   UNL     1      48.840 -29.581 -30.045  1.00  0.00     0.006 C 
BRANCH   2   3
ATOM      3  C   UNL     1      47.324 -29.536 -30.298  1.00  0.00     0.053 C 
BRANCH   3   4
ATOM      4  C   UNL     1      46.995 -28.913 -31.620  1.00  0.00     0.041 C 
ATOM      5  O   UNL     1      47.864 -28.858 -32.529  1.00  0.00    -0.550 OA
ATOM      6  O   UNL     1      45.738 -28.360 -31.834  1.00  0.00    -0.550 OA
ENDBRANCH   3   4
ENDBRANCH   2   3
ENDBRANCH   1   2
BRANCH   1   7
ATOM      7  C   UNL     1      48.123 -31.613 -28.657  1.00  0.00     0.000 C 
BRANCH   7   8
ATOM      8  C   UNL     1      48.307 -33.100 -29.001  1.00  0.00     0.004 C 
BRANCH   8   9
ATOM      9  C   UNL     1      47.009 -33.756 -29.495  1.00  0.00     0.027 C 
BRANCH   9  10
ATOM     10  C   UNL     1      46.581 -34.869 -28.578  1.00  0.00    -0.035 C 
ATOM     11  C   UNL     1      46.560 -34.719 -27.250  1.00  0.00     0.004 C 
ENDBRANCH   9  10
ENDBRANCH   8   9
ENDBRANCH   7   8
ENDBRANCH   1   7
TORSDOF 7
ENDMDL
