MODEL 1
REMARK VINA RESULT:    -3.737      0.000      0.000
REMARK INTER + INTRA:          -5.705
REMARK INTER:                  -4.611
REMARK INTRA:                  -1.094
REMARK UNBOUND:                -1.094
REMARK SMILES CC(C)=CCC[C@@H](C)c1ccc(C)cc1
REMARK SMILES IDX 6 1 7 2 8 3 9 4 13 5 12 6 11 7 14 8 10 9 15 10 5 11 4 12
REMARK SMILES IDX 2 13 1 14 3 15
REMARK H PARENT
REMARK Flexibility Score: inf
ROOT
ATOM      1  C   UNL     1      -2.998   5.071  -5.726  1.00  0.00     0.012 C 
ENDROOT
BRANCH   1   2
ATOM      2  C   UNL     1      -2.269   4.474  -4.501  1.00  0.00     0.016 C 
ATOM      3  C   UNL     1      -0.954   5.218  -4.235  1.00  0.00     0.013 C 
BRANCH   2   4
ATOM      4  C   UNL     1      -3.145   4.476  -3.260  1.00  0.00    -0.045 A 
ATOM      5  C   UNL     1      -5.670   4.477   0.244  1.00  0.00     0.044 C 
ATOM      6  C   UNL     1      -4.799   4.506  -0.977  1.00  0.00    -0.051 A 
ATOM      7  C   UNL     1      -5.328   4.167  -2.230  1.00  0.00     0.004 A 
ATOM      8  C   UNL     1      -3.434   4.806  -0.865  1.00  0.00     0.004 A 
ATOM      9  C   UNL     1      -4.510   4.158  -3.363  1.00  0.00     0.004 A 
ATOM     10  C   UNL     1      -2.615   4.799  -1.996  1.00  0.00     0.004 A 
ENDBRANCH   2   4
ENDBRANCH   1   2
BRANCH   1  11
ATOM     11  C   UNL     1      -3.012   4.103  -6.919  1.00  0.00     0.028 C 
BRANCH  11  12
ATOM     12  C   UNL     1      -2.708   2.697  -6.469  1.00  0.00    -0.028 C 
ATOM     13  C   UNL     1      -3.644   1.753  -6.226  1.00  0.00    -0.080 C 
ATOM     14  C   UNL     1      -3.190   0.400  -5.741  1.00  0.00     0.039 C 
ATOM     15  C   UNL     1      -5.116   2.010  -6.443  1.00  0.00     0.039 C 
ENDBRANCH  11  12
ENDBRANCH   1  11
TORSDOF 4
ENDMDL
MODEL 2
REMARK VINA RESULT:    -3.726      2.686      6.930
REMARK INTER + INTRA:          -5.692
REMARK INTER:                  -4.594
REMARK INTRA:                  -1.098
REMARK UNBOUND:                -1.094
REMARK SMILES CC(C)=CCC[C@@H](C)c1ccc(C)cc1
REMARK SMILES IDX 6 1 7 2 8 3 9 4 13 5 12 6 11 7 14 8 10 9 15 10 5 11 4 12
REMARK SMILES IDX 2 13 1 14 3 15
REMARK H PARENT
REMARK Flexibility Score: inf
ROOT
ATOM      1  C   UNL     1      -8.017   5.463  -0.631  1.00  0.00     0.012 C 
ENDROOT
BRANCH   1   2
ATOM      2  C   UNL     1      -7.149   4.197  -0.458  1.00  0.00     0.016 C 
ATOM      3  C   UNL     1      -7.873   2.962  -1.012  1.00  0.00     0.013 C 
BRANCH   2   4
ATOM      4  C   UNL     1      -5.783   4.350  -1.103  1.00  0.00    -0.045 A 
ATOM      5  C   UNL     1      -1.911   4.765  -2.974  1.00  0.00     0.044 C 
ATOM      6  C   UNL     1      -3.250   4.592  -2.319  1.00  0.00    -0.051 A 
ATOM      7  C   UNL     1      -4.379   4.283  -3.091  1.00  0.00     0.004 A 
ATOM      8  C   UNL     1      -3.395   4.803  -0.941  1.00  0.00     0.004 A 
ATOM      9  C   UNL     1      -5.633   4.156  -2.488  1.00  0.00     0.004 A 
ATOM     10  C   UNL     1      -4.648   4.677  -0.336  1.00  0.00     0.004 A 
ENDBRANCH   2   4
ENDBRANCH   1   2
BRANCH   1  11
ATOM     11  C   UNL     1      -8.080   6.300   0.656  1.00  0.00     0.028 C 
BRANCH  11  12
ATOM     12  C   UNL     1      -7.588   5.502   1.836  1.00  0.00    -0.028 C 
ATOM     13  C   UNL     1      -6.529   5.844   2.603  1.00  0.00    -0.080 C 
ATOM     14  C   UNL     1      -6.128   4.924   3.727  1.00  0.00     0.039 C 
ATOM     15  C   UNL     1      -5.755   7.121   2.374  1.00  0.00     0.039 C 
ENDBRANCH  11  12
ENDBRANCH   1  11
TORSDOF 4
ENDMDL
MODEL 3
REMARK VINA RESULT:    -3.649      1.974      2.439
REMARK INTER + INTRA:          -5.597
REMARK INTER:                  -4.939
REMARK INTRA:                  -0.658
REMARK UNBOUND:                -1.094
REMARK SMILES CC(C)=CCC[C@@H](C)c1ccc(C)cc1
REMARK SMILES IDX 6 1 7 2 8 3 9 4 13 5 12 6 11 7 14 8 10 9 15 10 5 11 4 12
REMARK SMILES IDX 2 13 1 14 3 15
REMARK H PARENT
REMARK Flexibility Score: inf
ROOT
ATOM      1  C   UNL     1      -1.980   4.631  -5.804  1.00  0.00     0.012 C 
ENDROOT
BRANCH   1   2
ATOM      2  C   UNL     1      -1.490   4.647  -4.340  1.00  0.00     0.016 C 
ATOM      3  C   UNL     1      -0.635   5.891  -4.066  1.00  0.00     0.013 C 
BRANCH   2   4
ATOM      4  C   UNL     1      -2.640   4.560  -3.351  1.00  0.00    -0.045 A 
ATOM      5  C   UNL     1      -5.939   4.312  -0.575  1.00  0.00     0.044 C 
ATOM      6  C   UNL     1      -4.800   4.427  -1.544  1.00  0.00    -0.051 A 
ATOM      7  C   UNL     1      -4.985   4.094  -2.893  1.00  0.00     0.004 A 
ATOM      8  C   UNL     1      -3.526   4.804  -1.096  1.00  0.00     0.004 A 
ATOM      9  C   UNL     1      -3.916   4.166  -3.791  1.00  0.00     0.004 A 
ATOM     10  C   UNL     1      -2.456   4.877  -1.992  1.00  0.00     0.004 A 
ENDBRANCH   2   4
ENDBRANCH   1   2
BRANCH   1  11
ATOM     11  C   UNL     1      -1.576   3.342  -6.536  1.00  0.00     0.028 C 
BRANCH  11  12
ATOM     12  C   UNL     1      -0.080   3.158  -6.503  1.00  0.00    -0.028 C 
ATOM     13  C   UNL     1       0.547   1.969  -6.649  1.00  0.00    -0.080 C 
ATOM     14  C   UNL     1       2.051   1.934  -6.552  1.00  0.00     0.039 C 
ATOM     15  C   UNL     1      -0.211   0.692  -6.921  1.00  0.00     0.039 C 
ENDBRANCH  11  12
ENDBRANCH   1  11
TORSDOF 4
ENDMDL
MODEL 4
REMARK VINA RESULT:    -3.648      2.219      5.753
REMARK INTER + INTRA:          -5.595
REMARK INTER:                  -4.028
REMARK INTRA:                  -1.567
REMARK UNBOUND:                -1.094
REMARK SMILES CC(C)=CCC[C@@H](C)c1ccc(C)cc1
REMARK SMILES IDX 6 1 7 2 8 3 9 4 13 5 12 6 11 7 14 8 10 9 15 10 5 11 4 12
REMARK SMILES IDX 2 13 1 14 3 15
REMARK H PARENT
REMARK Flexibility Score: inf
ROOT
ATOM      1  C   UNL     1      -5.091   5.803   0.245  1.00  0.00     0.012 C 
ENDROOT
BRANCH   1   2
ATOM      2  C   UNL     1      -5.132   4.448  -0.493  1.00  0.00     0.016 C 
ATOM      3  C   UNL     1      -6.574   4.071  -0.859  1.00  0.00     0.013 C 
BRANCH   2   4
ATOM      4  C   UNL     1      -4.249   4.444  -1.728  1.00  0.00    -0.045 A 
ATOM      5  C   UNL     1      -1.769   4.412  -5.265  1.00  0.00     0.044 C 
ATOM      6  C   UNL     1      -2.623   4.394  -4.032  1.00  0.00    -0.051 A 
ATOM      7  C   UNL     1      -3.992   4.107  -4.126  1.00  0.00     0.004 A 
ATOM      8  C   UNL     1      -2.074   4.729  -2.786  1.00  0.00     0.004 A 
ATOM      9  C   UNL     1      -4.797   4.125  -2.983  1.00  0.00     0.004 A 
ATOM     10  C   UNL     1      -2.876   4.747  -1.643  1.00  0.00     0.004 A 
ENDBRANCH   2   4
ENDBRANCH   1   2
BRANCH   1  11
ATOM     11  C   UNL     1      -5.566   6.962  -0.645  1.00  0.00     0.028 C 
BRANCH  11  12
ATOM     12  C   UNL     1      -4.460   7.964  -0.852  1.00  0.00    -0.028 C 
ATOM     13  C   UNL     1      -3.966   8.319  -2.058  1.00  0.00    -0.080 C 
ATOM     14  C   UNL     1      -2.828   9.306  -2.107  1.00  0.00     0.039 C 
ATOM     15  C   UNL     1      -4.530   7.770  -3.347  1.00  0.00     0.039 C 
ENDBRANCH  11  12
ENDBRANCH   1  11
TORSDOF 4
ENDMDL
MODEL 5
REMARK VINA RESULT:    -3.629      1.609      2.540
REMARK INTER + INTRA:          -5.572
REMARK INTER:                  -4.810
REMARK INTRA:                  -0.762
REMARK UNBOUND:                -1.094
REMARK SMILES CC(C)=CCC[C@@H](C)c1ccc(C)cc1
REMARK SMILES IDX 6 1 7 2 8 3 9 4 13 5 12 6 11 7 14 8 10 9 15 10 5 11 4 12
REMARK SMILES IDX 2 13 1 14 3 15
REMARK H PARENT
REMARK Flexibility Score: inf
ROOT
ATOM      1  C   UNL     1      -3.689   2.180  -6.015  1.00  0.00     0.012 C 
ENDROOT
BRANCH   1   2
ATOM      2  C   UNL     1      -2.733   3.271  -5.485  1.00  0.00     0.016 C 
ATOM      3  C   UNL     1      -2.584   4.407  -6.505  1.00  0.00     0.013 C 
BRANCH   2   4
ATOM      4  C   UNL     1      -3.180   3.816  -4.140  1.00  0.00    -0.045 A 
ATOM      5  C   UNL     1      -4.494   5.367  -0.328  1.00  0.00     0.044 C 
ATOM      6  C   UNL     1      -4.040   4.856  -1.663  1.00  0.00    -0.051 A 
ATOM      7  C   UNL     1      -4.969   4.324  -2.568  1.00  0.00     0.004 A 
ATOM      8  C   UNL     1      -2.677   4.845  -1.990  1.00  0.00     0.004 A 
ATOM      9  C   UNL     1      -4.544   3.815  -3.799  1.00  0.00     0.004 A 
ATOM     10  C   UNL     1      -2.250   4.336  -3.219  1.00  0.00     0.004 A 
ENDBRANCH   2   4
ENDBRANCH   1   2
BRANCH   1  11
ATOM     11  C   UNL     1      -3.157   0.764  -5.746  1.00  0.00     0.028 C 
BRANCH  11  12
ATOM     12  C   UNL     1      -2.778   0.082  -7.036  1.00  0.00    -0.028 C 
ATOM     13  C   UNL     1      -1.531   0.071  -7.557  1.00  0.00    -0.080 C 
ATOM     14  C   UNL     1      -1.311  -0.618  -8.878  1.00  0.00     0.039 C 
ATOM     15  C   UNL     1      -0.361   0.710  -6.846  1.00  0.00     0.039 C 
ENDBRANCH  11  12
ENDBRANCH   1  11
TORSDOF 4
ENDMDL
MODEL 6
REMARK VINA RESULT:    -3.626     13.608     15.651
REMARK INTER + INTRA:          -5.569
REMARK INTER:                  -4.875
REMARK INTRA:                  -0.694
REMARK UNBOUND:                -1.094
REMARK SMILES CC(C)=CCC[C@@H](C)c1ccc(C)cc1
REMARK SMILES IDX 6 1 7 2 8 3 9 4 13 5 12 6 11 7 14 8 10 9 15 10 5 11 4 12
REMARK SMILES IDX 2 13 1 14 3 15
REMARK H PARENT
REMARK Flexibility Score: inf
ROOT
ATOM      1  C   UNL     1       8.836   1.886   3.027  1.00  0.00     0.012 C 
ENDROOT
BRANCH   1   2
ATOM      2  C   UNL     1      10.021   0.987   2.612  1.00  0.00     0.016 C 
ATOM      3  C   UNL     1      10.700   0.377   3.845  1.00  0.00     0.013 C 
BRANCH   2   4
ATOM      4  C   UNL     1       9.598  -0.102   1.641  1.00  0.00    -0.045 A 
ATOM      5  C   UNL     1       8.419  -3.227  -1.097  1.00  0.00     0.044 C 
ATOM      6  C   UNL     1       8.855  -2.139  -0.161  1.00  0.00    -0.051 A 
ATOM      7  C   UNL     1       9.491  -2.460   1.047  1.00  0.00     0.004 A 
ATOM      8  C   UNL     1       8.569  -0.798  -0.454  1.00  0.00     0.004 A 
ATOM      9  C   UNL     1       9.865  -1.449   1.937  1.00  0.00     0.004 A 
ATOM     10  C   UNL     1       8.943   0.213   0.435  1.00  0.00     0.004 A 
ENDBRANCH   2   4
ENDBRANCH   1   2
BRANCH   1  11
ATOM     11  C   UNL     1       9.014   2.462   4.440  1.00  0.00     0.028 C 
BRANCH  11  12
ATOM     12  C   UNL     1       7.739   2.332   5.234  1.00  0.00    -0.028 C 
ATOM     13  C   UNL     1       7.607   1.582   6.350  1.00  0.00    -0.080 C 
ATOM     14  C   UNL     1       6.257   1.516   7.016  1.00  0.00     0.039 C 
ATOM     15  C   UNL     1       8.771   0.829   6.951  1.00  0.00     0.039 C 
ENDBRANCH  11  12
ENDBRANCH   1  11
TORSDOF 4
ENDMDL
MODEL 7
REMARK VINA RESULT:    -3.581     11.677     13.558
REMARK INTER + INTRA:          -5.513
REMARK INTER:                  -4.356
REMARK INTRA:                  -1.157
REMARK UNBOUND:                -1.094
REMARK SMILES CC(C)=CCC[C@@H](C)c1ccc(C)cc1
REMARK SMILES IDX 6 1 7 2 8 3 9 4 13 5 12 6 11 7 14 8 10 9 15 10 5 11 4 12
REMARK SMILES IDX 2 13 1 14 3 15
REMARK H PARENT
REMARK Flexibility Score: inf
ROOT
ATOM      1  C   UNL     1       6.592  -0.348  -2.615  1.00  0.00     0.012 C 
ENDROOT
BRANCH   1   2
ATOM      2  C   UNL     1       7.566  -1.541  -2.486  1.00  0.00     0.016 C 
ATOM      3  C   UNL     1       8.577  -1.545  -3.641  1.00  0.00     0.013 C 
BRANCH   2   4
ATOM      4  C   UNL     1       8.283  -1.550  -1.148  1.00  0.00    -0.045 A 
ATOM      5  C   UNL     1      10.316  -1.619   2.663  1.00  0.00     0.044 C 
ATOM      6  C   UNL     1       9.584  -1.596   1.354  1.00  0.00    -0.051 A 
ATOM      7  C   UNL     1       9.309  -2.792   0.677  1.00  0.00     0.004 A 
ATOM      8  C   UNL     1       9.228  -0.374   0.764  1.00  0.00     0.004 A 
ATOM      9  C   UNL     1       8.658  -2.770  -0.560  1.00  0.00     0.004 A 
ATOM     10  C   UNL     1       8.577  -0.350  -0.472  1.00  0.00     0.004 A 
ENDBRANCH   2   4
ENDBRANCH   1   2
BRANCH   1  11
ATOM     11  C   UNL     1       7.034   0.645  -3.700  1.00  0.00     0.028 C 
BRANCH  11  12
ATOM     12  C   UNL     1       7.277   2.010  -3.107  1.00  0.00    -0.028 C 
ATOM     13  C   UNL     1       8.500   2.543  -2.893  1.00  0.00    -0.080 C 
ATOM     14  C   UNL     1       8.587   3.905  -2.253  1.00  0.00     0.039 C 
ATOM     15  C   UNL     1       9.767   1.825  -3.289  1.00  0.00     0.039 C 
ENDBRANCH  11  12
ENDBRANCH   1  11
TORSDOF 4
ENDMDL
MODEL 8
REMARK VINA RESULT:    -3.539     10.922     12.847
REMARK INTER + INTRA:          -5.461
REMARK INTER:                  -4.922
REMARK INTRA:                  -0.539
REMARK UNBOUND:                -1.094
REMARK SMILES CC(C)=CCC[C@@H](C)c1ccc(C)cc1
REMARK SMILES IDX 6 1 7 2 8 3 9 4 13 5 12 6 11 7 14 8 10 9 15 10 5 11 4 12
REMARK SMILES IDX 2 13 1 14 3 15
REMARK H PARENT
REMARK Flexibility Score: inf
ROOT
ATOM      1  C   UNL     1       8.377   1.097  -2.812  1.00  0.00     0.012 C 
ENDROOT
BRANCH   1   2
ATOM      2  C   UNL     1       7.514   0.091  -2.019  1.00  0.00     0.016 C 
ATOM      3  C   UNL     1       7.011  -1.034  -2.934  1.00  0.00     0.013 C 
BRANCH   2   4
ATOM      4  C   UNL     1       8.258  -0.483  -0.826  1.00  0.00    -0.045 A 
ATOM      5  C   UNL     1      10.386  -2.075   2.579  1.00  0.00     0.044 C 
ATOM      6  C   UNL     1       9.673  -1.520   1.382  1.00  0.00    -0.051 A 
ATOM      7  C   UNL     1       9.419  -0.144   1.286  1.00  0.00     0.004 A 
ATOM      8  C   UNL     1       9.196  -2.379   0.382  1.00  0.00     0.004 A 
ATOM      9  C   UNL     1       8.724   0.371   0.189  1.00  0.00     0.004 A 
ATOM     10  C   UNL     1       8.500  -1.866  -0.716  1.00  0.00     0.004 A 
ENDBRANCH   2   4
ENDBRANCH   1   2
BRANCH   1  11
ATOM     11  C   UNL     1       7.710   2.477  -2.915  1.00  0.00     0.028 C 
BRANCH  11  12
ATOM     12  C   UNL     1       6.619   2.465  -3.956  1.00  0.00    -0.028 C 
ATOM     13  C   UNL     1       5.965   3.565  -4.390  1.00  0.00    -0.080 C 
ATOM     14  C   UNL     1       4.866   3.392  -5.407  1.00  0.00     0.039 C 
ATOM     15  C   UNL     1       6.314   4.950  -3.900  1.00  0.00     0.039 C 
ENDBRANCH  11  12
ENDBRANCH   1  11
TORSDOF 4
ENDMDL
MODEL 9
REMARK VINA RESULT:    -3.495      3.235      4.891
REMARK INTER + INTRA:          -5.407
REMARK INTER:                  -4.710
REMARK INTRA:                  -0.697
REMARK UNBOUND:                -1.094
REMARK SMILES CC(C)=CCC[C@@H](C)c1ccc(C)cc1
REMARK SMILES IDX 6 1 7 2 8 3 9 4 13 5 12 6 11 7 14 8 10 9 15 10 5 11 4 12
REMARK SMILES IDX 2 13 1 14 3 15
REMARK H PARENT
REMARK Flexibility Score: inf
ROOT
ATOM      1  C   UNL     1       0.802   4.994  -5.738  1.00  0.00     0.012 C 
ENDROOT
BRANCH   1   2
ATOM      2  C   UNL     1      -0.596   4.454  -6.113  1.00  0.00     0.016 C 
ATOM      3  C   UNL     1      -0.495   3.038  -6.695  1.00  0.00     0.013 C 
BRANCH   2   4
ATOM      4  C   UNL     1      -1.552   4.480  -4.933  1.00  0.00    -0.045 A 
ATOM      5  C   UNL     1      -4.241   4.573  -1.554  1.00  0.00     0.044 C 
ATOM      6  C   UNL     1      -3.294   4.517  -2.715  1.00  0.00    -0.051 A 
ATOM      7  C   UNL     1      -2.107   5.263  -2.696  1.00  0.00     0.004 A 
ATOM      8  C   UNL     1      -3.619   3.771  -3.857  1.00  0.00     0.004 A 
ATOM      9  C   UNL     1      -1.240   5.240  -3.792  1.00  0.00     0.004 A 
ATOM     10  C   UNL     1      -2.754   3.746  -4.954  1.00  0.00     0.004 A 
ENDBRANCH   2   4
ENDBRANCH   1   2
BRANCH   1  11
ATOM     11  C   UNL     1       1.865   4.623  -6.784  1.00  0.00     0.028 C 
BRANCH  11  12
ATOM     12  C   UNL     1       3.224   4.504  -6.144  1.00  0.00    -0.028 C 
ATOM     13  C   UNL     1       3.808   3.334  -5.802  1.00  0.00    -0.080 C 
ATOM     14  C   UNL     1       5.156   3.373  -5.131  1.00  0.00     0.039 C 
ATOM     15  C   UNL     1       3.158   2.001  -6.089  1.00  0.00     0.039 C 
ENDBRANCH  11  12
ENDBRANCH   1  11
TORSDOF 4
ENDMDL
