MODEL 1
REMARK VINA RESULT:    -3.325      0.000      0.000
REMARK INTER + INTRA:          -5.175
REMARK INTER:                  -4.686
REMARK INTRA:                  -0.490
REMARK UNBOUND:                -0.490
REMARK SMILES CCCCCCCCC(=O)[O-]
REMARK SMILES IDX 6 1 7 2 8 3 9 4 10 5 11 6 5 7 4 8 3 9 2 10 1 11
REMARK H PARENT
REMARK Flexibility Score: inf
ROOT
ATOM      1  C   UNL     1     112.915  53.058 233.552  1.00  0.00     0.000 C 
ENDROOT
BRANCH   1   2
ATOM      2  C   UNL     1     111.428  53.364 233.786  1.00  0.00     0.006 C 
BRANCH   2   3
ATOM      3  C   UNL     1     110.597  53.020 232.546  1.00  0.00     0.053 C 
BRANCH   3   4
ATOM      4  C   UNL     1     109.513  52.050 232.896  1.00  0.00     0.041 C 
ATOM      5  O   UNL     1     109.573  50.859 232.491  1.00  0.00    -0.550 OA
ATOM      6  O   UNL     1     108.460  52.448 233.709  1.00  0.00    -0.550 OA
ENDBRANCH   3   4
ENDBRANCH   2   3
ENDBRANCH   1   2
BRANCH   1   7
ATOM      7  C   UNL     1     113.353  53.298 232.095  1.00  0.00     0.000 C 
BRANCH   7   8
ATOM      8  C   UNL     1     113.866  54.721 231.793  1.00  0.00    -0.000 C 
BRANCH   8   9
ATOM      9  C   UNL     1     113.776  55.146 230.316  1.00  0.00    -0.000 C 
BRANCH   9  10
ATOM     10  C   UNL     1     112.585  54.510 229.585  1.00  0.00    -0.003 C 
ATOM     11  C   UNL     1     113.043  53.773 228.329  1.00  0.00     0.004 C 
ENDBRANCH   9  10
ENDBRANCH   8   9
ENDBRANCH   7   8
ENDBRANCH   1   7
TORSDOF 7
ENDMDL
MODEL 2
REMARK VINA RESULT:    -3.284      1.088      2.043
REMARK INTER + INTRA:          -5.117
REMARK INTER:                  -4.853
REMARK INTRA:                  -0.264
REMARK UNBOUND:                -0.490
REMARK SMILES CCCCCCCCC(=O)[O-]
REMARK SMILES IDX 6 1 7 2 8 3 9 4 10 5 11 6 5 7 4 8 3 9 2 10 1 11
REMARK H PARENT
REMARK Flexibility Score: inf
ROOT
ATOM      1  C   UNL     1     112.617  53.165 231.187  1.00  0.00     0.000 C 
ENDROOT
BRANCH   1   2
ATOM      2  C   UNL     1     111.940  52.911 232.542  1.00  0.00     0.006 C 
BRANCH   2   3
ATOM      3  C   UNL     1     110.478  53.368 232.517  1.00  0.00     0.053 C 
BRANCH   3   4
ATOM      4  C   UNL     1     109.588  52.304 233.078  1.00  0.00     0.041 C 
ATOM      5  O   UNL     1     108.748  52.587 233.974  1.00  0.00    -0.550 OA
ATOM      6  O   UNL     1     109.652  51.009 232.580  1.00  0.00    -0.550 OA
ENDBRANCH   3   4
ENDBRANCH   2   3
ENDBRANCH   1   2
BRANCH   1   7
ATOM      7  C   UNL     1     112.468  54.621 230.707  1.00  0.00     0.000 C 
BRANCH   7   8
ATOM      8  C   UNL     1     113.358  55.009 229.509  1.00  0.00    -0.000 C 
BRANCH   8   9
ATOM      9  C   UNL     1     112.753  54.713 228.124  1.00  0.00    -0.000 C 
BRANCH   9  10
ATOM     10  C   UNL     1     113.219  53.370 227.546  1.00  0.00    -0.003 C 
ATOM     11  C   UNL     1     112.885  53.266 226.061  1.00  0.00     0.004 C 
ENDBRANCH   9  10
ENDBRANCH   8   9
ENDBRANCH   7   8
ENDBRANCH   1   7
TORSDOF 7
ENDMDL
MODEL 3
REMARK VINA RESULT:    -3.237      3.597      5.742
REMARK INTER + INTRA:          -5.052
REMARK INTER:                  -4.776
REMARK INTRA:                  -0.275
REMARK UNBOUND:                -0.490
REMARK SMILES CCCCCCCCC(=O)[O-]
REMARK SMILES IDX 6 1 7 2 8 3 9 4 10 5 11 6 5 7 4 8 3 9 2 10 1 11
REMARK H PARENT
REMARK Flexibility Score: inf
ROOT
ATOM      1  C   UNL     1     112.921  53.875 229.269  1.00  0.00     0.000 C 
ENDROOT
BRANCH   1   2
ATOM      2  C   UNL     1     113.249  54.399 227.863  1.00  0.00     0.006 C 
BRANCH   2   3
ATOM      3  C   UNL     1     113.341  53.247 226.857  1.00  0.00     0.053 C 
BRANCH   3   4
ATOM      4  C   UNL     1     112.316  53.410 225.780  1.00  0.00     0.041 C 
ATOM      5  O   UNL     1     112.645  53.876 224.657  1.00  0.00    -0.550 OA
ATOM      6  O   UNL     1     111.006  53.002 225.999  1.00  0.00    -0.550 OA
ENDBRANCH   3   4
ENDBRANCH   2   3
ENDBRANCH   1   2
BRANCH   1   7
ATOM      7  C   UNL     1     113.357  54.842 230.384  1.00  0.00     0.000 C 
BRANCH   7   8
ATOM      8  C   UNL     1     113.183  54.307 231.820  1.00  0.00    -0.000 C 
BRANCH   8   9
ATOM      9  C   UNL     1     112.313  53.043 231.944  1.00  0.00    -0.000 C 
BRANCH   9  10
ATOM     10  C   UNL     1     110.907  53.338 232.485  1.00  0.00    -0.003 C 
ATOM     11  C   UNL     1     110.090  52.056 232.617  1.00  0.00     0.004 C 
ENDBRANCH   9  10
ENDBRANCH   8   9
ENDBRANCH   7   8
ENDBRANCH   1   7
TORSDOF 7
ENDMDL
MODEL 4
REMARK VINA RESULT:    -3.172      3.718      5.902
REMARK INTER + INTRA:          -4.960
REMARK INTER:                  -4.640
REMARK INTRA:                  -0.320
REMARK UNBOUND:                -0.490
REMARK SMILES CCCCCCCCC(=O)[O-]
REMARK SMILES IDX 6 1 7 2 8 3 9 4 10 5 11 6 5 7 4 8 3 9 2 10 1 11
REMARK H PARENT
REMARK Flexibility Score: inf
ROOT
ATOM      1  C   UNL     1     112.586  54.832 228.379  1.00  0.00     0.000 C 
ENDROOT
BRANCH   1   2
ATOM      2  C   UNL     1     112.968  53.415 227.926  1.00  0.00     0.006 C 
BRANCH   2   3
ATOM      3  C   UNL     1     113.320  53.394 226.435  1.00  0.00     0.053 C 
BRANCH   3   4
ATOM      4  C   UNL     1     112.082  53.525 225.604  1.00  0.00     0.041 C 
ATOM      5  O   UNL     1     111.033  52.908 225.928  1.00  0.00    -0.550 OA
ATOM      6  O   UNL     1     112.073  54.366 224.499  1.00  0.00    -0.550 OA
ENDBRANCH   3   4
ENDBRANCH   2   3
ENDBRANCH   1   2
BRANCH   1   7
ATOM      7  C   UNL     1     112.692  55.022 229.903  1.00  0.00     0.000 C 
BRANCH   7   8
ATOM      8  C   UNL     1     112.976  53.735 230.704  1.00  0.00    -0.000 C 
BRANCH   8   9
ATOM      9  C   UNL     1     111.902  53.363 231.742  1.00  0.00    -0.000 C 
BRANCH   9  10
ATOM     10  C   UNL     1     112.494  53.036 233.121  1.00  0.00    -0.003 C 
ATOM     11  C   UNL     1     114.020  53.040 233.078  1.00  0.00     0.004 C 
ENDBRANCH   9  10
ENDBRANCH   8   9
ENDBRANCH   7   8
ENDBRANCH   1   7
TORSDOF 7
ENDMDL
MODEL 5
REMARK VINA RESULT:    -3.147      2.887      4.579
REMARK INTER + INTRA:          -4.924
REMARK INTER:                  -4.588
REMARK INTRA:                  -0.336
REMARK UNBOUND:                -0.490
REMARK SMILES CCCCCCCCC(=O)[O-]
REMARK SMILES IDX 6 1 7 2 8 3 9 4 10 5 11 6 5 7 4 8 3 9 2 10 1 11
REMARK H PARENT
REMARK Flexibility Score: inf
ROOT
ATOM      1  C   UNL     1     113.492  54.908 228.650  1.00  0.00     0.000 C 
ENDROOT
BRANCH   1   2
ATOM      2  C   UNL     1     113.418  55.026 230.180  1.00  0.00     0.006 C 
BRANCH   2   3
ATOM      3  C   UNL     1     112.741  53.796 230.791  1.00  0.00     0.053 C 
BRANCH   3   4
ATOM      4  C   UNL     1     113.349  53.469 232.118  1.00  0.00     0.041 C 
ATOM      5  O   UNL     1     113.198  52.323 232.621  1.00  0.00    -0.550 OA
ATOM      6  O   UNL     1     114.125  54.413 232.779  1.00  0.00    -0.550 OA
ENDBRANCH   3   4
ENDBRANCH   2   3
ENDBRANCH   1   2
BRANCH   1   7
ATOM      7  C   UNL     1     112.989  53.549 228.130  1.00  0.00     0.000 C 
BRANCH   7   8
ATOM      8  C   UNL     1     113.509  53.149 226.734  1.00  0.00    -0.000 C 
BRANCH   8   9
ATOM      9  C   UNL     1     112.549  53.452 225.570  1.00  0.00    -0.000 C 
BRANCH   9  10
ATOM     10  C   UNL     1     111.115  53.736 226.038  1.00  0.00    -0.003 C 
ATOM     11  C   UNL     1     110.102  52.944 225.217  1.00  0.00     0.004 C 
ENDBRANCH   9  10
ENDBRANCH   8   9
ENDBRANCH   7   8
ENDBRANCH   1   7
TORSDOF 7
ENDMDL
MODEL 6
REMARK VINA RESULT:    -3.032      3.716      5.653
REMARK INTER + INTRA:          -4.762
REMARK INTER:                  -4.436
REMARK INTRA:                  -0.326
REMARK UNBOUND:                -0.490
REMARK SMILES CCCCCCCCC(=O)[O-]
REMARK SMILES IDX 6 1 7 2 8 3 9 4 10 5 11 6 5 7 4 8 3 9 2 10 1 11
REMARK H PARENT
REMARK Flexibility Score: inf
ROOT
ATOM      1  C   UNL     1     113.212  54.855 230.348  1.00  0.00     0.000 C 
ENDROOT
BRANCH   1   2
ATOM      2  C   UNL     1     113.464  54.864 228.832  1.00  0.00     0.006 C 
BRANCH   2   3
ATOM      3  C   UNL     1     112.976  53.562 228.189  1.00  0.00     0.053 C 
BRANCH   3   4
ATOM      4  C   UNL     1     113.228  53.581 226.715  1.00  0.00     0.041 C 
ATOM      5  O   UNL     1     112.725  54.485 225.996  1.00  0.00    -0.550 OA
ATOM      6  O   UNL     1     114.059  52.627 226.139  1.00  0.00    -0.550 OA
ENDBRANCH   3   4
ENDBRANCH   2   3
ENDBRANCH   1   2
BRANCH   1   7
ATOM      7  C   UNL     1     112.634  53.519 230.850  1.00  0.00     0.000 C 
BRANCH   7   8
ATOM      8  C   UNL     1     112.952  53.180 232.321  1.00  0.00    -0.000 C 
BRANCH   8   9
ATOM      9  C   UNL     1     111.721  52.999 233.228  1.00  0.00    -0.000 C 
BRANCH   9  10
ATOM     10  C   UNL     1     110.395  53.138 232.468  1.00  0.00    -0.003 C 
ATOM     11  C   UNL     1     109.459  51.973 232.781  1.00  0.00     0.004 C 
ENDBRANCH   9  10
ENDBRANCH   8   9
ENDBRANCH   7   8
ENDBRANCH   1   7
TORSDOF 7
ENDMDL
MODEL 7
REMARK VINA RESULT:    -2.999      3.741      5.604
REMARK INTER + INTRA:          -4.716
REMARK INTER:                  -4.447
REMARK INTRA:                  -0.268
REMARK UNBOUND:                -0.490
REMARK SMILES CCCCCCCCC(=O)[O-]
REMARK SMILES IDX 6 1 7 2 8 3 9 4 10 5 11 6 5 7 4 8 3 9 2 10 1 11
REMARK H PARENT
REMARK Flexibility Score: inf
ROOT
ATOM      1  C   UNL     1     112.134  54.944 229.941  1.00  0.00     0.000 C 
ENDROOT
BRANCH   1   2
ATOM      2  C   UNL     1     112.438  54.856 228.438  1.00  0.00     0.006 C 
BRANCH   2   3
ATOM      3  C   UNL     1     113.298  53.628 228.124  1.00  0.00     0.053 C 
BRANCH   3   4
ATOM      4  C   UNL     1     113.073  53.178 226.715  1.00  0.00     0.041 C 
ATOM      5  O   UNL     1     114.048  52.826 225.999  1.00  0.00    -0.550 OA
ATOM      6  O   UNL     1     111.782  53.102 226.207  1.00  0.00    -0.550 OA
ENDBRANCH   3   4
ENDBRANCH   2   3
ENDBRANCH   1   2
BRANCH   1   7
ATOM      7  C   UNL     1     112.643  53.721 230.726  1.00  0.00     0.000 C 
BRANCH   7   8
ATOM      8  C   UNL     1     113.371  54.048 232.046  1.00  0.00    -0.000 C 
BRANCH   8   9
ATOM      9  C   UNL     1     113.630  52.840 232.964  1.00  0.00    -0.000 C 
BRANCH   9  10
ATOM     10  C   UNL     1     113.810  53.238 234.436  1.00  0.00    -0.003 C 
ATOM     11  C   UNL     1     113.979  54.748 234.580  1.00  0.00     0.004 C 
ENDBRANCH   9  10
ENDBRANCH   8   9
ENDBRANCH   7   8
ENDBRANCH   1   7
TORSDOF 7
ENDMDL
MODEL 8
REMARK VINA RESULT:    -2.974     18.051     19.365
REMARK INTER + INTRA:          -4.681
REMARK INTER:                  -4.090
REMARK INTRA:                  -0.590
REMARK UNBOUND:                -0.490
REMARK SMILES CCCCCCCCC(=O)[O-]
REMARK SMILES IDX 6 1 7 2 8 3 9 4 10 5 11 6 5 7 4 8 3 9 2 10 1 11
REMARK H PARENT
REMARK Flexibility Score: inf
ROOT
ATOM      1  C   UNL     1     111.628  64.368 218.403  1.00  0.00     0.000 C 
ENDROOT
BRANCH   1   2
ATOM      2  C   UNL     1     110.837  65.135 217.333  1.00  0.00     0.006 C 
BRANCH   2   3
ATOM      3  C   UNL     1     111.558  65.089 215.982  1.00  0.00     0.053 C 
BRANCH   3   4
ATOM      4  C   UNL     1     112.556  66.199 215.883  1.00  0.00     0.041 C 
ATOM      5  O   UNL     1     113.674  66.002 215.337  1.00  0.00    -0.550 OA
ATOM      6  O   UNL     1     112.233  67.467 216.350  1.00  0.00    -0.550 OA
ENDBRANCH   3   4
ENDBRANCH   2   3
ENDBRANCH   1   2
BRANCH   1   7
ATOM      7  C   UNL     1     111.626  65.076 219.770  1.00  0.00     0.000 C 
BRANCH   7   8
ATOM      8  C   UNL     1     112.250  66.487 219.776  1.00  0.00    -0.000 C 
BRANCH   8   9
ATOM      9  C   UNL     1     111.253  67.639 219.999  1.00  0.00    -0.000 C 
BRANCH   9  10
ATOM     10  C   UNL     1     109.837  67.146 220.327  1.00  0.00    -0.003 C 
ATOM     11  C   UNL     1     109.330  67.759 221.630  1.00  0.00     0.004 C 
ENDBRANCH   9  10
ENDBRANCH   8   9
ENDBRANCH   7   8
ENDBRANCH   1   7
TORSDOF 7
ENDMDL
MODEL 9
REMARK VINA RESULT:    -2.925     19.335     20.478
REMARK INTER + INTRA:          -4.612
REMARK INTER:                  -3.990
REMARK INTRA:                  -0.622
REMARK UNBOUND:                -0.490
REMARK SMILES CCCCCCCCC(=O)[O-]
REMARK SMILES IDX 6 1 7 2 8 3 9 4 10 5 11 6 5 7 4 8 3 9 2 10 1 11
REMARK H PARENT
REMARK Flexibility Score: inf
ROOT
ATOM      1  C   UNL     1      96.973  63.947 224.243  1.00  0.00     0.000 C 
ENDROOT
BRANCH   1   2
ATOM      2  C   UNL     1      98.381  64.207 224.801  1.00  0.00     0.006 C 
BRANCH   2   3
ATOM      3  C   UNL     1      98.877  65.601 224.405  1.00  0.00     0.053 C 
BRANCH   3   4
ATOM      4  C   UNL     1     100.262  65.523 223.845  1.00  0.00     0.041 C 
ATOM      5  O   UNL     1     101.074  66.469 224.025  1.00  0.00    -0.550 OA
ATOM      6  O   UNL     1     100.674  64.384 223.164  1.00  0.00    -0.550 OA
ENDBRANCH   3   4
ENDBRANCH   2   3
ENDBRANCH   1   2
BRANCH   1   7
ATOM      7  C   UNL     1      96.209  65.244 223.921  1.00  0.00     0.000 C 
BRANCH   7   8
ATOM      8  C   UNL     1      95.001  65.536 224.834  1.00  0.00    -0.000 C 
BRANCH   8   9
ATOM      9  C   UNL     1      94.915  64.664 226.100  1.00  0.00    -0.000 C 
BRANCH   9  10
ATOM     10  C   UNL     1      95.625  65.294 227.306  1.00  0.00    -0.003 C 
ATOM     11  C   UNL     1      95.643  66.816 227.199  1.00  0.00     0.004 C 
ENDBRANCH   9  10
ENDBRANCH   8   9
ENDBRANCH   7   8
ENDBRANCH   1   7
TORSDOF 7
ENDMDL
