MODEL 1
REMARK VINA RESULT:    -4.007      0.000      0.000
REMARK INTER + INTRA:          -9.707
REMARK INTER:                  -7.521
REMARK INTRA:                  -2.186
REMARK UNBOUND:                -2.186
REMARK SMILES O=C([O-])CCCCCCCCCCCCCCC(=O)[O-]
REMARK SMILES IDX 10 1 9 2 8 3 7 4 6 5 5 6 4 7 2 8 1 9 3 10 11 11 12 12 13 13
REMARK SMILES IDX 14 14 15 15 16 16 17 17 18 18 19 19 20 20
REMARK H PARENT
REMARK Flexibility Score: inf
ROOT
ATOM      1  C   UNL     1       3.572   1.392 401.816  1.00  0.00     0.000 C 
ENDROOT
BRANCH   1   2
ATOM      2  C   UNL     1       4.624   2.497 402.012  1.00  0.00     0.000 C 
BRANCH   2   3
ATOM      3  C   UNL     1       5.515   2.252 403.242  1.00  0.00     0.000 C 
BRANCH   3   4
ATOM      4  C   UNL     1       4.914   1.226 404.216  1.00  0.00     0.000 C 
BRANCH   4   5
ATOM      5  C   UNL     1       5.927   0.118 404.538  1.00  0.00     0.000 C 
BRANCH   5   6
ATOM      6  C   UNL     1       5.355  -1.296 404.330  1.00  0.00     0.006 C 
BRANCH   6   7
ATOM      7  C   UNL     1       3.830  -1.339 404.136  1.00  0.00     0.053 C 
BRANCH   7   8
ATOM      8  C   UNL     1       3.161  -2.229 405.138  1.00  0.00     0.041 C 
ATOM      9  O   UNL     1       2.092  -2.824 404.843  1.00  0.00    -0.550 OA
ATOM     10  O   UNL     1       3.701  -2.373 406.410  1.00  0.00    -0.550 OA
ENDBRANCH   7   8
ENDBRANCH   6   7
ENDBRANCH   5   6
ENDBRANCH   4   5
ENDBRANCH   3   4
ENDBRANCH   2   3
ENDBRANCH   1   2
BRANCH   1  11
ATOM     11  C   UNL     1       3.633   0.764 400.414  1.00  0.00     0.000 C 
BRANCH  11  12
ATOM     12  C   UNL     1       4.982   0.077 400.129  1.00  0.00     0.000 C 
BRANCH  12  13
ATOM     13  C   UNL     1       4.996  -1.400 400.556  1.00  0.00     0.000 C 
BRANCH  13  14
ATOM     14  C   UNL     1       3.770  -2.175 400.042  1.00  0.00     0.000 C 
BRANCH  14  15
ATOM     15  C   UNL     1       3.292  -3.248 401.033  1.00  0.00     0.000 C 
BRANCH  15  16
ATOM     16  C   UNL     1       4.455  -3.962 401.743  1.00  0.00     0.006 C 
BRANCH  16  17
ATOM     17  C   UNL     1       4.245  -5.480 401.814  1.00  0.00     0.053 C 
BRANCH  17  18
ATOM     18  C   UNL     1       4.626  -6.032 403.154  1.00  0.00     0.041 C 
ATOM     19  O   UNL     1       4.629  -7.275 403.350  1.00  0.00    -0.550 OA
ATOM     20  O   UNL     1       4.949  -5.170 404.195  1.00  0.00    -0.550 OA
ENDBRANCH  17  18
ENDBRANCH  16  17
ENDBRANCH  15  16
ENDBRANCH  14  15
ENDBRANCH  13  14
ENDBRANCH  12  13
ENDBRANCH  11  12
ENDBRANCH   1  11
TORSDOF 15
ENDMDL
MODEL 2
REMARK VINA RESULT:    -3.967      2.394      5.254
REMARK INTER + INTRA:          -9.632
REMARK INTER:                  -7.272
REMARK INTRA:                  -2.360
REMARK UNBOUND:                -2.186
REMARK SMILES O=C([O-])CCCCCCCCCCCCCCC(=O)[O-]
REMARK SMILES IDX 10 1 9 2 8 3 7 4 6 5 5 6 4 7 2 8 1 9 3 10 11 11 12 12 13 13
REMARK SMILES IDX 14 14 15 15 16 16 17 17 18 18 19 19 20 20
REMARK H PARENT
REMARK Flexibility Score: inf
ROOT
ATOM      1  C   UNL     1       3.252  -3.218 401.120  1.00  0.00     0.000 C 
ENDROOT
BRANCH   1   2
ATOM      2  C   UNL     1       4.369  -4.101 401.700  1.00  0.00     0.000 C 
BRANCH   2   3
ATOM      3  C   UNL     1       5.762  -3.468 401.546  1.00  0.00     0.000 C 
BRANCH   3   4
ATOM      4  C   UNL     1       6.323  -2.936 402.875  1.00  0.00     0.000 C 
BRANCH   4   5
ATOM      5  C   UNL     1       5.901  -1.477 403.102  1.00  0.00     0.000 C 
BRANCH   5   6
ATOM      6  C   UNL     1       5.131  -1.275 404.420  1.00  0.00     0.006 C 
BRANCH   6   7
ATOM      7  C   UNL     1       3.603  -1.388 404.283  1.00  0.00     0.053 C 
BRANCH   7   8
ATOM      8  C   UNL     1       3.078  -2.658 404.879  1.00  0.00     0.041 C 
ATOM      9  O   UNL     1       1.897  -3.027 404.646  1.00  0.00    -0.550 OA
ATOM     10  O   UNL     1       3.883  -3.418 405.719  1.00  0.00    -0.550 OA
ENDBRANCH   7   8
ENDBRANCH   6   7
ENDBRANCH   5   6
ENDBRANCH   4   5
ENDBRANCH   3   4
ENDBRANCH   2   3
ENDBRANCH   1   2
BRANCH   1  11
ATOM     11  C   UNL     1       3.722  -2.392 399.910  1.00  0.00     0.000 C 
BRANCH  11  12
ATOM     12  C   UNL     1       3.741  -0.880 400.195  1.00  0.00     0.000 C 
BRANCH  12  13
ATOM     13  C   UNL     1       5.059  -0.213 399.768  1.00  0.00     0.000 C 
BRANCH  13  14
ATOM     14  C   UNL     1       5.238   1.187 400.382  1.00  0.00     0.000 C 
BRANCH  14  15
ATOM     15  C   UNL     1       3.901   1.832 400.782  1.00  0.00     0.000 C 
BRANCH  15  16
ATOM     16  C   UNL     1       4.049   2.847 401.928  1.00  0.00     0.006 C 
BRANCH  16  17
ATOM     17  C   UNL     1       4.715   2.229 403.165  1.00  0.00     0.053 C 
BRANCH  17  18
ATOM     18  C   UNL     1       6.092   2.777 403.388  1.00  0.00     0.041 C 
ATOM     19  O   UNL     1       7.092   2.015 403.341  1.00  0.00    -0.550 OA
ATOM     20  O   UNL     1       6.265   4.125 403.675  1.00  0.00    -0.550 OA
ENDBRANCH  17  18
ENDBRANCH  16  17
ENDBRANCH  15  16
ENDBRANCH  14  15
ENDBRANCH  13  14
ENDBRANCH  12  13
ENDBRANCH  11  12
ENDBRANCH   1  11
TORSDOF 15
ENDMDL
MODEL 3
REMARK VINA RESULT:    -3.942      3.472      5.755
REMARK INTER + INTRA:          -9.585
REMARK INTER:                  -7.330
REMARK INTRA:                  -2.254
REMARK UNBOUND:                -2.186
REMARK SMILES O=C([O-])CCCCCCCCCCCCCCC(=O)[O-]
REMARK SMILES IDX 10 1 9 2 8 3 7 4 6 5 5 6 4 7 2 8 1 9 3 10 11 11 12 12 13 13
REMARK SMILES IDX 14 14 15 15 16 16 17 17 18 18 19 19 20 20
REMARK H PARENT
REMARK Flexibility Score: inf
ROOT
ATOM      1  C   UNL     1       3.961   2.886 401.499  1.00  0.00     0.000 C 
ENDROOT
BRANCH   1   2
ATOM      2  C   UNL     1       3.412   1.873 400.480  1.00  0.00     0.000 C 
BRANCH   2   3
ATOM      3  C   UNL     1       3.665   0.416 400.902  1.00  0.00     0.000 C 
BRANCH   3   4
ATOM      4  C   UNL     1       4.507  -0.362 399.878  1.00  0.00     0.000 C 
BRANCH   4   5
ATOM      5  C   UNL     1       6.001  -0.276 400.220  1.00  0.00     0.000 C 
BRANCH   5   6
ATOM      6  C   UNL     1       6.687   0.955 399.599  1.00  0.00     0.006 C 
BRANCH   6   7
ATOM      7  C   UNL     1       7.485   0.655 398.319  1.00  0.00     0.053 C 
BRANCH   7   8
ATOM      8  C   UNL     1       8.893   1.159 398.404  1.00  0.00     0.041 C 
ATOM      9  O   UNL     1       9.764   0.503 399.034  1.00  0.00    -0.550 OA
ATOM     10  O   UNL     1       9.236   2.371 397.817  1.00  0.00    -0.550 OA
ENDBRANCH   7   8
ENDBRANCH   6   7
ENDBRANCH   5   6
ENDBRANCH   4   5
ENDBRANCH   3   4
ENDBRANCH   2   3
ENDBRANCH   1   2
BRANCH   1  11
ATOM     11  C   UNL     1       4.518   2.208 402.762  1.00  0.00     0.000 C 
BRANCH  11  12
ATOM     12  C   UNL     1       6.033   2.427 402.934  1.00  0.00     0.000 C 
BRANCH  12  13
ATOM     13  C   UNL     1       6.619   1.623 404.105  1.00  0.00     0.000 C 
BRANCH  13  14
ATOM     14  C   UNL     1       5.727   0.436 404.511  1.00  0.00     0.000 C 
BRANCH  14  15
ATOM     15  C   UNL     1       6.238  -0.903 403.956  1.00  0.00     0.000 C 
BRANCH  15  16
ATOM     16  C   UNL     1       5.099  -1.876 403.607  1.00  0.00     0.006 C 
BRANCH  16  17
ATOM     17  C   UNL     1       3.726  -1.334 404.027  1.00  0.00     0.053 C 
BRANCH  17  18
ATOM     18  C   UNL     1       3.113  -2.159 405.117  1.00  0.00     0.041 C 
ATOM     19  O   UNL     1       3.556  -2.087 406.292  1.00  0.00    -0.550 OA
ATOM     20  O   UNL     1       2.069  -3.029 404.827  1.00  0.00    -0.550 OA
ENDBRANCH  17  18
ENDBRANCH  16  17
ENDBRANCH  15  16
ENDBRANCH  14  15
ENDBRANCH  13  14
ENDBRANCH  12  13
ENDBRANCH  11  12
ENDBRANCH   1  11
TORSDOF 15
ENDMDL
MODEL 4
REMARK VINA RESULT:    -3.890      0.911      4.130
REMARK INTER + INTRA:          -9.487
REMARK INTER:                  -7.036
REMARK INTRA:                  -2.451
REMARK UNBOUND:                -2.186
REMARK SMILES O=C([O-])CCCCCCCCCCCCCCC(=O)[O-]
REMARK SMILES IDX 10 1 9 2 8 3 7 4 6 5 5 6 4 7 2 8 1 9 3 10 11 11 12 12 13 13
REMARK SMILES IDX 14 14 15 15 16 16 17 17 18 18 19 19 20 20
REMARK H PARENT
REMARK Flexibility Score: inf
ROOT
ATOM      1  C   UNL     1       3.643   1.063 401.846  1.00  0.00     0.000 C 
ENDROOT
BRANCH   1   2
ATOM      2  C   UNL     1       3.262   0.804 400.379  1.00  0.00     0.000 C 
BRANCH   2   3
ATOM      3  C   UNL     1       4.013  -0.394 399.776  1.00  0.00     0.000 C 
BRANCH   3   4
ATOM      4  C   UNL     1       4.057  -1.605 400.722  1.00  0.00     0.000 C 
BRANCH   4   5
ATOM      5  C   UNL     1       5.418  -2.311 400.645  1.00  0.00     0.000 C 
BRANCH   5   6
ATOM      6  C   UNL     1       5.394  -3.726 401.252  1.00  0.00     0.006 C 
BRANCH   6   7
ATOM      7  C   UNL     1       4.001  -4.197 401.703  1.00  0.00     0.053 C 
BRANCH   7   8
ATOM      8  C   UNL     1       4.081  -5.320 402.691  1.00  0.00     0.041 C 
ATOM      9  O   UNL     1       3.625  -6.456 402.397  1.00  0.00    -0.550 OA
ATOM     10  O   UNL     1       4.628  -5.103 403.949  1.00  0.00    -0.550 OA
ENDBRANCH   7   8
ENDBRANCH   6   7
ENDBRANCH   5   6
ENDBRANCH   4   5
ENDBRANCH   3   4
ENDBRANCH   2   3
ENDBRANCH   1   2
BRANCH   1  11
ATOM     11  C   UNL     1       4.501   2.328 402.018  1.00  0.00     0.000 C 
BRANCH  11  12
ATOM     12  C   UNL     1       5.802   2.060 402.797  1.00  0.00     0.000 C 
BRANCH  12  13
ATOM     13  C   UNL     1       6.611   0.891 402.215  1.00  0.00     0.000 C 
BRANCH  13  14
ATOM     14  C   UNL     1       6.833  -0.240 403.236  1.00  0.00     0.000 C 
BRANCH  14  15
ATOM     15  C   UNL     1       6.034  -0.029 404.532  1.00  0.00     0.000 C 
BRANCH  15  16
ATOM     16  C   UNL     1       5.351  -1.316 405.025  1.00  0.00     0.006 C 
BRANCH  16  17
ATOM     17  C   UNL     1       3.990  -1.542 404.353  1.00  0.00     0.053 C 
BRANCH  17  18
ATOM     18  C   UNL     1       3.040  -2.274 405.251  1.00  0.00     0.041 C 
ATOM     19  O   UNL     1       2.106  -2.959 404.762  1.00  0.00    -0.550 OA
ATOM     20  O   UNL     1       3.172  -2.174 406.631  1.00  0.00    -0.550 OA
ENDBRANCH  17  18
ENDBRANCH  16  17
ENDBRANCH  15  16
ENDBRANCH  14  15
ENDBRANCH  13  14
ENDBRANCH  12  13
ENDBRANCH  11  12
ENDBRANCH   1  11
TORSDOF 15
ENDMDL
MODEL 5
REMARK VINA RESULT:    -3.848      3.580      4.867
REMARK INTER + INTRA:          -9.408
REMARK INTER:                  -7.270
REMARK INTRA:                  -2.139
REMARK UNBOUND:                -2.186
REMARK SMILES O=C([O-])CCCCCCCCCCCCCCC(=O)[O-]
REMARK SMILES IDX 10 1 9 2 8 3 7 4 6 5 5 6 4 7 2 8 1 9 3 10 11 11 12 12 13 13
REMARK SMILES IDX 14 14 15 15 16 16 17 17 18 18 19 19 20 20
REMARK H PARENT
REMARK Flexibility Score: inf
ROOT
ATOM      1  C   UNL     1       3.645   0.852 402.159  1.00  0.00     0.000 C 
ENDROOT
BRANCH   1   2
ATOM      2  C   UNL     1       4.651   1.647 403.007  1.00  0.00     0.000 C 
BRANCH   2   3
ATOM      3  C   UNL     1       6.079   1.585 402.441  1.00  0.00     0.000 C 
BRANCH   3   4
ATOM      4  C   UNL     1       6.756   0.227 402.682  1.00  0.00     0.000 C 
BRANCH   4   5
ATOM      5  C   UNL     1       7.341  -0.333 401.377  1.00  0.00     0.000 C 
BRANCH   5   6
ATOM      6  C   UNL     1       7.759   0.770 400.387  1.00  0.00     0.006 C 
BRANCH   6   7
ATOM      7  C   UNL     1       7.088   0.670 399.007  1.00  0.00     0.053 C 
BRANCH   7   8
ATOM      8  C   UNL     1       8.002   1.107 397.904  1.00  0.00     0.041 C 
ATOM      9  O   UNL     1       9.000   1.831 398.158  1.00  0.00    -0.550 OA
ATOM     10  O   UNL     1       7.733   0.742 396.591  1.00  0.00    -0.550 OA
ENDBRANCH   7   8
ENDBRANCH   6   7
ENDBRANCH   5   6
ENDBRANCH   4   5
ENDBRANCH   3   4
ENDBRANCH   2   3
ENDBRANCH   1   2
BRANCH   1  11
ATOM     11  C   UNL     1       3.727   1.205 400.664  1.00  0.00     0.000 C 
BRANCH  11  12
ATOM     12  C   UNL     1       3.491  -0.015 399.754  1.00  0.00     0.000 C 
BRANCH  12  13
ATOM     13  C   UNL     1       4.327  -1.235 400.170  1.00  0.00     0.000 C 
BRANCH  13  14
ATOM     14  C   UNL     1       3.551  -2.557 400.033  1.00  0.00     0.000 C 
BRANCH  14  15
ATOM     15  C   UNL     1       3.138  -3.143 401.393  1.00  0.00     0.000 C 
BRANCH  15  16
ATOM     16  C   UNL     1       4.258  -3.053 402.443  1.00  0.00     0.006 C 
BRANCH  16  17
ATOM     17  C   UNL     1       3.797  -2.341 403.722  1.00  0.00     0.053 C 
BRANCH  17  18
ATOM     18  C   UNL     1       3.010  -3.252 404.613  1.00  0.00     0.041 C 
ATOM     19  O   UNL     1       1.757  -3.307 404.516  1.00  0.00    -0.550 OA
ATOM     20  O   UNL     1       3.661  -4.021 405.571  1.00  0.00    -0.550 OA
ENDBRANCH  17  18
ENDBRANCH  16  17
ENDBRANCH  15  16
ENDBRANCH  14  15
ENDBRANCH  13  14
ENDBRANCH  12  13
ENDBRANCH  11  12
ENDBRANCH   1  11
TORSDOF 15
ENDMDL
MODEL 6
REMARK VINA RESULT:    -3.783      3.437      4.843
REMARK INTER + INTRA:          -9.286
REMARK INTER:                  -6.948
REMARK INTRA:                  -2.338
REMARK UNBOUND:                -2.186
REMARK SMILES O=C([O-])CCCCCCCCCCCCCCC(=O)[O-]
REMARK SMILES IDX 10 1 9 2 8 3 7 4 6 5 5 6 4 7 2 8 1 9 3 10 11 11 12 12 13 13
REMARK SMILES IDX 14 14 15 15 16 16 17 17 18 18 19 19 20 20
REMARK H PARENT
REMARK Flexibility Score: inf
ROOT
ATOM      1  C   UNL     1       5.061   1.560 403.945  1.00  0.00     0.000 C 
ENDROOT
BRANCH   1   2
ATOM      2  C   UNL     1       6.378   1.620 403.153  1.00  0.00     0.000 C 
BRANCH   2   3
ATOM      3  C   UNL     1       7.113   0.269 403.128  1.00  0.00     0.000 C 
BRANCH   3   4
ATOM      4  C   UNL     1       6.308  -0.859 403.793  1.00  0.00     0.000 C 
BRANCH   4   5
ATOM      5  C   UNL     1       5.930  -1.939 402.769  1.00  0.00     0.000 C 
BRANCH   5   6
ATOM      6  C   UNL     1       4.417  -2.221 402.727  1.00  0.00     0.006 C 
BRANCH   6   7
ATOM      7  C   UNL     1       3.952  -3.329 403.686  1.00  0.00     0.053 C 
BRANCH   7   8
ATOM      8  C   UNL     1       2.981  -2.819 404.705  1.00  0.00     0.041 C 
ATOM      9  O   UNL     1       1.771  -3.163 404.655  1.00  0.00    -0.550 OA
ATOM     10  O   UNL     1       3.405  -1.935 405.690  1.00  0.00    -0.550 OA
ENDBRANCH   7   8
ENDBRANCH   6   7
ENDBRANCH   5   6
ENDBRANCH   4   5
ENDBRANCH   3   4
ENDBRANCH   2   3
ENDBRANCH   1   2
BRANCH   1  11
ATOM     11  C   UNL     1       3.824   1.567 403.032  1.00  0.00     0.000 C 
BRANCH  11  12
ATOM     12  C   UNL     1       3.888   2.666 401.955  1.00  0.00     0.000 C 
BRANCH  12  13
ATOM     13  C   UNL     1       3.747   2.108 400.530  1.00  0.00     0.000 C 
BRANCH  13  14
ATOM     14  C   UNL     1       3.635   0.573 400.506  1.00  0.00     0.000 C 
BRANCH  14  15
ATOM     15  C   UNL     1       4.831  -0.095 399.807  1.00  0.00     0.000 C 
BRANCH  15  16
ATOM     16  C   UNL     1       6.038   0.847 399.663  1.00  0.00     0.006 C 
BRANCH  16  17
ATOM     17  C   UNL     1       7.299   0.105 399.202  1.00  0.00     0.053 C 
BRANCH  17  18
ATOM     18  C   UNL     1       7.991   0.826 398.085  1.00  0.00     0.041 C 
ATOM     19  O   UNL     1       7.647   0.623 396.891  1.00  0.00    -0.550 OA
ATOM     20  O   UNL     1       9.034   1.701 398.362  1.00  0.00    -0.550 OA
ENDBRANCH  17  18
ENDBRANCH  16  17
ENDBRANCH  15  16
ENDBRANCH  14  15
ENDBRANCH  13  14
ENDBRANCH  12  13
ENDBRANCH  11  12
ENDBRANCH   1  11
TORSDOF 15
ENDMDL
MODEL 7
REMARK VINA RESULT:    -3.721      3.812      6.744
REMARK INTER + INTRA:          -9.169
REMARK INTER:                  -6.946
REMARK INTRA:                  -2.223
REMARK UNBOUND:                -2.186
REMARK SMILES O=C([O-])CCCCCCCCCCCCCCC(=O)[O-]
REMARK SMILES IDX 10 1 9 2 8 3 7 4 6 5 5 6 4 7 2 8 1 9 3 10 11 11 12 12 13 13
REMARK SMILES IDX 14 14 15 15 16 16 17 17 18 18 19 19 20 20
REMARK H PARENT
REMARK Flexibility Score: inf
ROOT
ATOM      1  C   UNL     1       4.160  -4.369 401.949  1.00  0.00     0.000 C 
ENDROOT
BRANCH   1   2
ATOM      2  C   UNL     1       3.249  -3.359 401.230  1.00  0.00     0.000 C 
BRANCH   2   3
ATOM      3  C   UNL     1       4.041  -2.339 400.396  1.00  0.00     0.000 C 
BRANCH   3   4
ATOM      4  C   UNL     1       3.801  -0.889 400.844  1.00  0.00     0.000 C 
BRANCH   4   5
ATOM      5  C   UNL     1       4.741   0.075 400.107  1.00  0.00     0.000 C 
BRANCH   5   6
ATOM      6  C   UNL     1       6.212  -0.378 400.142  1.00  0.00     0.006 C 
BRANCH   6   7
ATOM      7  C   UNL     1       7.229   0.775 400.179  1.00  0.00     0.053 C 
BRANCH   7   8
ATOM      8  C   UNL     1       7.968   0.914 398.884  1.00  0.00     0.041 C 
ATOM      9  O   UNL     1       7.365   0.753 397.790  1.00  0.00    -0.550 OA
ATOM     10  O   UNL     1       9.330   1.187 398.885  1.00  0.00    -0.550 OA
ENDBRANCH   7   8
ENDBRANCH   6   7
ENDBRANCH   5   6
ENDBRANCH   4   5
ENDBRANCH   3   4
ENDBRANCH   2   3
ENDBRANCH   1   2
BRANCH   1  11
ATOM     11  C   UNL     1       3.869  -4.455 403.456  1.00  0.00     0.000 C 
BRANCH  11  12
ATOM     12  C   UNL     1       2.752  -3.492 403.900  1.00  0.00     0.000 C 
BRANCH  12  13
ATOM     13  C   UNL     1       3.187  -2.570 405.051  1.00  0.00     0.000 C 
BRANCH  13  14
ATOM     14  C   UNL     1       3.683  -1.201 404.553  1.00  0.00     0.000 C 
BRANCH  14  15
ATOM     15  C   UNL     1       5.217  -1.107 404.513  1.00  0.00     0.000 C 
BRANCH  15  16
ATOM     16  C   UNL     1       5.716   0.165 403.808  1.00  0.00     0.006 C 
BRANCH  16  17
ATOM     17  C   UNL     1       4.662   1.280 403.811  1.00  0.00     0.053 C 
BRANCH  17  18
ATOM     18  C   UNL     1       5.088   2.450 402.978  1.00  0.00     0.041 C 
ATOM     19  O   UNL     1       4.287   2.968 402.157  1.00  0.00    -0.550 OA
ATOM     20  O   UNL     1       6.380   2.950 403.089  1.00  0.00    -0.550 OA
ENDBRANCH  17  18
ENDBRANCH  16  17
ENDBRANCH  15  16
ENDBRANCH  14  15
ENDBRANCH  13  14
ENDBRANCH  12  13
ENDBRANCH  11  12
ENDBRANCH   1  11
TORSDOF 15
ENDMDL
MODEL 8
REMARK VINA RESULT:    -3.706      3.762      5.703
REMARK INTER + INTRA:          -9.142
REMARK INTER:                  -7.191
REMARK INTRA:                  -1.951
REMARK UNBOUND:                -2.186
REMARK SMILES O=C([O-])CCCCCCCCCCCCCCC(=O)[O-]
REMARK SMILES IDX 10 1 9 2 8 3 7 4 6 5 5 6 4 7 2 8 1 9 3 10 11 11 12 12 13 13
REMARK SMILES IDX 14 14 15 15 16 16 17 17 18 18 19 19 20 20
REMARK H PARENT
REMARK Flexibility Score: inf
ROOT
ATOM      1  C   UNL     1       3.981   2.682 401.696  1.00  0.00     0.000 C 
ENDROOT
BRANCH   1   2
ATOM      2  C   UNL     1       4.254   1.654 400.585  1.00  0.00     0.000 C 
BRANCH   2   3
ATOM      3  C   UNL     1       3.617   0.286 400.878  1.00  0.00     0.000 C 
BRANCH   3   4
ATOM      4  C   UNL     1       3.881  -0.743 399.767  1.00  0.00     0.000 C 
BRANCH   4   5
ATOM      5  C   UNL     1       3.882  -2.170 400.331  1.00  0.00     0.000 C 
BRANCH   5   6
ATOM      6  C   UNL     1       4.086  -2.210 401.857  1.00  0.00     0.006 C 
BRANCH   6   7
ATOM      7  C   UNL     1       3.294  -3.317 402.573  1.00  0.00     0.053 C 
BRANCH   7   8
ATOM      8  C   UNL     1       4.154  -4.496 402.908  1.00  0.00     0.041 C 
ATOM      9  O   UNL     1       5.120  -4.370 403.705  1.00  0.00    -0.550 OA
ATOM     10  O   UNL     1       3.910  -5.727 402.312  1.00  0.00    -0.550 OA
ENDBRANCH   7   8
ENDBRANCH   6   7
ENDBRANCH   5   6
ENDBRANCH   4   5
ENDBRANCH   3   4
ENDBRANCH   2   3
ENDBRANCH   1   2
BRANCH   1  11
ATOM     11  C   UNL     1       4.605   2.276 403.041  1.00  0.00     0.000 C 
BRANCH  11  12
ATOM     12  C   UNL     1       6.143   2.207 402.985  1.00  0.00     0.000 C 
BRANCH  12  13
ATOM     13  C   UNL     1       6.677   0.774 403.136  1.00  0.00     0.000 C 
BRANCH  13  14
ATOM     14  C   UNL     1       7.823   0.465 402.156  1.00  0.00     0.000 C 
BRANCH  14  15
ATOM     15  C   UNL     1       7.385  -0.455 401.005  1.00  0.00     0.000 C 
BRANCH  15  16
ATOM     16  C   UNL     1       8.079  -0.115 399.675  1.00  0.00     0.006 C 
BRANCH  16  17
ATOM     17  C   UNL     1       7.156   0.650 398.718  1.00  0.00     0.053 C 
BRANCH  17  18
ATOM     18  C   UNL     1       7.894   1.153 397.516  1.00  0.00     0.041 C 
ATOM     19  O   UNL     1       8.573   2.211 397.586  1.00  0.00    -0.550 OA
ATOM     20  O   UNL     1       7.809   0.469 396.310  1.00  0.00    -0.550 OA
ENDBRANCH  17  18
ENDBRANCH  16  17
ENDBRANCH  15  16
ENDBRANCH  14  15
ENDBRANCH  13  14
ENDBRANCH  12  13
ENDBRANCH  11  12
ENDBRANCH   1  11
TORSDOF 15
ENDMDL
MODEL 9
REMARK VINA RESULT:    -3.650      1.602      5.238
REMARK INTER + INTRA:          -9.037
REMARK INTER:                  -7.241
REMARK INTRA:                  -1.796
REMARK UNBOUND:                -2.186
REMARK SMILES O=C([O-])CCCCCCCCCCCCCCC(=O)[O-]
REMARK SMILES IDX 10 1 9 2 8 3 7 4 6 5 5 6 4 7 2 8 1 9 3 10 11 11 12 12 13 13
REMARK SMILES IDX 14 14 15 15 16 16 17 17 18 18 19 19 20 20
REMARK H PARENT
REMARK Flexibility Score: inf
ROOT
ATOM      1  C   UNL     1       5.415  -0.396 400.031  1.00  0.00     0.000 C 
ENDROOT
BRANCH   1   2
ATOM      2  C   UNL     1       4.023  -1.046 400.103  1.00  0.00     0.000 C 
BRANCH   2   3
ATOM      3  C   UNL     1       4.092  -2.570 400.296  1.00  0.00     0.000 C 
BRANCH   3   4
ATOM      4  C   UNL     1       3.305  -3.050 401.526  1.00  0.00     0.000 C 
BRANCH   4   5
ATOM      5  C   UNL     1       4.092  -4.120 402.296  1.00  0.00     0.000 C 
BRANCH   5   6
ATOM      6  C   UNL     1       4.055  -5.499 401.611  1.00  0.00     0.006 C 
BRANCH   6   7
ATOM      7  C   UNL     1       5.201  -6.440 402.021  1.00  0.00     0.053 C 
BRANCH   7   8
ATOM      8  C   UNL     1       4.967  -7.844 401.556  1.00  0.00     0.041 C 
ATOM      9  O   UNL     1       3.831  -8.194 401.141  1.00  0.00    -0.550 OA
ATOM     10  O   UNL     1       5.995  -8.777 401.614  1.00  0.00    -0.550 OA
ENDBRANCH   7   8
ENDBRANCH   6   7
ENDBRANCH   5   6
ENDBRANCH   4   5
ENDBRANCH   3   4
ENDBRANCH   2   3
ENDBRANCH   1   2
BRANCH   1  11
ATOM     11  C   UNL     1       5.359   1.134 400.181  1.00  0.00     0.000 C 
BRANCH  11  12
ATOM     12  C   UNL     1       3.961   1.640 400.580  1.00  0.00     0.000 C 
BRANCH  12  13
ATOM     13  C   UNL     1       3.996   2.582 401.793  1.00  0.00     0.000 C 
BRANCH  13  14
ATOM     14  C   UNL     1       5.027   2.147 402.849  1.00  0.00     0.000 C 
BRANCH  14  15
ATOM     15  C   UNL     1       4.387   1.391 404.025  1.00  0.00     0.000 C 
BRANCH  15  16
ATOM     16  C   UNL     1       4.167  -0.101 403.722  1.00  0.00     0.006 C 
BRANCH  16  17
ATOM     17  C   UNL     1       5.484  -0.888 403.704  1.00  0.00     0.053 C 
BRANCH  17  18
ATOM     18  C   UNL     1       5.833  -1.419 405.061  1.00  0.00     0.041 C 
ATOM     19  O   UNL     1       4.946  -1.947 405.781  1.00  0.00    -0.550 OA
ATOM     20  O   UNL     1       7.132  -1.306 405.539  1.00  0.00    -0.550 OA
ENDBRANCH  17  18
ENDBRANCH  16  17
ENDBRANCH  15  16
ENDBRANCH  14  15
ENDBRANCH  13  14
ENDBRANCH  12  13
ENDBRANCH  11  12
ENDBRANCH   1  11
TORSDOF 15
ENDMDL
