MODEL 1
REMARK VINA RESULT:    -3.558      0.000      0.000
REMARK INTER + INTRA:          -6.923
REMARK INTER:                  -6.263
REMARK INTRA:                  -0.660
REMARK UNBOUND:                -0.660
REMARK SMILES CCCCCCCCCCCCCCC(=O)[O-]
REMARK SMILES IDX 9 1 10 2 11 3 12 4 13 5 14 6 15 7 16 8 17 9 8 10 7 11 6 12
REMARK SMILES IDX 5 13 4 14 3 15 2 16 1 17
REMARK H PARENT
REMARK Flexibility Score: inf
ROOT
ATOM      1  C   UNL     1       2.429   5.736   3.552  1.00  0.00     0.000 C 
ENDROOT
BRANCH   1   2
ATOM      2  C   UNL     1       3.321   4.529   3.196  1.00  0.00     0.000 C 
BRANCH   2   3
ATOM      3  C   UNL     1       4.552   4.861   2.333  1.00  0.00     0.000 C 
BRANCH   3   4
ATOM      4  C   UNL     1       4.414   6.197   1.587  1.00  0.00     0.000 C 
BRANCH   4   5
ATOM      5  C   UNL     1       5.534   6.366   0.554  1.00  0.00     0.006 C 
BRANCH   5   6
ATOM      6  C   UNL     1       6.130   5.010   0.163  1.00  0.00     0.053 C 
BRANCH   6   7
ATOM      7  C   UNL     1       7.624   5.069   0.180  1.00  0.00     0.041 C 
ATOM      8  O   UNL     1       8.303   4.130  -0.312  1.00  0.00    -0.550 OA
ATOM      9  O   UNL     1       8.270   6.140   0.786  1.00  0.00    -0.550 OA
ENDBRANCH   6   7
ENDBRANCH   5   6
ENDBRANCH   4   5
ENDBRANCH   3   4
ENDBRANCH   2   3
ENDBRANCH   1   2
BRANCH   1  10
ATOM     10  C   UNL     1       1.093   5.386   4.238  1.00  0.00     0.000 C 
BRANCH  10  11
ATOM     11  C   UNL     1      -0.160   5.958   3.547  1.00  0.00    -0.000 C 
BRANCH  11  12
ATOM     12  C   UNL     1      -1.495   5.595   4.227  1.00  0.00    -0.000 C 
BRANCH  12  13
ATOM     13  C   UNL     1      -2.724   5.775   3.310  1.00  0.00    -0.000 C 
BRANCH  13  14
ATOM     14  C   UNL     1      -2.470   5.258   1.883  1.00  0.00    -0.000 C 
BRANCH  14  15
ATOM     15  C   UNL     1      -2.792   6.308   0.807  1.00  0.00    -0.000 C 
BRANCH  15  16
ATOM     16  C   UNL     1      -2.971   5.692  -0.589  1.00  0.00    -0.003 C 
ATOM     17  C   UNL     1      -2.654   4.200  -0.574  1.00  0.00     0.004 C 
ENDBRANCH  15  16
ENDBRANCH  14  15
ENDBRANCH  13  14
ENDBRANCH  12  13
ENDBRANCH  11  12
ENDBRANCH  10  11
ENDBRANCH   1  10
TORSDOF 13
ENDMDL
MODEL 2
REMARK VINA RESULT:    -3.535      8.353     12.208
REMARK INTER + INTRA:          -6.881
REMARK INTER:                  -5.614
REMARK INTRA:                  -1.267
REMARK UNBOUND:                -0.660
REMARK SMILES CCCCCCCCCCCCCCC(=O)[O-]
REMARK SMILES IDX 9 1 10 2 11 3 12 4 13 5 14 6 15 7 16 8 17 9 8 10 7 11 6 12
REMARK SMILES IDX 5 13 4 14 3 15 2 16 1 17
REMARK H PARENT
REMARK Flexibility Score: inf
ROOT
ATOM      1  C   UNL     1       4.996  -1.467  -5.272  1.00  0.00     0.000 C 
ENDROOT
BRANCH   1   2
ATOM      2  C   UNL     1       4.833  -1.355  -6.801  1.00  0.00     0.000 C 
BRANCH   2   3
ATOM      3  C   UNL     1       5.260  -0.004  -7.405  1.00  0.00     0.000 C 
BRANCH   3   4
ATOM      4  C   UNL     1       5.508   1.073  -6.339  1.00  0.00     0.000 C 
BRANCH   4   5
ATOM      5  C   UNL     1       4.509   2.227  -6.483  1.00  0.00     0.006 C 
BRANCH   5   6
ATOM      6  C   UNL     1       3.112   1.805  -6.020  1.00  0.00     0.053 C 
BRANCH   6   7
ATOM      7  C   UNL     1       2.798   2.405  -4.686  1.00  0.00     0.041 C 
ATOM      8  O   UNL     1       3.073   1.779  -3.629  1.00  0.00    -0.550 OA
ATOM      9  O   UNL     1       2.156   3.635  -4.612  1.00  0.00    -0.550 OA
ENDBRANCH   6   7
ENDBRANCH   5   6
ENDBRANCH   4   5
ENDBRANCH   3   4
ENDBRANCH   2   3
ENDBRANCH   1   2
BRANCH   1  10
ATOM     10  C   UNL     1       4.874  -2.894  -4.700  1.00  0.00     0.000 C 
BRANCH  10  11
ATOM     11  C   UNL     1       6.214  -3.614  -4.458  1.00  0.00    -0.000 C 
BRANCH  11  12
ATOM     12  C   UNL     1       7.444  -2.686  -4.400  1.00  0.00    -0.000 C 
BRANCH  12  13
ATOM     13  C   UNL     1       8.767  -3.390  -4.772  1.00  0.00    -0.000 C 
BRANCH  13  14
ATOM     14  C   UNL     1       9.956  -2.415  -4.811  1.00  0.00    -0.000 C 
BRANCH  14  15
ATOM     15  C   UNL     1       9.681  -1.114  -4.039  1.00  0.00    -0.000 C 
BRANCH  15  16
ATOM     16  C   UNL     1      10.013   0.143  -4.858  1.00  0.00    -0.003 C 
ATOM     17  C   UNL     1       9.050   0.303  -6.031  1.00  0.00     0.004 C 
ENDBRANCH  15  16
ENDBRANCH  14  15
ENDBRANCH  13  14
ENDBRANCH  12  13
ENDBRANCH  11  12
ENDBRANCH  10  11
ENDBRANCH   1  10
TORSDOF 13
ENDMDL
MODEL 3
REMARK VINA RESULT:    -3.498      4.087      5.149
REMARK INTER + INTRA:          -6.815
REMARK INTER:                  -6.092
REMARK INTRA:                  -0.724
REMARK UNBOUND:                -0.660
REMARK SMILES CCCCCCCCCCCCCCC(=O)[O-]
REMARK SMILES IDX 9 1 10 2 11 3 12 4 13 5 14 6 15 7 16 8 17 9 8 10 7 11 6 12
REMARK SMILES IDX 5 13 4 14 3 15 2 16 1 17
REMARK H PARENT
REMARK Flexibility Score: inf
ROOT
ATOM      1  C   UNL     1       4.561   5.517   3.353  1.00  0.00     0.000 C 
ENDROOT
BRANCH   1   2
ATOM      2  C   UNL     1       4.321   5.521   1.830  1.00  0.00     0.000 C 
BRANCH   2   3
ATOM      3  C   UNL     1       5.484   6.075   0.988  1.00  0.00     0.000 C 
BRANCH   3   4
ATOM      4  C   UNL     1       6.124   5.012   0.083  1.00  0.00     0.000 C 
BRANCH   4   5
ATOM      5  C   UNL     1       7.650   5.164   0.053  1.00  0.00     0.006 C 
BRANCH   5   6
ATOM      6  C   UNL     1       8.201   5.451   1.453  1.00  0.00     0.053 C 
BRANCH   6   7
ATOM      7  C   UNL     1       9.687   5.289   1.474  1.00  0.00     0.041 C 
ATOM      8  O   UNL     1      10.434   6.233   1.106  1.00  0.00    -0.550 OA
ATOM      9  O   UNL     1      10.249   4.076   1.854  1.00  0.00    -0.550 OA
ENDBRANCH   6   7
ENDBRANCH   5   6
ENDBRANCH   4   5
ENDBRANCH   3   4
ENDBRANCH   2   3
ENDBRANCH   1   2
BRANCH   1  10
ATOM     10  C   UNL     1       4.165   4.215   4.079  1.00  0.00     0.000 C 
BRANCH  10  11
ATOM     11  C   UNL     1       3.253   3.274   3.270  1.00  0.00    -0.000 C 
BRANCH  11  12
ATOM     12  C   UNL     1       2.090   2.656   4.072  1.00  0.00    -0.000 C 
BRANCH  12  13
ATOM     13  C   UNL     1       2.393   2.496   5.577  1.00  0.00    -0.000 C 
BRANCH  13  14
ATOM     14  C   UNL     1       1.455   1.484   6.258  1.00  0.00    -0.000 C 
BRANCH  14  15
ATOM     15  C   UNL     1       0.991   0.372   5.303  1.00  0.00    -0.000 C 
BRANCH  15  16
ATOM     16  C   UNL     1       0.878  -0.995   5.994  1.00  0.00    -0.003 C 
ATOM     17  C   UNL     1       0.028  -1.958   5.171  1.00  0.00     0.004 C 
ENDBRANCH  15  16
ENDBRANCH  14  15
ENDBRANCH  13  14
ENDBRANCH  12  13
ENDBRANCH  11  12
ENDBRANCH  10  11
ENDBRANCH   1  10
TORSDOF 13
ENDMDL
MODEL 4
REMARK VINA RESULT:    -3.482      3.763      7.206
REMARK INTER + INTRA:          -6.788
REMARK INTER:                  -5.494
REMARK INTRA:                  -1.294
REMARK UNBOUND:                -0.660
REMARK SMILES CCCCCCCCCCCCCCC(=O)[O-]
REMARK SMILES IDX 9 1 10 2 11 3 12 4 13 5 14 6 15 7 16 8 17 9 8 10 7 11 6 12
REMARK SMILES IDX 5 13 4 14 3 15 2 16 1 17
REMARK H PARENT
REMARK Flexibility Score: inf
ROOT
ATOM      1  C   UNL     1       0.066   5.661   3.549  1.00  0.00     0.000 C 
ENDROOT
BRANCH   1   2
ATOM      2  C   UNL     1      -1.370   6.217   3.468  1.00  0.00     0.000 C 
BRANCH   2   3
ATOM      3  C   UNL     1      -2.351   5.370   2.637  1.00  0.00     0.000 C 
BRANCH   3   4
ATOM      4  C   UNL     1      -2.474   5.854   1.185  1.00  0.00     0.000 C 
BRANCH   4   5
ATOM      5  C   UNL     1      -2.516   4.667   0.214  1.00  0.00     0.006 C 
BRANCH   5   6
ATOM      6  C   UNL     1      -3.092   5.086  -1.141  1.00  0.00     0.053 C 
BRANCH   6   7
ATOM      7  C   UNL     1      -2.176   6.051  -1.825  1.00  0.00     0.041 C 
ATOM      8  O   UNL     1      -0.970   5.750  -2.022  1.00  0.00    -0.550 OA
ATOM      9  O   UNL     1      -2.644   7.304  -2.202  1.00  0.00    -0.550 OA
ENDBRANCH   6   7
ENDBRANCH   5   6
ENDBRANCH   4   5
ENDBRANCH   3   4
ENDBRANCH   2   3
ENDBRANCH   1   2
BRANCH   1  10
ATOM     10  C   UNL     1       0.594   5.409   4.976  1.00  0.00     0.000 C 
BRANCH  10  11
ATOM     11  C   UNL     1       1.913   4.617   5.049  1.00  0.00    -0.000 C 
BRANCH  11  12
ATOM     12  C   UNL     1       2.006   3.426   4.076  1.00  0.00    -0.000 C 
BRANCH  12  13
ATOM     13  C   UNL     1       3.330   3.378   3.282  1.00  0.00    -0.000 C 
BRANCH  13  14
ATOM     14  C   UNL     1       4.135   4.682   3.408  1.00  0.00    -0.000 C 
BRANCH  14  15
ATOM     15  C   UNL     1       4.421   5.336   2.046  1.00  0.00    -0.000 C 
BRANCH  15  16
ATOM     16  C   UNL     1       3.589   6.607   1.812  1.00  0.00    -0.003 C 
ATOM     17  C   UNL     1       3.443   7.412   3.100  1.00  0.00     0.004 C 
ENDBRANCH  15  16
ENDBRANCH  14  15
ENDBRANCH  13  14
ENDBRANCH  12  13
ENDBRANCH  11  12
ENDBRANCH  10  11
ENDBRANCH   1  10
TORSDOF 13
ENDMDL
MODEL 5
REMARK VINA RESULT:    -3.469      3.483      4.489
REMARK INTER + INTRA:          -6.766
REMARK INTER:                  -5.460
REMARK INTRA:                  -1.305
REMARK UNBOUND:                -0.660
REMARK SMILES CCCCCCCCCCCCCCC(=O)[O-]
REMARK SMILES IDX 9 1 10 2 11 3 12 4 13 5 14 6 15 7 16 8 17 9 8 10 7 11 6 12
REMARK SMILES IDX 5 13 4 14 3 15 2 16 1 17
REMARK H PARENT
REMARK Flexibility Score: inf
ROOT
ATOM      1  C   UNL     1       3.154   6.879   3.585  1.00  0.00     0.000 C 
ENDROOT
BRANCH   1   2
ATOM      2  C   UNL     1       3.652   6.306   2.242  1.00  0.00     0.000 C 
BRANCH   2   3
ATOM      3  C   UNL     1       4.107   4.836   2.291  1.00  0.00     0.000 C 
BRANCH   3   4
ATOM      4  C   UNL     1       3.848   4.176   3.653  1.00  0.00     0.000 C 
BRANCH   4   5
ATOM      5  C   UNL     1       2.711   3.151   3.557  1.00  0.00     0.006 C 
BRANCH   5   6
ATOM      6  C   UNL     1       1.921   3.083   4.867  1.00  0.00     0.053 C 
BRANCH   6   7
ATOM      7  C   UNL     1       2.067   1.735   5.499  1.00  0.00     0.041 C 
ATOM      8  O   UNL     1       1.262   0.810   5.214  1.00  0.00    -0.550 OA
ATOM      9  O   UNL     1       3.065   1.514   6.440  1.00  0.00    -0.550 OA
ENDBRANCH   6   7
ENDBRANCH   5   6
ENDBRANCH   4   5
ENDBRANCH   3   4
ENDBRANCH   2   3
ENDBRANCH   1   2
BRANCH   1  10
ATOM     10  C   UNL     1       1.708   7.417   3.574  1.00  0.00     0.000 C 
BRANCH  10  11
ATOM     11  C   UNL     1       0.665   6.486   4.220  1.00  0.00    -0.000 C 
BRANCH  11  12
ATOM     12  C   UNL     1      -0.354   5.877   3.237  1.00  0.00    -0.000 C 
BRANCH  12  13
ATOM     13  C   UNL     1      -1.779   5.754   3.821  1.00  0.00    -0.000 C 
BRANCH  13  14
ATOM     14  C   UNL     1      -2.827   5.436   2.741  1.00  0.00    -0.000 C 
BRANCH  14  15
ATOM     15  C   UNL     1      -2.320   5.728   1.319  1.00  0.00    -0.000 C 
BRANCH  15  16
ATOM     16  C   UNL     1      -2.589   4.572   0.344  1.00  0.00    -0.003 C 
ATOM     17  C   UNL     1      -2.470   5.037  -1.104  1.00  0.00     0.004 C 
ENDBRANCH  15  16
ENDBRANCH  14  15
ENDBRANCH  13  14
ENDBRANCH  12  13
ENDBRANCH  11  12
ENDBRANCH  10  11
ENDBRANCH   1  10
TORSDOF 13
ENDMDL
MODEL 6
REMARK VINA RESULT:    -3.447      9.034     11.900
REMARK INTER + INTRA:          -6.726
REMARK INTER:                  -5.608
REMARK INTRA:                  -1.118
REMARK UNBOUND:                -0.660
REMARK SMILES CCCCCCCCCCCCCCC(=O)[O-]
REMARK SMILES IDX 9 1 10 2 11 3 12 4 13 5 14 6 15 7 16 8 17 9 8 10 7 11 6 12
REMARK SMILES IDX 5 13 4 14 3 15 2 16 1 17
REMARK H PARENT
REMARK Flexibility Score: inf
ROOT
ATOM      1  C   UNL     1       8.131  -0.844  -6.996  1.00  0.00     0.000 C 
ENDROOT
BRANCH   1   2
ATOM      2  C   UNL     1       7.875   0.585  -6.473  1.00  0.00     0.000 C 
BRANCH   2   3
ATOM      3  C   UNL     1       6.473   1.146  -6.771  1.00  0.00     0.000 C 
BRANCH   3   4
ATOM      4  C   UNL     1       5.374   0.076  -6.696  1.00  0.00     0.000 C 
BRANCH   4   5
ATOM      5  C   UNL     1       4.247   0.513  -5.754  1.00  0.00     0.006 C 
BRANCH   5   6
ATOM      6  C   UNL     1       4.138   2.040  -5.698  1.00  0.00     0.053 C 
BRANCH   6   7
ATOM      7  C   UNL     1       2.913   2.451  -4.946  1.00  0.00     0.041 C 
ATOM      8  O   UNL     1       2.123   3.302  -5.436  1.00  0.00    -0.550 OA
ATOM      9  O   UNL     1       2.667   1.932  -3.681  1.00  0.00    -0.550 OA
ENDBRANCH   6   7
ENDBRANCH   5   6
ENDBRANCH   4   5
ENDBRANCH   3   4
ENDBRANCH   2   3
ENDBRANCH   1   2
BRANCH   1  10
ATOM     10  C   UNL     1       8.783  -1.808  -5.983  1.00  0.00     0.000 C 
BRANCH  10  11
ATOM     11  C   UNL     1       7.896  -2.989  -5.549  1.00  0.00    -0.000 C 
BRANCH  11  12
ATOM     12  C   UNL     1       7.034  -2.725  -4.298  1.00  0.00    -0.000 C 
BRANCH  12  13
ATOM     13  C   UNL     1       5.521  -2.920  -4.537  1.00  0.00    -0.000 C 
BRANCH  13  14
ATOM     14  C   UNL     1       5.065  -4.360  -4.247  1.00  0.00    -0.000 C 
BRANCH  14  15
ATOM     15  C   UNL     1       3.631  -4.427  -3.696  1.00  0.00    -0.000 C 
BRANCH  15  16
ATOM     16  C   UNL     1       3.367  -5.702  -2.880  1.00  0.00    -0.003 C 
ATOM     17  C   UNL     1       4.676  -6.373  -2.472  1.00  0.00     0.004 C 
ENDBRANCH  15  16
ENDBRANCH  14  15
ENDBRANCH  13  14
ENDBRANCH  12  13
ENDBRANCH  11  12
ENDBRANCH  10  11
ENDBRANCH   1  10
TORSDOF 13
ENDMDL
MODEL 7
REMARK VINA RESULT:    -3.432      8.530     12.699
REMARK INTER + INTRA:          -6.699
REMARK INTER:                  -5.298
REMARK INTRA:                  -1.401
REMARK UNBOUND:                -0.660
REMARK SMILES CCCCCCCCCCCCCCC(=O)[O-]
REMARK SMILES IDX 9 1 10 2 11 3 12 4 13 5 14 6 15 7 16 8 17 9 8 10 7 11 6 12
REMARK SMILES IDX 5 13 4 14 3 15 2 16 1 17
REMARK H PARENT
REMARK Flexibility Score: inf
ROOT
ATOM      1  C   UNL     1       8.929   1.161  -6.341  1.00  0.00     0.000 C 
ENDROOT
BRANCH   1   2
ATOM      2  C   UNL     1       7.808   0.123  -6.554  1.00  0.00     0.000 C 
BRANCH   2   3
ATOM      3  C   UNL     1       6.408   0.717  -6.797  1.00  0.00     0.000 C 
BRANCH   3   4
ATOM      4  C   UNL     1       5.283  -0.309  -6.597  1.00  0.00     0.000 C 
BRANCH   4   5
ATOM      5  C   UNL     1       4.212   0.232  -5.641  1.00  0.00     0.006 C 
BRANCH   5   6
ATOM      6  C   UNL     1       4.185   1.763  -5.656  1.00  0.00     0.053 C 
BRANCH   6   7
ATOM      7  C   UNL     1       3.035   2.275  -4.848  1.00  0.00     0.041 C 
ATOM      8  O   UNL     1       2.857   1.868  -3.670  1.00  0.00    -0.550 OA
ATOM      9  O   UNL     1       2.130   3.165  -5.414  1.00  0.00    -0.550 OA
ENDBRANCH   6   7
ENDBRANCH   5   6
ENDBRANCH   4   5
ENDBRANCH   3   4
ENDBRANCH   2   3
ENDBRANCH   1   2
BRANCH   1  10
ATOM     10  C   UNL     1      10.071   0.713  -5.407  1.00  0.00     0.000 C 
BRANCH  10  11
ATOM     11  C   UNL     1       9.727  -0.471  -4.484  1.00  0.00    -0.000 C 
BRANCH  11  12
ATOM     12  C   UNL     1      10.869  -1.487  -4.284  1.00  0.00    -0.000 C 
BRANCH  12  13
ATOM     13  C   UNL     1      10.860  -2.638  -5.315  1.00  0.00    -0.000 C 
BRANCH  13  14
ATOM     14  C   UNL     1       9.434  -3.042  -5.727  1.00  0.00    -0.000 C 
BRANCH  14  15
ATOM     15  C   UNL     1       8.849  -4.146  -4.832  1.00  0.00    -0.000 C 
BRANCH  15  16
ATOM     16  C   UNL     1       7.315  -4.107  -4.767  1.00  0.00    -0.003 C 
ATOM     17  C   UNL     1       6.819  -2.731  -4.336  1.00  0.00     0.004 C 
ENDBRANCH  15  16
ENDBRANCH  14  15
ENDBRANCH  13  14
ENDBRANCH  12  13
ENDBRANCH  11  12
ENDBRANCH  10  11
ENDBRANCH   1  10
TORSDOF 13
ENDMDL
MODEL 8
REMARK VINA RESULT:    -3.430      3.849      5.434
REMARK INTER + INTRA:          -6.697
REMARK INTER:                  -5.200
REMARK INTRA:                  -1.496
REMARK UNBOUND:                -0.660
REMARK SMILES CCCCCCCCCCCCCCC(=O)[O-]
REMARK SMILES IDX 9 1 10 2 11 3 12 4 13 5 14 6 15 7 16 8 17 9 8 10 7 11 6 12
REMARK SMILES IDX 5 13 4 14 3 15 2 16 1 17
REMARK H PARENT
REMARK Flexibility Score: inf
ROOT
ATOM      1  C   UNL     1       4.080   6.747   1.452  1.00  0.00     0.000 C 
ENDROOT
BRANCH   1   2
ATOM      2  C   UNL     1       5.010   7.536   0.508  1.00  0.00     0.000 C 
BRANCH   2   3
ATOM      3  C   UNL     1       5.845   6.673  -0.455  1.00  0.00     0.000 C 
BRANCH   3   4
ATOM      4  C   UNL     1       5.954   5.210  -0.001  1.00  0.00     0.000 C 
BRANCH   4   5
ATOM      5  C   UNL     1       7.407   4.845   0.326  1.00  0.00     0.006 C 
BRANCH   5   6
ATOM      6  C   UNL     1       7.882   5.561   1.593  1.00  0.00     0.053 C 
BRANCH   6   7
ATOM      7  C   UNL     1       9.313   5.232   1.876  1.00  0.00     0.041 C 
ATOM      8  O   UNL     1       9.910   5.777   2.842  1.00  0.00    -0.550 OA
ATOM      9  O   UNL     1      10.003   4.361   1.043  1.00  0.00    -0.550 OA
ENDBRANCH   6   7
ENDBRANCH   5   6
ENDBRANCH   4   5
ENDBRANCH   3   4
ENDBRANCH   2   3
ENDBRANCH   1   2
BRANCH   1  10
ATOM     10  C   UNL     1       4.504   6.735   2.935  1.00  0.00     0.000 C 
BRANCH  10  11
ATOM     11  C   UNL     1       4.732   5.334   3.533  1.00  0.00    -0.000 C 
BRANCH  11  12
ATOM     12  C   UNL     1       3.835   4.227   2.945  1.00  0.00    -0.000 C 
BRANCH  12  13
ATOM     13  C   UNL     1       2.525   4.009   3.733  1.00  0.00    -0.000 C 
BRANCH  13  14
ATOM     14  C   UNL     1       2.338   2.544   4.162  1.00  0.00    -0.000 C 
BRANCH  14  15
ATOM     15  C   UNL     1       2.561   2.335   5.669  1.00  0.00    -0.000 C 
BRANCH  15  16
ATOM     16  C   UNL     1       4.049   2.317   6.052  1.00  0.00    -0.003 C 
ATOM     17  C   UNL     1       4.398   3.499   6.950  1.00  0.00     0.004 C 
ENDBRANCH  15  16
ENDBRANCH  14  15
ENDBRANCH  13  14
ENDBRANCH  12  13
ENDBRANCH  11  12
ENDBRANCH  10  11
ENDBRANCH   1  10
TORSDOF 13
ENDMDL
MODEL 9
REMARK VINA RESULT:    -3.404      9.129     12.173
REMARK INTER + INTRA:          -6.651
REMARK INTER:                  -4.911
REMARK INTRA:                  -1.739
REMARK UNBOUND:                -0.660
REMARK SMILES CCCCCCCCCCCCCCC(=O)[O-]
REMARK SMILES IDX 9 1 10 2 11 3 12 4 13 5 14 6 15 7 16 8 17 9 8 10 7 11 6 12
REMARK SMILES IDX 5 13 4 14 3 15 2 16 1 17
REMARK H PARENT
REMARK Flexibility Score: inf
ROOT
ATOM      1  C   UNL     1       9.043  -0.251  -6.291  1.00  0.00     0.000 C 
ENDROOT
BRANCH   1   2
ATOM      2  C   UNL     1       7.543   0.103  -6.359  1.00  0.00     0.000 C 
BRANCH   2   3
ATOM      3  C   UNL     1       7.214   1.408  -7.107  1.00  0.00     0.000 C 
BRANCH   3   4
ATOM      4  C   UNL     1       5.851   1.994  -6.712  1.00  0.00     0.000 C 
BRANCH   4   5
ATOM      5  C   UNL     1       4.765   0.912  -6.725  1.00  0.00     0.006 C 
BRANCH   5   6
ATOM      6  C   UNL     1       4.073   0.810  -5.363  1.00  0.00     0.053 C 
BRANCH   6   7
ATOM      7  C   UNL     1       2.781   1.563  -5.373  1.00  0.00     0.041 C 
ATOM      8  O   UNL     1       2.516   2.382  -4.454  1.00  0.00    -0.550 OA
ATOM      9  O   UNL     1       1.845   1.323  -6.372  1.00  0.00    -0.550 OA
ENDBRANCH   6   7
ENDBRANCH   5   6
ENDBRANCH   4   5
ENDBRANCH   3   4
ENDBRANCH   2   3
ENDBRANCH   1   2
BRANCH   1  10
ATOM     10  C   UNL     1       9.632  -0.348  -4.870  1.00  0.00     0.000 C 
BRANCH  10  11
ATOM     11  C   UNL     1       9.274  -1.637  -4.106  1.00  0.00    -0.000 C 
BRANCH  11  12
ATOM     12  C   UNL     1       9.110  -2.888  -4.991  1.00  0.00    -0.000 C 
BRANCH  12  13
ATOM     13  C   UNL     1       7.776  -3.633  -4.767  1.00  0.00    -0.000 C 
BRANCH  13  14
ATOM     14  C   UNL     1       6.691  -2.722  -4.169  1.00  0.00    -0.000 C 
BRANCH  14  15
ATOM     15  C   UNL     1       5.463  -2.583  -5.085  1.00  0.00    -0.000 C 
BRANCH  15  16
ATOM     16  C   UNL     1       5.540  -3.491  -6.322  1.00  0.00    -0.003 C 
ATOM     17  C   UNL     1       5.432  -2.677  -7.607  1.00  0.00     0.004 C 
ENDBRANCH  15  16
ENDBRANCH  14  15
ENDBRANCH  13  14
ENDBRANCH  12  13
ENDBRANCH  11  12
ENDBRANCH  10  11
ENDBRANCH   1  10
TORSDOF 13
ENDMDL
