MODEL 1
REMARK VINA RESULT:    -6.382      0.000      0.000
REMARK INTER + INTRA:          -7.151
REMARK INTER:                  -6.941
REMARK INTRA:                  -0.210
REMARK UNBOUND:                -0.210
REMARK SMILES CC1=CCC[C@@]2(C)CC[C@@H](C(C)(C)O)C[C@@H]12
REMARK SMILES IDX 11 1 12 2 13 3 10 4 1 5 2 6 3 7 16 8 4 9 6 10 15 11 5 12
REMARK SMILES IDX 7 13 8 14 9 15 14 16
REMARK H PARENT 14 17
REMARK Flexibility Score: inf
ROOT
ATOM      1  C   UNL     1     115.975 126.269 126.250  1.00  0.00     0.062 C 
ATOM      2  C   UNL     1     115.685 125.239 125.138  1.00  0.00     0.042 C 
ATOM      3  C   UNL     1     114.688 126.392 127.103  1.00  0.00     0.042 C 
ENDROOT
BRANCH   1   4
ATOM      4  C   UNL     1     116.391 127.653 125.613  1.00  0.00     0.021 C 
ATOM      5  C   UNL     1     113.606 131.410 125.455  1.00  0.00     0.039 C 
ATOM      6  C   UNL     1     115.016 131.276 125.970  1.00  0.00    -0.074 C 
ATOM      7  C   UNL     1     115.418 132.080 126.977  1.00  0.00    -0.028 C 
ATOM      8  C   UNL     1     115.910 130.175 125.418  1.00  0.00     0.021 C 
ATOM      9  C   UNL     1     116.834 132.125 127.499  1.00  0.00     0.028 C 
ATOM     10  C   UNL     1     117.422 130.515 125.583  1.00  0.00    -0.026 C 
ATOM     11  C   UNL     1     115.516 128.838 126.089  1.00  0.00     0.015 C 
ATOM     12  C   UNL     1     117.700 130.937 127.052  1.00  0.00     0.011 C 
ATOM     13  C   UNL     1     117.807 131.675 124.627  1.00  0.00     0.012 C 
ATOM     14  C   UNL     1     118.295 129.292 125.192  1.00  0.00     0.008 C 
ATOM     15  C   UNL     1     117.877 127.985 125.876  1.00  0.00     0.007 C 
ENDBRANCH   1   4
BRANCH   1  16
ATOM     16  O   UNL     1     117.018 125.750 127.042  1.00  0.00    -0.390 OA
ATOM     17  H   UNL     1     117.724 125.399 126.440  1.00  0.00     0.211 HD
ENDBRANCH   1  16
TORSDOF 2
ENDMDL
MODEL 2
REMARK VINA RESULT:    -5.778     13.999     15.814
REMARK INTER + INTRA:          -6.495
REMARK INTER:                  -6.299
REMARK INTRA:                  -0.196
REMARK UNBOUND:                -0.210
REMARK SMILES CC1=CCC[C@@]2(C)CC[C@@H](C(C)(C)O)C[C@@H]12
REMARK SMILES IDX 11 1 12 2 13 3 10 4 1 5 2 6 3 7 16 8 4 9 6 10 15 11 5 12
REMARK SMILES IDX 7 13 8 14 9 15 14 16
REMARK H PARENT 14 17
REMARK Flexibility Score: inf
ROOT
ATOM      1  C   UNL     1     122.350 118.087 120.390  1.00  0.00     0.062 C 
ATOM      2  C   UNL     1     123.641 118.650 121.023  1.00  0.00     0.042 C 
ATOM      3  C   UNL     1     121.837 116.964 121.324  1.00  0.00     0.042 C 
ENDROOT
BRANCH   1   4
ATOM      4  C   UNL     1     122.648 117.551 118.935  1.00  0.00     0.021 C 
ATOM      5  C   UNL     1     119.338 116.384 115.841  1.00  0.00     0.039 C 
ATOM      6  C   UNL     1     120.514 117.312 115.689  1.00  0.00    -0.074 C 
ATOM      7  C   UNL     1     120.410 118.360 114.843  1.00  0.00    -0.028 C 
ATOM      8  C   UNL     1     121.742 117.110 116.565  1.00  0.00     0.021 C 
ATOM      9  C   UNL     1     121.553 119.289 114.515  1.00  0.00     0.028 C 
ATOM     10  C   UNL     1     123.024 117.718 115.921  1.00  0.00    -0.026 C 
ATOM     11  C   UNL     1     121.445 117.683 117.971  1.00  0.00     0.015 C 
ATOM     12  C   UNL     1     122.740 119.181 115.485  1.00  0.00     0.011 C 
ATOM     13  C   UNL     1     123.439 116.878 114.683  1.00  0.00     0.012 C 
ATOM     14  C   UNL     1     124.208 117.667 116.924  1.00  0.00     0.008 C 
ATOM     15  C   UNL     1     123.878 118.245 118.306  1.00  0.00     0.007 C 
ENDBRANCH   1   4
BRANCH   1  16
ATOM     16  O   UNL     1     121.409 119.136 120.353  1.00  0.00    -0.390 OA
ATOM     17  H   UNL     1     121.159 119.366 121.284  1.00  0.00     0.211 HD
ENDBRANCH   1  16
TORSDOF 2
ENDMDL
MODEL 3
REMARK VINA RESULT:    -5.750     14.943     16.729
REMARK INTER + INTRA:          -6.464
REMARK INTER:                  -6.214
REMARK INTRA:                  -0.250
REMARK UNBOUND:                -0.210
REMARK SMILES CC1=CCC[C@@]2(C)CC[C@@H](C(C)(C)O)C[C@@H]12
REMARK SMILES IDX 11 1 12 2 13 3 10 4 1 5 2 6 3 7 16 8 4 9 6 10 15 11 5 12
REMARK SMILES IDX 7 13 8 14 9 15 14 16
REMARK H PARENT 14 17
REMARK Flexibility Score: inf
ROOT
ATOM      1  C   UNL     1     124.217 119.351 115.277  1.00  0.00     0.062 C 
ATOM      2  C   UNL     1     125.070 119.128 116.544  1.00  0.00     0.042 C 
ATOM      3  C   UNL     1     123.764 120.832 115.288  1.00  0.00     0.042 C 
ENDROOT
BRANCH   1   4
ATOM      4  C   UNL     1     122.987 118.361 115.270  1.00  0.00     0.021 C 
ATOM      5  C   UNL     1     122.513 114.746 118.203  1.00  0.00     0.039 C 
ATOM      6  C   UNL     1     121.555 115.865 117.891  1.00  0.00    -0.074 C 
ATOM      7  C   UNL     1     120.700 116.276 118.852  1.00  0.00    -0.028 C 
ATOM      8  C   UNL     1     121.645 116.571 116.545  1.00  0.00     0.021 C 
ATOM      9  C   UNL     1     119.616 117.302 118.628  1.00  0.00     0.028 C 
ATOM     10  C   UNL     1     120.297 117.246 116.150  1.00  0.00    -0.026 C 
ATOM     11  C   UNL     1     122.827 117.568 116.590  1.00  0.00     0.015 C 
ATOM     12  C   UNL     1     119.785 118.112 117.332  1.00  0.00     0.011 C 
ATOM     13  C   UNL     1     119.245 116.157 115.809  1.00  0.00     0.012 C 
ATOM     14  C   UNL     1     120.482 118.115 114.877  1.00  0.00     0.008 C 
ATOM     15  C   UNL     1     121.662 119.092 114.956  1.00  0.00     0.007 C 
ENDBRANCH   1   4
BRANCH   1  16
ATOM     16  O   UNL     1     125.050 119.121 114.164  1.00  0.00    -0.390 OA
ATOM     17  H   UNL     1     125.992 119.115 114.473  1.00  0.00     0.211 HD
ENDBRANCH   1  16
TORSDOF 2
ENDMDL
MODEL 4
REMARK VINA RESULT:    -5.735      9.157     12.282
REMARK INTER + INTRA:          -6.448
REMARK INTER:                  -6.199
REMARK INTRA:                  -0.249
REMARK UNBOUND:                -0.210
REMARK SMILES CC1=CCC[C@@]2(C)CC[C@@H](C(C)(C)O)C[C@@H]12
REMARK SMILES IDX 11 1 12 2 13 3 10 4 1 5 2 6 3 7 16 8 4 9 6 10 15 11 5 12
REMARK SMILES IDX 7 13 8 14 9 15 14 16
REMARK H PARENT 14 17
REMARK Flexibility Score: inf
ROOT
ATOM      1  C   UNL     1     110.763 117.220 129.854  1.00  0.00     0.062 C 
ATOM      2  C   UNL     1     112.213 117.633 130.188  1.00  0.00     0.042 C 
ATOM      3  C   UNL     1     110.774 115.695 129.588  1.00  0.00     0.042 C 
ENDROOT
BRANCH   1   4
ATOM      4  C   UNL     1     110.243 118.031 128.603  1.00  0.00     0.021 C 
ATOM      5  C   UNL     1     111.990 122.151 127.236  1.00  0.00     0.039 C 
ATOM      6  C   UNL     1     111.775 120.886 126.447  1.00  0.00    -0.074 C 
ATOM      7  C   UNL     1     112.605 120.615 125.417  1.00  0.00    -0.028 C 
ATOM      8  C   UNL     1     110.704 119.901 126.894  1.00  0.00     0.021 C 
ATOM      9  C   UNL     1     112.422 119.445 124.479  1.00  0.00     0.028 C 
ATOM     10  C   UNL     1     110.216 119.000 125.719  1.00  0.00    -0.026 C 
ATOM     11  C   UNL     1     111.252 119.087 128.089  1.00  0.00     0.015 C 
ATOM     12  C   UNL     1     111.442 118.381 124.996  1.00  0.00     0.011 C 
ATOM     13  C   UNL     1     109.393 119.849 124.714  1.00  0.00     0.012 C 
ATOM     14  C   UNL     1     109.275 117.885 126.251  1.00  0.00     0.008 C 
ATOM     15  C   UNL     1     109.850 117.098 127.435  1.00  0.00     0.007 C 
ENDBRANCH   1   4
BRANCH   1  16
ATOM     16  O   UNL     1     109.976 117.495 130.990  1.00  0.00    -0.390 OA
ATOM     17  H   UNL     1     109.368 116.727 131.144  1.00  0.00     0.211 HD
ENDBRANCH   1  16
TORSDOF 2
ENDMDL
MODEL 5
REMARK VINA RESULT:    -5.671     12.124     13.968
REMARK INTER + INTRA:          -6.378
REMARK INTER:                  -6.162
REMARK INTRA:                  -0.216
REMARK UNBOUND:                -0.210
REMARK SMILES CC1=CCC[C@@]2(C)CC[C@@H](C(C)(C)O)C[C@@H]12
REMARK SMILES IDX 11 1 12 2 13 3 10 4 1 5 2 6 3 7 16 8 4 9 6 10 15 11 5 12
REMARK SMILES IDX 7 13 8 14 9 15 14 16
REMARK H PARENT 14 17
REMARK Flexibility Score: inf
ROOT
ATOM      1  C   UNL     1     111.451 117.132 130.054  1.00  0.00     0.062 C 
ATOM      2  C   UNL     1     112.755 117.437 130.820  1.00  0.00     0.042 C 
ATOM      3  C   UNL     1     111.214 115.604 130.146  1.00  0.00     0.042 C 
ENDROOT
BRANCH   1   4
ATOM      4  C   UNL     1     111.575 117.618 128.556  1.00  0.00     0.021 C 
ATOM      5  C   UNL     1     113.302 114.998 125.085  1.00  0.00     0.039 C 
ATOM      6  C   UNL     1     111.998 115.746 125.170  1.00  0.00    -0.074 C 
ATOM      7  C   UNL     1     110.929 115.266 124.500  1.00  0.00    -0.028 C 
ATOM      8  C   UNL     1     111.890 116.956 126.088  1.00  0.00     0.021 C 
ATOM      9  C   UNL     1     109.604 115.984 124.409  1.00  0.00     0.028 C 
ATOM     10  C   UNL     1     110.753 117.924 125.644  1.00  0.00    -0.026 C 
ATOM     11  C   UNL     1     111.723 116.457 127.542  1.00  0.00     0.015 C 
ATOM     12  C   UNL     1     109.441 117.120 125.431  1.00  0.00     0.011 C 
ATOM     13  C   UNL     1     111.151 118.629 124.320  1.00  0.00     0.012 C 
ATOM     14  C   UNL     1     110.545 119.036 126.707  1.00  0.00     0.008 C 
ATOM     15  C   UNL     1     110.382 118.506 128.137  1.00  0.00     0.007 C 
ENDBRANCH   1   4
BRANCH   1  16
ATOM     16  O   UNL     1     110.407 117.811 130.714  1.00  0.00    -0.390 OA
ATOM     17  H   UNL     1     109.634 117.196 130.795  1.00  0.00     0.211 HD
ENDBRANCH   1  16
TORSDOF 2
ENDMDL
MODEL 6
REMARK VINA RESULT:    -5.640     11.082     13.329
REMARK INTER + INTRA:          -6.345
REMARK INTER:                  -6.123
REMARK INTRA:                  -0.222
REMARK UNBOUND:                -0.210
REMARK SMILES CC1=CCC[C@@]2(C)CC[C@@H](C(C)(C)O)C[C@@H]12
REMARK SMILES IDX 11 1 12 2 13 3 10 4 1 5 2 6 3 7 16 8 4 9 6 10 15 11 5 12
REMARK SMILES IDX 7 13 8 14 9 15 14 16
REMARK H PARENT 14 17
REMARK Flexibility Score: inf
ROOT
ATOM      1  C   UNL     1     110.463 116.911 129.003  1.00  0.00     0.062 C 
ATOM      2  C   UNL     1     111.592 115.998 129.528  1.00  0.00     0.042 C 
ATOM      3  C   UNL     1     109.250 116.000 128.690  1.00  0.00     0.042 C 
ENDROOT
BRANCH   1   4
ATOM      4  C   UNL     1     110.952 117.697 127.724  1.00  0.00     0.021 C 
ATOM      5  C   UNL     1     111.584 115.738 123.522  1.00  0.00     0.039 C 
ATOM      6  C   UNL     1     110.784 116.955 123.907  1.00  0.00    -0.074 C 
ATOM      7  C   UNL     1     109.689 117.268 123.183  1.00  0.00    -0.028 C 
ATOM      8  C   UNL     1     111.166 117.733 125.158  1.00  0.00     0.021 C 
ATOM      9  C   UNL     1     108.875 118.522 123.393  1.00  0.00     0.028 C 
ATOM     10  C   UNL     1     110.670 119.209 125.100  1.00  0.00    -0.026 C 
ATOM     11  C   UNL     1     110.638 116.969 126.395  1.00  0.00     0.015 C 
ATOM     12  C   UNL     1     109.163 119.235 124.723  1.00  0.00     0.011 C 
ATOM     13  C   UNL     1     111.485 119.995 124.038  1.00  0.00     0.012 C 
ATOM     14  C   UNL     1     110.904 119.911 126.465  1.00  0.00     0.008 C 
ATOM     15  C   UNL     1     110.367 119.126 127.668  1.00  0.00     0.007 C 
ENDBRANCH   1   4
BRANCH   1  16
ATOM     16  O   UNL     1     110.127 117.803 130.041  1.00  0.00    -0.390 OA
ATOM     17  H   UNL     1     110.401 117.398 130.903  1.00  0.00     0.211 HD
ENDBRANCH   1  16
TORSDOF 2
ENDMDL
MODEL 7
REMARK VINA RESULT:    -5.590     12.733     14.239
REMARK INTER + INTRA:          -6.290
REMARK INTER:                  -6.062
REMARK INTRA:                  -0.228
REMARK UNBOUND:                -0.210
REMARK SMILES CC1=CCC[C@@]2(C)CC[C@@H](C(C)(C)O)C[C@@H]12
REMARK SMILES IDX 11 1 12 2 13 3 10 4 1 5 2 6 3 7 16 8 4 9 6 10 15 11 5 12
REMARK SMILES IDX 7 13 8 14 9 15 14 16
REMARK H PARENT 14 17
REMARK Flexibility Score: inf
ROOT
ATOM      1  C   UNL     1     111.296 117.111 129.828  1.00  0.00     0.062 C 
ATOM      2  C   UNL     1     112.721 117.557 130.218  1.00  0.00     0.042 C 
ATOM      3  C   UNL     1     111.196 115.594 130.124  1.00  0.00     0.042 C 
ENDROOT
BRANCH   1   4
ATOM      4  C   UNL     1     111.025 117.431 128.306  1.00  0.00     0.021 C 
ATOM      5  C   UNL     1     114.258 117.097 124.939  1.00  0.00     0.039 C 
ATOM      6  C   UNL     1     112.877 116.500 125.012  1.00  0.00    -0.074 C 
ATOM      7  C   UNL     1     112.643 115.325 124.387  1.00  0.00    -0.028 C 
ATOM      8  C   UNL     1     111.816 117.176 125.869  1.00  0.00     0.021 C 
ATOM      9  C   UNL     1     111.280 114.686 124.286  1.00  0.00     0.028 C 
ATOM     10  C   UNL     1     110.373 116.819 125.398  1.00  0.00    -0.026 C 
ATOM     11  C   UNL     1     112.073 116.812 127.349  1.00  0.00     0.015 C 
ATOM     12  C   UNL     1     110.242 115.279 125.252  1.00  0.00     0.011 C 
ATOM     13  C   UNL     1     110.084 117.498 124.032  1.00  0.00     0.012 C 
ATOM     14  C   UNL     1     109.327 117.364 126.408  1.00  0.00     0.008 C 
ATOM     15  C   UNL     1     109.613 116.983 127.865  1.00  0.00     0.007 C 
ENDBRANCH   1   4
BRANCH   1  16
ATOM     16  O   UNL     1     110.396 117.813 130.654  1.00  0.00    -0.390 OA
ATOM     17  H   UNL     1     109.560 117.972 130.144  1.00  0.00     0.211 HD
ENDBRANCH   1  16
TORSDOF 2
ENDMDL
MODEL 8
REMARK VINA RESULT:    -5.540     12.082     14.214
REMARK INTER + INTRA:          -6.235
REMARK INTER:                  -6.009
REMARK INTRA:                  -0.227
REMARK UNBOUND:                -0.210
REMARK SMILES CC1=CCC[C@@]2(C)CC[C@@H](C(C)(C)O)C[C@@H]12
REMARK SMILES IDX 11 1 12 2 13 3 10 4 1 5 2 6 3 7 16 8 4 9 6 10 15 11 5 12
REMARK SMILES IDX 7 13 8 14 9 15 14 16
REMARK H PARENT 14 17
REMARK Flexibility Score: inf
ROOT
ATOM      1  C   UNL     1     111.815 114.347 123.387  1.00  0.00     0.062 C 
ATOM      2  C   UNL     1     111.494 112.969 124.004  1.00  0.00     0.042 C 
ATOM      3  C   UNL     1     113.299 114.654 123.707  1.00  0.00     0.042 C 
ENDROOT
BRANCH   1   4
ATOM      4  C   UNL     1     110.847 115.445 123.978  1.00  0.00     0.021 C 
ATOM      5  C   UNL     1     109.607 115.698 128.483  1.00  0.00     0.039 C 
ATOM      6  C   UNL     1     110.184 116.758 127.582  1.00  0.00    -0.074 C 
ATOM      7  C   UNL     1     110.955 117.724 128.126  1.00  0.00    -0.028 C 
ATOM      8  C   UNL     1     109.974 116.654 126.077  1.00  0.00     0.021 C 
ATOM      9  C   UNL     1     111.491 118.904 127.351  1.00  0.00     0.028 C 
ATOM     10  C   UNL     1     110.093 118.040 125.376  1.00  0.00    -0.026 C 
ATOM     11  C   UNL     1     110.963 115.606 125.513  1.00  0.00     0.015 C 
ATOM     12  C   UNL     1     111.404 118.738 125.826  1.00  0.00     0.011 C 
ATOM     13  C   UNL     1     108.875 118.926 125.754  1.00  0.00     0.012 C 
ATOM     14  C   UNL     1     110.068 117.866 123.833  1.00  0.00     0.008 C 
ATOM     15  C   UNL     1     111.061 116.822 123.309  1.00  0.00     0.007 C 
ENDBRANCH   1   4
BRANCH   1  16
ATOM     16  O   UNL     1     111.648 114.231 121.992  1.00  0.00    -0.390 OA
ATOM     17  H   UNL     1     112.467 114.570 121.549  1.00  0.00     0.211 HD
ENDBRANCH   1  16
TORSDOF 2
ENDMDL
MODEL 9
REMARK VINA RESULT:    -5.441      8.817     13.035
REMARK INTER + INTRA:          -6.129
REMARK INTER:                  -5.907
REMARK INTRA:                  -0.221
REMARK UNBOUND:                -0.210
REMARK SMILES CC1=CCC[C@@]2(C)CC[C@@H](C(C)(C)O)C[C@@H]12
REMARK SMILES IDX 11 1 12 2 13 3 10 4 1 5 2 6 3 7 16 8 4 9 6 10 15 11 5 12
REMARK SMILES IDX 7 13 8 14 9 15 14 16
REMARK H PARENT 14 17
REMARK Flexibility Score: inf
ROOT
ATOM      1  C   UNL     1     111.853 121.257 125.766  1.00  0.00     0.062 C 
ATOM      2  C   UNL     1     113.230 121.579 125.147  1.00  0.00     0.042 C 
ATOM      3  C   UNL     1     111.931 121.628 127.268  1.00  0.00     0.042 C 
ENDROOT
BRANCH   1   4
ATOM      4  C   UNL     1     111.508 119.731 125.556  1.00  0.00     0.021 C 
ATOM      5  C   UNL     1     113.478 116.240 127.970  1.00  0.00     0.039 C 
ATOM      6  C   UNL     1     112.022 116.553 127.743  1.00  0.00    -0.074 C 
ATOM      7  C   UNL     1     111.127 116.207 128.694  1.00  0.00    -0.028 C 
ATOM      8  C   UNL     1     111.612 117.340 126.506  1.00  0.00     0.021 C 
ATOM      9  C   UNL     1     109.634 116.358 128.534  1.00  0.00     0.028 C 
ATOM     10  C   UNL     1     110.126 117.079 126.116  1.00  0.00    -0.026 C 
ATOM     11  C   UNL     1     111.917 118.836 126.752  1.00  0.00     0.015 C 
ATOM     12  C   UNL     1     109.222 117.266 127.365  1.00  0.00     0.011 C 
ATOM     13  C   UNL     1     109.971 115.633 125.574  1.00  0.00     0.012 C 
ATOM     14  C   UNL     1     109.691 118.041 124.978  1.00  0.00     0.008 C 
ATOM     15  C   UNL     1     110.007 119.516 125.255  1.00  0.00     0.007 C 
ENDBRANCH   1   4
BRANCH   1  16
ATOM     16  O   UNL     1     110.903 122.078 125.127  1.00  0.00    -0.390 OA
ATOM     17  H   UNL     1     111.027 123.008 125.445  1.00  0.00     0.211 HD
ENDBRANCH   1  16
TORSDOF 2
ENDMDL
