MODEL 1
REMARK VINA RESULT:    -7.390      0.000      0.000
REMARK INTER + INTRA:         -12.412
REMARK INTER:                 -10.845
REMARK INTRA:                  -1.566
REMARK UNBOUND:                -1.566
REMARK SMILES O=c1c(O[C@@H]2O[C@H](CO)[C@@H](O)[C@H](O)[C@@H]2O)c(-c2ccc(O)c(O)c2)oc2cc(O)cc(O)c12
REMARK SMILES IDX 4 1 3 2 16 3 25 4 2 5 26 6 1 7 33 8 27 9 31 10 28 11 30 12
REMARK SMILES IDX 17 13 18 14 19 15 20 16 24 17 22 18 21 19 23 21 32 23 29 25
REMARK SMILES IDX 5 27 14 28 6 29 12 30 7 31 10 32 15 33 13 35 8 37 9 38 11 40
REMARK H PARENT 21 20 23 22 32 24 29 26 15 34 13 36 9 39 11 41
REMARK Flexibility Score: inf
ROOT
ATOM      1  O   UNL     1      14.467 -34.019  -0.243  1.00  0.00    -0.454 OA
ENDROOT
BRANCH   1   2
ATOM      2  C   UNL     1      13.858 -34.430  -1.413  1.00  0.00     0.214 A 
ATOM      3  C   UNL     1      14.248 -35.620  -2.094  1.00  0.00     0.180 A 
ATOM      4  O   UNL     1      13.343 -36.190  -2.881  1.00  0.00    -0.452 OA
ATOM      5  C   UNL     1      12.881 -33.622  -2.022  1.00  0.00     0.239 A 
ATOM      6  C   UNL     1      12.174 -35.603  -3.181  1.00  0.00     0.146 A 
ATOM      7  O   UNL     1      13.160 -32.430  -2.351  1.00  0.00    -0.285 OA
ATOM      8  C   UNL     1      11.882 -34.266  -2.777  1.00  0.00     0.111 A 
ATOM      9  C   UNL     1      11.194 -36.350  -3.866  1.00  0.00     0.094 A 
ATOM     10  C   UNL     1      10.717 -33.627  -3.288  1.00  0.00     0.134 A 
ATOM     11  C   UNL     1       9.985 -35.753  -4.269  1.00  0.00     0.123 A 
ATOM     12  C   UNL     1       9.841 -34.359  -4.096  1.00  0.00     0.093 A 
BRANCH   3  13
ATOM     13  C   UNL     1      15.461 -36.460  -1.813  1.00  0.00     0.025 A 
ATOM     14  C   UNL     1      15.551 -37.456  -0.848  1.00  0.00     0.016 A 
ATOM     15  C   UNL     1      16.530 -38.466  -0.901  1.00  0.00     0.051 A 
ATOM     16  C   UNL     1      17.394 -38.493  -1.975  1.00  0.00     0.157 A 
ATOM     17  C   UNL     1      16.611 -36.318  -2.635  1.00  0.00     0.062 A 
ATOM     18  C   UNL     1      17.433 -37.418  -2.875  1.00  0.00     0.158 A 
BRANCH  16  19
ATOM     19  O   UNL     1      18.204 -39.610  -2.129  1.00  0.00    -0.504 OA
ATOM     20  H   UNL     1      17.914 -40.461  -1.615  1.00  0.00     0.293 HD
ENDBRANCH  16  19
BRANCH  18  21
ATOM     21  O   UNL     1      18.231 -37.425  -4.007  1.00  0.00    -0.504 OA
ATOM     22  H   UNL     1      18.219 -36.588  -4.586  1.00  0.00     0.293 HD
ENDBRANCH  18  21
ENDBRANCH   3  13
BRANCH  10  23
ATOM     23  O   UNL     1      10.223 -32.446  -2.732  1.00  0.00    -0.507 OA
ATOM     24  H   UNL     1      10.288 -32.129  -1.726  1.00  0.00     0.293 HD
ENDBRANCH  10  23
BRANCH  11  25
ATOM     25  O   UNL     1       8.961 -36.522  -4.796  1.00  0.00    -0.508 OA
ATOM     26  H   UNL     1       9.097 -36.951  -5.711  1.00  0.00     0.293 HD
ENDBRANCH  11  25
ENDBRANCH   1   2
BRANCH   1  27
ATOM     27  C   UNL     1      14.255 -34.742   0.988  1.00  0.00     0.339 C 
ATOM     28  C   UNL     1      14.375 -33.849   2.277  1.00  0.00     0.214 C 
ATOM     29  O   UNL     1      13.050 -35.532   0.987  1.00  0.00    -0.332 OA
ATOM     30  C   UNL     1      13.169 -32.851   2.345  1.00  0.00     0.180 C 
ATOM     31  C   UNL     1      11.949 -34.955   1.649  1.00  0.00     0.179 C 
ATOM     32  C   UNL     1      11.939 -33.404   1.577  1.00  0.00     0.177 C 
BRANCH  28  33
ATOM     33  O   UNL     1      15.638 -33.254   2.541  1.00  0.00    -0.384 OA
ATOM     34  H   UNL     1      16.287 -34.006   2.605  1.00  0.00     0.211 HD
ENDBRANCH  28  33
BRANCH  30  35
ATOM     35  O   UNL     1      13.474 -31.516   2.007  1.00  0.00    -0.387 OA
ATOM     36  H   UNL     1      13.407 -31.404   1.037  1.00  0.00     0.211 HD
ENDBRANCH  30  35
BRANCH  31  37
ATOM     37  C   UNL     1      10.678 -35.630   1.122  1.00  0.00     0.191 C 
BRANCH  37  38
ATOM     38  O   UNL     1      10.043 -34.889   0.109  1.00  0.00    -0.394 OA
ATOM     39  H   UNL     1      10.823 -34.442  -0.360  1.00  0.00     0.210 HD
ENDBRANCH  37  38
ENDBRANCH  31  37
BRANCH  32  40
ATOM     40  O   UNL     1      10.783 -32.870   2.134  1.00  0.00    -0.387 OA
ATOM     41  H   UNL     1      10.270 -32.457   1.395  1.00  0.00     0.211 HD
ENDBRANCH  32  40
ENDBRANCH   1  27
TORSDOF 12
ENDMDL
MODEL 2
REMARK VINA RESULT:    -7.310      1.622      2.792
REMARK INTER + INTRA:         -12.296
REMARK INTER:                 -10.674
REMARK INTRA:                  -1.622
REMARK UNBOUND:                -1.566
REMARK SMILES O=c1c(O[C@@H]2O[C@H](CO)[C@@H](O)[C@H](O)[C@@H]2O)c(-c2ccc(O)c(O)c2)oc2cc(O)cc(O)c12
REMARK SMILES IDX 4 1 3 2 16 3 25 4 2 5 26 6 1 7 33 8 27 9 31 10 28 11 30 12
REMARK SMILES IDX 17 13 18 14 19 15 20 16 24 17 22 18 21 19 23 21 32 23 29 25
REMARK SMILES IDX 5 27 14 28 6 29 12 30 7 31 10 32 15 33 13 35 8 37 9 38 11 40
REMARK H PARENT 21 20 23 22 32 24 29 26 15 34 13 36 9 39 11 41
REMARK Flexibility Score: inf
ROOT
ATOM      1  O   UNL     1      14.503 -35.482  -0.931  1.00  0.00    -0.454 OA
ENDROOT
BRANCH   1   2
ATOM      2  C   UNL     1      13.853 -35.773  -2.115  1.00  0.00     0.214 A 
ATOM      3  C   UNL     1      14.386 -36.690  -3.067  1.00  0.00     0.180 A 
ATOM      4  O   UNL     1      13.524 -37.274  -3.892  1.00  0.00    -0.452 OA
ATOM      5  C   UNL     1      12.672 -35.091  -2.458  1.00  0.00     0.239 A 
ATOM      6  C   UNL     1      12.235 -36.907  -3.969  1.00  0.00     0.146 A 
ATOM      7  O   UNL     1      12.670 -33.826  -2.537  1.00  0.00    -0.285 OA
ATOM      8  C   UNL     1      11.737 -35.773  -3.261  1.00  0.00     0.111 A 
ATOM      9  C   UNL     1      11.348 -37.697  -4.727  1.00  0.00     0.094 A 
ATOM     10  C   UNL     1      10.417 -35.313  -3.532  1.00  0.00     0.134 A 
ATOM     11  C   UNL     1      10.007 -37.308  -4.900  1.00  0.00     0.123 A 
ATOM     12  C   UNL     1       9.613 -36.041  -4.415  1.00  0.00     0.093 A 
BRANCH   3  13
ATOM     13  C   UNL     1      15.765 -37.286  -3.067  1.00  0.00     0.025 A 
ATOM     14  C   UNL     1      16.902 -36.700  -3.611  1.00  0.00     0.016 A 
ATOM     15  C   UNL     1      18.200 -37.087  -3.230  1.00  0.00     0.051 A 
ATOM     16  C   UNL     1      18.343 -38.044  -2.248  1.00  0.00     0.157 A 
ATOM     17  C   UNL     1      15.991 -38.515  -2.391  1.00  0.00     0.062 A 
ATOM     18  C   UNL     1      17.228 -38.764  -1.798  1.00  0.00     0.158 A 
BRANCH  16  19
ATOM     19  O   UNL     1      19.614 -38.257  -1.730  1.00  0.00    -0.504 OA
ATOM     20  H   UNL     1      19.801 -39.199  -1.346  1.00  0.00     0.293 HD
ENDBRANCH  16  19
BRANCH  18  21
ATOM     21  O   UNL     1      17.304 -39.686  -0.768  1.00  0.00    -0.504 OA
ATOM     22  H   UNL     1      17.411 -40.663  -1.029  1.00  0.00     0.293 HD
ENDBRANCH  18  21
ENDBRANCH   3  13
BRANCH  10  23
ATOM     23  O   UNL     1       9.770 -34.402  -2.696  1.00  0.00    -0.507 OA
ATOM     24  H   UNL     1       8.964 -34.588  -2.039  1.00  0.00     0.293 HD
ENDBRANCH  10  23
BRANCH  11  25
ATOM     25  O   UNL     1       9.099 -38.160  -5.506  1.00  0.00    -0.508 OA
ATOM     26  H   UNL     1       8.471 -38.703  -4.914  1.00  0.00     0.293 HD
ENDBRANCH  11  25
ENDBRANCH   1   2
BRANCH   1  27
ATOM     27  C   UNL     1      13.937 -35.882   0.335  1.00  0.00     0.339 C 
ATOM     28  C   UNL     1      14.973 -36.552   1.310  1.00  0.00     0.214 C 
ATOM     29  O   UNL     1      13.183 -34.837   0.979  1.00  0.00    -0.332 OA
ATOM     30  C   UNL     1      16.002 -35.480   1.807  1.00  0.00     0.180 C 
ATOM     31  C   UNL     1      13.862 -34.145   2.001  1.00  0.00     0.179 C 
ATOM     32  C   UNL     1      15.394 -34.053   1.760  1.00  0.00     0.177 C 
BRANCH  28  33
ATOM     33  O   UNL     1      15.563 -37.775   0.892  1.00  0.00    -0.384 OA
ATOM     34  H   UNL     1      14.814 -38.343   0.564  1.00  0.00     0.211 HD
ENDBRANCH  28  33
BRANCH  30  35
ATOM     35  O   UNL     1      17.280 -35.552   1.213  1.00  0.00    -0.387 OA
ATOM     36  H   UNL     1      17.887 -34.939   1.673  1.00  0.00     0.211 HD
ENDBRANCH  30  35
BRANCH  31  37
ATOM     37  C   UNL     1      13.162 -32.796   2.199  1.00  0.00     0.191 C 
BRANCH  37  38
ATOM     38  O   UNL     1      13.854 -31.726   1.605  1.00  0.00    -0.394 OA
ATOM     39  H   UNL     1      14.407 -31.365   2.375  1.00  0.00     0.210 HD
ENDBRANCH  37  38
ENDBRANCH  31  37
BRANCH  32  40
ATOM     40  O   UNL     1      16.019 -33.265   2.720  1.00  0.00    -0.387 OA
ATOM     41  H   UNL     1      16.404 -32.485   2.246  1.00  0.00     0.211 HD
ENDBRANCH  32  40
ENDBRANCH   1  27
TORSDOF 12
ENDMDL
MODEL 3
REMARK VINA RESULT:    -7.012      1.988      3.319
REMARK INTER + INTRA:         -11.857
REMARK INTER:                  -9.632
REMARK INTRA:                  -2.225
REMARK UNBOUND:                -1.566
REMARK SMILES O=c1c(O[C@@H]2O[C@H](CO)[C@@H](O)[C@H](O)[C@@H]2O)c(-c2ccc(O)c(O)c2)oc2cc(O)cc(O)c12
REMARK SMILES IDX 4 1 3 2 16 3 25 4 2 5 26 6 1 7 33 8 27 9 31 10 28 11 30 12
REMARK SMILES IDX 17 13 18 14 19 15 20 16 24 17 22 18 21 19 23 21 32 23 29 25
REMARK SMILES IDX 5 27 14 28 6 29 12 30 7 31 10 32 15 33 13 35 8 37 9 38 11 40
REMARK H PARENT 21 20 23 22 32 24 29 26 15 34 13 36 9 39 11 41
REMARK Flexibility Score: inf
ROOT
ATOM      1  O   UNL     1      13.915 -36.022  -1.090  1.00  0.00    -0.454 OA
ENDROOT
BRANCH   1   2
ATOM      2  C   UNL     1      13.415 -36.359  -2.333  1.00  0.00     0.214 A 
ATOM      3  C   UNL     1      14.129 -37.201  -3.235  1.00  0.00     0.180 A 
ATOM      4  O   UNL     1      13.415 -37.858  -4.142  1.00  0.00    -0.452 OA
ATOM      5  C   UNL     1      12.207 -35.797  -2.785  1.00  0.00     0.239 A 
ATOM      6  C   UNL     1      12.108 -37.624  -4.341  1.00  0.00     0.146 A 
ATOM      7  O   UNL     1      12.082 -34.538  -2.856  1.00  0.00    -0.285 OA
ATOM      8  C   UNL     1      11.429 -36.559  -3.678  1.00  0.00     0.111 A 
ATOM      9  C   UNL     1      11.383 -38.489  -5.186  1.00  0.00     0.094 A 
ATOM     10  C   UNL     1      10.100 -36.232  -4.073  1.00  0.00     0.134 A 
ATOM     11  C   UNL     1      10.032 -38.237  -5.485  1.00  0.00     0.123 A 
ATOM     12  C   UNL     1       9.464 -37.026  -5.033  1.00  0.00     0.093 A 
BRANCH   3  13
ATOM     13  C   UNL     1      15.556 -37.653  -3.105  1.00  0.00     0.025 A 
ATOM     14  C   UNL     1      16.660 -37.018  -3.661  1.00  0.00     0.016 A 
ATOM     15  C   UNL     1      17.966 -37.229  -3.181  1.00  0.00     0.051 A 
ATOM     16  C   UNL     1      18.145 -38.054  -2.091  1.00  0.00     0.157 A 
ATOM     17  C   UNL     1      15.859 -38.771  -2.284  1.00  0.00     0.062 A 
ATOM     18  C   UNL     1      17.079 -38.829  -1.613  1.00  0.00     0.158 A 
BRANCH  16  19
ATOM     19  O   UNL     1      19.399 -38.081  -1.496  1.00  0.00    -0.504 OA
ATOM     20  H   UNL     1      20.174 -38.446  -2.075  1.00  0.00     0.293 HD
ENDBRANCH  16  19
BRANCH  18  21
ATOM     21  O   UNL     1      17.184 -39.622  -0.481  1.00  0.00    -0.504 OA
ATOM     22  H   UNL     1      16.368 -39.677   0.122  1.00  0.00     0.293 HD
ENDBRANCH  18  21
ENDBRANCH   3  13
BRANCH  10  23
ATOM     23  O   UNL     1       9.285 -35.406  -3.297  1.00  0.00    -0.507 OA
ATOM     24  H   UNL     1       9.054 -34.388  -3.462  1.00  0.00     0.293 HD
ENDBRANCH  10  23
BRANCH  11  25
ATOM     25  O   UNL     1       9.279 -39.168  -6.181  1.00  0.00    -0.508 OA
ATOM     26  H   UNL     1       9.729 -39.699  -6.926  1.00  0.00     0.293 HD
ENDBRANCH  11  25
ENDBRANCH   1   2
BRANCH   1  27
ATOM     27  C   UNL     1      14.917 -34.992  -0.956  1.00  0.00     0.339 C 
ATOM     28  C   UNL     1      14.436 -33.740  -0.136  1.00  0.00     0.214 C 
ATOM     29  O   UNL     1      16.188 -35.489  -0.492  1.00  0.00    -0.332 OA
ATOM     30  C   UNL     1      14.256 -34.131   1.370  1.00  0.00     0.180 C 
ATOM     31  C   UNL     1      16.444 -35.303   0.880  1.00  0.00     0.179 C 
ATOM     32  C   UNL     1      15.157 -35.336   1.750  1.00  0.00     0.177 C 
BRANCH  28  33
ATOM     33  O   UNL     1      13.360 -32.984  -0.674  1.00  0.00    -0.384 OA
ATOM     34  H   UNL     1      13.765 -32.149  -1.034  1.00  0.00     0.211 HD
ENDBRANCH  28  33
BRANCH  30  35
ATOM     35  O   UNL     1      12.920 -34.289   1.794  1.00  0.00    -0.387 OA
ATOM     36  H   UNL     1      12.519 -33.409   1.941  1.00  0.00     0.211 HD
ENDBRANCH  30  35
BRANCH  31  37
ATOM     37  C   UNL     1      17.525 -36.306   1.296  1.00  0.00     0.191 C 
BRANCH  37  38
ATOM     38  O   UNL     1      16.997 -37.537   1.723  1.00  0.00    -0.394 OA
ATOM     39  H   UNL     1      16.409 -37.809   0.942  1.00  0.00     0.210 HD
ENDBRANCH  37  38
ENDBRANCH  31  37
BRANCH  32  40
ATOM     40  O   UNL     1      15.452 -35.269   3.107  1.00  0.00    -0.387 OA
ATOM     41  H   UNL     1      15.527 -36.202   3.432  1.00  0.00     0.211 HD
ENDBRANCH  32  40
ENDBRANCH   1  27
TORSDOF 12
ENDMDL
MODEL 4
REMARK VINA RESULT:    -6.944      3.328      6.554
REMARK INTER + INTRA:         -11.758
REMARK INTER:                 -10.537
REMARK INTRA:                  -1.221
REMARK UNBOUND:                -1.566
REMARK SMILES O=c1c(O[C@@H]2O[C@H](CO)[C@@H](O)[C@H](O)[C@@H]2O)c(-c2ccc(O)c(O)c2)oc2cc(O)cc(O)c12
REMARK SMILES IDX 4 1 3 2 16 3 25 4 2 5 26 6 1 7 33 8 27 9 31 10 28 11 30 12
REMARK SMILES IDX 17 13 18 14 19 15 20 16 24 17 22 18 21 19 23 21 32 23 29 25
REMARK SMILES IDX 5 27 14 28 6 29 12 30 7 31 10 32 15 33 13 35 8 37 9 38 11 40
REMARK H PARENT 21 20 23 22 32 24 29 26 15 34 13 36 9 39 11 41
REMARK Flexibility Score: inf
ROOT
ATOM      1  O   UNL     1      14.542 -37.611  -2.461  1.00  0.00    -0.454 OA
ENDROOT
BRANCH   1   2
ATOM      2  C   UNL     1      13.518 -38.320  -3.059  1.00  0.00     0.214 A 
ATOM      3  C   UNL     1      12.467 -37.677  -3.774  1.00  0.00     0.180 A 
ATOM      4  O   UNL     1      11.836 -38.394  -4.697  1.00  0.00    -0.452 OA
ATOM      5  C   UNL     1      13.438 -39.715  -2.898  1.00  0.00     0.239 A 
ATOM      6  C   UNL     1      12.035 -39.713  -4.848  1.00  0.00     0.146 A 
ATOM      7  O   UNL     1      13.373 -40.216  -1.736  1.00  0.00    -0.285 OA
ATOM      8  C   UNL     1      12.843 -40.457  -3.938  1.00  0.00     0.111 A 
ATOM      9  C   UNL     1      11.473 -40.361  -5.966  1.00  0.00     0.094 A 
ATOM     10  C   UNL     1      12.860 -41.878  -4.028  1.00  0.00     0.134 A 
ATOM     11  C   UNL     1      11.590 -41.755  -6.124  1.00  0.00     0.123 A 
ATOM     12  C   UNL     1      12.159 -42.499  -5.067  1.00  0.00     0.093 A 
BRANCH   3  13
ATOM     13  C   UNL     1      12.171 -36.204  -3.806  1.00  0.00     0.025 A 
ATOM     14  C   UNL     1      10.905 -35.631  -3.798  1.00  0.00     0.016 A 
ATOM     15  C   UNL     1      10.689 -34.294  -3.417  1.00  0.00     0.051 A 
ATOM     16  C   UNL     1      11.766 -33.546  -2.991  1.00  0.00     0.157 A 
ATOM     17  C   UNL     1      13.247 -35.278  -3.756  1.00  0.00     0.062 A 
ATOM     18  C   UNL     1      13.070 -34.041  -3.138  1.00  0.00     0.158 A 
BRANCH  16  19
ATOM     19  O   UNL     1      11.510 -32.309  -2.414  1.00  0.00    -0.504 OA
ATOM     20  H   UNL     1      10.648 -31.829  -2.725  1.00  0.00     0.293 HD
ENDBRANCH  16  19
BRANCH  18  21
ATOM     21  O   UNL     1      14.181 -33.363  -2.665  1.00  0.00    -0.504 OA
ATOM     22  H   UNL     1      14.021 -32.451  -2.243  1.00  0.00     0.293 HD
ENDBRANCH  18  21
ENDBRANCH   3  13
BRANCH  10  23
ATOM     23  O   UNL     1      13.822 -42.645  -3.370  1.00  0.00    -0.507 OA
ATOM     24  H   UNL     1      13.974 -42.736  -2.328  1.00  0.00     0.293 HD
ENDBRANCH  10  23
BRANCH  11  25
ATOM     25  O   UNL     1      11.180 -42.368  -7.296  1.00  0.00    -0.508 OA
ATOM     26  H   UNL     1      11.451 -43.337  -7.458  1.00  0.00     0.293 HD
ENDBRANCH  11  25
ENDBRANCH   1   2
BRANCH   1  27
ATOM     27  C   UNL     1      15.822 -38.232  -2.218  1.00  0.00     0.339 C 
ATOM     28  C   UNL     1      17.027 -37.493  -2.906  1.00  0.00     0.214 C 
ATOM     29  O   UNL     1      16.073 -38.498  -0.824  1.00  0.00    -0.332 OA
ATOM     30  C   UNL     1      17.268 -36.111  -2.210  1.00  0.00     0.180 C 
ATOM     31  C   UNL     1      16.897 -37.562  -0.170  1.00  0.00     0.179 C 
ATOM     32  C   UNL     1      16.760 -36.125  -0.743  1.00  0.00     0.177 C 
BRANCH  28  33
ATOM     33  O   UNL     1      17.032 -37.438  -4.326  1.00  0.00    -0.384 OA
ATOM     34  H   UNL     1      17.986 -37.516  -4.600  1.00  0.00     0.211 HD
ENDBRANCH  28  33
BRANCH  30  35
ATOM     35  O   UNL     1      16.822 -34.986  -2.935  1.00  0.00    -0.387 OA
ATOM     36  H   UNL     1      15.852 -35.041  -3.054  1.00  0.00     0.211 HD
ENDBRANCH  30  35
BRANCH  31  37
ATOM     37  C   UNL     1      16.638 -37.680   1.336  1.00  0.00     0.191 C 
BRANCH  37  38
ATOM     38  O   UNL     1      17.721 -37.236   2.115  1.00  0.00    -0.394 OA
ATOM     39  H   UNL     1      17.679 -37.849   2.923  1.00  0.00     0.210 HD
ENDBRANCH  37  38
ENDBRANCH  31  37
BRANCH  32  40
ATOM     40  O   UNL     1      17.493 -35.204  -0.003  1.00  0.00    -0.387 OA
ATOM     41  H   UNL     1      16.936 -34.950   0.776  1.00  0.00     0.211 HD
ENDBRANCH  32  40
ENDBRANCH   1  27
TORSDOF 12
ENDMDL
MODEL 5
REMARK VINA RESULT:    -6.902      3.193      6.803
REMARK INTER + INTRA:         -11.696
REMARK INTER:                 -10.291
REMARK INTRA:                  -1.406
REMARK UNBOUND:                -1.566
REMARK SMILES O=c1c(O[C@@H]2O[C@H](CO)[C@@H](O)[C@H](O)[C@@H]2O)c(-c2ccc(O)c(O)c2)oc2cc(O)cc(O)c12
REMARK SMILES IDX 4 1 3 2 16 3 25 4 2 5 26 6 1 7 33 8 27 9 31 10 28 11 30 12
REMARK SMILES IDX 17 13 18 14 19 15 20 16 24 17 22 18 21 19 23 21 32 23 29 25
REMARK SMILES IDX 5 27 14 28 6 29 12 30 7 31 10 32 15 33 13 35 8 37 9 38 11 40
REMARK H PARENT 21 20 23 22 32 24 29 26 15 34 13 36 9 39 11 41
REMARK Flexibility Score: inf
ROOT
ATOM      1  O   UNL     1      14.595 -38.051  -3.616  1.00  0.00    -0.454 OA
ENDROOT
BRANCH   1   2
ATOM      2  C   UNL     1      13.375 -38.620  -3.928  1.00  0.00     0.214 A 
ATOM      3  C   UNL     1      12.171 -37.860  -3.969  1.00  0.00     0.180 A 
ATOM      4  O   UNL     1      11.184 -38.329  -4.724  1.00  0.00    -0.452 OA
ATOM      5  C   UNL     1      13.275 -40.009  -4.128  1.00  0.00     0.239 A 
ATOM      6  C   UNL     1      11.223 -39.547  -5.288  1.00  0.00     0.146 A 
ATOM      7  O   UNL     1      13.640 -40.809  -3.216  1.00  0.00    -0.285 OA
ATOM      8  C   UNL     1      12.274 -40.469  -5.007  1.00  0.00     0.111 A 
ATOM      9  C   UNL     1      10.227 -39.894  -6.223  1.00  0.00     0.094 A 
ATOM     10  C   UNL     1      12.163 -41.810  -5.473  1.00  0.00     0.134 A 
ATOM     11  C   UNL     1      10.184 -41.185  -6.781  1.00  0.00     0.123 A 
ATOM     12  C   UNL     1      11.073 -42.160  -6.277  1.00  0.00     0.093 A 
BRANCH   3  13
ATOM     13  C   UNL     1      11.981 -36.450  -3.486  1.00  0.00     0.025 A 
ATOM     14  C   UNL     1      12.648 -35.331  -3.969  1.00  0.00     0.016 A 
ATOM     15  C   UNL     1      12.153 -34.026  -3.788  1.00  0.00     0.051 A 
ATOM     16  C   UNL     1      10.940 -33.861  -3.154  1.00  0.00     0.157 A 
ATOM     17  C   UNL     1      10.984 -36.177  -2.512  1.00  0.00     0.062 A 
ATOM     18  C   UNL     1      10.325 -34.949  -2.517  1.00  0.00     0.158 A 
BRANCH  16  19
ATOM     19  O   UNL     1      10.363 -32.599  -3.176  1.00  0.00    -0.504 OA
ATOM     20  H   UNL     1      11.015 -31.797  -3.216  1.00  0.00     0.293 HD
ENDBRANCH  16  19
BRANCH  18  21
ATOM     21  O   UNL     1       9.076 -34.855  -1.926  1.00  0.00    -0.504 OA
ATOM     22  H   UNL     1       8.714 -35.692  -1.476  1.00  0.00     0.293 HD
ENDBRANCH  18  21
ENDBRANCH   3  13
BRANCH  10  23
ATOM     23  O   UNL     1      13.255 -42.679  -5.480  1.00  0.00    -0.507 OA
ATOM     24  H   UNL     1      13.571 -43.325  -4.707  1.00  0.00     0.293 HD
ENDBRANCH  10  23
BRANCH  11  25
ATOM     25  O   UNL     1       9.309 -41.477  -7.814  1.00  0.00    -0.508 OA
ATOM     26  H   UNL     1       9.496 -41.084  -8.736  1.00  0.00     0.293 HD
ENDBRANCH  11  25
ENDBRANCH   1   2
BRANCH   1  27
ATOM     27  C   UNL     1      15.063 -38.018  -2.251  1.00  0.00     0.339 C 
ATOM     28  C   UNL     1      16.601 -38.305  -2.100  1.00  0.00     0.214 C 
ATOM     29  O   UNL     1      14.659 -36.833  -1.538  1.00  0.00    -0.332 OA
ATOM     30  C   UNL     1      17.424 -37.110  -2.690  1.00  0.00     0.180 C 
ATOM     31  C   UNL     1      15.640 -35.827  -1.435  1.00  0.00     0.179 C 
ATOM     32  C   UNL     1      16.605 -35.791  -2.651  1.00  0.00     0.177 C 
BRANCH  28  33
ATOM     33  O   UNL     1      17.067 -39.587  -2.502  1.00  0.00    -0.384 OA
ATOM     34  H   UNL     1      17.384 -39.482  -3.439  1.00  0.00     0.211 HD
ENDBRANCH  28  33
BRANCH  30  35
ATOM     35  O   UNL     1      18.017 -37.351  -3.947  1.00  0.00    -0.387 OA
ATOM     36  H   UNL     1      17.409 -37.058  -4.655  1.00  0.00     0.211 HD
ENDBRANCH  30  35
BRANCH  31  37
ATOM     37  C   UNL     1      14.926 -34.503  -1.143  1.00  0.00     0.191 C 
BRANCH  37  38
ATOM     38  O   UNL     1      13.631 -34.681  -0.626  1.00  0.00    -0.394 OA
ATOM     39  H   UNL     1      13.088 -34.002  -1.150  1.00  0.00     0.210 HD
ENDBRANCH  37  38
ENDBRANCH  31  37
BRANCH  32  40
ATOM     40  O   UNL     1      17.485 -34.717  -2.579  1.00  0.00    -0.387 OA
ATOM     41  H   UNL     1      17.552 -34.464  -1.624  1.00  0.00     0.211 HD
ENDBRANCH  32  40
ENDBRANCH   1  27
TORSDOF 12
ENDMDL
MODEL 6
REMARK VINA RESULT:    -6.725      2.019      3.465
REMARK INTER + INTRA:         -11.437
REMARK INTER:                  -9.753
REMARK INTRA:                  -1.684
REMARK UNBOUND:                -1.566
REMARK SMILES O=c1c(O[C@@H]2O[C@H](CO)[C@@H](O)[C@H](O)[C@@H]2O)c(-c2ccc(O)c(O)c2)oc2cc(O)cc(O)c12
REMARK SMILES IDX 4 1 3 2 16 3 25 4 2 5 26 6 1 7 33 8 27 9 31 10 28 11 30 12
REMARK SMILES IDX 17 13 18 14 19 15 20 16 24 17 22 18 21 19 23 21 32 23 29 25
REMARK SMILES IDX 5 27 14 28 6 29 12 30 7 31 10 32 15 33 13 35 8 37 9 38 11 40
REMARK H PARENT 21 20 23 22 32 24 29 26 15 34 13 36 9 39 11 41
REMARK Flexibility Score: inf
ROOT
ATOM      1  O   UNL     1      13.104 -35.893  -1.489  1.00  0.00    -0.454 OA
ENDROOT
BRANCH   1   2
ATOM      2  C   UNL     1      13.122 -36.627  -2.658  1.00  0.00     0.214 A 
ATOM      3  C   UNL     1      14.232 -37.443  -3.025  1.00  0.00     0.180 A 
ATOM      4  O   UNL     1      13.992 -38.454  -3.853  1.00  0.00    -0.452 OA
ATOM      5  C   UNL     1      12.064 -36.516  -3.578  1.00  0.00     0.239 A 
ATOM      6  C   UNL     1      12.811 -38.617  -4.471  1.00  0.00     0.146 A 
ATOM      7  O   UNL     1      11.758 -35.384  -4.059  1.00  0.00    -0.285 OA
ATOM      8  C   UNL     1      11.777 -37.639  -4.379  1.00  0.00     0.111 A 
ATOM      9  C   UNL     1      12.576 -39.812  -5.181  1.00  0.00     0.094 A 
ATOM     10  C   UNL     1      10.627 -37.767  -5.209  1.00  0.00     0.134 A 
ATOM     11  C   UNL     1      11.385 -39.993  -5.908  1.00  0.00     0.123 A 
ATOM     12  C   UNL     1      10.500 -38.898  -6.022  1.00  0.00     0.093 A 
BRANCH   3  13
ATOM     13  C   UNL     1      15.584 -37.468  -2.372  1.00  0.00     0.025 A 
ATOM     14  C   UNL     1      15.904 -38.139  -1.197  1.00  0.00     0.016 A 
ATOM     15  C   UNL     1      17.229 -38.471  -0.861  1.00  0.00     0.051 A 
ATOM     16  C   UNL     1      18.235 -38.164  -1.752  1.00  0.00     0.157 A 
ATOM     17  C   UNL     1      16.681 -36.837  -3.017  1.00  0.00     0.062 A 
ATOM     18  C   UNL     1      17.967 -37.351  -2.863  1.00  0.00     0.158 A 
BRANCH  16  19
ATOM     19  O   UNL     1      19.498 -38.688  -1.512  1.00  0.00    -0.504 OA
ATOM     20  H   UNL     1      19.810 -39.442  -2.149  1.00  0.00     0.293 HD
ENDBRANCH  16  19
BRANCH  18  21
ATOM     21  O   UNL     1      18.922 -37.069  -3.825  1.00  0.00    -0.504 OA
ATOM     22  H   UNL     1      18.611 -36.564  -4.651  1.00  0.00     0.293 HD
ENDBRANCH  18  21
ENDBRANCH   3  13
BRANCH  10  23
ATOM     23  O   UNL     1       9.469 -37.022  -4.981  1.00  0.00    -0.507 OA
ATOM     24  H   UNL     1       9.202 -36.095  -5.412  1.00  0.00     0.293 HD
ENDBRANCH  10  23
BRANCH  11  25
ATOM     25  O   UNL     1      11.083 -41.222  -6.471  1.00  0.00    -0.508 OA
ATOM     26  H   UNL     1      11.148 -41.322  -7.483  1.00  0.00     0.293 HD
ENDBRANCH  11  25
ENDBRANCH   1   2
BRANCH   1  27
ATOM     27  C   UNL     1      13.701 -34.580  -1.436  1.00  0.00     0.339 C 
ATOM     28  C   UNL     1      12.668 -33.423  -1.181  1.00  0.00     0.214 C 
ATOM     29  O   UNL     1      14.833 -34.503  -0.547  1.00  0.00    -0.332 OA
ATOM     30  C   UNL     1      12.113 -33.520   0.281  1.00  0.00     0.180 C 
ATOM     31  C   UNL     1      14.567 -33.951   0.722  1.00  0.00     0.179 C 
ATOM     32  C   UNL     1      13.123 -34.234   1.219  1.00  0.00     0.177 C 
BRANCH  28  33
ATOM     33  O   UNL     1      11.669 -33.212  -2.170  1.00  0.00    -0.384 OA
ATOM     34  H   UNL     1      11.224 -32.354  -1.931  1.00  0.00     0.211 HD
ENDBRANCH  28  33
BRANCH  30  35
ATOM     35  O   UNL     1      10.803 -34.030   0.394  1.00  0.00    -0.387 OA
ATOM     36  H   UNL     1      10.825 -34.875   0.886  1.00  0.00     0.211 HD
ENDBRANCH  30  35
BRANCH  31  37
ATOM     37  C   UNL     1      15.675 -34.412   1.675  1.00  0.00     0.191 C 
BRANCH  37  38
ATOM     38  O   UNL     1      15.900 -33.511   2.731  1.00  0.00    -0.394 OA
ATOM     39  H   UNL     1      15.879 -32.611   2.263  1.00  0.00     0.210 HD
ENDBRANCH  37  38
ENDBRANCH  31  37
BRANCH  32  40
ATOM     40  O   UNL     1      12.929 -33.783   2.519  1.00  0.00    -0.387 OA
ATOM     41  H   UNL     1      13.821 -33.551   2.881  1.00  0.00     0.211 HD
ENDBRANCH  32  40
ENDBRANCH   1  27
TORSDOF 12
ENDMDL
MODEL 7
REMARK VINA RESULT:    -6.668      1.567      5.455
REMARK INTER + INTRA:         -11.354
REMARK INTER:                  -9.451
REMARK INTRA:                  -1.903
REMARK UNBOUND:                -1.566
REMARK SMILES O=c1c(O[C@@H]2O[C@H](CO)[C@@H](O)[C@H](O)[C@@H]2O)c(-c2ccc(O)c(O)c2)oc2cc(O)cc(O)c12
REMARK SMILES IDX 4 1 3 2 16 3 25 4 2 5 26 6 1 7 33 8 27 9 31 10 28 11 30 12
REMARK SMILES IDX 17 13 18 14 19 15 20 16 24 17 22 18 21 19 23 21 32 23 29 25
REMARK SMILES IDX 5 27 14 28 6 29 12 30 7 31 10 32 15 33 13 35 8 37 9 38 11 40
REMARK H PARENT 21 20 23 22 32 24 29 26 15 34 13 36 9 39 11 41
REMARK Flexibility Score: inf
ROOT
ATOM      1  O   UNL     1      13.105 -37.480  -2.764  1.00  0.00    -0.454 OA
ENDROOT
BRANCH   1   2
ATOM      2  C   UNL     1      13.478 -36.742  -1.658  1.00  0.00     0.214 A 
ATOM      3  C   UNL     1      14.844 -36.495  -1.336  1.00  0.00     0.180 A 
ATOM      4  O   UNL     1      15.107 -35.421  -0.598  1.00  0.00    -0.452 OA
ATOM      5  C   UNL     1      12.503 -36.284  -0.753  1.00  0.00     0.239 A 
ATOM      6  C   UNL     1      14.142 -34.689  -0.019  1.00  0.00     0.146 A 
ATOM      7  O   UNL     1      11.725 -37.109  -0.188  1.00  0.00    -0.285 OA
ATOM      8  C   UNL     1      12.774 -35.092  -0.052  1.00  0.00     0.111 A 
ATOM      9  C   UNL     1      14.490 -33.465   0.587  1.00  0.00     0.094 A 
ATOM     10  C   UNL     1      11.825 -34.388   0.742  1.00  0.00     0.134 A 
ATOM     11  C   UNL     1      13.527 -32.702   1.273  1.00  0.00     0.123 A 
ATOM     12  C   UNL     1      12.243 -33.261   1.457  1.00  0.00     0.093 A 
BRANCH   3  13
ATOM     13  C   UNL     1      16.047 -37.141  -1.962  1.00  0.00     0.025 A 
ATOM     14  C   UNL     1      16.883 -36.555  -2.905  1.00  0.00     0.016 A 
ATOM     15  C   UNL     1      18.189 -37.021  -3.141  1.00  0.00     0.051 A 
ATOM     16  C   UNL     1      18.669 -38.062  -2.375  1.00  0.00     0.157 A 
ATOM     17  C   UNL     1      16.452 -38.430  -1.523  1.00  0.00     0.062 A 
ATOM     18  C   UNL     1      17.802 -38.774  -1.534  1.00  0.00     0.158 A 
BRANCH  16  19
ATOM     19  O   UNL     1      20.021 -38.366  -2.465  1.00  0.00    -0.504 OA
ATOM     20  H   UNL     1      20.263 -39.370  -2.509  1.00  0.00     0.293 HD
ENDBRANCH  16  19
BRANCH  18  21
ATOM     21  O   UNL     1      18.244 -39.782  -0.692  1.00  0.00    -0.504 OA
ATOM     22  H   UNL     1      17.549 -40.220  -0.092  1.00  0.00     0.293 HD
ENDBRANCH  18  21
ENDBRANCH   3  13
BRANCH  10  23
ATOM     23  O   UNL     1      10.451 -34.540   0.552  1.00  0.00    -0.507 OA
ATOM     24  H   UNL     1       9.681 -33.878   0.845  1.00  0.00     0.293 HD
ENDBRANCH  10  23
BRANCH  11  25
ATOM     25  O   UNL     1      13.829 -31.430   1.728  1.00  0.00    -0.508 OA
ATOM     26  H   UNL     1      13.168 -30.966   2.350  1.00  0.00     0.293 HD
ENDBRANCH  11  25
ENDBRANCH   1   2
BRANCH   1  27
ATOM     27  C   UNL     1      12.947 -36.846  -4.051  1.00  0.00     0.339 C 
ATOM     28  C   UNL     1      12.130 -37.704  -5.085  1.00  0.00     0.214 C 
ATOM     29  O   UNL     1      12.460 -35.492  -3.965  1.00  0.00    -0.332 OA
ATOM     30  C   UNL     1      10.630 -37.781  -4.643  1.00  0.00     0.180 C 
ATOM     31  C   UNL     1      11.082 -35.330  -4.207  1.00  0.00     0.179 C 
ATOM     32  C   UNL     1      10.238 -36.558  -3.770  1.00  0.00     0.177 C 
BRANCH  28  33
ATOM     33  O   UNL     1      12.686 -38.952  -5.479  1.00  0.00    -0.384 OA
ATOM     34  H   UNL     1      12.608 -39.548  -4.686  1.00  0.00     0.211 HD
ENDBRANCH  28  33
BRANCH  30  35
ATOM     35  O   UNL     1      10.233 -39.010  -4.076  1.00  0.00    -0.387 OA
ATOM     36  H   UNL     1      10.027 -38.879  -3.129  1.00  0.00     0.211 HD
ENDBRANCH  30  35
BRANCH  31  37
ATOM     37  C   UNL     1      10.649 -33.999  -3.582  1.00  0.00     0.191 C 
BRANCH  37  38
ATOM     38  O   UNL     1       9.990 -34.160  -2.351  1.00  0.00    -0.394 OA
ATOM     39  H   UNL     1      10.654 -33.770  -1.691  1.00  0.00     0.210 HD
ENDBRANCH  37  38
ENDBRANCH  31  37
BRANCH  32  40
ATOM     40  O   UNL     1       8.875 -36.322  -3.911  1.00  0.00    -0.387 OA
ATOM     41  H   UNL     1       8.522 -37.022  -4.516  1.00  0.00     0.211 HD
ENDBRANCH  32  40
ENDBRANCH   1  27
TORSDOF 12
ENDMDL
MODEL 8
REMARK VINA RESULT:    -6.616      2.663      4.221
REMARK INTER + INTRA:         -11.276
REMARK INTER:                  -9.756
REMARK INTRA:                  -1.520
REMARK UNBOUND:                -1.566
REMARK SMILES O=c1c(O[C@@H]2O[C@H](CO)[C@@H](O)[C@H](O)[C@@H]2O)c(-c2ccc(O)c(O)c2)oc2cc(O)cc(O)c12
REMARK SMILES IDX 4 1 3 2 16 3 25 4 2 5 26 6 1 7 33 8 27 9 31 10 28 11 30 12
REMARK SMILES IDX 17 13 18 14 19 15 20 16 24 17 22 18 21 19 23 21 32 23 29 25
REMARK SMILES IDX 5 27 14 28 6 29 12 30 7 31 10 32 15 33 13 35 8 37 9 38 11 40
REMARK H PARENT 21 20 23 22 32 24 29 26 15 34 13 36 9 39 11 41
REMARK Flexibility Score: inf
ROOT
ATOM      1  O   UNL     1      13.761 -35.762  -2.384  1.00  0.00    -0.454 OA
ENDROOT
BRANCH   1   2
ATOM      2  C   UNL     1      13.883 -36.933  -3.107  1.00  0.00     0.214 A 
ATOM      3  C   UNL     1      14.924 -37.874  -2.858  1.00  0.00     0.180 A 
ATOM      4  O   UNL     1      14.700 -39.133  -3.217  1.00  0.00    -0.452 OA
ATOM      5  C   UNL     1      13.019 -37.188  -4.188  1.00  0.00     0.239 A 
ATOM      6  C   UNL     1      13.630 -39.498  -3.942  1.00  0.00     0.146 A 
ATOM      7  O   UNL     1      12.949 -36.367  -5.150  1.00  0.00    -0.285 OA
ATOM      8  C   UNL     1      12.730 -38.534  -4.486  1.00  0.00     0.111 A 
ATOM      9  C   UNL     1      13.366 -40.871  -4.119  1.00  0.00     0.094 A 
ATOM     10  C   UNL     1      11.731 -38.961  -5.407  1.00  0.00     0.134 A 
ATOM     11  C   UNL     1      12.303 -41.300  -4.935  1.00  0.00     0.123 A 
ATOM     12  C   UNL     1      11.600 -40.327  -5.679  1.00  0.00     0.093 A 
BRANCH   3  13
ATOM     13  C   UNL     1      16.130 -37.670  -1.987  1.00  0.00     0.025 A 
ATOM     14  C   UNL     1      16.405 -36.534  -1.235  1.00  0.00     0.016 A 
ATOM     15  C   UNL     1      17.297 -36.552  -0.147  1.00  0.00     0.051 A 
ATOM     16  C   UNL     1      17.876 -37.750   0.213  1.00  0.00     0.157 A 
ATOM     17  C   UNL     1      17.055 -38.736  -1.819  1.00  0.00     0.062 A 
ATOM     18  C   UNL     1      17.745 -38.873  -0.616  1.00  0.00     0.158 A 
BRANCH  16  19
ATOM     19  O   UNL     1      18.575 -37.799   1.412  1.00  0.00    -0.504 OA
ATOM     20  H   UNL     1      18.065 -38.186   2.225  1.00  0.00     0.293 HD
ENDBRANCH  16  19
BRANCH  18  21
ATOM     21  O   UNL     1      18.248 -40.116  -0.270  1.00  0.00    -0.504 OA
ATOM     22  H   UNL     1      19.057 -40.133   0.346  1.00  0.00     0.293 HD
ENDBRANCH  18  21
ENDBRANCH   3  13
BRANCH  10  23
ATOM     23  O   UNL     1      10.658 -38.142  -5.759  1.00  0.00    -0.507 OA
ATOM     24  H   UNL     1       9.627 -38.369  -5.706  1.00  0.00     0.293 HD
ENDBRANCH  10  23
BRANCH  11  25
ATOM     25  O   UNL     1      11.946 -42.637  -4.981  1.00  0.00    -0.508 OA
ATOM     26  H   UNL     1      12.410 -43.241  -5.659  1.00  0.00     0.293 HD
ENDBRANCH  11  25
ENDBRANCH   1   2
BRANCH   1  27
ATOM     27  C   UNL     1      12.753 -35.633  -1.360  1.00  0.00     0.339 C 
ATOM     28  C   UNL     1      12.706 -34.211  -0.691  1.00  0.00     0.214 C 
ATOM     29  O   UNL     1      11.449 -36.076  -1.782  1.00  0.00    -0.332 OA
ATOM     30  C   UNL     1      12.173 -33.158  -1.720  1.00  0.00     0.180 C 
ATOM     31  C   UNL     1      10.559 -35.055  -2.169  1.00  0.00     0.179 C 
ATOM     32  C   UNL     1      11.277 -33.828  -2.796  1.00  0.00     0.177 C 
BRANCH  28  33
ATOM     33  O   UNL     1      13.859 -33.791   0.027  1.00  0.00    -0.384 OA
ATOM     34  H   UNL     1      13.590 -32.969   0.520  1.00  0.00     0.211 HD
ENDBRANCH  28  33
BRANCH  30  35
ATOM     35  O   UNL     1      13.154 -32.308  -2.274  1.00  0.00    -0.387 OA
ATOM     36  H   UNL     1      12.814 -31.391  -2.294  1.00  0.00     0.211 HD
ENDBRANCH  30  35
BRANCH  31  37
ATOM     37  C   UNL     1       9.476 -35.684  -3.051  1.00  0.00     0.191 C 
BRANCH  37  38
ATOM     38  O   UNL     1       9.851 -35.771  -4.403  1.00  0.00    -0.394 OA
ATOM     39  H   UNL     1       9.610 -36.728  -4.638  1.00  0.00     0.210 HD
ENDBRANCH  37  38
ENDBRANCH  31  37
BRANCH  32  40
ATOM     40  O   UNL     1      10.369 -32.891  -3.275  1.00  0.00    -0.387 OA
ATOM     41  H   UNL     1      10.486 -32.852  -4.258  1.00  0.00     0.211 HD
ENDBRANCH  32  40
ENDBRANCH   1  27
TORSDOF 12
ENDMDL
MODEL 9
REMARK VINA RESULT:    -6.594      2.431      5.480
REMARK INTER + INTRA:         -11.244
REMARK INTER:                  -9.485
REMARK INTRA:                  -1.760
REMARK UNBOUND:                -1.566
REMARK SMILES O=c1c(O[C@@H]2O[C@H](CO)[C@@H](O)[C@H](O)[C@@H]2O)c(-c2ccc(O)c(O)c2)oc2cc(O)cc(O)c12
REMARK SMILES IDX 4 1 3 2 16 3 25 4 2 5 26 6 1 7 33 8 27 9 31 10 28 11 30 12
REMARK SMILES IDX 17 13 18 14 19 15 20 16 24 17 22 18 21 19 23 21 32 23 29 25
REMARK SMILES IDX 5 27 14 28 6 29 12 30 7 31 10 32 15 33 13 35 8 37 9 38 11 40
REMARK H PARENT 21 20 23 22 32 24 29 26 15 34 13 36 9 39 11 41
REMARK Flexibility Score: inf
ROOT
ATOM      1  O   UNL     1      14.566 -36.527  -3.258  1.00  0.00    -0.454 OA
ENDROOT
BRANCH   1   2
ATOM      2  C   UNL     1      13.434 -36.062  -2.617  1.00  0.00     0.214 A 
ATOM      3  C   UNL     1      12.174 -36.718  -2.732  1.00  0.00     0.180 A 
ATOM      4  O   UNL     1      11.302 -36.529  -1.747  1.00  0.00    -0.452 OA
ATOM      5  C   UNL     1      13.477 -34.857  -1.893  1.00  0.00     0.239 A 
ATOM      6  C   UNL     1      11.499 -35.629  -0.771  1.00  0.00     0.146 A 
ATOM      7  O   UNL     1      13.833 -33.785  -2.468  1.00  0.00    -0.285 OA
ATOM      8  C   UNL     1      12.601 -34.723  -0.798  1.00  0.00     0.111 A 
ATOM      9  C   UNL     1      10.622 -35.622   0.333  1.00  0.00     0.094 A 
ATOM     10  C   UNL     1      12.651 -33.664   0.153  1.00  0.00     0.134 A 
ATOM     11  C   UNL     1      10.743 -34.647   1.341  1.00  0.00     0.123 A 
ATOM     12  C   UNL     1      11.669 -33.599   1.147  1.00  0.00     0.093 A 
BRANCH   3  13
ATOM     13  C   UNL     1      11.817 -37.819  -3.689  1.00  0.00     0.025 A 
ATOM     14  C   UNL     1      12.030 -37.800  -5.062  1.00  0.00     0.016 A 
ATOM     15  C   UNL     1      12.066 -38.976  -5.832  1.00  0.00     0.051 A 
ATOM     16  C   UNL     1      11.937 -40.190  -5.192  1.00  0.00     0.157 A 
ATOM     17  C   UNL     1      11.294 -39.039  -3.182  1.00  0.00     0.062 A 
ATOM     18  C   UNL     1      11.564 -40.237  -3.841  1.00  0.00     0.158 A 
BRANCH  16  19
ATOM     19  O   UNL     1      12.192 -41.342  -5.925  1.00  0.00    -0.504 OA
ATOM     20  H   UNL     1      12.197 -41.238  -6.954  1.00  0.00     0.293 HD
ENDBRANCH  16  19
BRANCH  18  21
ATOM     21  O   UNL     1      11.487 -41.424  -3.131  1.00  0.00    -0.504 OA
ATOM     22  H   UNL     1      11.433 -42.284  -3.672  1.00  0.00     0.293 HD
ENDBRANCH  18  21
ENDBRANCH   3  13
BRANCH  10  23
ATOM     23  O   UNL     1      13.814 -32.922   0.365  1.00  0.00    -0.507 OA
ATOM     24  H   UNL     1      14.689 -33.225   0.874  1.00  0.00     0.293 HD
ENDBRANCH  10  23
BRANCH  11  25
ATOM     25  O   UNL     1       9.989 -34.735   2.499  1.00  0.00    -0.508 OA
ATOM     26  H   UNL     1      10.014 -33.955   3.156  1.00  0.00     0.293 HD
ENDBRANCH  11  25
ENDBRANCH   1   2
BRANCH   1  27
ATOM     27  C   UNL     1      15.343 -37.602  -2.691  1.00  0.00     0.339 C 
ATOM     28  C   UNL     1      16.880 -37.512  -3.009  1.00  0.00     0.214 C 
ATOM     29  O   UNL     1      15.091 -37.810  -1.287  1.00  0.00    -0.332 OA
ATOM     30  C   UNL     1      17.510 -36.299  -2.244  1.00  0.00     0.180 C 
ATOM     31  C   UNL     1      16.044 -37.250  -0.414  1.00  0.00     0.179 C 
ATOM     32  C   UNL     1      16.692 -35.953  -0.970  1.00  0.00     0.177 C 
BRANCH  28  33
ATOM     33  O   UNL     1      17.269 -37.604  -4.373  1.00  0.00    -0.384 OA
ATOM     34  H   UNL     1      17.811 -36.790  -4.559  1.00  0.00     0.211 HD
ENDBRANCH  28  33
BRANCH  30  35
ATOM     35  O   UNL     1      17.794 -35.169  -3.038  1.00  0.00    -0.387 OA
ATOM     36  H   UNL     1      18.157 -35.460  -3.898  1.00  0.00     0.211 HD
ENDBRANCH  30  35
BRANCH  31  37
ATOM     37  C   UNL     1      15.386 -37.099   0.963  1.00  0.00     0.191 C 
BRANCH  37  38
ATOM     38  O   UNL     1      15.117 -35.761   1.298  1.00  0.00    -0.394 OA
ATOM     39  H   UNL     1      14.157 -35.803   1.626  1.00  0.00     0.210 HD
ENDBRANCH  37  38
ENDBRANCH  31  37
BRANCH  32  40
ATOM     40  O   UNL     1      17.536 -35.360  -0.039  1.00  0.00    -0.387 OA
ATOM     41  H   UNL     1      17.156 -35.546   0.856  1.00  0.00     0.211 HD
ENDBRANCH  32  40
ENDBRANCH   1  27
TORSDOF 12
ENDMDL
