MODEL 1
REMARK VINA RESULT:    -3.820      0.000      0.000
REMARK INTER + INTRA:          -8.294
REMARK INTER:                  -6.499
REMARK INTRA:                  -1.795
REMARK UNBOUND:                -1.795
REMARK SMILES CCCCCCCCCCCCCC(=O)[O-]
REMARK SMILES IDX 8 1 9 2 10 3 11 4 12 5 13 6 14 7 15 8 16 9 7 10 6 11 5 12
REMARK SMILES IDX 4 13 3 14 2 15 1 16
REMARK H PARENT
REMARK Flexibility Score: inf
ROOT
ATOM      1  C   UNL     1       5.165   2.120 401.493  1.00  0.00     0.000 C 
ENDROOT
BRANCH   1   2
ATOM      2  C   UNL     1       5.267   2.590 402.950  1.00  0.00     0.000 C 
BRANCH   2   3
ATOM      3  C   UNL     1       4.521   1.632 403.889  1.00  0.00     0.000 C 
BRANCH   3   4
ATOM      4  C   UNL     1       4.980   0.169 403.744  1.00  0.00     0.000 C 
BRANCH   4   5
ATOM      5  C   UNL     1       3.850  -0.879 403.803  1.00  0.00     0.006 C 
BRANCH   5   6
ATOM      6  C   UNL     1       4.183  -2.127 404.638  1.00  0.00     0.053 C 
BRANCH   6   7
ATOM      7  C   UNL     1       2.996  -2.615 405.410  1.00  0.00     0.041 C 
ATOM      8  O   UNL     1       2.019  -3.134 404.810  1.00  0.00    -0.550 OA
ATOM      9  O   UNL     1       2.956  -2.468 406.790  1.00  0.00    -0.550 OA
ENDBRANCH   6   7
ENDBRANCH   5   6
ENDBRANCH   4   5
ENDBRANCH   3   4
ENDBRANCH   2   3
ENDBRANCH   1   2
BRANCH   1  10
ATOM     10  C   UNL     1       3.735   2.283 400.961  1.00  0.00     0.000 C 
BRANCH  10  11
ATOM     11  C   UNL     1       3.251   0.996 400.281  1.00  0.00    -0.000 C 
BRANCH  11  12
ATOM     12  C   UNL     1       4.424   0.044 400.008  1.00  0.00    -0.000 C 
BRANCH  12  13
ATOM     13  C   UNL     1       4.017  -1.435 400.094  1.00  0.00    -0.000 C 
BRANCH  13  14
ATOM     14  C   UNL     1       5.179  -2.344 400.529  1.00  0.00    -0.000 C 
BRANCH  14  15
ATOM     15  C   UNL     1       4.696  -3.622 401.232  1.00  0.00    -0.003 C 
ATOM     16  C   UNL     1       3.181  -3.650 401.430  1.00  0.00     0.004 C 
ENDBRANCH  14  15
ENDBRANCH  13  14
ENDBRANCH  12  13
ENDBRANCH  11  12
ENDBRANCH  10  11
ENDBRANCH   1  10
TORSDOF 12
ENDMDL
MODEL 2
REMARK VINA RESULT:    -3.759      1.013      3.892
REMARK INTER + INTRA:          -8.191
REMARK INTER:                  -6.797
REMARK INTRA:                  -1.394
REMARK UNBOUND:                -1.795
REMARK SMILES CCCCCCCCCCCCCC(=O)[O-]
REMARK SMILES IDX 8 1 9 2 10 3 11 4 12 5 13 6 14 7 15 8 16 9 7 10 6 11 5 12
REMARK SMILES IDX 4 13 3 14 2 15 1 16
REMARK H PARENT
REMARK Flexibility Score: inf
ROOT
ATOM      1  C   UNL     1       3.977  -0.867 399.961  1.00  0.00     0.000 C 
ENDROOT
BRANCH   1   2
ATOM      2  C   UNL     1       3.963  -2.397 400.061  1.00  0.00     0.000 C 
BRANCH   2   3
ATOM      3  C   UNL     1       3.528  -2.852 401.461  1.00  0.00     0.000 C 
BRANCH   3   4
ATOM      4  C   UNL     1       4.218  -4.153 401.911  1.00  0.00     0.000 C 
BRANCH   4   5
ATOM      5  C   UNL     1       3.860  -4.624 403.336  1.00  0.00     0.006 C 
BRANCH   5   6
ATOM      6  C   UNL     1       4.145  -3.591 404.439  1.00  0.00     0.053 C 
BRANCH   6   7
ATOM      7  C   UNL     1       2.889  -3.132 405.114  1.00  0.00     0.041 C 
ATOM      8  O   UNL     1       2.933  -2.653 406.277  1.00  0.00    -0.550 OA
ATOM      9  O   UNL     1       1.666  -3.264 404.470  1.00  0.00    -0.550 OA
ENDBRANCH   6   7
ENDBRANCH   5   6
ENDBRANCH   4   5
ENDBRANCH   3   4
ENDBRANCH   2   3
ENDBRANCH   1   2
BRANCH   1  10
ATOM     10  C   UNL     1       5.403  -0.318 400.096  1.00  0.00     0.000 C 
BRANCH  10  11
ATOM     11  C   UNL     1       5.394   1.206 400.266  1.00  0.00    -0.000 C 
BRANCH  11  12
ATOM     12  C   UNL     1       3.972   1.720 400.533  1.00  0.00    -0.000 C 
BRANCH  12  13
ATOM     13  C   UNL     1       3.891   2.616 401.778  1.00  0.00    -0.000 C 
BRANCH  13  14
ATOM     14  C   UNL     1       4.971   2.280 402.820  1.00  0.00    -0.000 C 
BRANCH  14  15
ATOM     15  C   UNL     1       4.425   1.431 403.979  1.00  0.00    -0.003 C 
ATOM     16  C   UNL     1       4.604  -0.070 403.748  1.00  0.00     0.004 C 
ENDBRANCH  14  15
ENDBRANCH  13  14
ENDBRANCH  12  13
ENDBRANCH  11  12
ENDBRANCH  10  11
ENDBRANCH   1  10
TORSDOF 12
ENDMDL
MODEL 3
REMARK VINA RESULT:    -3.666      2.302      4.278
REMARK INTER + INTRA:          -8.033
REMARK INTER:                  -6.093
REMARK INTRA:                  -1.940
REMARK UNBOUND:                -1.795
REMARK SMILES CCCCCCCCCCCCCC(=O)[O-]
REMARK SMILES IDX 8 1 9 2 10 3 11 4 12 5 13 6 14 7 15 8 16 9 7 10 6 11 5 12
REMARK SMILES IDX 4 13 3 14 2 15 1 16
REMARK H PARENT
REMARK Flexibility Score: inf
ROOT
ATOM      1  C   UNL     1       5.599  -0.237 399.870  1.00  0.00     0.000 C 
ENDROOT
BRANCH   1   2
ATOM      2  C   UNL     1       4.255  -0.954 400.045  1.00  0.00     0.000 C 
BRANCH   2   3
ATOM      3  C   UNL     1       4.464  -2.435 400.391  1.00  0.00     0.000 C 
BRANCH   3   4
ATOM      4  C   UNL     1       3.211  -3.093 400.996  1.00  0.00     0.000 C 
BRANCH   4   5
ATOM      5  C   UNL     1       3.411  -3.722 402.390  1.00  0.00     0.006 C 
BRANCH   5   6
ATOM      6  C   UNL     1       4.726  -4.501 402.556  1.00  0.00     0.053 C 
BRANCH   6   7
ATOM      7  C   UNL     1       4.656  -5.856 401.921  1.00  0.00     0.041 C 
ATOM      8  O   UNL     1       3.621  -6.562 402.045  1.00  0.00    -0.550 OA
ATOM      9  O   UNL     1       5.747  -6.352 401.220  1.00  0.00    -0.550 OA
ENDBRANCH   6   7
ENDBRANCH   5   6
ENDBRANCH   4   5
ENDBRANCH   3   4
ENDBRANCH   2   3
ENDBRANCH   1   2
BRANCH   1  10
ATOM     10  C   UNL     1       5.475   1.255 400.208  1.00  0.00     0.000 C 
BRANCH  10  11
ATOM     11  C   UNL     1       4.023   1.629 400.525  1.00  0.00    -0.000 C 
BRANCH  11  12
ATOM     12  C   UNL     1       3.935   2.434 401.829  1.00  0.00    -0.000 C 
BRANCH  12  13
ATOM     13  C   UNL     1       4.563   1.697 403.023  1.00  0.00    -0.000 C 
BRANCH  13  14
ATOM     14  C   UNL     1       3.761   0.451 403.436  1.00  0.00    -0.000 C 
BRANCH  14  15
ATOM     15  C   UNL     1       4.661  -0.686 403.943  1.00  0.00    -0.003 C 
ATOM     16  C   UNL     1       6.112  -0.540 403.486  1.00  0.00     0.004 C 
ENDBRANCH  14  15
ENDBRANCH  13  14
ENDBRANCH  12  13
ENDBRANCH  11  12
ENDBRANCH  10  11
ENDBRANCH   1  10
TORSDOF 12
ENDMDL
MODEL 4
REMARK VINA RESULT:    -3.520      2.151      3.249
REMARK INTER + INTRA:          -7.785
REMARK INTER:                  -5.568
REMARK INTRA:                  -2.217
REMARK UNBOUND:                -1.795
REMARK SMILES CCCCCCCCCCCCCC(=O)[O-]
REMARK SMILES IDX 8 1 9 2 10 3 11 4 12 5 13 6 14 7 15 8 16 9 7 10 6 11 5 12
REMARK SMILES IDX 4 13 3 14 2 15 1 16
REMARK H PARENT
REMARK Flexibility Score: inf
ROOT
ATOM      1  C   UNL     1       5.527   2.259 402.896  1.00  0.00     0.000 C 
ENDROOT
BRANCH   1   2
ATOM      2  C   UNL     1       5.342   1.379 404.138  1.00  0.00     0.000 C 
BRANCH   2   3
ATOM      3  C   UNL     1       5.339  -0.109 403.761  1.00  0.00     0.000 C 
BRANCH   3   4
ATOM      4  C   UNL     1       3.934  -0.737 403.807  1.00  0.00     0.000 C 
BRANCH   4   5
ATOM      5  C   UNL     1       3.882  -2.245 403.485  1.00  0.00     0.006 C 
BRANCH   5   6
ATOM      6  C   UNL     1       5.122  -2.785 402.754  1.00  0.00     0.053 C 
BRANCH   6   7
ATOM      7  C   UNL     1       4.752  -3.583 401.542  1.00  0.00     0.041 C 
ATOM      8  O   UNL     1       3.600  -4.079 401.436  1.00  0.00    -0.550 OA
ATOM      9  O   UNL     1       5.692  -3.806 400.544  1.00  0.00    -0.550 OA
ENDBRANCH   6   7
ENDBRANCH   5   6
ENDBRANCH   4   5
ENDBRANCH   3   4
ENDBRANCH   2   3
ENDBRANCH   1   2
BRANCH   1  10
ATOM     10  C   UNL     1       4.173   2.628 402.276  1.00  0.00     0.000 C 
BRANCH  10  11
ATOM     11  C   UNL     1       4.124   2.248 400.791  1.00  0.00    -0.000 C 
BRANCH  11  12
ATOM     12  C   UNL     1       3.379   0.921 400.588  1.00  0.00    -0.000 C 
BRANCH  12  13
ATOM     13  C   UNL     1       4.301  -0.207 400.099  1.00  0.00    -0.000 C 
BRANCH  13  14
ATOM     14  C   UNL     1       5.699   0.300 399.708  1.00  0.00    -0.000 C 
BRANCH  14  15
ATOM     15  C   UNL     1       6.824  -0.565 400.297  1.00  0.00    -0.003 C 
ATOM     16  C   UNL     1       7.939   0.267 400.931  1.00  0.00     0.004 C 
ENDBRANCH  14  15
ENDBRANCH  13  14
ENDBRANCH  12  13
ENDBRANCH  11  12
ENDBRANCH  10  11
ENDBRANCH   1  10
TORSDOF 12
ENDMDL
MODEL 5
REMARK VINA RESULT:    -3.515      2.761      4.269
REMARK INTER + INTRA:          -7.776
REMARK INTER:                  -5.894
REMARK INTRA:                  -1.882
REMARK UNBOUND:                -1.795
REMARK SMILES CCCCCCCCCCCCCC(=O)[O-]
REMARK SMILES IDX 8 1 9 2 10 3 11 4 12 5 13 6 14 7 15 8 16 9 7 10 6 11 5 12
REMARK SMILES IDX 4 13 3 14 2 15 1 16
REMARK H PARENT
REMARK Flexibility Score: inf
ROOT
ATOM      1  C   UNL     1       5.511   2.505 402.816  1.00  0.00     0.000 C 
ENDROOT
BRANCH   1   2
ATOM      2  C   UNL     1       4.042   2.380 402.392  1.00  0.00     0.000 C 
BRANCH   2   3
ATOM      3  C   UNL     1       3.911   2.373 400.863  1.00  0.00     0.000 C 
BRANCH   3   4
ATOM      4  C   UNL     1       3.322   1.059 400.317  1.00  0.00     0.000 C 
BRANCH   4   5
ATOM      5  C   UNL     1       4.346  -0.073 400.094  1.00  0.00     0.006 C 
BRANCH   5   6
ATOM      6  C   UNL     1       5.767   0.409 399.756  1.00  0.00     0.053 C 
BRANCH   6   7
ATOM      7  C   UNL     1       6.814  -0.402 400.454  1.00  0.00     0.041 C 
ATOM      8  O   UNL     1       6.739  -1.658 400.466  1.00  0.00    -0.550 OA
ATOM      9  O   UNL     1       7.855   0.232 401.120  1.00  0.00    -0.550 OA
ENDBRANCH   6   7
ENDBRANCH   5   6
ENDBRANCH   4   5
ENDBRANCH   3   4
ENDBRANCH   2   3
ENDBRANCH   1   2
BRANCH   1  10
ATOM     10  C   UNL     1       5.889   1.411 403.823  1.00  0.00     0.000 C 
BRANCH  10  11
ATOM     11  C   UNL     1       4.736   0.419 404.017  1.00  0.00    -0.000 C 
BRANCH  11  12
ATOM     12  C   UNL     1       5.172  -1.008 403.655  1.00  0.00    -0.000 C 
BRANCH  12  13
ATOM     13  C   UNL     1       3.999  -1.884 403.189  1.00  0.00    -0.000 C 
BRANCH  13  14
ATOM     14  C   UNL     1       4.372  -3.375 403.105  1.00  0.00    -0.000 C 
BRANCH  14  15
ATOM     15  C   UNL     1       4.249  -3.932 401.678  1.00  0.00    -0.003 C 
ATOM     16  C   UNL     1       3.075  -3.330 400.908  1.00  0.00     0.004 C 
ENDBRANCH  14  15
ENDBRANCH  13  14
ENDBRANCH  12  13
ENDBRANCH  11  12
ENDBRANCH  10  11
ENDBRANCH   1  10
TORSDOF 12
ENDMDL
MODEL 6
REMARK VINA RESULT:    -3.495      2.093      4.319
REMARK INTER + INTRA:          -7.743
REMARK INTER:                  -6.370
REMARK INTRA:                  -1.373
REMARK UNBOUND:                -1.795
REMARK SMILES CCCCCCCCCCCCCC(=O)[O-]
REMARK SMILES IDX 8 1 9 2 10 3 11 4 12 5 13 6 14 7 15 8 16 9 7 10 6 11 5 12
REMARK SMILES IDX 4 13 3 14 2 15 1 16
REMARK H PARENT
REMARK Flexibility Score: inf
ROOT
ATOM      1  C   UNL     1       5.243  -1.209 400.549  1.00  0.00     0.000 C 
ENDROOT
BRANCH   1   2
ATOM      2  C   UNL     1       5.024   0.182 399.939  1.00  0.00     0.000 C 
BRANCH   2   3
ATOM      3  C   UNL     1       3.632   0.723 400.293  1.00  0.00     0.000 C 
BRANCH   3   4
ATOM      4  C   UNL     1       3.678   2.118 400.944  1.00  0.00     0.000 C 
BRANCH   4   5
ATOM      5  C   UNL     1       4.739   2.288 402.051  1.00  0.00     0.006 C 
BRANCH   5   6
ATOM      6  C   UNL     1       4.444   1.507 403.342  1.00  0.00     0.053 C 
BRANCH   6   7
ATOM      7  C   UNL     1       5.616   0.683 403.777  1.00  0.00     0.041 C 
ATOM      8  O   UNL     1       5.540  -0.031 404.811  1.00  0.00    -0.550 OA
ATOM      9  O   UNL     1       6.803   0.729 403.058  1.00  0.00    -0.550 OA
ENDBRANCH   6   7
ENDBRANCH   5   6
ENDBRANCH   4   5
ENDBRANCH   3   4
ENDBRANCH   2   3
ENDBRANCH   1   2
BRANCH   1  10
ATOM     10  C   UNL     1       4.010  -1.663 401.342  1.00  0.00     0.000 C 
BRANCH  10  11
ATOM     11  C   UNL     1       3.474  -2.997 400.809  1.00  0.00    -0.000 C 
BRANCH  11  12
ATOM     12  C   UNL     1       3.707  -4.127 401.822  1.00  0.00    -0.000 C 
BRANCH  12  13
ATOM     13  C   UNL     1       4.139  -3.604 403.201  1.00  0.00    -0.000 C 
BRANCH  13  14
ATOM     14  C   UNL     1       2.990  -3.617 404.225  1.00  0.00    -0.000 C 
BRANCH  14  15
ATOM     15  C   UNL     1       2.850  -2.280 404.968  1.00  0.00    -0.003 C 
ATOM     16  C   UNL     1       3.324  -2.357 406.418  1.00  0.00     0.004 C 
ENDBRANCH  14  15
ENDBRANCH  13  14
ENDBRANCH  12  13
ENDBRANCH  11  12
ENDBRANCH  10  11
ENDBRANCH   1  10
TORSDOF 12
ENDMDL
MODEL 7
REMARK VINA RESULT:    -3.479      1.217      2.063
REMARK INTER + INTRA:          -7.715
REMARK INTER:                  -6.005
REMARK INTRA:                  -1.710
REMARK UNBOUND:                -1.795
REMARK SMILES CCCCCCCCCCCCCC(=O)[O-]
REMARK SMILES IDX 8 1 9 2 10 3 11 4 12 5 13 6 14 7 15 8 16 9 7 10 6 11 5 12
REMARK SMILES IDX 4 13 3 14 2 15 1 16
REMARK H PARENT
REMARK Flexibility Score: inf
ROOT
ATOM      1  C   UNL     1       3.368   1.414 400.481  1.00  0.00     0.000 C 
ENDROOT
BRANCH   1   2
ATOM      2  C   UNL     1       3.849   2.491 401.462  1.00  0.00     0.000 C 
BRANCH   2   3
ATOM      3  C   UNL     1       4.971   1.953 402.361  1.00  0.00     0.000 C 
BRANCH   3   4
ATOM      4  C   UNL     1       4.452   1.391 403.697  1.00  0.00     0.000 C 
BRANCH   4   5
ATOM      5  C   UNL     1       4.225  -0.135 403.721  1.00  0.00     0.006 C 
BRANCH   5   6
ATOM      6  C   UNL     1       5.334  -0.933 404.425  1.00  0.00     0.053 C 
BRANCH   6   7
ATOM      7  C   UNL     1       4.815  -1.683 405.613  1.00  0.00     0.041 C 
ATOM      8  O   UNL     1       3.578  -1.732 405.840  1.00  0.00    -0.550 OA
ATOM      9  O   UNL     1       5.699  -2.301 406.487  1.00  0.00    -0.550 OA
ENDBRANCH   6   7
ENDBRANCH   5   6
ENDBRANCH   4   5
ENDBRANCH   3   4
ENDBRANCH   2   3
ENDBRANCH   1   2
BRANCH   1  10
ATOM     10  C   UNL     1       4.526   0.505 400.050  1.00  0.00     0.000 C 
BRANCH  10  11
ATOM     11  C   UNL     1       4.112  -0.971 400.086  1.00  0.00    -0.000 C 
BRANCH  11  12
ATOM     12  C   UNL     1       5.281  -1.859 400.533  1.00  0.00    -0.000 C 
BRANCH  12  13
ATOM     13  C   UNL     1       4.846  -3.301 400.838  1.00  0.00    -0.000 C 
BRANCH  13  14
ATOM     14  C   UNL     1       3.379  -3.392 401.294  1.00  0.00    -0.000 C 
BRANCH  14  15
ATOM     15  C   UNL     1       3.247  -3.613 402.809  1.00  0.00    -0.003 C 
ATOM     16  C   UNL     1       4.223  -4.662 403.340  1.00  0.00     0.004 C 
ENDBRANCH  14  15
ENDBRANCH  13  14
ENDBRANCH  12  13
ENDBRANCH  11  12
ENDBRANCH  10  11
ENDBRANCH   1  10
TORSDOF 12
ENDMDL
MODEL 8
REMARK VINA RESULT:    -3.471      2.827      5.963
REMARK INTER + INTRA:          -7.702
REMARK INTER:                  -5.832
REMARK INTRA:                  -1.870
REMARK UNBOUND:                -1.795
REMARK SMILES CCCCCCCCCCCCCC(=O)[O-]
REMARK SMILES IDX 8 1 9 2 10 3 11 4 12 5 13 6 14 7 15 8 16 9 7 10 6 11 5 12
REMARK SMILES IDX 4 13 3 14 2 15 1 16
REMARK H PARENT
REMARK Flexibility Score: inf
ROOT
ATOM      1  C   UNL     1       5.571  -3.838 401.928  1.00  0.00     0.000 C 
ENDROOT
BRANCH   1   2
ATOM      2  C   UNL     1       4.199  -4.239 401.371  1.00  0.00     0.000 C 
BRANCH   2   3
ATOM      3  C   UNL     1       3.328  -3.002 401.112  1.00  0.00     0.000 C 
BRANCH   3   4
ATOM      4  C   UNL     1       3.837  -2.145 399.938  1.00  0.00     0.000 C 
BRANCH   4   5
ATOM      5  C   UNL     1       4.494  -0.808 400.341  1.00  0.00     0.006 C 
BRANCH   5   6
ATOM      6  C   UNL     1       3.538   0.397 400.341  1.00  0.00     0.053 C 
BRANCH   6   7
ATOM      7  C   UNL     1       4.209   1.642 400.831  1.00  0.00     0.041 C 
ATOM      8  O   UNL     1       5.376   1.591 401.300  1.00  0.00    -0.550 OA
ATOM      9  O   UNL     1       3.533   2.855 400.801  1.00  0.00    -0.550 OA
ENDBRANCH   6   7
ENDBRANCH   5   6
ENDBRANCH   4   5
ENDBRANCH   3   4
ENDBRANCH   2   3
ENDBRANCH   1   2
BRANCH   1  10
ATOM     10  C   UNL     1       5.900  -4.625 403.203  1.00  0.00     0.000 C 
BRANCH  10  11
ATOM     11  C   UNL     1       4.621  -5.112 403.895  1.00  0.00    -0.000 C 
BRANCH  11  12
ATOM     12  C   UNL     1       4.293  -4.244 405.117  1.00  0.00    -0.000 C 
BRANCH  12  13
ATOM     13  C   UNL     1       3.106  -3.300 404.870  1.00  0.00    -0.000 C 
BRANCH  13  14
ATOM     14  C   UNL     1       3.418  -1.844 405.257  1.00  0.00    -0.000 C 
BRANCH  14  15
ATOM     15  C   UNL     1       3.888  -1.005 404.059  1.00  0.00    -0.003 C 
ATOM     16  C   UNL     1       5.403  -0.802 404.038  1.00  0.00     0.004 C 
ENDBRANCH  14  15
ENDBRANCH  13  14
ENDBRANCH  12  13
ENDBRANCH  11  12
ENDBRANCH  10  11
ENDBRANCH   1  10
TORSDOF 12
ENDMDL
MODEL 9
REMARK VINA RESULT:    -3.447      1.574      2.597
REMARK INTER + INTRA:          -7.661
REMARK INTER:                  -6.051
REMARK INTRA:                  -1.610
REMARK UNBOUND:                -1.795
REMARK SMILES CCCCCCCCCCCCCC(=O)[O-]
REMARK SMILES IDX 8 1 9 2 10 3 11 4 12 5 13 6 14 7 15 8 16 9 7 10 6 11 5 12
REMARK SMILES IDX 4 13 3 14 2 15 1 16
REMARK H PARENT
REMARK Flexibility Score: inf
ROOT
ATOM      1  C   UNL     1       4.235   2.225 402.573  1.00  0.00     0.000 C 
ENDROOT
BRANCH   1   2
ATOM      2  C   UNL     1       5.732   2.212 402.909  1.00  0.00     0.000 C 
BRANCH   2   3
ATOM      3  C   UNL     1       6.014   1.320 404.127  1.00  0.00     0.000 C 
BRANCH   3   4
ATOM      4  C   UNL     1       5.741  -0.171 403.855  1.00  0.00     0.000 C 
BRANCH   4   5
ATOM      5  C   UNL     1       4.506  -0.751 404.576  1.00  0.00     0.006 C 
BRANCH   5   6
ATOM      6  C   UNL     1       4.497  -2.284 404.690  1.00  0.00     0.053 C 
BRANCH   6   7
ATOM      7  C   UNL     1       3.312  -2.888 404.001  1.00  0.00     0.041 C 
ATOM      8  O   UNL     1       2.301  -3.235 404.666  1.00  0.00    -0.550 OA
ATOM      9  O   UNL     1       3.338  -3.098 402.629  1.00  0.00    -0.550 OA
ENDBRANCH   6   7
ENDBRANCH   5   6
ENDBRANCH   4   5
ENDBRANCH   3   4
ENDBRANCH   2   3
ENDBRANCH   1   2
BRANCH   1  10
ATOM     10  C   UNL     1       3.999   2.670 401.125  1.00  0.00     0.000 C 
BRANCH  10  11
ATOM     11  C   UNL     1       3.226   1.603 400.340  1.00  0.00    -0.000 C 
BRANCH  11  12
ATOM     12  C   UNL     1       3.579   0.193 400.835  1.00  0.00    -0.000 C 
BRANCH  12  13
ATOM     13  C   UNL     1       4.488  -0.567 399.856  1.00  0.00    -0.000 C 
BRANCH  13  14
ATOM     14  C   UNL     1       5.981  -0.406 400.189  1.00  0.00    -0.000 C 
BRANCH  14  15
ATOM     15  C   UNL     1       6.653   0.698 399.358  1.00  0.00    -0.003 C 
ATOM     16  C   UNL     1       8.178   0.668 399.458  1.00  0.00     0.004 C 
ENDBRANCH  14  15
ENDBRANCH  13  14
ENDBRANCH  12  13
ENDBRANCH  11  12
ENDBRANCH  10  11
ENDBRANCH   1  10
TORSDOF 12
ENDMDL
