MODEL 1
REMARK VINA RESULT:    -4.800      0.000      0.000
REMARK INTER + INTRA:          -9.279
REMARK INTER:                  -8.308
REMARK INTRA:                  -0.971
REMARK UNBOUND:                -0.971
REMARK SMILES CCCCCCCCCCCCCCO
REMARK SMILES IDX 8 1 7 2 6 3 5 4 4 5 3 6 2 7 1 8 9 9 10 10 11 11 12 12 13 13
REMARK SMILES IDX 14 14 15 15
REMARK H PARENT 15 16
REMARK Flexibility Score: inf
ROOT
ATOM      1  C   UNL     1     -11.110  -7.528  -5.890  1.00  0.00     0.000 C 
ENDROOT
BRANCH   1   2
ATOM      2  C   UNL     1     -12.298  -6.582  -5.641  1.00  0.00    -0.000 C 
BRANCH   2   3
ATOM      3  C   UNL     1     -11.864  -5.112  -5.508  1.00  0.00    -0.000 C 
BRANCH   3   4
ATOM      4  C   UNL     1     -12.135  -4.300  -6.786  1.00  0.00    -0.000 C 
BRANCH   4   5
ATOM      5  C   UNL     1     -10.842  -3.880  -7.504  1.00  0.00    -0.000 C 
BRANCH   5   6
ATOM      6  C   UNL     1     -10.483  -4.809  -8.673  1.00  0.00    -0.000 C 
BRANCH   6   7
ATOM      7  C   UNL     1     -11.169  -4.353  -9.966  1.00  0.00    -0.003 C 
ATOM      8  C   UNL     1     -11.510  -5.542 -10.859  1.00  0.00     0.004 C 
ENDBRANCH   6   7
ENDBRANCH   5   6
ENDBRANCH   4   5
ENDBRANCH   3   4
ENDBRANCH   2   3
ENDBRANCH   1   2
BRANCH   1   9
ATOM      9  C   UNL     1      -9.788  -6.970  -5.340  1.00  0.00     0.000 C 
BRANCH   9  10
ATOM     10  C   UNL     1      -8.791  -8.077  -4.955  1.00  0.00     0.000 C 
BRANCH  10  11
ATOM     11  C   UNL     1      -9.387  -9.490  -5.089  1.00  0.00     0.000 C 
BRANCH  11  12
ATOM     12  C   UNL     1      -8.364 -10.595  -5.410  1.00  0.00     0.002 C 
BRANCH  12  13
ATOM     13  C   UNL     1      -6.910 -10.151  -5.181  1.00  0.00     0.028 C 
BRANCH  13  14
ATOM     14  C   UNL     1      -6.013 -10.523  -6.362  1.00  0.00     0.156 C 
BRANCH  14  15
ATOM     15  O   UNL     1      -6.776 -10.627  -7.533  1.00  0.00    -0.396 OA
ATOM     16  H   UNL     1      -7.451  -9.900  -7.487  1.00  0.00     0.210 HD
ENDBRANCH  14  15
ENDBRANCH  13  14
ENDBRANCH  12  13
ENDBRANCH  11  12
ENDBRANCH  10  11
ENDBRANCH   9  10
ENDBRANCH   1   9
TORSDOF 13
ENDMDL
MODEL 2
REMARK VINA RESULT:    -4.719      2.798      6.673
REMARK INTER + INTRA:          -9.139
REMARK INTER:                  -8.053
REMARK INTRA:                  -1.086
REMARK UNBOUND:                -0.971
REMARK SMILES CCCCCCCCCCCCCCO
REMARK SMILES IDX 8 1 7 2 6 3 5 4 4 5 3 6 2 7 1 8 9 9 10 10 11 11 12 12 13 13
REMARK SMILES IDX 14 14 15 15
REMARK H PARENT 15 16
REMARK Flexibility Score: inf
ROOT
ATOM      1  C   UNL     1     -11.365  -7.715  -5.964  1.00  0.00     0.000 C 
ENDROOT
BRANCH   1   2
ATOM      2  C   UNL     1     -11.459  -9.251  -6.024  1.00  0.00    -0.000 C 
BRANCH   2   3
ATOM      3  C   UNL     1     -10.394  -9.940  -5.155  1.00  0.00    -0.000 C 
BRANCH   3   4
ATOM      4  C   UNL     1      -9.947 -11.294  -5.734  1.00  0.00    -0.000 C 
BRANCH   4   5
ATOM      5  C   UNL     1      -8.433 -11.523  -5.598  1.00  0.00    -0.000 C 
BRANCH   5   6
ATOM      6  C   UNL     1      -7.669 -10.244  -5.225  1.00  0.00    -0.000 C 
BRANCH   6   7
ATOM      7  C   UNL     1      -6.347 -10.150  -5.995  1.00  0.00    -0.003 C 
ATOM      8  C   UNL     1      -6.256 -11.230  -7.070  1.00  0.00     0.004 C 
ENDBRANCH   6   7
ENDBRANCH   5   6
ENDBRANCH   4   5
ENDBRANCH   3   4
ENDBRANCH   2   3
ENDBRANCH   1   2
BRANCH   1   9
ATOM      9  C   UNL     1      -9.973  -7.227  -5.534  1.00  0.00     0.000 C 
BRANCH   9  10
ATOM     10  C   UNL     1      -9.310  -6.322  -6.587  1.00  0.00     0.000 C 
BRANCH  10  11
ATOM     11  C   UNL     1     -10.234  -6.017  -7.780  1.00  0.00     0.000 C 
BRANCH  11  12
ATOM     12  C   UNL     1     -10.429  -4.520  -8.081  1.00  0.00     0.002 C 
BRANCH  12  13
ATOM     13  C   UNL     1     -11.839  -4.017  -7.728  1.00  0.00     0.028 C 
BRANCH  13  14
ATOM     14  C   UNL     1     -12.002  -3.803  -6.223  1.00  0.00     0.156 C 
BRANCH  14  15
ATOM     15  O   UNL     1     -11.562  -2.520  -5.869  1.00  0.00    -0.396 OA
ATOM     16  H   UNL     1     -12.364  -1.936  -5.903  1.00  0.00     0.210 HD
ENDBRANCH  14  15
ENDBRANCH  13  14
ENDBRANCH  12  13
ENDBRANCH  11  12
ENDBRANCH  10  11
ENDBRANCH   9  10
ENDBRANCH   1   9
TORSDOF 13
ENDMDL
MODEL 3
REMARK VINA RESULT:    -4.710      1.311      3.121
REMARK INTER + INTRA:          -9.123
REMARK INTER:                  -8.227
REMARK INTRA:                  -0.896
REMARK UNBOUND:                -0.971
REMARK SMILES CCCCCCCCCCCCCCO
REMARK SMILES IDX 8 1 7 2 6 3 5 4 4 5 3 6 2 7 1 8 9 9 10 10 11 11 12 12 13 13
REMARK SMILES IDX 14 14 15 15
REMARK H PARENT 15 16
REMARK Flexibility Score: inf
ROOT
ATOM      1  C   UNL     1      -9.436  -6.233  -6.577  1.00  0.00     0.000 C 
ENDROOT
BRANCH   1   2
ATOM      2  C   UNL     1     -10.274  -6.101  -7.861  1.00  0.00    -0.000 C 
BRANCH   2   3
ATOM      3  C   UNL     1     -10.663  -4.645  -8.165  1.00  0.00    -0.000 C 
BRANCH   3   4
ATOM      4  C   UNL     1     -11.113  -3.880  -6.908  1.00  0.00    -0.000 C 
BRANCH   4   5
ATOM      5  C   UNL     1     -12.625  -4.000  -6.654  1.00  0.00    -0.000 C 
BRANCH   5   6
ATOM      6  C   UNL     1     -12.989  -5.222  -5.797  1.00  0.00    -0.000 C 
BRANCH   6   7
ATOM      7  C   UNL     1     -12.410  -5.093  -4.384  1.00  0.00    -0.003 C 
ATOM      8  C   UNL     1     -13.434  -5.500  -3.328  1.00  0.00     0.004 C 
ENDBRANCH   6   7
ENDBRANCH   5   6
ENDBRANCH   4   5
ENDBRANCH   3   4
ENDBRANCH   2   3
ENDBRANCH   1   2
BRANCH   1   9
ATOM      9  C   UNL     1      -9.889  -7.410  -5.697  1.00  0.00     0.000 C 
BRANCH   9  10
ATOM     10  C   UNL     1      -8.713  -8.123  -5.008  1.00  0.00     0.000 C 
BRANCH  10  11
ATOM     11  C   UNL     1      -8.793  -9.656  -5.125  1.00  0.00     0.000 C 
BRANCH  11  12
ATOM     12  C   UNL     1      -7.437 -10.381  -5.065  1.00  0.00     0.002 C 
BRANCH  12  13
ATOM     13  C   UNL     1      -6.598 -10.191  -6.339  1.00  0.00     0.028 C 
BRANCH  13  14
ATOM     14  C   UNL     1      -6.594 -11.450  -7.206  1.00  0.00     0.156 C 
BRANCH  14  15
ATOM     15  O   UNL     1      -7.373 -12.450  -6.608  1.00  0.00    -0.396 OA
ATOM     16  H   UNL     1      -7.518 -12.160  -5.669  1.00  0.00     0.210 HD
ENDBRANCH  14  15
ENDBRANCH  13  14
ENDBRANCH  12  13
ENDBRANCH  11  12
ENDBRANCH  10  11
ENDBRANCH   9  10
ENDBRANCH   1   9
TORSDOF 13
ENDMDL
MODEL 4
REMARK VINA RESULT:    -4.690      0.904      1.779
REMARK INTER + INTRA:          -9.088
REMARK INTER:                  -8.003
REMARK INTRA:                  -1.085
REMARK UNBOUND:                -0.971
REMARK SMILES CCCCCCCCCCCCCCO
REMARK SMILES IDX 8 1 7 2 6 3 5 4 4 5 3 6 2 7 1 8 9 9 10 10 11 11 12 12 13 13
REMARK SMILES IDX 14 14 15 15
REMARK H PARENT 15 16
REMARK Flexibility Score: inf
ROOT
ATOM      1  C   UNL     1      -9.765  -7.071  -5.511  1.00  0.00     0.000 C 
ENDROOT
BRANCH   1   2
ATOM      2  C   UNL     1     -11.115  -7.567  -6.061  1.00  0.00    -0.000 C 
BRANCH   2   3
ATOM      3  C   UNL     1     -12.313  -7.005  -5.278  1.00  0.00    -0.000 C 
BRANCH   3   4
ATOM      4  C   UNL     1     -12.201  -5.490  -5.037  1.00  0.00    -0.000 C 
BRANCH   4   5
ATOM      5  C   UNL     1     -12.594  -4.664  -6.273  1.00  0.00    -0.000 C 
BRANCH   5   6
ATOM      6  C   UNL     1     -11.412  -3.883  -6.867  1.00  0.00    -0.000 C 
BRANCH   6   7
ATOM      7  C   UNL     1     -11.413  -3.967  -8.397  1.00  0.00    -0.003 C 
ATOM      8  C   UNL     1     -10.403  -4.998  -8.894  1.00  0.00     0.004 C 
ENDBRANCH   6   7
ENDBRANCH   5   6
ENDBRANCH   4   5
ENDBRANCH   3   4
ENDBRANCH   2   3
ENDBRANCH   1   2
BRANCH   1   9
ATOM      9  C   UNL     1      -8.941  -8.199  -4.870  1.00  0.00     0.000 C 
BRANCH   9  10
ATOM     10  C   UNL     1      -9.574  -9.586  -5.071  1.00  0.00     0.000 C 
BRANCH  10  11
ATOM     11  C   UNL     1      -8.529 -10.691  -5.307  1.00  0.00     0.000 C 
BRANCH  11  12
ATOM     12  C   UNL     1      -7.064 -10.233  -5.184  1.00  0.00     0.002 C 
BRANCH  12  13
ATOM     13  C   UNL     1      -6.283 -10.363  -6.502  1.00  0.00     0.028 C 
BRANCH  13  14
ATOM     14  C   UNL     1      -6.629 -11.658  -7.237  1.00  0.00     0.156 C 
BRANCH  14  15
ATOM     15  O   UNL     1      -6.350 -11.526  -8.604  1.00  0.00    -0.396 OA
ATOM     16  H   UNL     1      -5.579 -10.904  -8.668  1.00  0.00     0.210 HD
ENDBRANCH  14  15
ENDBRANCH  13  14
ENDBRANCH  12  13
ENDBRANCH  11  12
ENDBRANCH  10  11
ENDBRANCH   9  10
ENDBRANCH   1   9
TORSDOF 13
ENDMDL
MODEL 5
REMARK VINA RESULT:    -4.595      2.365      6.423
REMARK INTER + INTRA:          -8.923
REMARK INTER:                  -7.822
REMARK INTRA:                  -1.101
REMARK UNBOUND:                -0.971
REMARK SMILES CCCCCCCCCCCCCCO
REMARK SMILES IDX 8 1 7 2 6 3 5 4 4 5 3 6 2 7 1 8 9 9 10 10 11 11 12 12 13 13
REMARK SMILES IDX 14 14 15 15
REMARK H PARENT 15 16
REMARK Flexibility Score: inf
ROOT
ATOM      1  C   UNL     1     -12.542  -7.134  -5.510  1.00  0.00     0.000 C 
ENDROOT
BRANCH   1   2
ATOM      2  C   UNL     1     -11.262  -7.884  -5.919  1.00  0.00    -0.000 C 
BRANCH   2   3
ATOM      3  C   UNL     1      -9.983  -7.150  -5.484  1.00  0.00    -0.000 C 
BRANCH   3   4
ATOM      4  C   UNL     1      -8.858  -8.117  -5.076  1.00  0.00    -0.000 C 
BRANCH   4   5
ATOM      5  C   UNL     1      -9.344  -9.571  -4.955  1.00  0.00    -0.000 C 
BRANCH   5   6
ATOM      6  C   UNL     1      -8.338 -10.584  -5.521  1.00  0.00    -0.000 C 
BRANCH   6   7
ATOM      7  C   UNL     1      -6.905 -10.214  -5.122  1.00  0.00    -0.003 C 
ATOM      8  C   UNL     1      -5.952 -10.341  -6.308  1.00  0.00     0.004 C 
ENDBRANCH   6   7
ENDBRANCH   5   6
ENDBRANCH   4   5
ENDBRANCH   3   4
ENDBRANCH   2   3
ENDBRANCH   1   2
BRANCH   1   9
ATOM      9  C   UNL     1     -12.260  -5.688  -5.067  1.00  0.00     0.000 C 
BRANCH   9  10
ATOM     10  C   UNL     1     -12.671  -4.652  -6.127  1.00  0.00     0.000 C 
BRANCH  10  11
ATOM     11  C   UNL     1     -11.575  -3.603  -6.391  1.00  0.00     0.000 C 
BRANCH  11  12
ATOM     12  C   UNL     1     -10.732  -3.854  -7.655  1.00  0.00     0.002 C 
BRANCH  12  13
ATOM     13  C   UNL     1     -11.292  -4.984  -8.534  1.00  0.00     0.028 C 
BRANCH  13  14
ATOM     14  C   UNL     1     -10.849  -4.839  -9.990  1.00  0.00     0.156 C 
BRANCH  14  15
ATOM     15  O   UNL     1     -11.586  -3.827 -10.619  1.00  0.00    -0.396 OA
ATOM     16  H   UNL     1     -12.196  -3.460  -9.927  1.00  0.00     0.210 HD
ENDBRANCH  14  15
ENDBRANCH  13  14
ENDBRANCH  12  13
ENDBRANCH  11  12
ENDBRANCH  10  11
ENDBRANCH   9  10
ENDBRANCH   1   9
TORSDOF 13
ENDMDL
MODEL 6
REMARK VINA RESULT:    -4.593      1.750      6.770
REMARK INTER + INTRA:          -8.921
REMARK INTER:                  -8.163
REMARK INTRA:                  -0.758
REMARK UNBOUND:                -0.971
REMARK SMILES CCCCCCCCCCCCCCO
REMARK SMILES IDX 8 1 7 2 6 3 5 4 4 5 3 6 2 7 1 8 9 9 10 10 11 11 12 12 13 13
REMARK SMILES IDX 14 14 15 15
REMARK H PARENT 15 16
REMARK Flexibility Score: inf
ROOT
ATOM      1  C   UNL     1      -9.264  -7.295  -5.621  1.00  0.00     0.000 C 
ENDROOT
BRANCH   1   2
ATOM      2  C   UNL     1      -8.822  -8.458  -4.716  1.00  0.00    -0.000 C 
BRANCH   2   3
ATOM      3  C   UNL     1      -9.454  -9.799  -5.128  1.00  0.00    -0.000 C 
BRANCH   3   4
ATOM      4  C   UNL     1      -8.402 -10.886  -5.403  1.00  0.00    -0.000 C 
BRANCH   4   5
ATOM      5  C   UNL     1      -6.966 -10.399  -5.143  1.00  0.00    -0.000 C 
BRANCH   5   6
ATOM      6  C   UNL     1      -6.176 -10.158  -6.438  1.00  0.00    -0.000 C 
BRANCH   6   7
ATOM      7  C   UNL     1      -5.203 -11.312  -6.709  1.00  0.00    -0.003 C 
ATOM      8  C   UNL     1      -3.857 -11.069  -6.032  1.00  0.00     0.004 C 
ENDBRANCH   6   7
ENDBRANCH   5   6
ENDBRANCH   4   5
ENDBRANCH   3   4
ENDBRANCH   2   3
ENDBRANCH   1   2
BRANCH   1   9
ATOM      9  C   UNL     1     -10.773  -7.016  -5.526  1.00  0.00     0.000 C 
BRANCH   9  10
ATOM     10  C   UNL     1     -11.088  -5.535  -5.251  1.00  0.00     0.000 C 
BRANCH  10  11
ATOM     11  C   UNL     1     -12.400  -5.072  -5.910  1.00  0.00     0.000 C 
BRANCH  11  12
ATOM     12  C   UNL     1     -12.226  -4.045  -7.044  1.00  0.00     0.002 C 
BRANCH  12  13
ATOM     13  C   UNL     1     -10.776  -3.946  -7.545  1.00  0.00     0.028 C 
BRANCH  13  14
ATOM     14  C   UNL     1     -10.599  -4.629  -8.901  1.00  0.00     0.156 C 
BRANCH  14  15
ATOM     15  O   UNL     1      -9.795  -5.769  -8.766  1.00  0.00    -0.396 OA
ATOM     16  H   UNL     1      -8.927  -5.545  -9.195  1.00  0.00     0.210 HD
ENDBRANCH  14  15
ENDBRANCH  13  14
ENDBRANCH  12  13
ENDBRANCH  11  12
ENDBRANCH  10  11
ENDBRANCH   9  10
ENDBRANCH   1   9
TORSDOF 13
ENDMDL
MODEL 7
REMARK VINA RESULT:    -4.566      2.853      7.105
REMARK INTER + INTRA:          -8.874
REMARK INTER:                  -8.135
REMARK INTRA:                  -0.739
REMARK UNBOUND:                -0.971
REMARK SMILES CCCCCCCCCCCCCCO
REMARK SMILES IDX 8 1 7 2 6 3 5 4 4 5 3 6 2 7 1 8 9 9 10 10 11 11 12 12 13 13
REMARK SMILES IDX 14 14 15 15
REMARK H PARENT 15 16
REMARK Flexibility Score: inf
ROOT
ATOM      1  C   UNL     1      -9.666  -6.595  -5.372  1.00  0.00     0.000 C 
ENDROOT
BRANCH   1   2
ATOM      2  C   UNL     1      -9.806  -8.117  -5.189  1.00  0.00    -0.000 C 
BRANCH   2   3
ATOM      3  C   UNL     1      -8.446  -8.833  -5.142  1.00  0.00    -0.000 C 
BRANCH   3   4
ATOM      4  C   UNL     1      -8.585 -10.365  -5.172  1.00  0.00    -0.000 C 
BRANCH   4   5
ATOM      5  C   UNL     1      -7.460 -11.045  -5.970  1.00  0.00    -0.000 C 
BRANCH   5   6
ATOM      6  C   UNL     1      -6.314 -10.084  -6.317  1.00  0.00    -0.000 C 
BRANCH   6   7
ATOM      7  C   UNL     1      -4.954 -10.775  -6.161  1.00  0.00    -0.003 C 
ATOM      8  C   UNL     1      -4.809 -11.937  -7.139  1.00  0.00     0.004 C 
ENDBRANCH   6   7
ENDBRANCH   5   6
ENDBRANCH   4   5
ENDBRANCH   3   4
ENDBRANCH   2   3
ENDBRANCH   1   2
BRANCH   1   9
ATOM      9  C   UNL     1      -9.283  -6.208  -6.810  1.00  0.00     0.000 C 
BRANCH   9  10
ATOM     10  C   UNL     1     -10.418  -6.464  -7.816  1.00  0.00     0.000 C 
BRANCH  10  11
ATOM     11  C   UNL     1     -10.562  -5.336  -8.853  1.00  0.00     0.000 C 
BRANCH  11  12
ATOM     12  C   UNL     1     -10.728  -3.926  -8.256  1.00  0.00     0.002 C 
BRANCH  12  13
ATOM     13  C   UNL     1     -12.024  -3.769  -7.443  1.00  0.00     0.028 C 
BRANCH  13  14
ATOM     14  C   UNL     1     -11.735  -3.517  -5.963  1.00  0.00     0.156 C 
BRANCH  14  15
ATOM     15  O   UNL     1     -11.421  -2.167  -5.756  1.00  0.00    -0.396 OA
ATOM     16  H   UNL     1     -10.498  -2.044  -6.101  1.00  0.00     0.210 HD
ENDBRANCH  14  15
ENDBRANCH  13  14
ENDBRANCH  12  13
ENDBRANCH  11  12
ENDBRANCH  10  11
ENDBRANCH   9  10
ENDBRANCH   1   9
TORSDOF 13
ENDMDL
MODEL 8
REMARK VINA RESULT:    -4.423      1.286      2.290
REMARK INTER + INTRA:          -8.626
REMARK INTER:                  -8.035
REMARK INTRA:                  -0.591
REMARK UNBOUND:                -0.971
REMARK SMILES CCCCCCCCCCCCCCO
REMARK SMILES IDX 8 1 7 2 6 3 5 4 4 5 3 6 2 7 1 8 9 9 10 10 11 11 12 12 13 13
REMARK SMILES IDX 14 14 15 15
REMARK H PARENT 15 16
REMARK Flexibility Score: inf
ROOT
ATOM      1  C   UNL     1      -8.931  -8.267  -5.023  1.00  0.00     0.000 C 
ENDROOT
BRANCH   1   2
ATOM      2  C   UNL     1      -9.946  -7.215  -5.505  1.00  0.00    -0.000 C 
BRANCH   2   3
ATOM      3  C   UNL     1      -9.298  -6.123  -6.371  1.00  0.00    -0.000 C 
BRANCH   3   4
ATOM      4  C   UNL     1      -9.766  -6.177  -7.836  1.00  0.00    -0.000 C 
BRANCH   4   5
ATOM      5  C   UNL     1     -11.075  -5.404  -8.067  1.00  0.00    -0.000 C 
BRANCH   5   6
ATOM      6  C   UNL     1     -10.853  -3.892  -8.219  1.00  0.00    -0.000 C 
BRANCH   6   7
ATOM      7  C   UNL     1     -11.336  -3.403  -9.590  1.00  0.00    -0.003 C 
ATOM      8  C   UNL     1     -11.351  -4.539 -10.608  1.00  0.00     0.004 C 
ENDBRANCH   6   7
ENDBRANCH   5   6
ENDBRANCH   4   5
ENDBRANCH   3   4
ENDBRANCH   2   3
ENDBRANCH   1   2
BRANCH   1   9
ATOM      9  C   UNL     1      -9.455  -9.704  -5.176  1.00  0.00     0.000 C 
BRANCH   9  10
ATOM     10  C   UNL     1      -8.324 -10.747  -5.224  1.00  0.00     0.000 C 
BRANCH  10  11
ATOM     11  C   UNL     1      -6.924 -10.109  -5.204  1.00  0.00     0.000 C 
BRANCH  11  12
ATOM     12  C   UNL     1      -6.177 -10.145  -6.550  1.00  0.00     0.002 C 
BRANCH  12  13
ATOM     13  C   UNL     1      -5.079 -11.220  -6.597  1.00  0.00     0.028 C 
BRANCH  13  14
ATOM     14  C   UNL     1      -5.321 -12.227  -7.721  1.00  0.00     0.156 C 
BRANCH  14  15
ATOM     15  O   UNL     1      -6.435 -11.844  -8.480  1.00  0.00    -0.396 OA
ATOM     16  H   UNL     1      -6.589 -12.576  -9.132  1.00  0.00     0.210 HD
ENDBRANCH  14  15
ENDBRANCH  13  14
ENDBRANCH  12  13
ENDBRANCH  11  12
ENDBRANCH  10  11
ENDBRANCH   9  10
ENDBRANCH   1   9
TORSDOF 13
ENDMDL
MODEL 9
REMARK VINA RESULT:    -4.377      1.745      2.411
REMARK INTER + INTRA:          -8.547
REMARK INTER:                  -7.407
REMARK INTRA:                  -1.141
REMARK UNBOUND:                -0.971
REMARK SMILES CCCCCCCCCCCCCCO
REMARK SMILES IDX 8 1 7 2 6 3 5 4 4 5 3 6 2 7 1 8 9 9 10 10 11 11 12 12 13 13
REMARK SMILES IDX 14 14 15 15
REMARK H PARENT 15 16
REMARK Flexibility Score: inf
ROOT
ATOM      1  C   UNL     1     -10.068  -6.548  -5.364  1.00  0.00     0.000 C 
ENDROOT
BRANCH   1   2
ATOM      2  C   UNL     1     -11.440  -7.223  -5.537  1.00  0.00    -0.000 C 
BRANCH   2   3
ATOM      3  C   UNL     1     -12.598  -6.211  -5.547  1.00  0.00    -0.000 C 
BRANCH   3   4
ATOM      4  C   UNL     1     -12.113  -4.758  -5.410  1.00  0.00    -0.000 C 
BRANCH   4   5
ATOM      5  C   UNL     1     -12.318  -3.943  -6.698  1.00  0.00    -0.000 C 
BRANCH   5   6
ATOM      6  C   UNL     1     -11.002  -3.655  -7.436  1.00  0.00    -0.000 C 
BRANCH   6   7
ATOM      7  C   UNL     1     -11.046  -4.201  -8.867  1.00  0.00    -0.003 C 
ATOM      8  C   UNL     1     -10.633  -5.669  -8.911  1.00  0.00     0.004 C 
ENDBRANCH   6   7
ENDBRANCH   5   6
ENDBRANCH   4   5
ENDBRANCH   3   4
ENDBRANCH   2   3
ENDBRANCH   1   2
BRANCH   1   9
ATOM      9  C   UNL     1      -8.902  -7.491  -5.700  1.00  0.00     0.000 C 
BRANCH   9  10
ATOM     10  C   UNL     1      -8.841  -8.716  -4.772  1.00  0.00     0.000 C 
BRANCH  10  11
ATOM     11  C   UNL     1      -7.746  -9.719  -5.178  1.00  0.00     0.000 C 
BRANCH  11  12
ATOM     12  C   UNL     1      -8.259 -11.126  -5.537  1.00  0.00     0.002 C 
BRANCH  12  13
ATOM     13  C   UNL     1      -9.785 -11.258  -5.406  1.00  0.00     0.028 C 
BRANCH  13  14
ATOM     14  C   UNL     1     -10.202 -12.695  -5.093  1.00  0.00     0.156 C 
BRANCH  14  15
ATOM     15  O   UNL     1      -9.948 -12.989  -3.746  1.00  0.00    -0.396 OA
ATOM     16  H   UNL     1     -10.599 -12.455  -3.221  1.00  0.00     0.210 HD
ENDBRANCH  14  15
ENDBRANCH  13  14
ENDBRANCH  12  13
ENDBRANCH  11  12
ENDBRANCH  10  11
ENDBRANCH   9  10
ENDBRANCH   1   9
TORSDOF 13
ENDMDL
