MODEL 1
REMARK VINA RESULT:    -3.507      0.000      0.000
REMARK INTER + INTRA:          -7.106
REMARK INTER:                  -5.353
REMARK INTRA:                  -1.753
REMARK UNBOUND:                -1.753
REMARK SMILES CC(=O)CCC=C(C)CCC=C(C)CCC=C(C)C
REMARK SMILES IDX 10 1 11 2 12 3 13 4 14 5 15 6 16 7 18 8 17 9 19 10 9 11 7 12
REMARK SMILES IDX 6 13 8 14 5 15 4 16 2 17 3 18 1 19
REMARK H PARENT
REMARK Flexibility Score: inf
ROOT
ATOM      1  C   UNL     1      64.096  16.119   2.412  1.00  0.00     0.032 C 
ENDROOT
BRANCH   1   2
ATOM      2  C   UNL     1      63.411  17.332   2.989  1.00  0.00    -0.028 C 
ATOM      3  C   UNL     1      62.086  17.406   3.254  1.00  0.00    -0.077 C 
ATOM      4  C   UNL     1      61.161  16.231   3.036  1.00  0.00     0.039 C 
BRANCH   3   5
ATOM      5  C   UNL     1      61.518  18.698   3.799  1.00  0.00     0.034 C 
BRANCH   5   6
ATOM      6  C   UNL     1      61.322  19.723   2.677  1.00  0.00     0.032 C 
BRANCH   6   7
ATOM      7  C   UNL     1      59.932  19.623   2.102  1.00  0.00    -0.028 C 
ATOM      8  C   UNL     1      58.189  18.965   0.501  1.00  0.00     0.039 C 
ATOM      9  C   UNL     1      59.633  19.031   0.925  1.00  0.00    -0.080 C 
ATOM     10  C   UNL     1      60.700  18.451   0.028  1.00  0.00     0.039 C 
ENDBRANCH   6   7
ENDBRANCH   5   6
ENDBRANCH   3   5
ENDBRANCH   1   2
BRANCH   1  11
ATOM     11  C   UNL     1      65.145  16.528   1.371  1.00  0.00     0.034 C 
BRANCH  11  12
ATOM     12  C   UNL     1      64.597  16.384  -0.032  1.00  0.00    -0.077 C 
ATOM     13  C   UNL     1      63.418  15.747  -0.210  1.00  0.00    -0.028 C 
ATOM     14  C   UNL     1      65.363  16.982  -1.188  1.00  0.00     0.039 C 
BRANCH  13  15
ATOM     15  C   UNL     1      62.775  15.499  -1.552  1.00  0.00     0.035 C 
BRANCH  15  16
ATOM     16  C   UNL     1      63.237  14.160  -2.135  1.00  0.00     0.079 C 
BRANCH  16  17
ATOM     17  C   UNL     1      62.353  13.037  -1.658  1.00  0.00     0.130 C 
ATOM     18  O   UNL     1      62.814  11.909  -1.563  1.00  0.00    -0.300 OA
ATOM     19  C   UNL     1      60.920  13.273  -1.286  1.00  0.00     0.087 C 
ENDBRANCH  16  17
ENDBRANCH  15  16
ENDBRANCH  13  15
ENDBRANCH  11  12
ENDBRANCH   1  11
TORSDOF 9
ENDMDL
MODEL 2
REMARK VINA RESULT:    -3.502      1.757      2.832
REMARK INTER + INTRA:          -7.098
REMARK INTER:                  -4.627
REMARK INTRA:                  -2.470
REMARK UNBOUND:                -1.753
REMARK SMILES CC(=O)CCC=C(C)CCC=C(C)CCC=C(C)C
REMARK SMILES IDX 10 1 11 2 12 3 13 4 14 5 15 6 16 7 18 8 17 9 19 10 9 11 7 12
REMARK SMILES IDX 6 13 8 14 5 15 4 16 2 17 3 18 1 19
REMARK H PARENT
REMARK Flexibility Score: inf
ROOT
ATOM      1  C   UNL     1      64.942  15.763   0.410  1.00  0.00     0.032 C 
ENDROOT
BRANCH   1   2
ATOM      2  C   UNL     1      64.022  16.350   1.451  1.00  0.00    -0.028 C 
ATOM      3  C   UNL     1      63.398  15.630   2.412  1.00  0.00    -0.077 C 
ATOM      4  C   UNL     1      63.614  14.141   2.562  1.00  0.00     0.039 C 
BRANCH   3   5
ATOM      5  C   UNL     1      62.471  16.338   3.374  1.00  0.00     0.034 C 
BRANCH   5   6
ATOM      6  C   UNL     1      61.323  17.020   2.622  1.00  0.00     0.032 C 
BRANCH   6   7
ATOM      7  C   UNL     1      60.577  16.022   1.772  1.00  0.00    -0.028 C 
ATOM      8  C   UNL     1      59.713  15.007  -0.291  1.00  0.00     0.039 C 
ATOM      9  C   UNL     1      60.448  16.107   0.431  1.00  0.00    -0.080 C 
ATOM     10  C   UNL     1      61.005  17.270  -0.354  1.00  0.00     0.039 C 
ENDBRANCH   6   7
ENDBRANCH   5   6
ENDBRANCH   3   5
ENDBRANCH   1   2
BRANCH   1  11
ATOM     11  C   UNL     1      64.547  16.233  -0.995  1.00  0.00     0.034 C 
BRANCH  11  12
ATOM     12  C   UNL     1      63.712  15.186  -1.699  1.00  0.00    -0.077 C 
ATOM     13  C   UNL     1      63.329  14.086  -1.012  1.00  0.00    -0.028 C 
ATOM     14  C   UNL     1      63.306  15.411  -3.137  1.00  0.00     0.039 C 
BRANCH  13  15
ATOM     15  C   UNL     1      62.531  12.948  -1.598  1.00  0.00     0.035 C 
BRANCH  15  16
ATOM     16  C   UNL     1      62.041  12.005  -0.494  1.00  0.00     0.079 C 
BRANCH  16  17
ATOM     17  C   UNL     1      62.955  10.815  -0.366  1.00  0.00     0.130 C 
ATOM     18  O   UNL     1      63.305  10.215  -1.372  1.00  0.00    -0.300 OA
ATOM     19  C   UNL     1      63.456  10.353   0.969  1.00  0.00     0.087 C 
ENDBRANCH  16  17
ENDBRANCH  15  16
ENDBRANCH  13  15
ENDBRANCH  11  12
ENDBRANCH   1  11
TORSDOF 9
ENDMDL
MODEL 3
REMARK VINA RESULT:    -3.477      2.524      5.738
REMARK INTER + INTRA:          -7.060
REMARK INTER:                  -4.662
REMARK INTRA:                  -2.398
REMARK UNBOUND:                -1.753
REMARK SMILES CC(=O)CCC=C(C)CCC=C(C)CCC=C(C)C
REMARK SMILES IDX 10 1 11 2 12 3 13 4 14 5 15 6 16 7 18 8 17 9 19 10 9 11 7 12
REMARK SMILES IDX 6 13 8 14 5 15 4 16 2 17 3 18 1 19
REMARK H PARENT
REMARK Flexibility Score: inf
ROOT
ATOM      1  C   UNL     1      62.293  13.459  -2.217  1.00  0.00     0.032 C 
ENDROOT
BRANCH   1   2
ATOM      2  C   UNL     1      62.785  12.578  -1.097  1.00  0.00    -0.028 C 
ATOM      3  C   UNL     1      62.053  12.248  -0.007  1.00  0.00    -0.077 C 
ATOM      4  C   UNL     1      60.622  12.706   0.163  1.00  0.00     0.039 C 
BRANCH   3   5
ATOM      5  C   UNL     1      62.680  11.383   1.063  1.00  0.00     0.034 C 
BRANCH   5   6
ATOM      6  C   UNL     1      62.641  12.087   2.424  1.00  0.00     0.032 C 
BRANCH   6   7
ATOM      7  C   UNL     1      63.532  13.303   2.419  1.00  0.00    -0.028 C 
ATOM      8  C   UNL     1      64.138  15.664   2.723  1.00  0.00     0.039 C 
ATOM      9  C   UNL     1      63.121  14.552   2.724  1.00  0.00    -0.080 C 
ATOM     10  C   UNL     1      61.679  14.862   3.050  1.00  0.00     0.039 C 
ENDBRANCH   6   7
ENDBRANCH   5   6
ENDBRANCH   3   5
ENDBRANCH   1   2
BRANCH   1  11
ATOM     11  C   UNL     1      63.280  14.600  -2.488  1.00  0.00     0.034 C 
BRANCH  11  12
ATOM     12  C   UNL     1      63.204  15.650  -1.401  1.00  0.00    -0.077 C 
ATOM     13  C   UNL     1      61.990  16.017  -0.932  1.00  0.00    -0.028 C 
ATOM     14  C   UNL     1      64.483  16.235  -0.849  1.00  0.00     0.039 C 
BRANCH  13  15
ATOM     15  C   UNL     1      61.764  17.075   0.119  1.00  0.00     0.035 C 
BRANCH  15  16
ATOM     16  C   UNL     1      60.271  17.225   0.424  1.00  0.00     0.079 C 
BRANCH  16  17
ATOM     17  C   UNL     1      59.833  18.656   0.253  1.00  0.00     0.130 C 
ATOM     18  O   UNL     1      60.596  19.461  -0.260  1.00  0.00    -0.300 OA
ATOM     19  C   UNL     1      58.475  19.116   0.690  1.00  0.00     0.087 C 
ENDBRANCH  16  17
ENDBRANCH  15  16
ENDBRANCH  13  15
ENDBRANCH  11  12
ENDBRANCH   1  11
TORSDOF 9
ENDMDL
MODEL 4
REMARK VINA RESULT:    -3.473      3.238      7.327
REMARK INTER + INTRA:          -7.053
REMARK INTER:                  -5.844
REMARK INTRA:                  -1.209
REMARK UNBOUND:                -1.753
REMARK SMILES CC(=O)CCC=C(C)CCC=C(C)CCC=C(C)C
REMARK SMILES IDX 10 1 11 2 12 3 13 4 14 5 15 6 16 7 18 8 17 9 19 10 9 11 7 12
REMARK SMILES IDX 6 13 8 14 5 15 4 16 2 17 3 18 1 19
REMARK H PARENT
REMARK Flexibility Score: inf
ROOT
ATOM      1  C   UNL     1      60.823  17.405   0.290  1.00  0.00     0.032 C 
ENDROOT
BRANCH   1   2
ATOM      2  C   UNL     1      61.313  16.569  -0.865  1.00  0.00    -0.028 C 
ATOM      3  C   UNL     1      62.552  16.030  -0.945  1.00  0.00    -0.077 C 
ATOM      4  C   UNL     1      63.562  16.180   0.169  1.00  0.00     0.039 C 
BRANCH   3   5
ATOM      5  C   UNL     1      62.930  15.240  -2.178  1.00  0.00     0.034 C 
BRANCH   5   6
ATOM      6  C   UNL     1      63.085  13.752  -1.845  1.00  0.00     0.032 C 
BRANCH   6   7
ATOM      7  C   UNL     1      61.803  13.008  -2.122  1.00  0.00    -0.028 C 
ATOM      8  C   UNL     1      59.650  11.943  -1.609  1.00  0.00     0.039 C 
ATOM      9  C   UNL     1      60.913  12.641  -1.175  1.00  0.00    -0.080 C 
ATOM     10  C   UNL     1      61.155  12.899   0.293  1.00  0.00     0.039 C 
ENDBRANCH   6   7
ENDBRANCH   5   6
ENDBRANCH   3   5
ENDBRANCH   1   2
BRANCH   1  11
ATOM     11  C   UNL     1      60.475  18.825  -0.172  1.00  0.00     0.034 C 
BRANCH  11  12
ATOM     12  C   UNL     1      59.821  19.611   0.943  1.00  0.00    -0.077 C 
ATOM     13  C   UNL     1      58.540  19.332   1.274  1.00  0.00    -0.028 C 
ATOM     14  C   UNL     1      60.623  20.661   1.674  1.00  0.00     0.039 C 
BRANCH  13  15
ATOM     15  C   UNL     1      57.754  20.060   2.336  1.00  0.00     0.035 C 
BRANCH  15  16
ATOM     16  C   UNL     1      56.450  20.619   1.757  1.00  0.00     0.079 C 
BRANCH  16  17
ATOM     17  C   UNL     1      55.296  19.699   2.057  1.00  0.00     0.130 C 
ATOM     18  O   UNL     1      54.391  19.587   1.244  1.00  0.00    -0.300 OA
ATOM     19  C   UNL     1      55.237  18.908   3.328  1.00  0.00     0.087 C 
ENDBRANCH  16  17
ENDBRANCH  15  16
ENDBRANCH  13  15
ENDBRANCH  11  12
ENDBRANCH   1  11
TORSDOF 9
ENDMDL
MODEL 5
REMARK VINA RESULT:    -3.466     12.725     15.084
REMARK INTER + INTRA:          -7.043
REMARK INTER:                  -5.707
REMARK INTRA:                  -1.335
REMARK UNBOUND:                -1.753
REMARK SMILES CC(=O)CCC=C(C)CCC=C(C)CCC=C(C)C
REMARK SMILES IDX 10 1 11 2 12 3 13 4 14 5 15 6 16 7 18 8 17 9 19 10 9 11 7 12
REMARK SMILES IDX 6 13 8 14 5 15 4 16 2 17 3 18 1 19
REMARK H PARENT
REMARK Flexibility Score: inf
ROOT
ATOM      1  C   UNL     1      56.663   7.698   6.132  1.00  0.00     0.032 C 
ENDROOT
BRANCH   1   2
ATOM      2  C   UNL     1      56.736   7.312   7.587  1.00  0.00    -0.028 C 
ATOM      3  C   UNL     1      57.109   6.091   8.036  1.00  0.00    -0.077 C 
ATOM      4  C   UNL     1      57.547   4.993   7.094  1.00  0.00     0.039 C 
BRANCH   3   5
ATOM      5  C   UNL     1      57.104   5.823   9.525  1.00  0.00     0.034 C 
BRANCH   5   6
ATOM      6  C   UNL     1      58.493   6.065  10.126  1.00  0.00     0.032 C 
BRANCH   6   7
ATOM      7  C   UNL     1      58.865   4.951  11.071  1.00  0.00    -0.028 C 
ATOM      8  C   UNL     1      60.065   2.956  11.855  1.00  0.00     0.039 C 
ATOM      9  C   UNL     1      59.759   3.979  10.791  1.00  0.00    -0.080 C 
ATOM     10  C   UNL     1      60.443   3.884   9.448  1.00  0.00     0.039 C 
ENDBRANCH   6   7
ENDBRANCH   5   6
ENDBRANCH   3   5
ENDBRANCH   1   2
BRANCH   1  11
ATOM     11  C   UNL     1      55.259   8.192   5.767  1.00  0.00     0.034 C 
BRANCH  11  12
ATOM     12  C   UNL     1      54.542   7.186   4.893  1.00  0.00    -0.077 C 
ATOM     13  C   UNL     1      54.505   5.892   5.284  1.00  0.00    -0.028 C 
ATOM     14  C   UNL     1      53.864   7.658   3.628  1.00  0.00     0.039 C 
BRANCH  13  15
ATOM     15  C   UNL     1      53.861   4.780   4.495  1.00  0.00     0.035 C 
BRANCH  15  16
ATOM     16  C   UNL     1      54.925   3.883   3.855  1.00  0.00     0.079 C 
BRANCH  16  17
ATOM     17  C   UNL     1      54.759   2.455   4.304  1.00  0.00     0.130 C 
ATOM     18  O   UNL     1      53.667   1.915   4.199  1.00  0.00    -0.300 OA
ATOM     19  C   UNL     1      55.906   1.674   4.870  1.00  0.00     0.087 C 
ENDBRANCH  16  17
ENDBRANCH  15  16
ENDBRANCH  13  15
ENDBRANCH  11  12
ENDBRANCH   1  11
TORSDOF 9
ENDMDL
MODEL 6
REMARK VINA RESULT:    -3.426      2.996      5.821
REMARK INTER + INTRA:          -6.982
REMARK INTER:                  -4.993
REMARK INTRA:                  -1.989
REMARK UNBOUND:                -1.753
REMARK SMILES CC(=O)CCC=C(C)CCC=C(C)CCC=C(C)C
REMARK SMILES IDX 10 1 11 2 12 3 13 4 14 5 15 6 16 7 18 8 17 9 19 10 9 11 7 12
REMARK SMILES IDX 6 13 8 14 5 15 4 16 2 17 3 18 1 19
REMARK H PARENT
REMARK Flexibility Score: inf
ROOT
ATOM      1  C   UNL     1      62.905  13.695  -1.859  1.00  0.00     0.032 C 
ENDROOT
BRANCH   1   2
ATOM      2  C   UNL     1      61.527  13.097  -1.721  1.00  0.00    -0.028 C 
ATOM      3  C   UNL     1      60.959  12.750  -0.543  1.00  0.00    -0.077 C 
ATOM      4  C   UNL     1      61.655  12.984   0.778  1.00  0.00     0.039 C 
BRANCH   3   5
ATOM      5  C   UNL     1      59.582  12.126  -0.548  1.00  0.00     0.034 C 
BRANCH   5   6
ATOM      6  C   UNL     1      58.567  13.052  -1.228  1.00  0.00     0.032 C 
BRANCH   6   7
ATOM      7  C   UNL     1      58.530  14.395  -0.544  1.00  0.00    -0.028 C 
ATOM      8  C   UNL     1      57.694  16.140   0.969  1.00  0.00     0.039 C 
ATOM      9  C   UNL     1      57.573  14.782   0.326  1.00  0.00    -0.080 C 
ATOM     10  C   UNL     1      56.391  13.903   0.659  1.00  0.00     0.039 C 
ENDBRANCH   6   7
ENDBRANCH   5   6
ENDBRANCH   3   5
ENDBRANCH   1   2
BRANCH   1  11
ATOM     11  C   UNL     1      62.821  15.185  -2.206  1.00  0.00     0.034 C 
BRANCH  11  12
ATOM     12  C   UNL     1      62.597  16.017  -0.962  1.00  0.00    -0.077 C 
ATOM     13  C   UNL     1      61.416  16.660  -0.811  1.00  0.00    -0.028 C 
ATOM     14  C   UNL     1      63.681  16.083   0.088  1.00  0.00     0.039 C 
BRANCH  13  15
ATOM     15  C   UNL     1      61.072  17.551   0.356  1.00  0.00     0.035 C 
BRANCH  15  16
ATOM     16  C   UNL     1      60.403  18.842  -0.127  1.00  0.00     0.079 C 
BRANCH  16  17
ATOM     17  C   UNL     1      60.175  19.787   1.024  1.00  0.00     0.130 C 
ATOM     18  O   UNL     1      60.871  20.785   1.130  1.00  0.00    -0.300 OA
ATOM     19  C   UNL     1      59.102  19.536   2.041  1.00  0.00     0.087 C 
ENDBRANCH  16  17
ENDBRANCH  15  16
ENDBRANCH  13  15
ENDBRANCH  11  12
ENDBRANCH   1  11
TORSDOF 9
ENDMDL
MODEL 7
REMARK VINA RESULT:    -3.286      2.572      5.178
REMARK INTER + INTRA:          -6.768
REMARK INTER:                  -4.338
REMARK INTRA:                  -2.431
REMARK UNBOUND:                -1.753
REMARK SMILES CC(=O)CCC=C(C)CCC=C(C)CCC=C(C)C
REMARK SMILES IDX 10 1 11 2 12 3 13 4 14 5 15 6 16 7 18 8 17 9 19 10 9 11 7 12
REMARK SMILES IDX 6 13 8 14 5 15 4 16 2 17 3 18 1 19
REMARK H PARENT
REMARK Flexibility Score: inf
ROOT
ATOM      1  C   UNL     1      65.017  16.445   0.951  1.00  0.00     0.032 C 
ENDROOT
BRANCH   1   2
ATOM      2  C   UNL     1      65.088  15.116   1.661  1.00  0.00    -0.028 C 
ATOM      3  C   UNL     1      64.224  14.717   2.623  1.00  0.00    -0.077 C 
ATOM      4  C   UNL     1      63.050  15.570   3.046  1.00  0.00     0.039 C 
BRANCH   3   5
ATOM      5  C   UNL     1      64.430  13.371   3.281  1.00  0.00     0.034 C 
BRANCH   5   6
ATOM      6  C   UNL     1      63.294  12.408   2.917  1.00  0.00     0.032 C 
BRANCH   6   7
ATOM      7  C   UNL     1      63.261  12.163   1.429  1.00  0.00    -0.028 C 
ATOM      8  C   UNL     1      62.352  12.219  -0.852  1.00  0.00     0.039 C 
ATOM      9  C   UNL     1      62.223  12.481   0.626  1.00  0.00    -0.080 C 
ATOM     10  C   UNL     1      60.944  13.074   1.169  1.00  0.00     0.039 C 
ENDBRANCH   6   7
ENDBRANCH   5   6
ENDBRANCH   3   5
ENDBRANCH   1   2
BRANCH   1  11
ATOM     11  C   UNL     1      65.023  16.253  -0.569  1.00  0.00     0.034 C 
BRANCH  11  12
ATOM     12  C   UNL     1      63.624  16.005  -1.088  1.00  0.00    -0.077 C 
ATOM     13  C   UNL     1      62.571  16.436  -0.357  1.00  0.00    -0.028 C 
ATOM     14  C   UNL     1      63.441  15.313  -2.418  1.00  0.00     0.039 C 
BRANCH  13  15
ATOM     15  C   UNL     1      61.125  16.224  -0.733  1.00  0.00     0.035 C 
BRANCH  15  16
ATOM     16  C   UNL     1      60.199  16.666   0.405  1.00  0.00     0.079 C 
BRANCH  16  17
ATOM     17  C   UNL     1      60.424  18.117   0.742  1.00  0.00     0.130 C 
ATOM     18  O   UNL     1      60.244  18.968  -0.116  1.00  0.00    -0.300 OA
ATOM     19  C   UNL     1      60.854  18.544   2.112  1.00  0.00     0.087 C 
ENDBRANCH  16  17
ENDBRANCH  15  16
ENDBRANCH  13  15
ENDBRANCH  11  12
ENDBRANCH   1  11
TORSDOF 9
ENDMDL
MODEL 8
REMARK VINA RESULT:    -3.254     11.968     14.932
REMARK INTER + INTRA:          -6.719
REMARK INTER:                  -4.705
REMARK INTRA:                  -2.014
REMARK UNBOUND:                -1.753
REMARK SMILES CC(=O)CCC=C(C)CCC=C(C)CCC=C(C)C
REMARK SMILES IDX 10 1 11 2 12 3 13 4 14 5 15 6 16 7 18 8 17 9 19 10 9 11 7 12
REMARK SMILES IDX 6 13 8 14 5 15 4 16 2 17 3 18 1 19
REMARK H PARENT
REMARK Flexibility Score: inf
ROOT
ATOM      1  C   UNL     1      54.898   2.626   4.231  1.00  0.00     0.032 C 
ENDROOT
BRANCH   1   2
ATOM      2  C   UNL     1      56.059   2.453   5.176  1.00  0.00    -0.028 C 
ATOM      3  C   UNL     1      57.244   3.095   5.056  1.00  0.00    -0.077 C 
ATOM      4  C   UNL     1      57.497   4.108   3.963  1.00  0.00     0.039 C 
BRANCH   3   5
ATOM      5  C   UNL     1      58.341   2.803   6.055  1.00  0.00     0.034 C 
BRANCH   5   6
ATOM      6  C   UNL     1      59.084   4.088   6.439  1.00  0.00     0.032 C 
BRANCH   6   7
ATOM      7  C   UNL     1      59.126   4.250   7.937  1.00  0.00    -0.028 C 
ATOM      8  C   UNL     1      58.370   4.993  10.154  1.00  0.00     0.039 C 
ATOM      9  C   UNL     1      58.227   4.959   8.654  1.00  0.00    -0.080 C 
ATOM     10  C   UNL     1      57.102   5.721   7.996  1.00  0.00     0.039 C 
ENDBRANCH   6   7
ENDBRANCH   5   6
ENDBRANCH   3   5
ENDBRANCH   1   2
BRANCH   1  11
ATOM     11  C   UNL     1      53.799   3.486   4.866  1.00  0.00     0.034 C 
BRANCH  11  12
ATOM     12  C   UNL     1      53.955   4.938   4.472  1.00  0.00    -0.077 C 
ATOM     13  C   UNL     1      54.518   5.797   5.352  1.00  0.00    -0.028 C 
ATOM     14  C   UNL     1      53.506   5.383   3.100  1.00  0.00     0.039 C 
BRANCH  13  15
ATOM     15  C   UNL     1      54.700   7.274   5.108  1.00  0.00     0.035 C 
BRANCH  15  16
ATOM     16  C   UNL     1      56.181   7.613   4.911  1.00  0.00     0.079 C 
BRANCH  16  17
ATOM     17  C   UNL     1      56.608   8.704   5.857  1.00  0.00     0.130 C 
ATOM     18  O   UNL     1      57.726   9.188   5.751  1.00  0.00    -0.300 OA
ATOM     19  C   UNL     1      55.689   9.220   6.923  1.00  0.00     0.087 C 
ENDBRANCH  16  17
ENDBRANCH  15  16
ENDBRANCH  13  15
ENDBRANCH  11  12
ENDBRANCH   1  11
TORSDOF 9
ENDMDL
