MODEL 1
REMARK VINA RESULT:    -8.155      0.000      0.000
REMARK INTER + INTRA:          -9.626
REMARK INTER:                  -9.824
REMARK INTRA:                   0.198
REMARK UNBOUND:                 0.198
REMARK SMILES O=c1c(O)c(-c2ccc(O)c(O)c2)oc2cc(O)cc(O)c12
REMARK SMILES IDX 5 1 3 2 2 3 1 4 22 5 20 6 19 7 17 8 16 9 15 10 14 11 6 12
REMARK SMILES IDX 7 13 8 14 9 15 13 16 11 17 10 18 12 20 4 22 21 24 18 26
REMARK H PARENT 10 19 12 21 4 23 21 25 18 27
REMARK Flexibility Score: inf
ROOT
ATOM      1  C   UNL     1      39.058 -12.745   8.748  1.00  0.00     0.180 A 
ATOM      2  C   UNL     1      39.328 -11.390   9.018  1.00  0.00     0.208 A 
ATOM      3  C   UNL     1      40.426 -11.065   9.830  1.00  0.00     0.238 A 
ATOM      4  O   UNL     1      40.683  -9.854  10.071  1.00  0.00    -0.285 OA
ATOM      5  C   UNL     1      41.219 -12.096  10.373  1.00  0.00     0.111 A 
ATOM      6  C   UNL     1      42.340 -11.854  11.204  1.00  0.00     0.134 A 
ATOM      7  C   UNL     1      43.074 -12.936  11.713  1.00  0.00     0.093 A 
ATOM      8  C   UNL     1      42.713 -14.250  11.409  1.00  0.00     0.123 A 
ATOM      9  C   UNL     1      41.607 -14.495  10.588  1.00  0.00     0.094 A 
ATOM     10  C   UNL     1      40.862 -13.431  10.069  1.00  0.00     0.146 A 
ATOM     11  O   UNL     1      39.820 -13.691   9.289  1.00  0.00    -0.452 OA
ENDROOT
BRANCH   1  12
ATOM     12  C   UNL     1      37.931 -13.166   7.884  1.00  0.00     0.025 A 
ATOM     13  C   UNL     1      36.709 -12.472   7.885  1.00  0.00     0.016 A 
ATOM     14  C   UNL     1      35.667 -12.873   7.044  1.00  0.00     0.051 A 
ATOM     15  C   UNL     1      35.834 -13.962   6.182  1.00  0.00     0.157 A 
ATOM     16  C   UNL     1      38.103 -14.246   7.002  1.00  0.00     0.062 A 
ATOM     17  C   UNL     1      37.058 -14.650   6.157  1.00  0.00     0.158 A 
BRANCH  15  18
ATOM     18  O   UNL     1      34.777 -14.340   5.356  1.00  0.00    -0.504 OA
ATOM     19  H   UNL     1      33.848 -13.948   5.456  1.00  0.00     0.293 HD
ENDBRANCH  15  18
BRANCH  17  20
ATOM     20  O   UNL     1      37.234 -15.732   5.296  1.00  0.00    -0.504 OA
ATOM     21  H   UNL     1      38.142 -16.159   5.158  1.00  0.00     0.293 HD
ENDBRANCH  17  20
ENDBRANCH   1  12
BRANCH   2  22
ATOM     22  O   UNL     1      38.496 -10.389   8.508  1.00  0.00    -0.502 OA
ATOM     23  H   UNL     1      37.543 -10.261   8.826  1.00  0.00     0.293 HD
ENDBRANCH   2  22
BRANCH   6  24
ATOM     24  O   UNL     1      42.727 -10.553  11.527  1.00  0.00    -0.507 OA
ATOM     25  H   UNL     1      42.998  -9.886  10.816  1.00  0.00     0.293 HD
ENDBRANCH   6  24
BRANCH   8  26
ATOM     26  O   UNL     1      43.458 -15.306  11.928  1.00  0.00    -0.508 OA
ATOM     27  H   UNL     1      44.104 -15.171  12.697  1.00  0.00     0.293 HD
ENDBRANCH   8  26
TORSDOF 6
ENDMDL
MODEL 2
REMARK VINA RESULT:    -8.012      1.250      1.277
REMARK INTER + INTRA:          -9.454
REMARK INTER:                  -9.133
REMARK INTRA:                  -0.321
REMARK UNBOUND:                 0.198
REMARK SMILES O=c1c(O)c(-c2ccc(O)c(O)c2)oc2cc(O)cc(O)c12
REMARK SMILES IDX 5 1 3 2 2 3 1 4 22 5 20 6 19 7 17 8 16 9 15 10 14 11 6 12
REMARK SMILES IDX 7 13 8 14 9 15 13 16 11 17 10 18 12 20 4 22 21 24 18 26
REMARK H PARENT 10 19 12 21 4 23 21 25 18 27
REMARK Flexibility Score: inf
ROOT
ATOM      1  C   UNL     1      39.442 -12.193   8.750  1.00  0.00     0.180 A 
ATOM      2  C   UNL     1      39.812 -10.931   9.251  1.00  0.00     0.208 A 
ATOM      3  C   UNL     1      40.874 -10.848  10.164  1.00  0.00     0.238 A 
ATOM      4  O   UNL     1      41.221  -9.721  10.612  1.00  0.00    -0.285 OA
ATOM      5  C   UNL     1      41.532 -12.024  10.577  1.00  0.00     0.111 A 
ATOM      6  C   UNL     1      42.608 -12.027  11.497  1.00  0.00     0.134 A 
ATOM      7  C   UNL     1      43.206 -13.243  11.863  1.00  0.00     0.093 A 
ATOM      8  C   UNL     1      42.751 -14.451  11.331  1.00  0.00     0.123 A 
ATOM      9  C   UNL     1      41.688 -14.453  10.421  1.00  0.00     0.094 A 
ATOM     10  C   UNL     1      41.079 -13.253  10.041  1.00  0.00     0.146 A 
ATOM     11  O   UNL     1      40.076 -13.283   9.172  1.00  0.00    -0.452 OA
ENDROOT
BRANCH   1  12
ATOM     12  C   UNL     1      38.345 -12.360   7.769  1.00  0.00     0.025 A 
ATOM     13  C   UNL     1      37.026 -12.615   8.181  1.00  0.00     0.016 A 
ATOM     14  C   UNL     1      36.004 -12.746   7.237  1.00  0.00     0.051 A 
ATOM     15  C   UNL     1      36.278 -12.610   5.873  1.00  0.00     0.157 A 
ATOM     16  C   UNL     1      38.615 -12.204   6.399  1.00  0.00     0.062 A 
ATOM     17  C   UNL     1      37.589 -12.334   5.450  1.00  0.00     0.158 A 
BRANCH  15  18
ATOM     18  O   UNL     1      35.238 -12.747   4.955  1.00  0.00    -0.504 OA
ATOM     19  H   UNL     1      34.727 -11.949   4.597  1.00  0.00     0.293 HD
ENDBRANCH  15  18
BRANCH  17  20
ATOM     20  O   UNL     1      37.870 -12.190   4.093  1.00  0.00    -0.504 OA
ATOM     21  H   UNL     1      37.785 -12.967   3.448  1.00  0.00     0.293 HD
ENDBRANCH  17  20
ENDBRANCH   1  12
BRANCH   2  22
ATOM     22  O   UNL     1      39.111  -9.785   8.865  1.00  0.00    -0.502 OA
ATOM     23  H   UNL     1      38.869  -9.050   9.519  1.00  0.00     0.293 HD
ENDBRANCH   2  22
BRANCH   6  24
ATOM     24  O   UNL     1      43.087 -10.838  12.047  1.00  0.00    -0.507 OA
ATOM     25  H   UNL     1      43.349 -10.050  11.467  1.00  0.00     0.293 HD
ENDBRANCH   6  24
BRANCH   8  26
ATOM     26  O   UNL     1      43.360 -15.643  11.713  1.00  0.00    -0.508 OA
ATOM     27  H   UNL     1      44.159 -15.654  12.337  1.00  0.00     0.293 HD
ENDBRANCH   8  26
TORSDOF 6
ENDMDL
MODEL 3
REMARK VINA RESULT:    -7.852      0.919      1.025
REMARK INTER + INTRA:          -9.261
REMARK INTER:                  -9.285
REMARK INTRA:                   0.024
REMARK UNBOUND:                 0.198
REMARK SMILES O=c1c(O)c(-c2ccc(O)c(O)c2)oc2cc(O)cc(O)c12
REMARK SMILES IDX 5 1 3 2 2 3 1 4 22 5 20 6 19 7 17 8 16 9 15 10 14 11 6 12
REMARK SMILES IDX 7 13 8 14 9 15 13 16 11 17 10 18 12 20 4 22 21 24 18 26
REMARK H PARENT 10 19 12 21 4 23 21 25 18 27
REMARK Flexibility Score: inf
ROOT
ATOM      1  C   UNL     1      38.319 -12.813   8.084  1.00  0.00     0.180 A 
ATOM      2  C   UNL     1      38.619 -11.460   8.334  1.00  0.00     0.208 A 
ATOM      3  C   UNL     1      39.744 -11.147   9.112  1.00  0.00     0.238 A 
ATOM      4  O   UNL     1      40.029  -9.939   9.334  1.00  0.00    -0.285 OA
ATOM      5  C   UNL     1      40.536 -12.187   9.642  1.00  0.00     0.111 A 
ATOM      6  C   UNL     1      41.683 -11.956  10.440  1.00  0.00     0.134 A 
ATOM      7  C   UNL     1      42.413 -13.045  10.938  1.00  0.00     0.093 A 
ATOM      8  C   UNL     1      42.022 -14.356  10.656  1.00  0.00     0.123 A 
ATOM      9  C   UNL     1      40.889 -14.589   9.868  1.00  0.00     0.094 A 
ATOM     10  C   UNL     1      40.148 -13.518   9.361  1.00  0.00     0.146 A 
ATOM     11  O   UNL     1      39.081 -13.767   8.612  1.00  0.00    -0.452 OA
ENDROOT
BRANCH   1  12
ATOM     12  C   UNL     1      37.161 -13.223   7.256  1.00  0.00     0.025 A 
ATOM     13  C   UNL     1      35.880 -12.688   7.473  1.00  0.00     0.016 A 
ATOM     14  C   UNL     1      34.808 -13.072   6.664  1.00  0.00     0.051 A 
ATOM     15  C   UNL     1      34.999 -13.982   5.620  1.00  0.00     0.157 A 
ATOM     16  C   UNL     1      37.356 -14.121   6.193  1.00  0.00     0.062 A 
ATOM     17  C   UNL     1      36.280 -14.507   5.380  1.00  0.00     0.158 A 
BRANCH  15  18
ATOM     18  O   UNL     1      33.910 -14.348   4.830  1.00  0.00    -0.504 OA
ATOM     19  H   UNL     1      34.018 -14.641   3.866  1.00  0.00     0.293 HD
ENDBRANCH  15  18
BRANCH  17  20
ATOM     20  O   UNL     1      36.481 -15.409   4.336  1.00  0.00    -0.504 OA
ATOM     21  H   UNL     1      36.012 -15.303   3.444  1.00  0.00     0.293 HD
ENDBRANCH  17  20
ENDBRANCH   1  12
BRANCH   2  22
ATOM     22  O   UNL     1      37.790 -10.450   7.838  1.00  0.00    -0.502 OA
ATOM     23  H   UNL     1      38.157  -9.599   7.430  1.00  0.00     0.293 HD
ENDBRANCH   2  22
BRANCH   6  24
ATOM     24  O   UNL     1      42.101 -10.659  10.739  1.00  0.00    -0.507 OA
ATOM     25  H   UNL     1      43.067 -10.447  10.956  1.00  0.00     0.293 HD
ENDBRANCH   6  24
BRANCH   8  26
ATOM     26  O   UNL     1      42.764 -15.419  11.164  1.00  0.00    -0.508 OA
ATOM     27  H   UNL     1      43.083 -15.431  12.126  1.00  0.00     0.293 HD
ENDBRANCH   8  26
TORSDOF 6
ENDMDL
MODEL 4
REMARK VINA RESULT:    -7.428      2.821      7.026
REMARK INTER + INTRA:          -8.750
REMARK INTER:                  -8.427
REMARK INTRA:                  -0.323
REMARK UNBOUND:                 0.198
REMARK SMILES O=c1c(O)c(-c2ccc(O)c(O)c2)oc2cc(O)cc(O)c12
REMARK SMILES IDX 5 1 3 2 2 3 1 4 22 5 20 6 19 7 17 8 16 9 15 10 14 11 6 12
REMARK SMILES IDX 7 13 8 14 9 15 13 16 11 17 10 18 12 20 4 22 21 24 18 26
REMARK H PARENT 10 19 12 21 4 23 21 25 18 27
REMARK Flexibility Score: inf
ROOT
ATOM      1  C   UNL     1      40.405 -11.438   8.634  1.00  0.00     0.180 A 
ATOM      2  C   UNL     1      39.027 -11.651   8.826  1.00  0.00     0.208 A 
ATOM      3  C   UNL     1      38.157 -11.485   7.737  1.00  0.00     0.238 A 
ATOM      4  O   UNL     1      36.921 -11.683   7.895  1.00  0.00    -0.285 OA
ATOM      5  C   UNL     1      38.673 -11.091   6.486  1.00  0.00     0.111 A 
ATOM      6  C   UNL     1      37.864 -10.898   5.340  1.00  0.00     0.134 A 
ATOM      7  C   UNL     1      38.453 -10.497   4.132  1.00  0.00     0.093 A 
ATOM      8  C   UNL     1      39.831 -10.285   4.047  1.00  0.00     0.123 A 
ATOM      9  C   UNL     1      40.635 -10.475   5.175  1.00  0.00     0.094 A 
ATOM     10  C   UNL     1      40.068 -10.876   6.389  1.00  0.00     0.146 A 
ATOM     11  O   UNL     1      40.855 -11.053   7.443  1.00  0.00    -0.452 OA
ENDROOT
BRANCH   1  12
ATOM     12  C   UNL     1      41.388 -11.612   9.728  1.00  0.00     0.025 A 
ATOM     13  C   UNL     1      41.756 -10.541  10.560  1.00  0.00     0.016 A 
ATOM     14  C   UNL     1      42.668 -10.734  11.600  1.00  0.00     0.051 A 
ATOM     15  C   UNL     1      43.215 -12.000  11.836  1.00  0.00     0.157 A 
ATOM     16  C   UNL     1      41.923 -12.887   9.979  1.00  0.00     0.062 A 
ATOM     17  C   UNL     1      42.838 -13.083  11.024  1.00  0.00     0.158 A 
BRANCH  15  18
ATOM     18  O   UNL     1      44.123 -12.162  12.880  1.00  0.00    -0.504 OA
ATOM     19  H   UNL     1      43.890 -11.928  13.838  1.00  0.00     0.293 HD
ENDBRANCH  15  18
BRANCH  17  20
ATOM     20  O   UNL     1      43.373 -14.349  11.257  1.00  0.00    -0.504 OA
ATOM     21  H   UNL     1      43.445 -14.732  12.192  1.00  0.00     0.293 HD
ENDBRANCH  17  20
ENDBRANCH   1  12
BRANCH   2  22
ATOM     22  O   UNL     1      38.534 -11.992  10.088  1.00  0.00    -0.502 OA
ATOM     23  H   UNL     1      37.542 -12.052  10.286  1.00  0.00     0.293 HD
ENDBRANCH   2  22
BRANCH   6  24
ATOM     24  O   UNL     1      36.484 -11.101   5.393  1.00  0.00    -0.507 OA
ATOM     25  H   UNL     1      35.881 -10.516   5.958  1.00  0.00     0.293 HD
ENDBRANCH   6  24
BRANCH   8  26
ATOM     26  O   UNL     1      40.391  -9.886   2.835  1.00  0.00    -0.508 OA
ATOM     27  H   UNL     1      40.591 -10.552   2.099  1.00  0.00     0.293 HD
ENDBRANCH   8  26
TORSDOF 6
ENDMDL
MODEL 5
REMARK VINA RESULT:    -7.415      1.898      6.842
REMARK INTER + INTRA:          -8.734
REMARK INTER:                  -8.665
REMARK INTRA:                  -0.069
REMARK UNBOUND:                 0.198
REMARK SMILES O=c1c(O)c(-c2ccc(O)c(O)c2)oc2cc(O)cc(O)c12
REMARK SMILES IDX 5 1 3 2 2 3 1 4 22 5 20 6 19 7 17 8 16 9 15 10 14 11 6 12
REMARK SMILES IDX 7 13 8 14 9 15 13 16 11 17 10 18 12 20 4 22 21 24 18 26
REMARK H PARENT 10 19 12 21 4 23 21 25 18 27
REMARK Flexibility Score: inf
ROOT
ATOM      1  C   UNL     1      40.556 -12.525   8.792  1.00  0.00     0.180 A 
ATOM      2  C   UNL     1      41.081 -11.667   7.807  1.00  0.00     0.208 A 
ATOM      3  C   UNL     1      40.237 -11.213   6.782  1.00  0.00     0.238 A 
ATOM      4  O   UNL     1      40.694 -10.436   5.900  1.00  0.00    -0.285 OA
ATOM      5  C   UNL     1      38.894 -11.639   6.746  1.00  0.00     0.111 A 
ATOM      6  C   UNL     1      37.979 -11.232   5.745  1.00  0.00     0.134 A 
ATOM      7  C   UNL     1      36.660 -11.708   5.774  1.00  0.00     0.093 A 
ATOM      8  C   UNL     1      36.237 -12.579   6.780  1.00  0.00     0.123 A 
ATOM      9  C   UNL     1      37.137 -12.984   7.772  1.00  0.00     0.094 A 
ATOM     10  C   UNL     1      38.456 -12.521   7.762  1.00  0.00     0.146 A 
ATOM     11  O   UNL     1      39.287 -12.917   8.718  1.00  0.00    -0.452 OA
ENDROOT
BRANCH   1  12
ATOM     12  C   UNL     1      41.378 -13.029   9.916  1.00  0.00     0.025 A 
ATOM     13  C   UNL     1      41.574 -14.406  10.120  1.00  0.00     0.016 A 
ATOM     14  C   UNL     1      42.373 -14.858  11.173  1.00  0.00     0.051 A 
ATOM     15  C   UNL     1      42.998 -13.946  12.029  1.00  0.00     0.157 A 
ATOM     16  C   UNL     1      42.024 -12.114  10.764  1.00  0.00     0.062 A 
ATOM     17  C   UNL     1      42.827 -12.566  11.822  1.00  0.00     0.158 A 
BRANCH  15  18
ATOM     18  O   UNL     1      43.788 -14.426  13.072  1.00  0.00    -0.504 OA
ATOM     19  H   UNL     1      43.739 -14.039  14.007  1.00  0.00     0.293 HD
ENDBRANCH  15  18
BRANCH  17  20
ATOM     20  O   UNL     1      43.452 -11.651  12.667  1.00  0.00    -0.504 OA
ATOM     21  H   UNL     1      43.010 -11.324  13.517  1.00  0.00     0.293 HD
ENDBRANCH  17  20
ENDBRANCH   1  12
BRANCH   2  22
ATOM     22  O   UNL     1      42.429 -11.299   7.838  1.00  0.00    -0.502 OA
ATOM     23  H   UNL     1      43.177 -11.964   7.681  1.00  0.00     0.293 HD
ENDBRANCH   2  22
BRANCH   6  24
ATOM     24  O   UNL     1      38.370 -10.363   4.725  1.00  0.00    -0.507 OA
ATOM     25  H   UNL     1      37.759 -10.146   3.947  1.00  0.00     0.293 HD
ENDBRANCH   6  24
BRANCH   8  26
ATOM     26  O   UNL     1      34.922 -13.037   6.785  1.00  0.00    -0.508 OA
ATOM     27  H   UNL     1      34.570 -13.647   6.056  1.00  0.00     0.293 HD
ENDBRANCH   8  26
TORSDOF 6
ENDMDL
MODEL 6
REMARK VINA RESULT:    -7.364      2.571      7.122
REMARK INTER + INTRA:          -8.673
REMARK INTER:                  -8.410
REMARK INTRA:                  -0.263
REMARK UNBOUND:                 0.198
REMARK SMILES O=c1c(O)c(-c2ccc(O)c(O)c2)oc2cc(O)cc(O)c12
REMARK SMILES IDX 5 1 3 2 2 3 1 4 22 5 20 6 19 7 17 8 16 9 15 10 14 11 6 12
REMARK SMILES IDX 7 13 8 14 9 15 13 16 11 17 10 18 12 20 4 22 21 24 18 26
REMARK H PARENT 10 19 12 21 4 23 21 25 18 27
REMARK Flexibility Score: inf
ROOT
ATOM      1  C   UNL     1      39.583 -12.189   8.348  1.00  0.00     0.180 A 
ATOM      2  C   UNL     1      38.233 -12.530   8.548  1.00  0.00     0.208 A 
ATOM      3  C   UNL     1      37.311 -12.286   7.519  1.00  0.00     0.238 A 
ATOM      4  O   UNL     1      36.100 -12.597   7.683  1.00  0.00    -0.285 OA
ATOM      5  C   UNL     1      37.748 -11.687   6.319  1.00  0.00     0.111 A 
ATOM      6  C   UNL     1      36.883 -11.403   5.235  1.00  0.00     0.134 A 
ATOM      7  C   UNL     1      37.394 -10.797   4.078  1.00  0.00     0.093 A 
ATOM      8  C   UNL     1      38.749 -10.471   3.983  1.00  0.00     0.123 A 
ATOM      9  C   UNL     1      39.608 -10.750   5.051  1.00  0.00     0.094 A 
ATOM     10  C   UNL     1      39.120 -11.354   6.213  1.00  0.00     0.146 A 
ATOM     11  O   UNL     1      39.957 -11.613   7.209  1.00  0.00    -0.452 OA
ENDROOT
BRANCH   1  12
ATOM     12  C   UNL     1      40.619 -12.434   9.379  1.00  0.00     0.025 A 
ATOM     13  C   UNL     1      41.080 -13.731   9.659  1.00  0.00     0.016 A 
ATOM     14  C   UNL     1      42.074 -13.935  10.619  1.00  0.00     0.051 A 
ATOM     15  C   UNL     1      42.632 -12.850  11.302  1.00  0.00     0.157 A 
ATOM     16  C   UNL     1      41.195 -11.343  10.051  1.00  0.00     0.062 A 
ATOM     17  C   UNL     1      42.194 -11.546  11.015  1.00  0.00     0.158 A 
BRANCH  15  18
ATOM     18  O   UNL     1      43.622 -13.085  12.255  1.00  0.00    -0.504 OA
ATOM     19  H   UNL     1      44.248 -13.879  12.198  1.00  0.00     0.293 HD
ENDBRANCH  15  18
BRANCH  17  20
ATOM     20  O   UNL     1      42.750 -10.459  11.686  1.00  0.00    -0.504 OA
ATOM     21  H   UNL     1      42.343 -10.096  12.539  1.00  0.00     0.293 HD
ENDBRANCH  17  20
ENDBRANCH   1  12
BRANCH   2  22
ATOM     22  O   UNL     1      37.816 -13.077   9.765  1.00  0.00    -0.502 OA
ATOM     23  H   UNL     1      36.889 -12.917  10.143  1.00  0.00     0.293 HD
ENDBRANCH   2  22
BRANCH   6  24
ATOM     24  O   UNL     1      35.525 -11.716   5.299  1.00  0.00    -0.507 OA
ATOM     25  H   UNL     1      34.945 -11.417   6.074  1.00  0.00     0.293 HD
ENDBRANCH   6  24
BRANCH   8  26
ATOM     26  O   UNL     1      39.230  -9.869   2.823  1.00  0.00    -0.508 OA
ATOM     27  H   UNL     1      39.374  -8.867   2.766  1.00  0.00     0.293 HD
ENDBRANCH   8  26
TORSDOF 6
ENDMDL
MODEL 7
REMARK VINA RESULT:    -7.339      2.337      6.912
REMARK INTER + INTRA:          -8.642
REMARK INTER:                  -8.318
REMARK INTRA:                  -0.324
REMARK UNBOUND:                 0.198
REMARK SMILES O=c1c(O)c(-c2ccc(O)c(O)c2)oc2cc(O)cc(O)c12
REMARK SMILES IDX 5 1 3 2 2 3 1 4 22 5 20 6 19 7 17 8 16 9 15 10 14 11 6 12
REMARK SMILES IDX 7 13 8 14 9 15 13 16 11 17 10 18 12 20 4 22 21 24 18 26
REMARK H PARENT 10 19 12 21 4 23 21 25 18 27
REMARK Flexibility Score: inf
ROOT
ATOM      1  C   UNL     1      40.513 -11.570   8.110  1.00  0.00     0.180 A 
ATOM      2  C   UNL     1      40.866 -10.880   6.935  1.00  0.00     0.208 A 
ATOM      3  C   UNL     1      39.913 -10.744   5.914  1.00  0.00     0.238 A 
ATOM      4  O   UNL     1      40.215 -10.119   4.862  1.00  0.00    -0.285 OA
ATOM      5  C   UNL     1      38.634 -11.317   6.075  1.00  0.00     0.111 A 
ATOM      6  C   UNL     1      37.618 -11.230   5.092  1.00  0.00     0.134 A 
ATOM      7  C   UNL     1      36.374 -11.835   5.324  1.00  0.00     0.093 A 
ATOM      8  C   UNL     1      36.125 -12.522   6.514  1.00  0.00     0.123 A 
ATOM      9  C   UNL     1      37.125 -12.611   7.488  1.00  0.00     0.094 A 
ATOM     10  C   UNL     1      38.372 -12.014   7.278  1.00  0.00     0.146 A 
ATOM     11  O   UNL     1      39.302 -12.109   8.220  1.00  0.00    -0.452 OA
ENDROOT
BRANCH   1  12
ATOM     12  C   UNL     1      41.456 -11.737   9.239  1.00  0.00     0.025 A 
ATOM     13  C   UNL     1      41.627 -10.732  10.206  1.00  0.00     0.016 A 
ATOM     14  C   UNL     1      42.506 -10.921  11.275  1.00  0.00     0.051 A 
ATOM     15  C   UNL     1      43.215 -12.119  11.405  1.00  0.00     0.157 A 
ATOM     16  C   UNL     1      42.155 -12.948   9.382  1.00  0.00     0.062 A 
ATOM     17  C   UNL     1      43.037 -13.140  10.456  1.00  0.00     0.158 A 
BRANCH  15  18
ATOM     18  O   UNL     1      44.086 -12.279  12.481  1.00  0.00    -0.504 OA
ATOM     19  H   UNL     1      44.396 -13.192  12.792  1.00  0.00     0.293 HD
ENDBRANCH  15  18
BRANCH  17  20
ATOM     20  O   UNL     1      43.735 -14.340  10.581  1.00  0.00    -0.504 OA
ATOM     21  H   UNL     1      44.748 -14.369  10.574  1.00  0.00     0.293 HD
ENDBRANCH  17  20
ENDBRANCH   1  12
BRANCH   2  22
ATOM     22  O   UNL     1      42.156 -10.364   6.780  1.00  0.00    -0.502 OA
ATOM     23  H   UNL     1      42.471  -9.534   7.268  1.00  0.00     0.293 HD
ENDBRANCH   2  22
BRANCH   6  24
ATOM     24  O   UNL     1      37.835 -10.551   3.893  1.00  0.00    -0.507 OA
ATOM     25  H   UNL     1      38.639  -9.949   3.759  1.00  0.00     0.293 HD
ENDBRANCH   6  24
BRANCH   8  26
ATOM     26  O   UNL     1      34.881 -13.115   6.718  1.00  0.00    -0.508 OA
ATOM     27  H   UNL     1      34.384 -13.576   5.966  1.00  0.00     0.293 HD
ENDBRANCH   8  26
TORSDOF 6
ENDMDL
MODEL 8
REMARK VINA RESULT:    -7.278      7.225     10.291
REMARK INTER + INTRA:          -8.570
REMARK INTER:                  -8.314
REMARK INTRA:                  -0.255
REMARK UNBOUND:                 0.198
REMARK SMILES O=c1c(O)c(-c2ccc(O)c(O)c2)oc2cc(O)cc(O)c12
REMARK SMILES IDX 5 1 3 2 2 3 1 4 22 5 20 6 19 7 17 8 16 9 15 10 14 11 6 12
REMARK SMILES IDX 7 13 8 14 9 15 13 16 11 17 10 18 12 20 4 22 21 24 18 26
REMARK H PARENT 10 19 12 21 4 23 21 25 18 27
REMARK Flexibility Score: inf
ROOT
ATOM      1  C   UNL     1      32.846 -14.187   1.541  1.00  0.00     0.180 A 
ATOM      2  C   UNL     1      33.511 -14.940   2.527  1.00  0.00     0.208 A 
ATOM      3  C   UNL     1      34.700 -14.437   3.077  1.00  0.00     0.238 A 
ATOM      4  O   UNL     1      35.300 -15.098   3.969  1.00  0.00    -0.285 OA
ATOM      5  C   UNL     1      35.213 -13.205   2.621  1.00  0.00     0.111 A 
ATOM      6  C   UNL     1      36.407 -12.631   3.120  1.00  0.00     0.134 A 
ATOM      7  C   UNL     1      36.857 -11.405   2.607  1.00  0.00     0.093 A 
ATOM      8  C   UNL     1      36.139 -10.744   1.608  1.00  0.00     0.123 A 
ATOM      9  C   UNL     1      34.958 -11.307   1.112  1.00  0.00     0.094 A 
ATOM     10  C   UNL     1      34.492 -12.527   1.610  1.00  0.00     0.146 A 
ATOM     11  O   UNL     1      33.367 -13.036   1.125  1.00  0.00    -0.452 OA
ENDROOT
BRANCH   1  12
ATOM     12  C   UNL     1      31.577 -14.641   0.927  1.00  0.00     0.025 A 
ATOM     13  C   UNL     1      31.543 -15.184  -0.369  1.00  0.00     0.016 A 
ATOM     14  C   UNL     1      30.337 -15.627  -0.918  1.00  0.00     0.051 A 
ATOM     15  C   UNL     1      29.152 -15.549  -0.180  1.00  0.00     0.157 A 
ATOM     16  C   UNL     1      30.388 -14.582   1.674  1.00  0.00     0.062 A 
ATOM     17  C   UNL     1      29.177 -15.027   1.124  1.00  0.00     0.158 A 
BRANCH  15  18
ATOM     18  O   UNL     1      27.964 -15.997  -0.755  1.00  0.00    -0.504 OA
ATOM     19  H   UNL     1      27.696 -15.749  -1.700  1.00  0.00     0.293 HD
ENDBRANCH  15  18
BRANCH  17  20
ATOM     20  O   UNL     1      28.001 -14.952   1.869  1.00  0.00    -0.504 OA
ATOM     21  H   UNL     1      28.011 -14.975   2.881  1.00  0.00     0.293 HD
ENDBRANCH  17  20
ENDBRANCH   1  12
BRANCH   2  22
ATOM     22  O   UNL     1      33.008 -16.181   2.926  1.00  0.00    -0.502 OA
ATOM     23  H   UNL     1      33.567 -16.855   3.436  1.00  0.00     0.293 HD
ENDBRANCH   2  22
BRANCH   6  24
ATOM     24  O   UNL     1      37.147 -13.267   4.118  1.00  0.00    -0.507 OA
ATOM     25  H   UNL     1      38.051 -13.683   3.928  1.00  0.00     0.293 HD
ENDBRANCH   6  24
BRANCH   8  26
ATOM     26  O   UNL     1      36.608  -9.528   1.116  1.00  0.00    -0.508 OA
ATOM     27  H   UNL     1      37.579  -9.401   0.856  1.00  0.00     0.293 HD
ENDBRANCH   8  26
TORSDOF 6
ENDMDL
MODEL 9
REMARK VINA RESULT:    -7.193      2.304      7.248
REMARK INTER + INTRA:          -8.466
REMARK INTER:                  -8.201
REMARK INTRA:                  -0.266
REMARK UNBOUND:                 0.198
REMARK SMILES O=c1c(O)c(-c2ccc(O)c(O)c2)oc2cc(O)cc(O)c12
REMARK SMILES IDX 5 1 3 2 2 3 1 4 22 5 20 6 19 7 17 8 16 9 15 10 14 11 6 12
REMARK SMILES IDX 7 13 8 14 9 15 13 16 11 17 10 18 12 20 4 22 21 24 18 26
REMARK H PARENT 10 19 12 21 4 23 21 25 18 27
REMARK Flexibility Score: inf
ROOT
ATOM      1  C   UNL     1      39.605 -11.246   7.589  1.00  0.00     0.180 A 
ATOM      2  C   UNL     1      39.901 -10.681   6.334  1.00  0.00     0.208 A 
ATOM      3  C   UNL     1      38.991 -10.856   5.280  1.00  0.00     0.238 A 
ATOM      4  O   UNL     1      39.241 -10.346   4.154  1.00  0.00    -0.285 OA
ATOM      5  C   UNL     1      37.817 -11.607   5.491  1.00  0.00     0.111 A 
ATOM      6  C   UNL     1      36.851 -11.834   4.480  1.00  0.00     0.134 A 
ATOM      7  C   UNL     1      35.712 -12.600   4.767  1.00  0.00     0.093 A 
ATOM      8  C   UNL     1      35.518 -13.142   6.039  1.00  0.00     0.123 A 
ATOM      9  C   UNL     1      36.469 -12.921   7.042  1.00  0.00     0.094 A 
ATOM     10  C   UNL     1      37.611 -12.159   6.777  1.00  0.00     0.146 A 
ATOM     11  O   UNL     1      38.494 -11.960   7.747  1.00  0.00    -0.452 OA
ENDROOT
BRANCH   1  12
ATOM     12  C   UNL     1      40.505 -11.088   8.755  1.00  0.00     0.025 A 
ATOM     13  C   UNL     1      41.705 -11.812   8.858  1.00  0.00     0.016 A 
ATOM     14  C   UNL     1      42.549 -11.629   9.956  1.00  0.00     0.051 A 
ATOM     15  C   UNL     1      42.217 -10.713  10.959  1.00  0.00     0.157 A 
ATOM     16  C   UNL     1      40.184 -10.153   9.754  1.00  0.00     0.062 A 
ATOM     17  C   UNL     1      41.031  -9.968  10.857  1.00  0.00     0.158 A 
BRANCH  15  18
ATOM     18  O   UNL     1      43.079 -10.553  12.043  1.00  0.00    -0.504 OA
ATOM     19  H   UNL     1      44.021 -10.197  11.934  1.00  0.00     0.293 HD
ENDBRANCH  15  18
BRANCH  17  20
ATOM     20  O   UNL     1      40.696  -9.048  11.849  1.00  0.00    -0.504 OA
ATOM     21  H   UNL     1      40.118  -8.240  11.651  1.00  0.00     0.293 HD
ENDBRANCH  17  20
ENDBRANCH   1  12
BRANCH   2  22
ATOM     22  O   UNL     1      41.096  -9.984   6.138  1.00  0.00    -0.502 OA
ATOM     23  H   UNL     1      41.943 -10.438   5.817  1.00  0.00     0.293 HD
ENDBRANCH   2  22
BRANCH   6  24
ATOM     24  O   UNL     1      37.015 -11.307   3.199  1.00  0.00    -0.507 OA
ATOM     25  H   UNL     1      37.293 -11.886   2.416  1.00  0.00     0.293 HD
ENDBRANCH   6  24
BRANCH   8  26
ATOM     26  O   UNL     1      34.378 -13.900   6.297  1.00  0.00    -0.508 OA
ATOM     27  H   UNL     1      34.029 -14.028   7.240  1.00  0.00     0.293 HD
ENDBRANCH   8  26
TORSDOF 6
ENDMDL
