MODEL 1
REMARK VINA RESULT:    -5.374      0.000      0.000
REMARK INTER + INTRA:          -6.589
REMARK INTER:                  -6.317
REMARK INTRA:                  -0.272
REMARK UNBOUND:                -0.272
REMARK SMILES O=c1c(O)c(-c2ccc(O)c(O)c2)oc2cc(O)ccc12
REMARK SMILES IDX 5 1 3 2 2 3 1 4 21 5 15 6 14 7 16 8 17 9 19 10 20 11 6 12
REMARK SMILES IDX 7 13 8 14 9 15 13 16 11 17 10 18 12 20 4 22 18 24
REMARK H PARENT 10 19 12 21 4 23 18 25
REMARK Flexibility Score: inf
ROOT
ATOM      1  C   UNL     1      45.471  16.294  -4.485  1.00  0.00     0.180 A 
ATOM      2  C   UNL     1      45.568  17.252  -5.516  1.00  0.00     0.208 A 
ATOM      3  C   UNL     1      46.801  17.423  -6.165  1.00  0.00     0.235 A 
ATOM      4  O   UNL     1      46.911  18.265  -7.098  1.00  0.00    -0.285 OA
ATOM      5  C   UNL     1      47.905  16.655  -5.764  1.00  0.00     0.069 A 
ATOM      6  C   UNL     1      47.731  15.734  -4.707  1.00  0.00     0.142 A 
ATOM      7  O   UNL     1      46.546  15.597  -4.124  1.00  0.00    -0.452 OA
ATOM      8  C   UNL     1      48.810  14.957  -4.272  1.00  0.00     0.094 A 
ATOM      9  C   UNL     1      50.064  15.087  -4.878  1.00  0.00     0.119 A 
ATOM     10  C   UNL     1      50.240  15.999  -5.928  1.00  0.00     0.047 A 
ATOM     11  C   UNL     1      49.168  16.781  -6.370  1.00  0.00     0.020 A 
ENDROOT
BRANCH   1  12
ATOM     12  C   UNL     1      44.202  16.042  -3.764  1.00  0.00     0.025 A 
ATOM     13  C   UNL     1      43.411  14.940  -4.123  1.00  0.00     0.016 A 
ATOM     14  C   UNL     1      42.200  14.695  -3.470  1.00  0.00     0.051 A 
ATOM     15  C   UNL     1      41.753  15.555  -2.462  1.00  0.00     0.157 A 
ATOM     16  C   UNL     1      43.740  16.919  -2.764  1.00  0.00     0.062 A 
ATOM     17  C   UNL     1      42.524  16.675  -2.110  1.00  0.00     0.158 A 
BRANCH  15  18
ATOM     18  O   UNL     1      40.542  15.284  -1.827  1.00  0.00    -0.504 OA
ATOM     19  H   UNL     1      39.683  15.142  -2.346  1.00  0.00     0.293 HD
ENDBRANCH  15  18
BRANCH  17  20
ATOM     20  O   UNL     1      42.078  17.545  -1.116  1.00  0.00    -0.504 OA
ATOM     21  H   UNL     1      41.551  18.382  -1.338  1.00  0.00     0.293 HD
ENDBRANCH  17  20
ENDBRANCH   1  12
BRANCH   2  22
ATOM     22  O   UNL     1      44.465  18.036  -5.861  1.00  0.00    -0.502 OA
ATOM     23  H   UNL     1      43.819  18.395  -5.169  1.00  0.00     0.293 HD
ENDBRANCH   2  22
BRANCH   9  24
ATOM     24  O   UNL     1      51.127  14.306  -4.432  1.00  0.00    -0.508 OA
ATOM     25  H   UNL     1      51.104  13.845  -3.530  1.00  0.00     0.293 HD
ENDBRANCH   9  24
TORSDOF 5
ENDMDL
MODEL 2
REMARK VINA RESULT:    -5.340      1.701      2.402
REMARK INTER + INTRA:          -6.549
REMARK INTER:                  -6.838
REMARK INTRA:                   0.289
REMARK UNBOUND:                -0.272
REMARK SMILES O=c1c(O)c(-c2ccc(O)c(O)c2)oc2cc(O)ccc12
REMARK SMILES IDX 5 1 3 2 2 3 1 4 21 5 15 6 14 7 16 8 17 9 19 10 20 11 6 12
REMARK SMILES IDX 7 13 8 14 9 15 13 16 11 17 10 18 12 20 4 22 18 24
REMARK H PARENT 10 19 12 21 4 23 18 25
REMARK Flexibility Score: inf
ROOT
ATOM      1  C   UNL     1      45.485  16.001  -3.768  1.00  0.00     0.180 A 
ATOM      2  C   UNL     1      46.146  16.532  -4.896  1.00  0.00     0.208 A 
ATOM      3  C   UNL     1      47.336  15.928  -5.329  1.00  0.00     0.235 A 
ATOM      4  O   UNL     1      47.940  16.377  -6.342  1.00  0.00    -0.285 OA
ATOM      5  C   UNL     1      47.848  14.828  -4.624  1.00  0.00     0.069 A 
ATOM      6  C   UNL     1      47.140  14.370  -3.491  1.00  0.00     0.142 A 
ATOM      7  O   UNL     1      46.013  14.965  -3.119  1.00  0.00    -0.452 OA
ATOM      8  C   UNL     1      47.623  13.283  -2.756  1.00  0.00     0.094 A 
ATOM      9  C   UNL     1      48.807  12.642  -3.137  1.00  0.00     0.119 A 
ATOM     10  C   UNL     1      49.512  13.092  -4.262  1.00  0.00     0.047 A 
ATOM     11  C   UNL     1      49.038  14.179  -5.003  1.00  0.00     0.020 A 
ENDROOT
BRANCH   1  12
ATOM     12  C   UNL     1      44.217  16.571  -3.260  1.00  0.00     0.025 A 
ATOM     13  C   UNL     1      43.989  17.951  -3.367  1.00  0.00     0.016 A 
ATOM     14  C   UNL     1      42.808  18.514  -2.876  1.00  0.00     0.051 A 
ATOM     15  C   UNL     1      41.846  17.710  -2.256  1.00  0.00     0.157 A 
ATOM     16  C   UNL     1      43.257  15.767  -2.617  1.00  0.00     0.062 A 
ATOM     17  C   UNL     1      42.073  16.331  -2.122  1.00  0.00     0.158 A 
BRANCH  15  18
ATOM     18  O   UNL     1      40.676  18.299  -1.777  1.00  0.00    -0.504 OA
ATOM     19  H   UNL     1      40.498  18.414  -0.786  1.00  0.00     0.293 HD
ENDBRANCH  15  18
BRANCH  17  20
ATOM     20  O   UNL     1      41.124  15.525  -1.492  1.00  0.00    -0.504 OA
ATOM     21  H   UNL     1      40.980  15.557  -0.490  1.00  0.00     0.293 HD
ENDBRANCH  17  20
ENDBRANCH   1  12
BRANCH   2  22
ATOM     22  O   UNL     1      45.638  17.658  -5.549  1.00  0.00    -0.502 OA
ATOM     23  H   UNL     1      45.497  18.541  -5.074  1.00  0.00     0.293 HD
ENDBRANCH   2  22
BRANCH   9  24
ATOM     24  O   UNL     1      49.274  11.561  -2.394  1.00  0.00    -0.508 OA
ATOM     25  H   UNL     1      49.878  11.691  -1.591  1.00  0.00     0.293 HD
ENDBRANCH   9  24
TORSDOF 5
ENDMDL
MODEL 3
REMARK VINA RESULT:    -5.221      1.938      3.265
REMARK INTER + INTRA:          -6.409
REMARK INTER:                  -6.421
REMARK INTRA:                   0.012
REMARK UNBOUND:                -0.272
REMARK SMILES O=c1c(O)c(-c2ccc(O)c(O)c2)oc2cc(O)ccc12
REMARK SMILES IDX 5 1 3 2 2 3 1 4 21 5 15 6 14 7 16 8 17 9 19 10 20 11 6 12
REMARK SMILES IDX 7 13 8 14 9 15 13 16 11 17 10 18 12 20 4 22 18 24
REMARK H PARENT 10 19 12 21 4 23 18 25
REMARK Flexibility Score: inf
ROOT
ATOM      1  C   UNL     1      46.816  15.725  -4.427  1.00  0.00     0.180 A 
ATOM      2  C   UNL     1      46.851  14.359  -4.077  1.00  0.00     0.208 A 
ATOM      3  C   UNL     1      48.062  13.661  -4.196  1.00  0.00     0.235 A 
ATOM      4  O   UNL     1      48.121  12.441  -3.878  1.00  0.00    -0.285 OA
ATOM      5  C   UNL     1      49.200  14.329  -4.676  1.00  0.00     0.069 A 
ATOM      6  C   UNL     1      49.077  15.691  -5.028  1.00  0.00     0.142 A 
ATOM      7  O   UNL     1      47.914  16.317  -4.892  1.00  0.00    -0.452 OA
ATOM      8  C   UNL     1      50.185  16.389  -5.519  1.00  0.00     0.094 A 
ATOM      9  C   UNL     1      51.419  15.744  -5.664  1.00  0.00     0.119 A 
ATOM     10  C   UNL     1      51.544  14.393  -5.314  1.00  0.00     0.047 A 
ATOM     11  C   UNL     1      50.443  13.686  -4.823  1.00  0.00     0.020 A 
ENDROOT
BRANCH   1  12
ATOM     12  C   UNL     1      45.582  16.535  -4.313  1.00  0.00     0.025 A 
ATOM     13  C   UNL     1      45.217  17.389  -5.364  1.00  0.00     0.016 A 
ATOM     14  C   UNL     1      44.067  18.178  -5.270  1.00  0.00     0.051 A 
ATOM     15  C   UNL     1      43.275  18.137  -4.118  1.00  0.00     0.157 A 
ATOM     16  C   UNL     1      44.795  16.511  -3.146  1.00  0.00     0.062 A 
ATOM     17  C   UNL     1      43.642  17.304  -3.049  1.00  0.00     0.158 A 
BRANCH  15  18
ATOM     18  O   UNL     1      42.132  18.934  -4.053  1.00  0.00    -0.504 OA
ATOM     19  H   UNL     1      41.525  19.070  -4.852  1.00  0.00     0.293 HD
ENDBRANCH  15  18
BRANCH  17  20
ATOM     20  O   UNL     1      42.865  17.268  -1.891  1.00  0.00    -0.504 OA
ATOM     21  H   UNL     1      42.148  17.961  -1.711  1.00  0.00     0.293 HD
ENDBRANCH  17  20
ENDBRANCH   1  12
BRANCH   2  22
ATOM     22  O   UNL     1      45.691  13.708  -3.648  1.00  0.00    -0.502 OA
ATOM     23  H   UNL     1      45.712  12.953  -2.974  1.00  0.00     0.293 HD
ENDBRANCH   2  22
BRANCH   9  24
ATOM     24  O   UNL     1      52.512  16.455  -6.155  1.00  0.00    -0.508 OA
ATOM     25  H   UNL     1      53.450  16.287  -5.811  1.00  0.00     0.293 HD
ENDBRANCH   9  24
TORSDOF 5
ENDMDL
MODEL 4
REMARK VINA RESULT:    -5.218      2.298      7.806
REMARK INTER + INTRA:          -6.404
REMARK INTER:                  -6.677
REMARK INTRA:                   0.272
REMARK UNBOUND:                -0.272
REMARK SMILES O=c1c(O)c(-c2ccc(O)c(O)c2)oc2cc(O)ccc12
REMARK SMILES IDX 5 1 3 2 2 3 1 4 21 5 15 6 14 7 16 8 17 9 19 10 20 11 6 12
REMARK SMILES IDX 7 13 8 14 9 15 13 16 11 17 10 18 12 20 4 22 18 24
REMARK H PARENT 10 19 12 21 4 23 18 25
REMARK Flexibility Score: inf
ROOT
ATOM      1  C   UNL     1      49.082  14.459  -4.677  1.00  0.00     0.180 A 
ATOM      2  C   UNL     1      48.717  13.468  -3.741  1.00  0.00     0.208 A 
ATOM      3  C   UNL     1      47.434  13.514  -3.173  1.00  0.00     0.235 A 
ATOM      4  O   UNL     1      47.080  12.633  -2.343  1.00  0.00    -0.285 OA
ATOM      5  C   UNL     1      46.557  14.549  -3.532  1.00  0.00     0.069 A 
ATOM      6  C   UNL     1      47.006  15.517  -4.458  1.00  0.00     0.142 A 
ATOM      7  O   UNL     1      48.225  15.432  -4.979  1.00  0.00    -0.452 OA
ATOM      8  C   UNL     1      46.165  16.569  -4.834  1.00  0.00     0.094 A 
ATOM      9  C   UNL     1      44.877  16.670  -4.298  1.00  0.00     0.119 A 
ATOM     10  C   UNL     1      44.427  15.710  -3.380  1.00  0.00     0.047 A 
ATOM     11  C   UNL     1      45.260  14.656  -2.997  1.00  0.00     0.020 A 
ENDROOT
BRANCH   1  12
ATOM     12  C   UNL     1      50.410  14.469  -5.333  1.00  0.00     0.025 A 
ATOM     13  C   UNL     1      51.056  13.253  -5.601  1.00  0.00     0.016 A 
ATOM     14  C   UNL     1      52.318  13.239  -6.201  1.00  0.00     0.051 A 
ATOM     15  C   UNL     1      52.959  14.438  -6.526  1.00  0.00     0.157 A 
ATOM     16  C   UNL     1      51.066  15.675  -5.641  1.00  0.00     0.062 A 
ATOM     17  C   UNL     1      52.334  15.662  -6.241  1.00  0.00     0.158 A 
BRANCH  15  18
ATOM     18  O   UNL     1      54.218  14.393  -7.125  1.00  0.00    -0.504 OA
ATOM     19  H   UNL     1      54.967  15.017  -6.850  1.00  0.00     0.293 HD
ENDBRANCH  15  18
BRANCH  17  20
ATOM     20  O   UNL     1      52.973  16.863  -6.549  1.00  0.00    -0.504 OA
ATOM     21  H   UNL     1      52.556  17.542  -7.174  1.00  0.00     0.293 HD
ENDBRANCH  17  20
ENDBRANCH   1  12
BRANCH   2  22
ATOM     22  O   UNL     1      49.629  12.478  -3.366  1.00  0.00    -0.502 OA
ATOM     23  H   UNL     1      50.464  12.685  -2.834  1.00  0.00     0.293 HD
ENDBRANCH   2  22
BRANCH   9  24
ATOM     24  O   UNL     1      44.053  17.724  -4.683  1.00  0.00    -0.508 OA
ATOM     25  H   UNL     1      43.050  17.608  -4.771  1.00  0.00     0.293 HD
ENDBRANCH   9  24
TORSDOF 5
ENDMDL
MODEL 5
REMARK VINA RESULT:    -5.142      1.163      6.508
REMARK INTER + INTRA:          -6.316
REMARK INTER:                  -6.726
REMARK INTRA:                   0.410
REMARK UNBOUND:                -0.272
REMARK SMILES O=c1c(O)c(-c2ccc(O)c(O)c2)oc2cc(O)ccc12
REMARK SMILES IDX 5 1 3 2 2 3 1 4 21 5 15 6 14 7 16 8 17 9 19 10 20 11 6 12
REMARK SMILES IDX 7 13 8 14 9 15 13 16 11 17 10 18 12 20 4 22 18 24
REMARK H PARENT 10 19 12 21 4 23 18 25
REMARK Flexibility Score: inf
ROOT
ATOM      1  C   UNL     1      46.492  16.283  -4.612  1.00  0.00     0.180 A 
ATOM      2  C   UNL     1      46.107  17.275  -5.539  1.00  0.00     0.208 A 
ATOM      3  C   UNL     1      44.823  17.831  -5.439  1.00  0.00     0.235 A 
ATOM      4  O   UNL     1      44.459  18.728  -6.249  1.00  0.00    -0.285 OA
ATOM      5  C   UNL     1      43.949  17.378  -4.438  1.00  0.00     0.069 A 
ATOM      6  C   UNL     1      44.401  16.365  -3.564  1.00  0.00     0.142 A 
ATOM      7  O   UNL     1      45.627  15.870  -3.687  1.00  0.00    -0.452 OA
ATOM      8  C   UNL     1      43.557  15.880  -2.560  1.00  0.00     0.094 A 
ATOM      9  C   UNL     1      42.264  16.393  -2.414  1.00  0.00     0.119 A 
ATOM     10  C   UNL     1      41.813  17.400  -3.279  1.00  0.00     0.047 A 
ATOM     11  C   UNL     1      42.648  17.891  -4.287  1.00  0.00     0.020 A 
ENDROOT
BRANCH   1  12
ATOM     12  C   UNL     1      47.835  15.660  -4.640  1.00  0.00     0.025 A 
ATOM     13  C   UNL     1      48.893  16.329  -5.274  1.00  0.00     0.016 A 
ATOM     14  C   UNL     1      50.164  15.751  -5.330  1.00  0.00     0.051 A 
ATOM     15  C   UNL     1      50.392  14.491  -4.770  1.00  0.00     0.157 A 
ATOM     16  C   UNL     1      48.062  14.382  -4.096  1.00  0.00     0.062 A 
ATOM     17  C   UNL     1      49.336  13.800  -4.154  1.00  0.00     0.158 A 
BRANCH  15  18
ATOM     18  O   UNL     1      51.671  13.940  -4.841  1.00  0.00    -0.504 OA
ATOM     19  H   UNL     1      52.497  14.460  -4.569  1.00  0.00     0.293 HD
ENDBRANCH  15  18
BRANCH  17  20
ATOM     20  O   UNL     1      49.553  12.536  -3.605  1.00  0.00    -0.504 OA
ATOM     21  H   UNL     1      49.083  11.713  -3.963  1.00  0.00     0.293 HD
ENDBRANCH  17  20
ENDBRANCH   1  12
BRANCH   2  22
ATOM     22  O   UNL     1      46.980  17.672  -6.555  1.00  0.00    -0.502 OA
ATOM     23  H   UNL     1      46.930  18.587  -6.984  1.00  0.00     0.293 HD
ENDBRANCH   2  22
BRANCH   9  24
ATOM     24  O   UNL     1      41.437  15.898  -1.409  1.00  0.00    -0.508 OA
ATOM     25  H   UNL     1      40.926  15.031  -1.523  1.00  0.00     0.293 HD
ENDBRANCH   9  24
TORSDOF 5
ENDMDL
MODEL 6
REMARK VINA RESULT:    -4.998      2.438      7.242
REMARK INTER + INTRA:          -6.146
REMARK INTER:                  -5.835
REMARK INTRA:                  -0.311
REMARK UNBOUND:                -0.272
REMARK SMILES O=c1c(O)c(-c2ccc(O)c(O)c2)oc2cc(O)ccc12
REMARK SMILES IDX 5 1 3 2 2 3 1 4 21 5 15 6 14 7 16 8 17 9 19 10 20 11 6 12
REMARK SMILES IDX 7 13 8 14 9 15 13 16 11 17 10 18 12 20 4 22 18 24
REMARK H PARENT 10 19 12 21 4 23 18 25
REMARK Flexibility Score: inf
ROOT
ATOM      1  C   UNL     1      43.725  17.504  -4.183  1.00  0.00     0.180 A 
ATOM      2  C   UNL     1      42.609  16.741  -4.586  1.00  0.00     0.208 A 
ATOM      3  C   UNL     1      41.346  17.065  -4.067  1.00  0.00     0.235 A 
ATOM      4  O   UNL     1      40.331  16.404  -4.421  1.00  0.00    -0.285 OA
ATOM      5  C   UNL     1      41.226  18.121  -3.151  1.00  0.00     0.069 A 
ATOM      6  C   UNL     1      42.394  18.821  -2.779  1.00  0.00     0.142 A 
ATOM      7  O   UNL     1      43.570  18.489  -3.300  1.00  0.00    -0.452 OA
ATOM      8  C   UNL     1      42.317  19.874  -1.861  1.00  0.00     0.094 A 
ATOM      9  C   UNL     1      41.086  20.239  -1.307  1.00  0.00     0.119 A 
ATOM     10  C   UNL     1      39.924  19.547  -1.675  1.00  0.00     0.047 A 
ATOM     11  C   UNL     1      39.990  18.493  -2.590  1.00  0.00     0.020 A 
ENDROOT
BRANCH   1  12
ATOM     12  C   UNL     1      45.087  17.237  -4.698  1.00  0.00     0.025 A 
ATOM     13  C   UNL     1      45.481  17.790  -5.927  1.00  0.00     0.016 A 
ATOM     14  C   UNL     1      46.754  17.534  -6.443  1.00  0.00     0.051 A 
ATOM     15  C   UNL     1      47.646  16.711  -5.749  1.00  0.00     0.157 A 
ATOM     16  C   UNL     1      45.978  16.392  -4.012  1.00  0.00     0.062 A 
ATOM     17  C   UNL     1      47.256  16.133  -4.529  1.00  0.00     0.158 A 
BRANCH  15  18
ATOM     18  O   UNL     1      48.910  16.475  -6.287  1.00  0.00    -0.504 OA
ATOM     19  H   UNL     1      49.129  16.677  -7.256  1.00  0.00     0.293 HD
ENDBRANCH  15  18
BRANCH  17  20
ATOM     20  O   UNL     1      48.134  15.299  -3.838  1.00  0.00    -0.504 OA
ATOM     21  H   UNL     1      48.880  14.803  -4.312  1.00  0.00     0.293 HD
ENDBRANCH  17  20
ENDBRANCH   1  12
BRANCH   2  22
ATOM     22  O   UNL     1      42.767  15.664  -5.462  1.00  0.00    -0.502 OA
ATOM     23  H   UNL     1      43.210  14.799  -5.182  1.00  0.00     0.293 HD
ENDBRANCH   2  22
BRANCH   9  24
ATOM     24  O   UNL     1      41.028  21.289  -0.394  1.00  0.00    -0.508 OA
ATOM     25  H   UNL     1      41.321  21.171   0.568  1.00  0.00     0.293 HD
ENDBRANCH   9  24
TORSDOF 5
ENDMDL
MODEL 7
REMARK VINA RESULT:    -4.989      2.960      5.942
REMARK INTER + INTRA:          -6.136
REMARK INTER:                  -5.815
REMARK INTRA:                  -0.321
REMARK UNBOUND:                -0.272
REMARK SMILES O=c1c(O)c(-c2ccc(O)c(O)c2)oc2cc(O)ccc12
REMARK SMILES IDX 5 1 3 2 2 3 1 4 21 5 15 6 14 7 16 8 17 9 19 10 20 11 6 12
REMARK SMILES IDX 7 13 8 14 9 15 13 16 11 17 10 18 12 20 4 22 18 24
REMARK H PARENT 10 19 12 21 4 23 18 25
REMARK Flexibility Score: inf
ROOT
ATOM      1  C   UNL     1      44.164  16.693  -3.759  1.00  0.00     0.180 A 
ATOM      2  C   UNL     1      44.501  17.405  -4.929  1.00  0.00     0.208 A 
ATOM      3  C   UNL     1      44.107  18.747  -5.040  1.00  0.00     0.235 A 
ATOM      4  O   UNL     1      44.407  19.409  -6.071  1.00  0.00    -0.285 OA
ATOM      5  C   UNL     1      43.374  19.340  -4.000  1.00  0.00     0.069 A 
ATOM      6  C   UNL     1      43.055  18.553  -2.873  1.00  0.00     0.142 A 
ATOM      7  O   UNL     1      43.454  17.288  -2.802  1.00  0.00    -0.452 OA
ATOM      8  C   UNL     1      42.317  19.104  -1.820  1.00  0.00     0.094 A 
ATOM      9  C   UNL     1      41.892  20.436  -1.877  1.00  0.00     0.119 A 
ATOM     10  C   UNL     1      42.209  21.221  -2.994  1.00  0.00     0.047 A 
ATOM     11  C   UNL     1      42.944  20.679  -4.052  1.00  0.00     0.020 A 
ENDROOT
BRANCH   1  12
ATOM     12  C   UNL     1      44.558  15.280  -3.558  1.00  0.00     0.025 A 
ATOM     13  C   UNL     1      43.633  14.260  -3.827  1.00  0.00     0.016 A 
ATOM     14  C   UNL     1      43.977  12.920  -3.625  1.00  0.00     0.051 A 
ATOM     15  C   UNL     1      45.242  12.581  -3.137  1.00  0.00     0.157 A 
ATOM     16  C   UNL     1      45.824  14.938  -3.046  1.00  0.00     0.062 A 
ATOM     17  C   UNL     1      46.169  13.594  -2.841  1.00  0.00     0.158 A 
BRANCH  15  18
ATOM     18  O   UNL     1      45.558  11.236  -2.947  1.00  0.00    -0.504 OA
ATOM     19  H   UNL     1      44.957  10.612  -2.422  1.00  0.00     0.293 HD
ENDBRANCH  15  18
BRANCH  17  20
ATOM     20  O   UNL     1      47.428  13.265  -2.340  1.00  0.00    -0.504 OA
ATOM     21  H   UNL     1      48.128  12.812  -2.916  1.00  0.00     0.293 HD
ENDBRANCH  17  20
ENDBRANCH   1  12
BRANCH   2  22
ATOM     22  O   UNL     1      45.190  16.775  -5.968  1.00  0.00    -0.502 OA
ATOM     23  H   UNL     1      44.811  16.705  -6.904  1.00  0.00     0.293 HD
ENDBRANCH   2  22
BRANCH   9  24
ATOM     24  O   UNL     1      41.159  20.969  -0.820  1.00  0.00    -0.508 OA
ATOM     25  H   UNL     1      41.460  21.805  -0.334  1.00  0.00     0.293 HD
ENDBRANCH   9  24
TORSDOF 5
ENDMDL
MODEL 8
REMARK VINA RESULT:    -4.988      3.936      4.705
REMARK INTER + INTRA:          -6.134
REMARK INTER:                  -5.847
REMARK INTRA:                  -0.288
REMARK UNBOUND:                -0.272
REMARK SMILES O=c1c(O)c(-c2ccc(O)c(O)c2)oc2cc(O)ccc12
REMARK SMILES IDX 5 1 3 2 2 3 1 4 21 5 15 6 14 7 16 8 17 9 19 10 20 11 6 12
REMARK SMILES IDX 7 13 8 14 9 15 13 16 11 17 10 18 12 20 4 22 18 24
REMARK H PARENT 10 19 12 21 4 23 18 25
REMARK Flexibility Score: inf
ROOT
ATOM      1  C   UNL     1      49.083  14.029  -4.658  1.00  0.00     0.180 A 
ATOM      2  C   UNL     1      48.820  15.377  -4.982  1.00  0.00     0.208 A 
ATOM      3  C   UNL     1      49.782  16.098  -5.705  1.00  0.00     0.235 A 
ATOM      4  O   UNL     1      49.565  17.302  -6.016  1.00  0.00    -0.285 OA
ATOM      5  C   UNL     1      50.984  15.473  -6.070  1.00  0.00     0.069 A 
ATOM      6  C   UNL     1      51.182  14.128  -5.688  1.00  0.00     0.142 A 
ATOM      7  O   UNL     1      50.243  13.478  -5.011  1.00  0.00    -0.452 OA
ATOM      8  C   UNL     1      52.371  13.473  -6.025  1.00  0.00     0.094 A 
ATOM      9  C   UNL     1      53.368  14.143  -6.741  1.00  0.00     0.119 A 
ATOM     10  C   UNL     1      53.174  15.477  -7.124  1.00  0.00     0.047 A 
ATOM     11  C   UNL     1      51.990  16.142  -6.791  1.00  0.00     0.020 A 
ENDROOT
BRANCH   1  12
ATOM     12  C   UNL     1      48.112  13.195  -3.913  1.00  0.00     0.025 A 
ATOM     13  C   UNL     1      47.014  12.643  -4.591  1.00  0.00     0.016 A 
ATOM     14  C   UNL     1      46.074  11.870  -3.904  1.00  0.00     0.051 A 
ATOM     15  C   UNL     1      46.207  11.652  -2.530  1.00  0.00     0.157 A 
ATOM     16  C   UNL     1      48.232  12.992  -2.526  1.00  0.00     0.062 A 
ATOM     17  C   UNL     1      47.288  12.218  -1.836  1.00  0.00     0.158 A 
BRANCH  15  18
ATOM     18  O   UNL     1      45.254  10.875  -1.872  1.00  0.00    -0.504 OA
ATOM     19  H   UNL     1      45.367   9.876  -1.748  1.00  0.00     0.293 HD
ENDBRANCH  15  18
BRANCH  17  20
ATOM     20  O   UNL     1      47.420  12.017  -0.462  1.00  0.00    -0.504 OA
ATOM     21  H   UNL     1      47.372  11.091  -0.053  1.00  0.00     0.293 HD
ENDBRANCH  17  20
ENDBRANCH   1  12
BRANCH   2  22
ATOM     22  O   UNL     1      47.635  15.987  -4.562  1.00  0.00    -0.502 OA
ATOM     23  H   UNL     1      47.568  16.984  -4.400  1.00  0.00     0.293 HD
ENDBRANCH   2  22
BRANCH   9  24
ATOM     24  O   UNL     1      54.546  13.475  -7.068  1.00  0.00    -0.508 OA
ATOM     25  H   UNL     1      55.349  13.484  -6.450  1.00  0.00     0.293 HD
ENDBRANCH   9  24
TORSDOF 5
ENDMDL
