MODEL 1
REMARK VINA RESULT:    -5.163      0.000      0.000
REMARK INTER + INTRA:          -5.163
REMARK INTER:                  -5.163
REMARK INTRA:                   0.000
REMARK UNBOUND:                 0.000
REMARK SMILES O=c1ccc2ccccc2o1
REMARK SMILES IDX 7 1 8 2 9 3 10 4 5 5 6 6 4 7 3 8 2 9 1 10 11 11
REMARK H PARENT
REMARK Flexibility Score: inf
ROOT
ATOM      1  C   UNL     1      -0.360 -37.745  40.315  1.00  0.00     0.001 A 
ATOM      2  C   UNL     1      -1.098 -38.064  41.460  1.00  0.00     0.004 A 
ATOM      3  C   UNL     1      -0.537 -37.891  42.729  1.00  0.00     0.048 A 
ATOM      4  C   UNL     1       0.767 -37.399  42.859  1.00  0.00     0.138 A 
ATOM      5  C   UNL     1       1.513 -37.077  41.703  1.00  0.00     0.018 A 
ATOM      6  C   UNL     1       0.943 -37.252  40.432  1.00  0.00     0.012 A 
ATOM      7  C   UNL     1       2.812 -36.587  41.862  1.00  0.00     0.019 A 
ATOM      8  C   UNL     1       3.331 -36.432  43.148  1.00  0.00     0.094 A 
ATOM      9  C   UNL     1       2.535 -36.771  44.247  1.00  0.00     0.336 A 
ATOM     10  O   UNL     1       2.986 -36.638  45.414  1.00  0.00    -0.246 OA
ATOM     11  O   UNL     1       1.301 -37.235  44.067  1.00  0.00    -0.423 OA
ENDROOT
TORSDOF 0
ENDMDL
MODEL 2
REMARK VINA RESULT:    -5.025      1.531      3.778
REMARK INTER + INTRA:          -5.025
REMARK INTER:                  -5.025
REMARK INTRA:                   0.000
REMARK UNBOUND:                 0.000
REMARK SMILES O=c1ccc2ccccc2o1
REMARK SMILES IDX 7 1 8 2 9 3 10 4 5 5 6 6 4 7 3 8 2 9 1 10 11 11
REMARK H PARENT
REMARK Flexibility Score: inf
ROOT
ATOM      1  C   UNL     1       3.504 -36.300  42.485  1.00  0.00     0.001 A 
ATOM      2  C   UNL     1       2.983 -36.549  43.759  1.00  0.00     0.004 A 
ATOM      3  C   UNL     1       1.695 -37.075  43.902  1.00  0.00     0.048 A 
ATOM      4  C   UNL     1       0.921 -37.355  42.770  1.00  0.00     0.138 A 
ATOM      5  C   UNL     1       1.447 -37.104  41.483  1.00  0.00     0.018 A 
ATOM      6  C   UNL     1       2.740 -36.577  41.346  1.00  0.00     0.012 A 
ATOM      7  C   UNL     1       0.652 -37.395  40.370  1.00  0.00     0.019 A 
ATOM      8  C   UNL     1      -0.627 -37.918  40.561  1.00  0.00     0.094 A 
ATOM      9  C   UNL     1      -1.081 -38.141  41.865  1.00  0.00     0.336 A 
ATOM     10  O   UNL     1      -2.232 -38.612  42.058  1.00  0.00    -0.246 OA
ATOM     11  O   UNL     1      -0.304 -37.856  42.907  1.00  0.00    -0.423 OA
ENDROOT
TORSDOF 0
ENDMDL
MODEL 3
REMARK VINA RESULT:    -4.974      1.424      2.227
REMARK INTER + INTRA:          -4.974
REMARK INTER:                  -4.974
REMARK INTRA:                   0.000
REMARK UNBOUND:                 0.000
REMARK SMILES O=c1ccc2ccccc2o1
REMARK SMILES IDX 7 1 8 2 9 3 10 4 5 5 6 6 4 7 3 8 2 9 1 10 11 11
REMARK H PARENT
REMARK Flexibility Score: inf
ROOT
ATOM      1  C   UNL     1      -1.106 -38.099  41.508  1.00  0.00     0.001 A 
ATOM      2  C   UNL     1      -0.496 -37.738  40.303  1.00  0.00     0.004 A 
ATOM      3  C   UNL     1       0.792 -37.192  40.302  1.00  0.00     0.048 A 
ATOM      4  C   UNL     1       1.475 -37.003  41.508  1.00  0.00     0.138 A 
ATOM      5  C   UNL     1       0.858 -37.367  42.727  1.00  0.00     0.018 A 
ATOM      6  C   UNL     1      -0.434 -37.915  42.721  1.00  0.00     0.012 A 
ATOM      7  C   UNL     1       1.564 -37.167  43.916  1.00  0.00     0.019 A 
ATOM      8  C   UNL     1       2.846 -36.619  43.867  1.00  0.00     0.094 A 
ATOM      9  C   UNL     1       3.393 -36.282  42.625  1.00  0.00     0.336 A 
ATOM     10  O   UNL     1       4.547 -35.786  42.560  1.00  0.00    -0.246 OA
ATOM     11  O   UNL     1       2.699 -36.483  41.507  1.00  0.00    -0.423 OA
ENDROOT
TORSDOF 0
ENDMDL
MODEL 4
REMARK VINA RESULT:    -4.933      1.218      2.393
REMARK INTER + INTRA:          -4.933
REMARK INTER:                  -4.933
REMARK INTRA:                   0.000
REMARK UNBOUND:                 0.000
REMARK SMILES O=c1ccc2ccccc2o1
REMARK SMILES IDX 7 1 8 2 9 3 10 4 5 5 6 6 4 7 3 8 2 9 1 10 11 11
REMARK H PARENT
REMARK Flexibility Score: inf
ROOT
ATOM      1  C   UNL     1      -0.079 -37.756  39.091  1.00  0.00     0.001 A 
ATOM      2  C   UNL     1       1.142 -37.133  38.812  1.00  0.00     0.004 A 
ATOM      3  C   UNL     1       1.979 -36.726  39.856  1.00  0.00     0.048 A 
ATOM      4  C   UNL     1       1.598 -36.941  41.186  1.00  0.00     0.138 A 
ATOM      5  C   UNL     1       0.365 -37.571  41.468  1.00  0.00     0.018 A 
ATOM      6  C   UNL     1      -0.470 -37.977  40.416  1.00  0.00     0.012 A 
ATOM      7  C   UNL     1       0.011 -37.774  42.805  1.00  0.00     0.019 A 
ATOM      8  C   UNL     1       0.877 -37.351  43.813  1.00  0.00     0.094 A 
ATOM      9  C   UNL     1       2.082 -36.735  43.459  1.00  0.00     0.336 A 
ATOM     10  O   UNL     1       2.876 -36.347  44.355  1.00  0.00    -0.246 OA
ATOM     11  O   UNL     1       2.395 -36.555  42.178  1.00  0.00    -0.423 OA
ENDROOT
TORSDOF 0
ENDMDL
MODEL 5
REMARK VINA RESULT:    -4.796      2.087      4.422
REMARK INTER + INTRA:          -4.796
REMARK INTER:                  -4.796
REMARK INTRA:                   0.000
REMARK UNBOUND:                 0.000
REMARK SMILES O=c1ccc2ccccc2o1
REMARK SMILES IDX 7 1 8 2 9 3 10 4 5 5 6 6 4 7 3 8 2 9 1 10 11 11
REMARK H PARENT
REMARK Flexibility Score: inf
ROOT
ATOM      1  C   UNL     1       2.517 -36.666  44.123  1.00  0.00     0.001 A 
ATOM      2  C   UNL     1       3.356 -36.382  43.040  1.00  0.00     0.004 A 
ATOM      3  C   UNL     1       2.910 -36.589  41.731  1.00  0.00     0.048 A 
ATOM      4  C   UNL     1       1.621 -37.082  41.499  1.00  0.00     0.138 A 
ATOM      5  C   UNL     1       0.773 -37.368  42.592  1.00  0.00     0.018 A 
ATOM      6  C   UNL     1       1.226 -37.158  43.904  1.00  0.00     0.012 A 
ATOM      7  C   UNL     1      -0.510 -37.858  42.331  1.00  0.00     0.019 A 
ATOM      8  C   UNL     1      -0.913 -38.050  41.009  1.00  0.00     0.094 A 
ATOM      9  C   UNL     1      -0.019 -37.744  39.977  1.00  0.00     0.336 A 
ATOM     10  O   UNL     1      -0.364 -37.910  38.778  1.00  0.00    -0.246 OA
ATOM     11  O   UNL     1       1.196 -37.278  40.253  1.00  0.00    -0.423 OA
ENDROOT
TORSDOF 0
ENDMDL
MODEL 6
REMARK VINA RESULT:    -4.771      2.336      3.788
REMARK INTER + INTRA:          -4.771
REMARK INTER:                  -4.771
REMARK INTRA:                   0.000
REMARK UNBOUND:                 0.000
REMARK SMILES O=c1ccc2ccccc2o1
REMARK SMILES IDX 7 1 8 2 9 3 10 4 5 5 6 6 4 7 3 8 2 9 1 10 11 11
REMARK H PARENT
REMARK Flexibility Score: inf
ROOT
ATOM      1  C   UNL     1       3.260 -36.171  40.189  1.00  0.00     0.001 A 
ATOM      2  C   UNL     1       2.344 -36.176  39.131  1.00  0.00     0.004 A 
ATOM      3  C   UNL     1       1.050 -36.670  39.323  1.00  0.00     0.048 A 
ATOM      4  C   UNL     1       0.665 -37.162  40.575  1.00  0.00     0.138 A 
ATOM      5  C   UNL     1       1.589 -37.156  41.644  1.00  0.00     0.018 A 
ATOM      6  C   UNL     1       2.887 -36.659  41.445  1.00  0.00     0.012 A 
ATOM      7  C   UNL     1       1.177 -37.652  42.885  1.00  0.00     0.019 A 
ATOM      8  C   UNL     1      -0.123 -38.135  43.030  1.00  0.00     0.094 A 
ATOM      9  C   UNL     1      -0.984 -38.109  41.927  1.00  0.00     0.336 A 
ATOM     10  O   UNL     1      -2.161 -38.541  42.039  1.00  0.00    -0.246 OA
ATOM     11  O   UNL     1      -0.566 -37.631  40.758  1.00  0.00    -0.423 OA
ENDROOT
TORSDOF 0
ENDMDL
MODEL 7
REMARK VINA RESULT:    -4.737      2.582      3.507
REMARK INTER + INTRA:          -4.737
REMARK INTER:                  -4.737
REMARK INTRA:                   0.000
REMARK UNBOUND:                 0.000
REMARK SMILES O=c1ccc2ccccc2o1
REMARK SMILES IDX 7 1 8 2 9 3 10 4 5 5 6 6 4 7 3 8 2 9 1 10 11 11
REMARK H PARENT
REMARK Flexibility Score: inf
ROOT
ATOM      1  C   UNL     1      -0.302 -38.071  42.792  1.00  0.00     0.001 A 
ATOM      2  C   UNL     1      -1.136 -37.877  41.685  1.00  0.00     0.004 A 
ATOM      3  C   UNL     1      -0.629 -37.305  40.514  1.00  0.00     0.048 A 
ATOM      4  C   UNL     1       0.715 -36.923  40.444  1.00  0.00     0.138 A 
ATOM      5  C   UNL     1       1.558 -37.119  41.561  1.00  0.00     0.018 A 
ATOM      6  C   UNL     1       1.044 -37.694  42.733  1.00  0.00     0.012 A 
ATOM      7  C   UNL     1       2.897 -36.729  41.462  1.00  0.00     0.019 A 
ATOM      8  C   UNL     1       3.358 -36.162  40.274  1.00  0.00     0.094 A 
ATOM      9  C   UNL     1       2.466 -35.999  39.208  1.00  0.00     0.336 A 
ATOM     10  O   UNL     1       2.863 -35.489  38.129  1.00  0.00    -0.246 OA
ATOM     11  O   UNL     1       1.196 -36.380  39.329  1.00  0.00    -0.423 OA
ENDROOT
TORSDOF 0
ENDMDL
MODEL 8
REMARK VINA RESULT:    -4.731      2.486      4.382
REMARK INTER + INTRA:          -4.731
REMARK INTER:                  -4.731
REMARK INTRA:                   0.000
REMARK UNBOUND:                 0.000
REMARK SMILES O=c1ccc2ccccc2o1
REMARK SMILES IDX 7 1 8 2 9 3 10 4 5 5 6 6 4 7 3 8 2 9 1 10 11 11
REMARK H PARENT
REMARK Flexibility Score: inf
ROOT
ATOM      1  C   UNL     1       0.965 -37.267  43.818  1.00  0.00     0.001 A 
ATOM      2  C   UNL     1       2.223 -36.771  43.461  1.00  0.00     0.004 A 
ATOM      3  C   UNL     1       2.582 -36.667  42.114  1.00  0.00     0.048 A 
ATOM      4  C   UNL     1       1.683 -37.058  41.116  1.00  0.00     0.138 A 
ATOM      5  C   UNL     1       0.411 -37.559  41.475  1.00  0.00     0.018 A 
ATOM      6  C   UNL     1       0.057 -37.661  42.830  1.00  0.00     0.012 A 
ATOM      7  C   UNL     1      -0.467 -37.941  40.458  1.00  0.00     0.019 A 
ATOM      8  C   UNL     1      -0.067 -37.820  39.127  1.00  0.00     0.094 A 
ATOM      9  C   UNL     1       1.208 -37.315  38.845  1.00  0.00     0.336 A 
ATOM     10  O   UNL     1       1.587 -37.199  37.652  1.00  0.00    -0.246 OA
ATOM     11  O   UNL     1       2.024 -36.958  39.834  1.00  0.00    -0.423 OA
ENDROOT
TORSDOF 0
ENDMDL
MODEL 9
REMARK VINA RESULT:    -4.648      1.309      3.808
REMARK INTER + INTRA:          -4.648
REMARK INTER:                  -4.648
REMARK INTRA:                   0.000
REMARK UNBOUND:                 0.000
REMARK SMILES O=c1ccc2ccccc2o1
REMARK SMILES IDX 7 1 8 2 9 3 10 4 5 5 6 6 4 7 3 8 2 9 1 10 11 11
REMARK H PARENT
REMARK Flexibility Score: inf
ROOT
ATOM      1  C   UNL     1       4.321 -35.825  43.512  1.00  0.00     0.001 A 
ATOM      2  C   UNL     1       3.687 -36.104  44.727  1.00  0.00     0.004 A 
ATOM      3  C   UNL     1       2.414 -36.683  44.740  1.00  0.00     0.048 A 
ATOM      4  C   UNL     1       1.768 -36.984  43.536  1.00  0.00     0.138 A 
ATOM      5  C   UNL     1       2.408 -36.702  42.308  1.00  0.00     0.018 A 
ATOM      6  C   UNL     1       3.686 -36.122  42.302  1.00  0.00     0.012 A 
ATOM      7  C   UNL     1       1.739 -37.015  41.121  1.00  0.00     0.019 A 
ATOM      8  C   UNL     1       0.470 -37.591  41.182  1.00  0.00     0.094 A 
ATOM      9  C   UNL     1      -0.101 -37.842  42.434  1.00  0.00     0.336 A 
ATOM     10  O   UNL     1      -1.245 -38.361  42.509  1.00  0.00    -0.246 OA
ATOM     11  O   UNL     1       0.557 -37.535  43.549  1.00  0.00    -0.423 OA
ENDROOT
TORSDOF 0
ENDMDL
