MODEL 1
REMARK VINA RESULT:    -3.825      0.000      0.000
REMARK INTER + INTRA:         -10.003
REMARK INTER:                  -7.179
REMARK INTRA:                  -2.824
REMARK UNBOUND:                -2.824
REMARK SMILES CCCCCCCCC=CCCCCCCCC(=O)[O-]
REMARK SMILES IDX 10 1 9 2 11 3 12 4 13 5 14 6 15 7 16 8 17 9 18 10 19 11
REMARK SMILES IDX 20 12 8 13 7 14 6 15 5 16 4 17 3 18 2 19 1 20
REMARK H PARENT
REMARK Flexibility Score: inf
ROOT
ATOM      1  C   UNL     1       1.480 125.729 112.756  1.00  0.00    -0.031 C 
ATOM      2  C   UNL     1       2.112 125.268 111.667  1.00  0.00    -0.031 C 
ENDROOT
BRANCH   1   3
ATOM      3  C   UNL     1       0.940 124.779 113.788  1.00  0.00     0.027 C 
BRANCH   3   4
ATOM      4  C   UNL     1       1.374 123.338 113.497  1.00  0.00     0.004 C 
BRANCH   4   5
ATOM      5  C   UNL     1       2.570 122.936 114.367  1.00  0.00     0.000 C 
BRANCH   5   6
ATOM      6  C   UNL     1       3.600 122.141 113.553  1.00  0.00     0.000 C 
BRANCH   6   7
ATOM      7  C   UNL     1       4.867 122.973 113.307  1.00  0.00     0.000 C 
BRANCH   7   8
ATOM      8  C   UNL     1       5.295 122.997 111.828  1.00  0.00     0.006 C 
BRANCH   8   9
ATOM      9  C   UNL     1       5.837 124.358 111.356  1.00  0.00     0.053 C 
BRANCH   9  10
ATOM     10  C   UNL     1       7.294 124.537 111.651  1.00  0.00     0.041 C 
ATOM     11  O   UNL     1       8.017 123.539 111.913  1.00  0.00    -0.550 OA
ATOM     12  O   UNL     1       7.863 125.804 111.610  1.00  0.00    -0.550 OA
ENDBRANCH   9  10
ENDBRANCH   8   9
ENDBRANCH   7   8
ENDBRANCH   6   7
ENDBRANCH   5   6
ENDBRANCH   4   5
ENDBRANCH   3   4
ENDBRANCH   1   3
BRANCH   2  13
ATOM     13  C   UNL     1       2.660 126.199 110.619  1.00  0.00     0.027 C 
BRANCH  13  14
ATOM     14  C   UNL     1       1.733 127.397 110.344  1.00  0.00     0.004 C 
BRANCH  14  15
ATOM     15  C   UNL     1       2.434 128.767 110.391  1.00  0.00     0.000 C 
BRANCH  15  16
ATOM     16  C   UNL     1       2.425 129.391 111.797  1.00  0.00     0.000 C 
BRANCH  16  17
ATOM     17  C   UNL     1       3.813 129.375 112.458  1.00  0.00    -0.000 C 
BRANCH  17  18
ATOM     18  C   UNL     1       3.892 128.401 113.648  1.00  0.00    -0.000 C 
BRANCH  18  19
ATOM     19  C   UNL     1       4.882 127.251 113.401  1.00  0.00    -0.003 C 
ATOM     20  C   UNL     1       5.151 126.425 114.657  1.00  0.00     0.004 C 
ENDBRANCH  18  19
ENDBRANCH  17  18
ENDBRANCH  16  17
ENDBRANCH  15  16
ENDBRANCH  14  15
ENDBRANCH  13  14
ENDBRANCH   2  13
TORSDOF 15
ENDMDL
MODEL 2
REMARK VINA RESULT:    -3.812      2.688      5.310
REMARK INTER + INTRA:          -9.980
REMARK INTER:                  -7.505
REMARK INTRA:                  -2.474
REMARK UNBOUND:                -2.824
REMARK SMILES CCCCCCCCC=CCCCCCCCC(=O)[O-]
REMARK SMILES IDX 10 1 9 2 11 3 12 4 13 5 14 6 15 7 16 8 17 9 18 10 19 11
REMARK SMILES IDX 20 12 8 13 7 14 6 15 5 16 4 17 3 18 2 19 1 20
REMARK H PARENT
REMARK Flexibility Score: inf
ROOT
ATOM      1  C   UNL     1       1.913 126.378 111.536  1.00  0.00    -0.031 C 
ATOM      2  C   UNL     1       2.879 126.417 110.608  1.00  0.00    -0.031 C 
ENDROOT
BRANCH   1   3
ATOM      3  C   UNL     1       1.012 127.561 111.756  1.00  0.00     0.027 C 
BRANCH   3   4
ATOM      4  C   UNL     1       1.392 128.318 113.033  1.00  0.00     0.004 C 
BRANCH   4   5
ATOM      5  C   UNL     1       2.033 127.379 114.061  1.00  0.00     0.000 C 
BRANCH   5   6
ATOM      6  C   UNL     1       3.282 128.015 114.684  1.00  0.00     0.000 C 
BRANCH   6   7
ATOM      7  C   UNL     1       4.562 127.402 114.097  1.00  0.00     0.000 C 
BRANCH   7   8
ATOM      8  C   UNL     1       5.184 128.259 112.980  1.00  0.00     0.006 C 
BRANCH   8   9
ATOM      9  C   UNL     1       5.196 129.768 113.283  1.00  0.00     0.053 C 
BRANCH   9  10
ATOM     10  C   UNL     1       6.460 130.217 113.948  1.00  0.00     0.041 C 
ATOM     11  O   UNL     1       6.519 130.313 115.203  1.00  0.00    -0.550 OA
ATOM     12  O   UNL     1       7.586 130.502 113.185  1.00  0.00    -0.550 OA
ENDBRANCH   9  10
ENDBRANCH   8   9
ENDBRANCH   7   8
ENDBRANCH   6   7
ENDBRANCH   5   6
ENDBRANCH   4   5
ENDBRANCH   3   4
ENDBRANCH   1   3
BRANCH   2  13
ATOM     13  C   UNL     1       3.794 125.246 110.369  1.00  0.00     0.027 C 
BRANCH  13  14
ATOM     14  C   UNL     1       4.148 124.496 111.666  1.00  0.00     0.004 C 
BRANCH  14  15
ATOM     15  C   UNL     1       5.572 123.911 111.693  1.00  0.00     0.000 C 
BRANCH  15  16
ATOM     16  C   UNL     1       6.632 124.945 112.110  1.00  0.00     0.000 C 
BRANCH  16  17
ATOM     17  C   UNL     1       7.340 125.583 110.904  1.00  0.00    -0.000 C 
BRANCH  17  18
ATOM     18  C   UNL     1       7.435 124.629 109.699  1.00  0.00    -0.000 C 
BRANCH  18  19
ATOM     19  C   UNL     1       6.984 125.292 108.388  1.00  0.00    -0.003 C 
ATOM     20  C   UNL     1       7.811 124.843 107.185  1.00  0.00     0.004 C 
ENDBRANCH  18  19
ENDBRANCH  17  18
ENDBRANCH  16  17
ENDBRANCH  15  16
ENDBRANCH  14  15
ENDBRANCH  13  14
ENDBRANCH   2  13
TORSDOF 15
ENDMDL
MODEL 3
REMARK VINA RESULT:    -3.704      2.716      5.623
REMARK INTER + INTRA:          -9.776
REMARK INTER:                  -7.219
REMARK INTRA:                  -2.557
REMARK UNBOUND:                -2.824
REMARK SMILES CCCCCCCCC=CCCCCCCCC(=O)[O-]
REMARK SMILES IDX 10 1 9 2 11 3 12 4 13 5 14 6 15 7 16 8 17 9 18 10 19 11
REMARK SMILES IDX 20 12 8 13 7 14 6 15 5 16 4 17 3 18 2 19 1 20
REMARK H PARENT
REMARK Flexibility Score: inf
ROOT
ATOM      1  C   UNL     1       2.296 126.945 110.676  1.00  0.00    -0.031 C 
ATOM      2  C   UNL     1       3.165 126.037 110.210  1.00  0.00    -0.031 C 
ENDROOT
BRANCH   1   3
ATOM      3  C   UNL     1       2.151 128.282 110.005  1.00  0.00     0.027 C 
BRANCH   3   4
ATOM      4  C   UNL     1       2.853 129.384 110.806  1.00  0.00     0.004 C 
BRANCH   4   5
ATOM      5  C   UNL     1       2.973 128.999 112.286  1.00  0.00     0.000 C 
BRANCH   5   6
ATOM      6  C   UNL     1       4.075 129.811 112.978  1.00  0.00     0.000 C 
BRANCH   6   7
ATOM      7  C   UNL     1       4.245 129.372 114.439  1.00  0.00     0.000 C 
BRANCH   7   8
ATOM      8  C   UNL     1       4.962 130.425 115.306  1.00  0.00     0.006 C 
BRANCH   8   9
ATOM      9  C   UNL     1       6.454 130.129 115.543  1.00  0.00     0.053 C 
BRANCH   9  10
ATOM     10  C   UNL     1       7.355 131.120 114.872  1.00  0.00     0.041 C 
ATOM     11  O   UNL     1       7.441 132.299 115.308  1.00  0.00    -0.550 OA
ATOM     12  O   UNL     1       8.124 130.735 113.781  1.00  0.00    -0.550 OA
ENDBRANCH   9  10
ENDBRANCH   8   9
ENDBRANCH   7   8
ENDBRANCH   6   7
ENDBRANCH   5   6
ENDBRANCH   4   5
ENDBRANCH   3   4
ENDBRANCH   1   3
BRANCH   2  13
ATOM     13  C   UNL     1       3.329 124.692 110.864  1.00  0.00     0.027 C 
BRANCH  13  14
ATOM     14  C   UNL     1       2.591 124.593 112.212  1.00  0.00     0.004 C 
BRANCH  14  15
ATOM     15  C   UNL     1       3.517 124.440 113.433  1.00  0.00     0.000 C 
BRANCH  15  16
ATOM     16  C   UNL     1       4.073 125.785 113.929  1.00  0.00     0.000 C 
BRANCH  16  17
ATOM     17  C   UNL     1       5.603 125.874 113.799  1.00  0.00    -0.000 C 
BRANCH  17  18
ATOM     18  C   UNL     1       6.048 126.620 112.528  1.00  0.00    -0.000 C 
BRANCH  18  19
ATOM     19  C   UNL     1       6.897 125.739 111.598  1.00  0.00    -0.003 C 
ATOM     20  C   UNL     1       7.155 124.348 112.175  1.00  0.00     0.004 C 
ENDBRANCH  18  19
ENDBRANCH  17  18
ENDBRANCH  16  17
ENDBRANCH  15  16
ENDBRANCH  14  15
ENDBRANCH  13  14
ENDBRANCH   2  13
TORSDOF 15
ENDMDL
MODEL 4
REMARK VINA RESULT:    -3.690      2.822      6.230
REMARK INTER + INTRA:          -9.749
REMARK INTER:                  -8.301
REMARK INTRA:                  -1.449
REMARK UNBOUND:                -2.824
REMARK SMILES CCCCCCCCC=CCCCCCCCC(=O)[O-]
REMARK SMILES IDX 10 1 9 2 11 3 12 4 13 5 14 6 15 7 16 8 17 9 18 10 19 11
REMARK SMILES IDX 20 12 8 13 7 14 6 15 5 16 4 17 3 18 2 19 1 20
REMARK H PARENT
REMARK Flexibility Score: inf
ROOT
ATOM      1  C   UNL     1       3.283 124.985 110.777  1.00  0.00    -0.031 C 
ATOM      2  C   UNL     1       4.000 124.779 111.890  1.00  0.00    -0.031 C 
ENDROOT
BRANCH   1   3
ATOM      3  C   UNL     1       2.761 126.355 110.443  1.00  0.00     0.027 C 
BRANCH   3   4
ATOM      4  C   UNL     1       3.388 127.423 111.346  1.00  0.00     0.004 C 
BRANCH   4   5
ATOM      5  C   UNL     1       2.342 128.032 112.287  1.00  0.00     0.000 C 
BRANCH   5   6
ATOM      6  C   UNL     1       3.011 128.858 113.393  1.00  0.00     0.000 C 
BRANCH   6   7
ATOM      7  C   UNL     1       4.344 129.448 112.908  1.00  0.00     0.000 C 
BRANCH   7   8
ATOM      8  C   UNL     1       4.869 130.577 113.814  1.00  0.00     0.006 C 
BRANCH   8   9
ATOM      9  C   UNL     1       5.830 130.099 114.917  1.00  0.00     0.053 C 
BRANCH   9  10
ATOM     10  C   UNL     1       7.188 130.722 114.812  1.00  0.00     0.041 C 
ATOM     11  O   UNL     1       7.859 130.611 113.752  1.00  0.00    -0.550 OA
ATOM     12  O   UNL     1       7.704 131.450 115.877  1.00  0.00    -0.550 OA
ENDBRANCH   9  10
ENDBRANCH   8   9
ENDBRANCH   7   8
ENDBRANCH   6   7
ENDBRANCH   5   6
ENDBRANCH   4   5
ENDBRANCH   3   4
ENDBRANCH   1   3
BRANCH   2  13
ATOM     13  C   UNL     1       4.531 123.417 112.248  1.00  0.00     0.027 C 
BRANCH  13  14
ATOM     14  C   UNL     1       5.962 123.184 111.731  1.00  0.00     0.004 C 
BRANCH  14  15
ATOM     15  C   UNL     1       7.049 123.963 112.495  1.00  0.00     0.000 C 
BRANCH  15  16
ATOM     16  C   UNL     1       8.292 124.247 111.635  1.00  0.00     0.000 C 
BRANCH  16  17
ATOM     17  C   UNL     1       7.997 125.211 110.474  1.00  0.00    -0.000 C 
BRANCH  17  18
ATOM     18  C   UNL     1       8.770 124.851 109.192  1.00  0.00    -0.000 C 
BRANCH  18  19
ATOM     19  C   UNL     1       7.854 124.754 107.962  1.00  0.00    -0.003 C 
ATOM     20  C   UNL     1       6.446 125.282 108.232  1.00  0.00     0.004 C 
ENDBRANCH  18  19
ENDBRANCH  17  18
ENDBRANCH  16  17
ENDBRANCH  15  16
ENDBRANCH  14  15
ENDBRANCH  13  14
ENDBRANCH   2  13
TORSDOF 15
ENDMDL
MODEL 5
REMARK VINA RESULT:    -3.641      2.103      5.378
REMARK INTER + INTRA:          -9.658
REMARK INTER:                  -7.126
REMARK INTRA:                  -2.532
REMARK UNBOUND:                -2.824
REMARK SMILES CCCCCCCCC=CCCCCCCCC(=O)[O-]
REMARK SMILES IDX 10 1 9 2 11 3 12 4 13 5 14 6 15 7 16 8 17 9 18 10 19 11
REMARK SMILES IDX 20 12 8 13 7 14 6 15 5 16 4 17 3 18 2 19 1 20
REMARK H PARENT
REMARK Flexibility Score: inf
ROOT
ATOM      1  C   UNL     1       2.240 124.395 113.124  1.00  0.00    -0.031 C 
ATOM      2  C   UNL     1       3.143 124.510 114.109  1.00  0.00    -0.031 C 
ENDROOT
BRANCH   1   3
ATOM      3  C   UNL     1       1.538 125.608 112.582  1.00  0.00     0.027 C 
BRANCH   3   4
ATOM      4  C   UNL     1       2.198 126.100 111.289  1.00  0.00     0.004 C 
BRANCH   4   5
ATOM      5  C   UNL     1       2.986 124.974 110.609  1.00  0.00     0.000 C 
BRANCH   5   6
ATOM      6  C   UNL     1       4.404 125.434 110.250  1.00  0.00     0.000 C 
BRANCH   6   7
ATOM      7  C   UNL     1       5.173 125.874 111.505  1.00  0.00     0.000 C 
BRANCH   7   8
ATOM      8  C   UNL     1       6.666 125.496 111.460  1.00  0.00     0.006 C 
BRANCH   8   9
ATOM      9  C   UNL     1       6.943 124.009 111.744  1.00  0.00     0.053 C 
BRANCH   9  10
ATOM     10  C   UNL     1       7.676 123.791 113.031  1.00  0.00     0.041 C 
ATOM     11  O   UNL     1       8.663 123.009 113.076  1.00  0.00    -0.550 OA
ATOM     12  O   UNL     1       7.289 124.473 114.178  1.00  0.00    -0.550 OA
ENDBRANCH   9  10
ENDBRANCH   8   9
ENDBRANCH   7   8
ENDBRANCH   6   7
ENDBRANCH   5   6
ENDBRANCH   4   5
ENDBRANCH   3   4
ENDBRANCH   1   3
BRANCH   2  13
ATOM     13  C   UNL     1       3.858 123.311 114.670  1.00  0.00     0.027 C 
BRANCH  13  14
ATOM     14  C   UNL     1       4.094 122.214 113.616  1.00  0.00     0.004 C 
BRANCH  14  15
ATOM     15  C   UNL     1       3.561 120.825 114.014  1.00  0.00     0.000 C 
BRANCH  15  16
ATOM     16  C   UNL     1       2.024 120.754 114.006  1.00  0.00     0.000 C 
BRANCH  16  17
ATOM     17  C   UNL     1       1.444 120.386 115.381  1.00  0.00    -0.000 C 
BRANCH  17  18
ATOM     18  C   UNL     1       0.616 121.527 116.000  1.00  0.00    -0.000 C 
BRANCH  18  19
ATOM     19  C   UNL     1      -0.151 122.336 114.943  1.00  0.00    -0.003 C 
ATOM     20  C   UNL     1      -0.530 123.734 115.430  1.00  0.00     0.004 C 
ENDBRANCH  18  19
ENDBRANCH  17  18
ENDBRANCH  16  17
ENDBRANCH  15  16
ENDBRANCH  14  15
ENDBRANCH  13  14
ENDBRANCH   2  13
TORSDOF 15
ENDMDL
MODEL 6
REMARK VINA RESULT:    -3.598      1.932      4.328
REMARK INTER + INTRA:          -9.578
REMARK INTER:                  -6.833
REMARK INTRA:                  -2.745
REMARK UNBOUND:                -2.824
REMARK SMILES CCCCCCCCC=CCCCCCCCC(=O)[O-]
REMARK SMILES IDX 10 1 9 2 11 3 12 4 13 5 14 6 15 7 16 8 17 9 18 10 19 11
REMARK SMILES IDX 20 12 8 13 7 14 6 15 5 16 4 17 3 18 2 19 1 20
REMARK H PARENT
REMARK Flexibility Score: inf
ROOT
ATOM      1  C   UNL     1       0.973 124.386 114.015  1.00  0.00    -0.031 C 
ATOM      2  C   UNL     1       1.226 123.208 113.428  1.00  0.00    -0.031 C 
ENDROOT
BRANCH   1   3
ATOM      3  C   UNL     1       1.083 125.668 113.239  1.00  0.00     0.027 C 
BRANCH   3   4
ATOM      4  C   UNL     1       2.511 125.887 112.727  1.00  0.00     0.004 C 
BRANCH   4   5
ATOM      5  C   UNL     1       2.535 126.011 111.199  1.00  0.00     0.000 C 
BRANCH   5   6
ATOM      6  C   UNL     1       3.215 124.794 110.559  1.00  0.00     0.000 C 
BRANCH   6   7
ATOM      7  C   UNL     1       4.481 124.401 111.335  1.00  0.00     0.000 C 
BRANCH   7   8
ATOM      8  C   UNL     1       5.692 125.294 111.007  1.00  0.00     0.006 C 
BRANCH   8   9
ATOM      9  C   UNL     1       6.758 125.335 112.116  1.00  0.00     0.053 C 
BRANCH   9  10
ATOM     10  C   UNL     1       7.812 124.284 111.947  1.00  0.00     0.041 C 
ATOM     11  O   UNL     1       7.630 123.122 112.398  1.00  0.00    -0.550 OA
ATOM     12  O   UNL     1       8.985 124.579 111.264  1.00  0.00    -0.550 OA
ENDBRANCH   9  10
ENDBRANCH   8   9
ENDBRANCH   7   8
ENDBRANCH   6   7
ENDBRANCH   5   6
ENDBRANCH   4   5
ENDBRANCH   3   4
ENDBRANCH   1   3
BRANCH   2  13
ATOM     13  C   UNL     1       1.125 121.910 114.183  1.00  0.00     0.027 C 
BRANCH  13  14
ATOM     14  C   UNL     1       2.387 121.039 114.039  1.00  0.00     0.004 C 
BRANCH  14  15
ATOM     15  C   UNL     1       3.660 121.822 113.668  1.00  0.00     0.000 C 
BRANCH  15  16
ATOM     16  C   UNL     1       4.467 122.263 114.901  1.00  0.00     0.000 C 
BRANCH  16  17
ATOM     17  C   UNL     1       4.781 123.768 114.892  1.00  0.00    -0.000 C 
BRANCH  17  18
ATOM     18  C   UNL     1       4.589 124.423 116.272  1.00  0.00    -0.000 C 
BRANCH  18  19
ATOM     19  C   UNL     1       3.758 125.714 116.199  1.00  0.00    -0.003 C 
ATOM     20  C   UNL     1       2.476 125.638 117.026  1.00  0.00     0.004 C 
ENDBRANCH  18  19
ENDBRANCH  17  18
ENDBRANCH  16  17
ENDBRANCH  15  16
ENDBRANCH  14  15
ENDBRANCH  13  14
ENDBRANCH   2  13
TORSDOF 15
ENDMDL
MODEL 7
REMARK VINA RESULT:    -3.572      1.225      2.922
REMARK INTER + INTRA:          -9.529
REMARK INTER:                  -6.639
REMARK INTRA:                  -2.891
REMARK UNBOUND:                -2.824
REMARK SMILES CCCCCCCCC=CCCCCCCCC(=O)[O-]
REMARK SMILES IDX 10 1 9 2 11 3 12 4 13 5 14 6 15 7 16 8 17 9 18 10 19 11
REMARK SMILES IDX 20 12 8 13 7 14 6 15 5 16 4 17 3 18 2 19 1 20
REMARK H PARENT
REMARK Flexibility Score: inf
ROOT
ATOM      1  C   UNL     1       5.539 126.219 114.255  1.00  0.00    -0.031 C 
ATOM      2  C   UNL     1       4.626 127.128 113.883  1.00  0.00    -0.031 C 
ENDROOT
BRANCH   1   3
ATOM      3  C   UNL     1       5.325 125.375 115.480  1.00  0.00     0.027 C 
BRANCH   3   4
ATOM      4  C   UNL     1       4.036 124.553 115.370  1.00  0.00     0.004 C 
BRANCH   4   5
ATOM      5  C   UNL     1       4.274 123.257 114.585  1.00  0.00     0.000 C 
BRANCH   5   6
ATOM      6  C   UNL     1       3.379 123.196 113.341  1.00  0.00     0.000 C 
BRANCH   6   7
ATOM      7  C   UNL     1       4.138 123.670 112.094  1.00  0.00     0.000 C 
BRANCH   7   8
ATOM      8  C   UNL     1       5.588 123.153 112.037  1.00  0.00     0.006 C 
BRANCH   8   9
ATOM      9  C   UNL     1       6.581 124.142 111.400  1.00  0.00     0.053 C 
BRANCH   9  10
ATOM     10  C   UNL     1       7.985 123.947 111.883  1.00  0.00     0.041 C 
ATOM     11  O   UNL     1       8.227 123.151 112.829  1.00  0.00    -0.550 OA
ATOM     12  O   UNL     1       9.032 124.622 111.269  1.00  0.00    -0.550 OA
ENDBRANCH   9  10
ENDBRANCH   8   9
ENDBRANCH   7   8
ENDBRANCH   6   7
ENDBRANCH   5   6
ENDBRANCH   4   5
ENDBRANCH   3   4
ENDBRANCH   1   3
BRANCH   2  13
ATOM     13  C   UNL     1       4.817 127.986 112.662  1.00  0.00     0.027 C 
BRANCH  13  14
ATOM     14  C   UNL     1       3.900 129.222 112.655  1.00  0.00     0.004 C 
BRANCH  14  15
ATOM     15  C   UNL     1       3.006 129.343 111.407  1.00  0.00     0.000 C 
BRANCH  15  16
ATOM     16  C   UNL     1       2.599 127.975 110.833  1.00  0.00     0.000 C 
BRANCH  16  17
ATOM     17  C   UNL     1       1.273 127.463 111.416  1.00  0.00    -0.000 C 
BRANCH  17  18
ATOM     18  C   UNL     1       1.436 126.139 112.186  1.00  0.00    -0.000 C 
BRANCH  18  19
ATOM     19  C   UNL     1       1.096 126.282 113.678  1.00  0.00    -0.003 C 
ATOM     20  C   UNL     1       0.866 127.734 114.094  1.00  0.00     0.004 C 
ENDBRANCH  18  19
ENDBRANCH  17  18
ENDBRANCH  16  17
ENDBRANCH  15  16
ENDBRANCH  14  15
ENDBRANCH  13  14
ENDBRANCH   2  13
TORSDOF 15
ENDMDL
MODEL 8
REMARK VINA RESULT:    -3.559      2.178      5.504
REMARK INTER + INTRA:          -9.504
REMARK INTER:                  -6.738
REMARK INTRA:                  -2.766
REMARK UNBOUND:                -2.824
REMARK SMILES CCCCCCCCC=CCCCCCCCC(=O)[O-]
REMARK SMILES IDX 10 1 9 2 11 3 12 4 13 5 14 6 15 7 16 8 17 9 18 10 19 11
REMARK SMILES IDX 20 12 8 13 7 14 6 15 5 16 4 17 3 18 2 19 1 20
REMARK H PARENT
REMARK Flexibility Score: inf
ROOT
ATOM      1  C   UNL     1       2.116 125.906 112.563  1.00  0.00    -0.031 C 
ATOM      2  C   UNL     1       2.471 124.628 112.372  1.00  0.00    -0.031 C 
ENDROOT
BRANCH   1   3
ATOM      3  C   UNL     1       1.568 126.727 111.429  1.00  0.00     0.027 C 
BRANCH   3   4
ATOM      4  C   UNL     1       2.695 127.388 110.627  1.00  0.00     0.004 C 
BRANCH   4   5
ATOM      5  C   UNL     1       2.713 128.905 110.848  1.00  0.00     0.000 C 
BRANCH   5   6
ATOM      6  C   UNL     1       1.796 129.302 112.012  1.00  0.00     0.000 C 
BRANCH   6   7
ATOM      7  C   UNL     1       2.616 129.711 113.244  1.00  0.00     0.000 C 
BRANCH   7   8
ATOM      8  C   UNL     1       4.075 130.070 112.905  1.00  0.00     0.006 C 
BRANCH   8   9
ATOM      9  C   UNL     1       4.782 130.903 113.990  1.00  0.00     0.053 C 
BRANCH   9  10
ATOM     10  C   UNL     1       6.130 130.360 114.351  1.00  0.00     0.041 C 
ATOM     11  O   UNL     1       6.370 129.982 115.528  1.00  0.00    -0.550 OA
ATOM     12  O   UNL     1       7.117 130.244 113.379  1.00  0.00    -0.550 OA
ENDBRANCH   9  10
ENDBRANCH   8   9
ENDBRANCH   7   8
ENDBRANCH   6   7
ENDBRANCH   5   6
ENDBRANCH   4   5
ENDBRANCH   3   4
ENDBRANCH   1   3
BRANCH   2  13
ATOM     13  C   UNL     1       3.023 123.785 113.490  1.00  0.00     0.027 C 
BRANCH  13  14
ATOM     14  C   UNL     1       4.088 122.784 113.009  1.00  0.00     0.004 C 
BRANCH  14  15
ATOM     15  C   UNL     1       4.960 123.293 111.846  1.00  0.00     0.000 C 
BRANCH  15  16
ATOM     16  C   UNL     1       6.449 123.393 112.218  1.00  0.00     0.000 C 
BRANCH  16  17
ATOM     17  C   UNL     1       6.981 124.833 112.137  1.00  0.00    -0.000 C 
BRANCH  17  18
ATOM     18  C   UNL     1       5.905 125.839 111.688  1.00  0.00    -0.000 C 
BRANCH  18  19
ATOM     19  C   UNL     1       5.755 127.013 112.668  1.00  0.00    -0.003 C 
ATOM     20  C   UNL     1       5.421 126.558 114.087  1.00  0.00     0.004 C 
ENDBRANCH  18  19
ENDBRANCH  17  18
ENDBRANCH  16  17
ENDBRANCH  15  16
ENDBRANCH  14  15
ENDBRANCH  13  14
ENDBRANCH   2  13
TORSDOF 15
ENDMDL
MODEL 9
REMARK VINA RESULT:    -3.549      1.249      3.323
REMARK INTER + INTRA:          -9.485
REMARK INTER:                  -6.683
REMARK INTRA:                  -2.802
REMARK UNBOUND:                -2.824
REMARK SMILES CCCCCCCCC=CCCCCCCCC(=O)[O-]
REMARK SMILES IDX 10 1 9 2 11 3 12 4 13 5 14 6 15 7 16 8 17 9 18 10 19 11
REMARK SMILES IDX 20 12 8 13 7 14 6 15 5 16 4 17 3 18 2 19 1 20
REMARK H PARENT
REMARK Flexibility Score: inf
ROOT
ATOM      1  C   UNL     1       3.499 125.747 114.307  1.00  0.00    -0.031 C 
ATOM      2  C   UNL     1       4.775 126.122 114.474  1.00  0.00    -0.031 C 
ENDROOT
BRANCH   1   3
ATOM      3  C   UNL     1       3.123 124.292 114.293  1.00  0.00     0.027 C 
BRANCH   3   4
ATOM      4  C   UNL     1       2.136 123.985 113.162  1.00  0.00     0.004 C 
BRANCH   4   5
ATOM      5  C   UNL     1       2.255 125.014 112.032  1.00  0.00     0.000 C 
BRANCH   5   6
ATOM      6  C   UNL     1       3.142 124.485 110.898  1.00  0.00     0.000 C 
BRANCH   6   7
ATOM      7  C   UNL     1       4.085 125.581 110.381  1.00  0.00     0.000 C 
BRANCH   7   8
ATOM      8  C   UNL     1       5.574 125.216 110.526  1.00  0.00     0.006 C 
BRANCH   8   9
ATOM      9  C   UNL     1       5.862 124.205 111.651  1.00  0.00     0.053 C 
BRANCH   9  10
ATOM     10  C   UNL     1       7.311 124.156 112.029  1.00  0.00     0.041 C 
ATOM     11  O   UNL     1       7.789 123.131 112.585  1.00  0.00    -0.550 OA
ATOM     12  O   UNL     1       8.142 125.231 111.741  1.00  0.00    -0.550 OA
ENDBRANCH   9  10
ENDBRANCH   8   9
ENDBRANCH   7   8
ENDBRANCH   6   7
ENDBRANCH   5   6
ENDBRANCH   4   5
ENDBRANCH   3   4
ENDBRANCH   1   3
BRANCH   2  13
ATOM     13  C   UNL     1       5.178 127.572 114.491  1.00  0.00     0.027 C 
BRANCH  13  14
ATOM     14  C   UNL     1       4.134 128.470 115.180  1.00  0.00     0.004 C 
BRANCH  14  15
ATOM     15  C   UNL     1       3.447 129.480 114.242  1.00  0.00     0.000 C 
BRANCH  15  16
ATOM     16  C   UNL     1       4.069 129.503 112.835  1.00  0.00     0.000 C 
BRANCH  16  17
ATOM     17  C   UNL     1       3.140 128.896 111.771  1.00  0.00    -0.000 C 
BRANCH  17  18
ATOM     18  C   UNL     1       1.718 128.638 112.302  1.00  0.00    -0.000 C 
BRANCH  18  19
ATOM     19  C   UNL     1       0.689 128.481 111.171  1.00  0.00    -0.003 C 
ATOM     20  C   UNL     1       1.312 127.972 109.873  1.00  0.00     0.004 C 
ENDBRANCH  18  19
ENDBRANCH  17  18
ENDBRANCH  16  17
ENDBRANCH  15  16
ENDBRANCH  14  15
ENDBRANCH  13  14
ENDBRANCH   2  13
TORSDOF 15
ENDMDL
