MODEL 1
REMARK VINA RESULT:    -5.098      0.000      0.000
REMARK INTER + INTRA:          -5.693
REMARK INTER:                  -5.397
REMARK INTRA:                  -0.297
REMARK UNBOUND:                -0.297
REMARK SMILES CC1=CC[C@H]2[C@@H]3[C@@H](C(C)C)CC[C@@]2(C)[C@H]13
REMARK SMILES IDX 1 1 2 2 3 3 4 4 5 5 6 6 15 7 13 8 12 9 11 10 7 11 14 12 8 13
REMARK SMILES IDX 9 14 10 15
REMARK H PARENT
REMARK Flexibility Score: inf
ROOT
ATOM      1  C   UNL     1     134.201 139.287 140.056  1.00  0.00     0.039 C 
ATOM      2  C   UNL     1     134.709 138.948 138.688  1.00  0.00    -0.073 C 
ATOM      3  C   UNL     1     136.042 138.871 138.429  1.00  0.00    -0.027 C 
ATOM      4  C   UNL     1     136.501 138.538 137.007  1.00  0.00     0.031 C 
ATOM      5  C   UNL     1     135.266 138.302 136.076  1.00  0.00     0.003 C 
ATOM      6  C   UNL     1     134.287 137.372 136.829  1.00  0.00     0.004 C 
ATOM      7  C   UNL     1     133.757 138.652 137.527  1.00  0.00     0.024 C 
ATOM      8  C   UNL     1     134.201 139.412 136.253  1.00  0.00    -0.022 C 
ATOM      9  C   UNL     1     133.129 139.270 135.128  1.00  0.00     0.008 C 
ATOM     10  C   UNL     1     132.390 137.905 135.178  1.00  0.00     0.005 C 
ATOM     11  C   UNL     1     133.255 136.778 135.824  1.00  0.00    -0.005 C 
ATOM     12  C   UNL     1     134.674 140.878 136.385  1.00  0.00     0.012 C 
ENDROOT
BRANCH  11  13
ATOM     13  C   UNL     1     132.430 135.611 136.443  1.00  0.00    -0.014 C 
ATOM     14  C   UNL     1     132.261 134.395 135.514  1.00  0.00     0.007 C 
ATOM     15  C   UNL     1     133.001 135.171 137.799  1.00  0.00     0.007 C 
ENDBRANCH  11  13
TORSDOF 1
ENDMDL
MODEL 2
REMARK VINA RESULT:    -5.092      4.848      7.067
REMARK INTER + INTRA:          -5.686
REMARK INTER:                  -5.397
REMARK INTRA:                  -0.289
REMARK UNBOUND:                -0.297
REMARK SMILES CC1=CC[C@H]2[C@@H]3[C@@H](C(C)C)CC[C@@]2(C)[C@H]13
REMARK SMILES IDX 1 1 2 2 3 3 4 4 5 5 6 6 15 7 13 8 12 9 11 10 7 11 14 12 8 13
REMARK SMILES IDX 9 14 10 15
REMARK H PARENT
REMARK Flexibility Score: inf
ROOT
ATOM      1  C   UNL     1     138.329 133.374 140.076  1.00  0.00     0.039 C 
ATOM      2  C   UNL     1     137.845 133.703 138.697  1.00  0.00    -0.073 C 
ATOM      3  C   UNL     1     136.517 133.787 138.417  1.00  0.00    -0.027 C 
ATOM      4  C   UNL     1     136.082 134.109 136.984  1.00  0.00     0.031 C 
ATOM      5  C   UNL     1     137.333 134.329 136.071  1.00  0.00     0.003 C 
ATOM      6  C   UNL     1     138.307 135.259 136.831  1.00  0.00     0.004 C 
ATOM      7  C   UNL     1     138.817 133.982 137.549  1.00  0.00     0.024 C 
ATOM      8  C   UNL     1     138.388 133.213 136.274  1.00  0.00    -0.022 C 
ATOM      9  C   UNL     1     139.479 133.337 135.165  1.00  0.00     0.008 C 
ATOM     10  C   UNL     1     140.226 134.698 135.214  1.00  0.00     0.005 C 
ATOM     11  C   UNL     1     139.358 135.837 135.837  1.00  0.00    -0.005 C 
ATOM     12  C   UNL     1     137.904 131.751 136.413  1.00  0.00     0.012 C 
ENDROOT
BRANCH  11  13
ATOM     13  C   UNL     1     140.182 137.004 136.457  1.00  0.00    -0.014 C 
ATOM     14  C   UNL     1     140.330 138.231 135.539  1.00  0.00     0.007 C 
ATOM     15  C   UNL     1     139.624 137.426 137.825  1.00  0.00     0.007 C 
ENDBRANCH  11  13
TORSDOF 1
ENDMDL
MODEL 3
REMARK VINA RESULT:    -5.089      3.113      5.000
REMARK INTER + INTRA:          -5.684
REMARK INTER:                  -5.398
REMARK INTRA:                  -0.286
REMARK UNBOUND:                -0.297
REMARK SMILES CC1=CC[C@H]2[C@@H]3[C@@H](C(C)C)CC[C@@]2(C)[C@H]13
REMARK SMILES IDX 1 1 2 2 3 3 4 4 5 5 6 6 15 7 13 8 12 9 11 10 7 11 14 12 8 13
REMARK SMILES IDX 9 14 10 15
REMARK H PARENT
REMARK Flexibility Score: inf
ROOT
ATOM      1  C   UNL     1     133.425 134.198 140.105  1.00  0.00     0.039 C 
ATOM      2  C   UNL     1     133.748 134.714 138.736  1.00  0.00    -0.073 C 
ATOM      3  C   UNL     1     133.831 136.048 138.486  1.00  0.00    -0.027 C 
ATOM      4  C   UNL     1     134.146 136.516 137.062  1.00  0.00     0.031 C 
ATOM      5  C   UNL     1     134.360 135.287 136.119  1.00  0.00     0.003 C 
ATOM      6  C   UNL     1     135.294 134.295 136.851  1.00  0.00     0.004 C 
ATOM      7  C   UNL     1     134.021 133.769 137.564  1.00  0.00     0.024 C 
ATOM      8  C   UNL     1     133.245 134.228 136.304  1.00  0.00    -0.022 C 
ATOM      9  C   UNL     1     133.363 133.163 135.169  1.00  0.00     0.008 C 
ATOM     10  C   UNL     1     134.723 132.415 135.193  1.00  0.00     0.005 C 
ATOM     11  C   UNL     1     135.866 133.267 135.830  1.00  0.00    -0.005 C 
ATOM     12  C   UNL     1     131.784 134.709 136.462  1.00  0.00     0.012 C 
ENDROOT
BRANCH  11  13
ATOM     13  C   UNL     1     137.036 132.429 136.425  1.00  0.00    -0.014 C 
ATOM     14  C   UNL     1     138.265 132.317 135.505  1.00  0.00     0.007 C 
ATOM     15  C   UNL     1     137.453 132.943 137.811  1.00  0.00     0.007 C 
ENDBRANCH  11  13
TORSDOF 1
ENDMDL
MODEL 4
REMARK VINA RESULT:    -5.055      3.088      5.031
REMARK INTER + INTRA:          -5.647
REMARK INTER:                  -5.339
REMARK INTRA:                  -0.308
REMARK UNBOUND:                -0.297
REMARK SMILES CC1=CC[C@H]2[C@@H]3[C@@H](C(C)C)CC[C@@]2(C)[C@H]13
REMARK SMILES IDX 1 1 2 2 3 3 4 4 5 5 6 6 15 7 13 8 12 9 11 10 7 11 14 12 8 13
REMARK SMILES IDX 9 14 10 15
REMARK H PARENT
REMARK Flexibility Score: inf
ROOT
ATOM      1  C   UNL     1     139.373 138.422 140.145  1.00  0.00     0.039 C 
ATOM      2  C   UNL     1     139.000 137.893 138.793  1.00  0.00    -0.073 C 
ATOM      3  C   UNL     1     138.906 136.557 138.559  1.00  0.00    -0.027 C 
ATOM      4  C   UNL     1     138.538 136.076 137.153  1.00  0.00     0.031 C 
ATOM      5  C   UNL     1     138.293 137.297 136.206  1.00  0.00     0.003 C 
ATOM      6  C   UNL     1     137.388 138.298 136.962  1.00  0.00     0.004 C 
ATOM      7  C   UNL     1     138.687 138.828 137.623  1.00  0.00     0.024 C 
ATOM      8  C   UNL     1     139.416 138.355 136.340  1.00  0.00    -0.022 C 
ATOM      9  C   UNL     1     139.259 139.409 135.200  1.00  0.00     0.008 C 
ATOM     10  C   UNL     1     137.902 140.161 135.266  1.00  0.00     0.005 C 
ATOM     11  C   UNL     1     136.781 139.317 135.952  1.00  0.00    -0.005 C 
ATOM     12  C   UNL     1     140.880 137.872 136.449  1.00  0.00     0.012 C 
ENDROOT
BRANCH  11  13
ATOM     13  C   UNL     1     135.635 140.164 136.582  1.00  0.00    -0.014 C 
ATOM     14  C   UNL     1     134.439 140.404 135.643  1.00  0.00     0.007 C 
ATOM     15  C   UNL     1     135.157 139.568 137.914  1.00  0.00     0.007 C 
ENDBRANCH  11  13
TORSDOF 1
ENDMDL
MODEL 5
REMARK VINA RESULT:    -5.014      4.737      6.124
REMARK INTER + INTRA:          -5.604
REMARK INTER:                  -5.199
REMARK INTRA:                  -0.405
REMARK UNBOUND:                -0.297
REMARK SMILES CC1=CC[C@H]2[C@@H]3[C@@H](C(C)C)CC[C@@]2(C)[C@H]13
REMARK SMILES IDX 1 1 2 2 3 3 4 4 5 5 6 6 15 7 13 8 12 9 11 10 7 11 14 12 8 13
REMARK SMILES IDX 9 14 10 15
REMARK H PARENT
REMARK Flexibility Score: inf
ROOT
ATOM      1  C   UNL     1     137.092 137.832 137.225  1.00  0.00     0.039 C 
ATOM      2  C   UNL     1     138.445 137.586 136.631  1.00  0.00    -0.073 C 
ATOM      3  C   UNL     1     139.546 138.242 137.085  1.00  0.00    -0.027 C 
ATOM      4  C   UNL     1     140.900 137.961 136.426  1.00  0.00     0.031 C 
ATOM      5  C   UNL     1     140.748 136.877 135.309  1.00  0.00     0.003 C 
ATOM      6  C   UNL     1     139.897 135.725 135.891  1.00  0.00     0.004 C 
ATOM      7  C   UNL     1     138.656 136.571 135.505  1.00  0.00     0.024 C 
ATOM      8  C   UNL     1     139.541 137.177 134.386  1.00  0.00    -0.022 C 
ATOM      9  C   UNL     1     139.595 136.223 133.153  1.00  0.00     0.008 C 
ATOM     10  C   UNL     1     139.513 134.725 133.554  1.00  0.00     0.005 C 
ATOM     11  C   UNL     1     140.050 134.459 134.995  1.00  0.00    -0.005 C 
ATOM     12  C   UNL     1     139.289 138.638 133.945  1.00  0.00     0.012 C 
ENDROOT
BRANCH  11  13
ATOM     13  C   UNL     1     139.471 133.181 135.671  1.00  0.00    -0.014 C 
ATOM     14  C   UNL     1     139.070 133.373 137.145  1.00  0.00     0.007 C 
ATOM     15  C   UNL     1     138.296 132.601 134.870  1.00  0.00     0.007 C 
ENDBRANCH  11  13
TORSDOF 1
ENDMDL
MODEL 6
REMARK VINA RESULT:    -5.000      1.593      4.586
REMARK INTER + INTRA:          -5.589
REMARK INTER:                  -5.200
REMARK INTRA:                  -0.389
REMARK UNBOUND:                -0.297
REMARK SMILES CC1=CC[C@H]2[C@@H]3[C@@H](C(C)C)CC[C@@]2(C)[C@H]13
REMARK SMILES IDX 1 1 2 2 3 3 4 4 5 5 6 6 15 7 13 8 12 9 11 10 7 11 14 12 8 13
REMARK SMILES IDX 9 14 10 15
REMARK H PARENT
REMARK Flexibility Score: inf
ROOT
ATOM      1  C   UNL     1     135.693 134.643 137.060  1.00  0.00     0.039 C 
ATOM      2  C   UNL     1     134.323 134.958 136.542  1.00  0.00    -0.073 C 
ATOM      3  C   UNL     1     133.236 134.245 136.941  1.00  0.00    -0.027 C 
ATOM      4  C   UNL     1     131.863 134.602 136.363  1.00  0.00     0.031 C 
ATOM      5  C   UNL     1     131.983 135.820 135.388  1.00  0.00     0.003 C 
ATOM      6  C   UNL     1     132.850 136.892 136.087  1.00  0.00     0.004 C 
ATOM      7  C   UNL     1     134.079 136.106 135.560  1.00  0.00     0.024 C 
ATOM      8  C   UNL     1     133.162 135.643 134.400  1.00  0.00    -0.022 C 
ATOM      9  C   UNL     1     133.072 136.746 133.299  1.00  0.00     0.008 C 
ATOM     10  C   UNL     1     133.166 138.181 133.884  1.00  0.00     0.005 C 
ATOM     11  C   UNL     1     132.671 138.260 135.363  1.00  0.00    -0.005 C 
ATOM     12  C   UNL     1     133.400 134.251 133.771  1.00  0.00     0.012 C 
ENDROOT
BRANCH  11  13
ATOM     13  C   UNL     1     133.270 139.445 136.178  1.00  0.00    -0.014 C 
ATOM     14  C   UNL     1     133.799 139.050 137.569  1.00  0.00     0.007 C 
ATOM     15  C   UNL     1     134.356 140.185 135.384  1.00  0.00     0.007 C 
ENDBRANCH  11  13
TORSDOF 1
ENDMDL
MODEL 7
REMARK VINA RESULT:    -4.990      4.217      5.808
REMARK INTER + INTRA:          -5.578
REMARK INTER:                  -5.172
REMARK INTRA:                  -0.407
REMARK UNBOUND:                -0.297
REMARK SMILES CC1=CC[C@H]2[C@@H]3[C@@H](C(C)C)CC[C@@]2(C)[C@H]13
REMARK SMILES IDX 1 1 2 2 3 3 4 4 5 5 6 6 15 7 13 8 12 9 11 10 7 11 14 12 8 13
REMARK SMILES IDX 9 14 10 15
REMARK H PARENT
REMARK Flexibility Score: inf
ROOT
ATOM      1  C   UNL     1     137.890 135.686 136.989  1.00  0.00     0.039 C 
ATOM      2  C   UNL     1     137.593 134.306 136.487  1.00  0.00    -0.073 C 
ATOM      3  C   UNL     1     138.272 133.225 136.954  1.00  0.00    -0.027 C 
ATOM      4  C   UNL     1     137.937 131.840 136.390  1.00  0.00     0.031 C 
ATOM      5  C   UNL     1     136.780 131.944 135.343  1.00  0.00     0.003 C 
ATOM      6  C   UNL     1     135.676 132.836 135.956  1.00  0.00     0.004 C 
ATOM      7  C   UNL     1     136.502 134.046 135.446  1.00  0.00     0.024 C 
ATOM      8  C   UNL     1     137.023 133.096 134.338  1.00  0.00    -0.022 C 
ATOM      9  C   UNL     1     135.986 132.986 133.178  1.00  0.00     0.008 C 
ATOM     10  C   UNL     1     134.520 133.106 133.675  1.00  0.00     0.005 C 
ATOM     11  C   UNL     1     134.351 132.649 135.159  1.00  0.00    -0.005 C 
ATOM     12  C   UNL     1     138.452 133.308 133.785  1.00  0.00     0.012 C 
ENDROOT
BRANCH  11  13
ATOM     13  C   UNL     1     133.126 133.277 135.888  1.00  0.00    -0.014 C 
ATOM     14  C   UNL     1     133.419 133.745 137.325  1.00  0.00     0.007 C 
ATOM     15  C   UNL     1     132.506 134.420 135.071  1.00  0.00     0.007 C 
ENDBRANCH  11  13
TORSDOF 1
ENDMDL
MODEL 8
REMARK VINA RESULT:    -4.973      2.398      4.999
REMARK INTER + INTRA:          -5.561
REMARK INTER:                  -5.148
REMARK INTRA:                  -0.413
REMARK UNBOUND:                -0.297
REMARK SMILES CC1=CC[C@H]2[C@@H]3[C@@H](C(C)C)CC[C@@]2(C)[C@H]13
REMARK SMILES IDX 1 1 2 2 3 3 4 4 5 5 6 6 15 7 13 8 12 9 11 10 7 11 14 12 8 13
REMARK SMILES IDX 9 14 10 15
REMARK H PARENT
REMARK Flexibility Score: inf
ROOT
ATOM      1  C   UNL     1     134.906 136.700 136.852  1.00  0.00     0.039 C 
ATOM      2  C   UNL     1     135.079 138.133 136.446  1.00  0.00    -0.073 C 
ATOM      3  C   UNL     1     134.336 139.121 137.012  1.00  0.00    -0.027 C 
ATOM      4  C   UNL     1     134.544 140.564 136.543  1.00  0.00     0.031 C 
ATOM      5  C   UNL     1     135.670 140.628 135.459  1.00  0.00     0.003 C 
ATOM      6  C   UNL     1     136.859 139.783 135.973  1.00  0.00     0.004 C 
ATOM      7  C   UNL     1     136.110 138.552 135.397  1.00  0.00     0.024 C 
ATOM      8  C   UNL     1     135.481 139.535 134.378  1.00  0.00    -0.022 C 
ATOM      9  C   UNL     1     136.467 139.809 133.200  1.00  0.00     0.008 C 
ATOM     10  C   UNL     1     137.953 139.770 133.646  1.00  0.00     0.005 C 
ATOM     11  C   UNL     1     138.138 140.131 135.154  1.00  0.00    -0.005 C 
ATOM     12  C   UNL     1     134.055 139.252 133.852  1.00  0.00     0.012 C 
ENDROOT
BRANCH  11  13
ATOM     13  C   UNL     1     139.431 139.550 135.799  1.00  0.00    -0.014 C 
ATOM     14  C   UNL     1     139.234 139.000 137.224  1.00  0.00     0.007 C 
ATOM     15  C   UNL     1     140.082 138.487 134.903  1.00  0.00     0.007 C 
ENDBRANCH  11  13
TORSDOF 1
ENDMDL
MODEL 9
REMARK VINA RESULT:    -4.798      1.462      4.153
REMARK INTER + INTRA:          -5.376
REMARK INTER:                  -4.951
REMARK INTRA:                  -0.425
REMARK UNBOUND:                -0.297
REMARK SMILES CC1=CC[C@H]2[C@@H]3[C@@H](C(C)C)CC[C@@]2(C)[C@H]13
REMARK SMILES IDX 1 1 2 2 3 3 4 4 5 5 6 6 15 7 13 8 12 9 11 10 7 11 14 12 8 13
REMARK SMILES IDX 9 14 10 15
REMARK H PARENT
REMARK Flexibility Score: inf
ROOT
ATOM      1  C   UNL     1     135.095 135.202 134.871  1.00  0.00     0.039 C 
ATOM      2  C   UNL     1     134.118 136.337 134.917  1.00  0.00    -0.073 C 
ATOM      3  C   UNL     1     132.836 136.183 134.491  1.00  0.00    -0.027 C 
ATOM      4  C   UNL     1     131.888 137.384 134.545  1.00  0.00     0.031 C 
ATOM      5  C   UNL     1     132.618 138.627 135.152  1.00  0.00     0.003 C 
ATOM      6  C   UNL     1     133.368 138.153 136.419  1.00  0.00     0.004 C 
ATOM      7  C   UNL     1     134.508 137.712 135.464  1.00  0.00     0.024 C 
ATOM      8  C   UNL     1     134.014 138.834 134.516  1.00  0.00    -0.022 C 
ATOM      9  C   UNL     1     134.577 140.218 134.965  1.00  0.00     0.008 C 
ATOM     10  C   UNL     1     134.748 140.321 136.504  1.00  0.00     0.005 C 
ATOM     11  C   UNL     1     133.766 139.388 137.281  1.00  0.00    -0.005 C 
ATOM     12  C   UNL     1     134.169 138.642 132.989  1.00  0.00     0.012 C 
ENDROOT
BRANCH  11  13
ATOM     13  C   UNL     1     134.254 138.985 138.704  1.00  0.00    -0.014 C 
ATOM     14  C   UNL     1     133.869 137.554 139.121  1.00  0.00     0.007 C 
ATOM     15  C   UNL     1     135.766 139.199 138.866  1.00  0.00     0.007 C 
ENDBRANCH  11  13
TORSDOF 1
ENDMDL
