MODEL 1
REMARK VINA RESULT:    -8.526      0.000      0.000
REMARK INTER + INTRA:         -15.627
REMARK INTER:                 -14.008
REMARK INTRA:                  -1.619
REMARK UNBOUND:                -1.619
REMARK SMILES C[C@@H]1O[C@@H](OC[C@H]2O[C@H](Oc3c(-c4ccc(O)c(O)c4)oc4cc(O)cc(O)c4c3=O)[C@H](O)[C@H](O)[C@@H]2O)[C@H](O)[C@H](O)[C@H]1O
REMARK SMILES IDX 7 1 36 2 34 3 32 4 9 5 8 6 6 7 5 8 4 9 1 10 2 11 42 12 3 13
REMARK SMILES IDX 40 14 38 15 43 16 41 18 39 20 37 22 35 24 10 26 11 27 12 28
REMARK SMILES IDX 30 29 21 30 29 31 31 32 22 33 27 34 23 35 26 36 24 37 13 38
REMARK SMILES IDX 20 39 14 40 18 41 15 42 16 43 19 44 17 46 28 48 25 50 33 52
REMARK H PARENT 43 17 41 19 39 21 37 23 35 25 19 45 17 47 28 49 25 51 33 53
REMARK Flexibility Score: inf
ROOT
ATOM      1  C   UNL     1      -9.215   9.852 -12.683  1.00  0.00     0.180 C 
ATOM      2  C   UNL     1      -9.703   8.970 -13.883  1.00  0.00     0.177 C 
ATOM      3  C   UNL     1     -10.241   7.701 -13.282  1.00  0.00     0.180 C 
ATOM      4  C   UNL     1     -11.560   8.112 -12.620  1.00  0.00     0.214 C 
ATOM      5  C   UNL     1     -11.299   9.230 -11.529  1.00  0.00     0.339 C 
ATOM      6  O   UNL     1     -10.335  10.245 -11.835  1.00  0.00    -0.332 OA
ENDROOT
BRANCH   1   7
ATOM      7  C   UNL     1      -8.545  11.098 -13.369  1.00  0.00     0.198 C 
BRANCH   7   8
ATOM      8  O   UNL     1      -7.237  10.650 -13.784  1.00  0.00    -0.347 OA
BRANCH   8   9
ATOM      9  C   UNL     1      -6.267  11.589 -14.020  1.00  0.00     0.281 C 
ATOM     10  C   UNL     1      -5.522  10.605 -17.499  1.00  0.00     0.041 C 
ATOM     11  C   UNL     1      -5.602  10.362 -16.011  1.00  0.00     0.150 C 
ATOM     12  C   UNL     1      -4.317   9.716 -15.345  1.00  0.00     0.174 C 
ATOM     13  O   UNL     1      -6.006  11.680 -15.436  1.00  0.00    -0.344 OA
ATOM     14  C   UNL     1      -4.621   9.692 -13.784  1.00  0.00     0.179 C 
ATOM     15  C   UNL     1      -4.962  11.087 -13.303  1.00  0.00     0.202 C 
BRANCH  12  16
ATOM     16  O   UNL     1      -4.237   8.341 -15.690  1.00  0.00    -0.388 OA
ATOM     17  H   UNL     1      -3.248   8.199 -15.762  1.00  0.00     0.211 HD
ENDBRANCH  12  16
BRANCH  14  18
ATOM     18  O   UNL     1      -3.940   8.835 -12.841  1.00  0.00    -0.387 OA
ATOM     19  H   UNL     1      -4.648   8.199 -12.503  1.00  0.00     0.211 HD
ENDBRANCH  14  18
BRANCH  15  20
ATOM     20  O   UNL     1      -3.939  11.993 -13.590  1.00  0.00    -0.385 OA
ATOM     21  H   UNL     1      -4.104  12.818 -12.975  1.00  0.00     0.211 HD
ENDBRANCH  15  20
ENDBRANCH   8   9
ENDBRANCH   7   8
ENDBRANCH   1   7
BRANCH   2  22
ATOM     22  O   UNL     1      -8.762   8.554 -14.895  1.00  0.00    -0.387 OA
ATOM     23  H   UNL     1      -9.179   7.675 -15.175  1.00  0.00     0.211 HD
ENDBRANCH   2  22
BRANCH   3  24
ATOM     24  O   UNL     1      -9.284   7.152 -12.414  1.00  0.00    -0.387 OA
ATOM     25  H   UNL     1      -8.408   7.017 -12.856  1.00  0.00     0.211 HD
ENDBRANCH   3  24
BRANCH   5  26
ATOM     26  O   UNL     1     -11.002   8.704 -10.204  1.00  0.00    -0.454 OA
BRANCH  26  27
ATOM     27  C   UNL     1     -11.750   8.786  -9.002  1.00  0.00     0.214 A 
ATOM     28  C   UNL     1     -13.107   9.196  -8.786  1.00  0.00     0.180 A 
ATOM     29  C   UNL     1     -11.074   8.343  -7.869  1.00  0.00     0.239 A 
ATOM     30  O   UNL     1     -13.598   9.242  -7.506  1.00  0.00    -0.452 OA
ATOM     31  C   UNL     1     -11.610   8.304  -6.599  1.00  0.00     0.111 A 
ATOM     32  O   UNL     1      -9.939   7.822  -8.049  1.00  0.00    -0.285 OA
ATOM     33  C   UNL     1     -12.913   8.846  -6.438  1.00  0.00     0.146 A 
ATOM     34  C   UNL     1     -10.966   7.728  -5.457  1.00  0.00     0.134 A 
ATOM     35  C   UNL     1     -13.564   8.842  -5.220  1.00  0.00     0.094 A 
ATOM     36  C   UNL     1     -11.673   7.664  -4.269  1.00  0.00     0.093 A 
ATOM     37  C   UNL     1     -12.933   8.282  -4.098  1.00  0.00     0.123 A 
BRANCH  28  38
ATOM     38  C   UNL     1     -13.973   9.810  -9.816  1.00  0.00     0.025 A 
ATOM     39  C   UNL     1     -14.930   9.050 -10.496  1.00  0.00     0.062 A 
ATOM     40  C   UNL     1     -13.890  11.163 -10.077  1.00  0.00     0.016 A 
ATOM     41  C   UNL     1     -15.702   9.667 -11.515  1.00  0.00     0.158 A 
ATOM     42  C   UNL     1     -14.606  11.773 -11.065  1.00  0.00     0.051 A 
ATOM     43  C   UNL     1     -15.452  11.016 -11.859  1.00  0.00     0.157 A 
BRANCH  41  44
ATOM     44  O   UNL     1     -16.684   8.973 -12.239  1.00  0.00    -0.504 OA
ATOM     45  H   UNL     1     -17.534   9.440 -12.514  1.00  0.00     0.293 HD
ENDBRANCH  41  44
BRANCH  43  46
ATOM     46  O   UNL     1     -16.011  11.621 -12.963  1.00  0.00    -0.504 OA
ATOM     47  H   UNL     1     -16.882  11.295 -13.403  1.00  0.00     0.293 HD
ENDBRANCH  43  46
ENDBRANCH  28  38
BRANCH  34  48
ATOM     48  O   UNL     1      -9.713   7.123  -5.532  1.00  0.00    -0.507 OA
ATOM     49  H   UNL     1      -8.850   7.589  -5.834  1.00  0.00     0.293 HD
ENDBRANCH  34  48
BRANCH  37  50
ATOM     50  O   UNL     1     -13.611   8.176  -2.882  1.00  0.00    -0.508 OA
ATOM     51  H   UNL     1     -13.405   7.438  -2.190  1.00  0.00     0.293 HD
ENDBRANCH  37  50
ENDBRANCH  26  27
ENDBRANCH   5  26
BRANCH   4  52
ATOM     52  O   UNL     1     -12.094   6.875 -12.092  1.00  0.00    -0.384 OA
ATOM     53  H   UNL     1     -12.256   6.190 -12.782  1.00  0.00     0.211 HD
ENDBRANCH   4  52
TORSDOF 16
ENDMDL
MODEL 2
REMARK VINA RESULT:    -7.551      1.141      1.981
REMARK INTER + INTRA:         -14.026
REMARK INTER:                 -12.221
REMARK INTRA:                  -1.805
REMARK UNBOUND:                -1.619
REMARK SMILES C[C@@H]1O[C@@H](OC[C@H]2O[C@H](Oc3c(-c4ccc(O)c(O)c4)oc4cc(O)cc(O)c4c3=O)[C@H](O)[C@H](O)[C@@H]2O)[C@H](O)[C@H](O)[C@H]1O
REMARK SMILES IDX 7 1 36 2 34 3 32 4 9 5 8 6 6 7 5 8 4 9 1 10 2 11 42 12 3 13
REMARK SMILES IDX 40 14 38 15 43 16 41 18 39 20 37 22 35 24 10 26 11 27 12 28
REMARK SMILES IDX 30 29 21 30 29 31 31 32 22 33 27 34 23 35 26 36 24 37 13 38
REMARK SMILES IDX 20 39 14 40 18 41 15 42 16 43 19 44 17 46 28 48 25 50 33 52
REMARK H PARENT 43 17 41 19 39 21 37 23 35 25 19 45 17 47 28 49 25 51 33 53
REMARK Flexibility Score: inf
ROOT
ATOM      1  C   UNL     1      -8.463   7.952 -12.194  1.00  0.00     0.180 C 
ATOM      2  C   UNL     1      -8.859   8.598 -13.565  1.00  0.00     0.177 C 
ATOM      3  C   UNL     1     -10.361   8.558 -13.632  1.00  0.00     0.180 C 
ATOM      4  C   UNL     1     -10.823   9.618 -12.626  1.00  0.00     0.214 C 
ATOM      5  C   UNL     1     -10.277   9.274 -11.179  1.00  0.00     0.339 C 
ATOM      6  O   UNL     1      -8.942   8.762 -11.078  1.00  0.00    -0.332 OA
ENDROOT
BRANCH   1   7
ATOM      7  C   UNL     1      -6.893   7.897 -12.233  1.00  0.00     0.198 C 
BRANCH   7   8
ATOM      8  O   UNL     1      -6.500   8.875 -13.220  1.00  0.00    -0.347 OA
BRANCH   8   9
ATOM      9  C   UNL     1      -5.192   8.907 -13.627  1.00  0.00     0.281 C 
ATOM     10  C   UNL     1      -4.735  12.562 -13.389  1.00  0.00     0.041 C 
ATOM     11  C   UNL     1      -5.377  11.312 -13.939  1.00  0.00     0.150 C 
ATOM     12  C   UNL     1      -5.496  11.232 -15.518  1.00  0.00     0.174 C 
ATOM     13  O   UNL     1      -4.613  10.191 -13.314  1.00  0.00    -0.344 OA
ATOM     14  C   UNL     1      -6.079   9.783 -15.820  1.00  0.00     0.179 C 
ATOM     15  C   UNL     1      -5.194   8.729 -15.188  1.00  0.00     0.202 C 
BRANCH  12  16
ATOM     16  O   UNL     1      -6.522  12.104 -15.967  1.00  0.00    -0.388 OA
ATOM     17  H   UNL     1      -6.628  12.724 -15.187  1.00  0.00     0.211 HD
ENDBRANCH  12  16
BRANCH  14  18
ATOM     18  O   UNL     1      -6.733   9.416 -17.056  1.00  0.00    -0.387 OA
ATOM     19  H   UNL     1      -7.709   9.314 -16.817  1.00  0.00     0.211 HD
ENDBRANCH  14  18
BRANCH  15  20
ATOM     20  O   UNL     1      -3.875   8.831 -15.634  1.00  0.00    -0.385 OA
ATOM     21  H   UNL     1      -3.842   9.676 -16.244  1.00  0.00     0.211 HD
ENDBRANCH  15  20
ENDBRANCH   8   9
ENDBRANCH   7   8
ENDBRANCH   1   7
BRANCH   2  22
ATOM     22  O   UNL     1      -8.399   8.002 -14.796  1.00  0.00    -0.387 OA
ATOM     23  H   UNL     1      -7.398   8.091 -14.673  1.00  0.00     0.211 HD
ENDBRANCH   2  22
BRANCH   3  24
ATOM     24  O   UNL     1     -10.807   7.253 -13.370  1.00  0.00    -0.387 OA
ATOM     25  H   UNL     1     -11.160   6.807 -14.181  1.00  0.00     0.211 HD
ENDBRANCH   3  24
BRANCH   5  26
ATOM     26  O   UNL     1     -11.157   8.409 -10.406  1.00  0.00    -0.454 OA
BRANCH  26  27
ATOM     27  C   UNL     1     -11.795   8.638  -9.160  1.00  0.00     0.214 A 
ATOM     28  C   UNL     1     -13.095   9.172  -8.875  1.00  0.00     0.180 A 
ATOM     29  C   UNL     1     -11.064   8.223  -8.052  1.00  0.00     0.239 A 
ATOM     30  O   UNL     1     -13.475   9.349  -7.569  1.00  0.00    -0.452 OA
ATOM     31  C   UNL     1     -11.495   8.319  -6.745  1.00  0.00     0.111 A 
ATOM     32  O   UNL     1      -9.990   7.600  -8.276  1.00  0.00    -0.285 OA
ATOM     33  C   UNL     1     -12.737   8.976  -6.528  1.00  0.00     0.146 A 
ATOM     34  C   UNL     1     -10.806   7.777  -5.614  1.00  0.00     0.134 A 
ATOM     35  C   UNL     1     -13.284   9.112  -5.268  1.00  0.00     0.094 A 
ATOM     36  C   UNL     1     -11.416   7.856  -4.374  1.00  0.00     0.093 A 
ATOM     37  C   UNL     1     -12.607   8.585  -4.156  1.00  0.00     0.123 A 
BRANCH  28  38
ATOM     38  C   UNL     1     -13.993   9.779  -9.880  1.00  0.00     0.025 A 
ATOM     39  C   UNL     1     -14.946   9.005 -10.552  1.00  0.00     0.062 A 
ATOM     40  C   UNL     1     -13.945  11.136 -10.126  1.00  0.00     0.016 A 
ATOM     41  C   UNL     1     -15.751   9.618 -11.549  1.00  0.00     0.158 A 
ATOM     42  C   UNL     1     -14.694  11.742 -11.093  1.00  0.00     0.051 A 
ATOM     43  C   UNL     1     -15.537  10.976 -11.880  1.00  0.00     0.157 A 
BRANCH  41  44
ATOM     44  O   UNL     1     -16.731   8.911 -12.264  1.00  0.00    -0.504 OA
ATOM     45  H   UNL     1     -17.139   9.312 -13.093  1.00  0.00     0.293 HD
ENDBRANCH  41  44
BRANCH  43  46
ATOM     46  O   UNL     1     -16.130  11.582 -12.966  1.00  0.00    -0.504 OA
ATOM     47  H   UNL     1     -17.125  11.468 -13.201  1.00  0.00     0.293 HD
ENDBRANCH  43  46
ENDBRANCH  28  38
BRANCH  34  48
ATOM     48  O   UNL     1      -9.612   7.067  -5.737  1.00  0.00    -0.507 OA
ATOM     49  H   UNL     1      -9.381   6.430  -6.507  1.00  0.00     0.293 HD
ENDBRANCH  34  48
BRANCH  37  50
ATOM     50  O   UNL     1     -13.188   8.623  -2.888  1.00  0.00    -0.508 OA
ATOM     51  H   UNL     1     -14.173   8.893  -2.732  1.00  0.00     0.293 HD
ENDBRANCH  37  50
ENDBRANCH  26  27
ENDBRANCH   5  26
BRANCH   4  52
ATOM     52  O   UNL     1     -12.266   9.608 -12.737  1.00  0.00    -0.384 OA
ATOM     53  H   UNL     1     -12.660   8.707 -12.674  1.00  0.00     0.211 HD
ENDBRANCH   4  52
TORSDOF 16
ENDMDL
MODEL 3
REMARK VINA RESULT:    -6.904      1.726      5.280
REMARK INTER + INTRA:         -12.963
REMARK INTER:                 -11.727
REMARK INTRA:                  -1.237
REMARK UNBOUND:                -1.619
REMARK SMILES C[C@@H]1O[C@@H](OC[C@H]2O[C@H](Oc3c(-c4ccc(O)c(O)c4)oc4cc(O)cc(O)c4c3=O)[C@H](O)[C@H](O)[C@@H]2O)[C@H](O)[C@H](O)[C@H]1O
REMARK SMILES IDX 7 1 36 2 34 3 32 4 9 5 8 6 6 7 5 8 4 9 1 10 2 11 42 12 3 13
REMARK SMILES IDX 40 14 38 15 43 16 41 18 39 20 37 22 35 24 10 26 11 27 12 28
REMARK SMILES IDX 30 29 21 30 29 31 31 32 22 33 27 34 23 35 26 36 24 37 13 38
REMARK SMILES IDX 20 39 14 40 18 41 15 42 16 43 19 44 17 46 28 48 25 50 33 52
REMARK H PARENT 43 17 41 19 39 21 37 23 35 25 19 45 17 47 28 49 25 51 33 53
REMARK Flexibility Score: inf
ROOT
ATOM      1  C   UNL     1      -8.640   9.942 -10.703  1.00  0.00     0.180 C 
ATOM      2  C   UNL     1      -8.509   8.471 -11.226  1.00  0.00     0.177 C 
ATOM      3  C   UNL     1      -9.786   7.773 -10.848  1.00  0.00     0.180 C 
ATOM      4  C   UNL     1     -10.844   8.362 -11.787  1.00  0.00     0.214 C 
ATOM      5  C   UNL     1     -10.936   9.931 -11.593  1.00  0.00     0.339 C 
ATOM      6  O   UNL     1      -9.711  10.649 -11.397  1.00  0.00    -0.332 OA
ENDROOT
BRANCH   1   7
ATOM      7  C   UNL     1      -7.237  10.584 -11.004  1.00  0.00     0.198 C 
BRANCH   7   8
ATOM      8  O   UNL     1      -6.909  10.175 -12.350  1.00  0.00    -0.347 OA
BRANCH   8   9
ATOM      9  C   UNL     1      -7.316  10.966 -13.392  1.00  0.00     0.281 C 
ATOM     10  C   UNL     1      -8.696   8.265 -15.497  1.00  0.00     0.041 C 
ATOM     11  C   UNL     1      -7.584   8.974 -14.762  1.00  0.00     0.150 C 
ATOM     12  C   UNL     1      -6.244   9.196 -15.580  1.00  0.00     0.174 C 
ATOM     13  O   UNL     1      -8.213  10.227 -14.247  1.00  0.00    -0.344 OA
ATOM     14  C   UNL     1      -5.310  10.063 -14.628  1.00  0.00     0.179 C 
ATOM     15  C   UNL     1      -6.029  11.331 -14.217  1.00  0.00     0.202 C 
BRANCH  12  16
ATOM     16  O   UNL     1      -5.546   7.965 -15.700  1.00  0.00    -0.388 OA
ATOM     17  H   UNL     1      -5.696   7.549 -14.801  1.00  0.00     0.211 HD
ENDBRANCH  12  16
BRANCH  14  18
ATOM     18  O   UNL     1      -3.875  10.154 -14.768  1.00  0.00    -0.387 OA
ATOM     19  H   UNL     1      -3.501   9.634 -13.987  1.00  0.00     0.211 HD
ENDBRANCH  14  18
BRANCH  15  20
ATOM     20  O   UNL     1      -6.428  12.078 -15.327  1.00  0.00    -0.385 OA
ATOM     21  H   UNL     1      -6.591  13.047 -14.979  1.00  0.00     0.211 HD
ENDBRANCH  15  20
ENDBRANCH   8   9
ENDBRANCH   7   8
ENDBRANCH   1   7
BRANCH   2  22
ATOM     22  O   UNL     1      -7.445   7.629 -10.735  1.00  0.00    -0.387 OA
ATOM     23  H   UNL     1      -6.655   8.042 -11.216  1.00  0.00     0.211 HD
ENDBRANCH   2  22
BRANCH   3  24
ATOM     24  O   UNL     1     -10.034   7.961  -9.479  1.00  0.00    -0.387 OA
ATOM     25  H   UNL     1     -10.306   7.123  -9.027  1.00  0.00     0.211 HD
ENDBRANCH   3  24
BRANCH   5  26
ATOM     26  O   UNL     1     -11.877  10.344 -10.561  1.00  0.00    -0.454 OA
BRANCH  26  27
ATOM     27  C   UNL     1     -13.242  10.003 -10.382  1.00  0.00     0.214 A 
ATOM     28  C   UNL     1     -13.900   9.394  -9.264  1.00  0.00     0.180 A 
ATOM     29  C   UNL     1     -14.073  10.371 -11.435  1.00  0.00     0.239 A 
ATOM     30  O   UNL     1     -15.240   9.110  -9.347  1.00  0.00    -0.452 OA
ATOM     31  C   UNL     1     -15.436  10.167 -11.469  1.00  0.00     0.111 A 
ATOM     32  O   UNL     1     -13.554  11.055 -12.361  1.00  0.00    -0.285 OA
ATOM     33  C   UNL     1     -16.001   9.442 -10.385  1.00  0.00     0.146 A 
ATOM     34  C   UNL     1     -16.313  10.660 -12.489  1.00  0.00     0.134 A 
ATOM     35  C   UNL     1     -17.357   9.196 -10.295  1.00  0.00     0.094 A 
ATOM     36  C   UNL     1     -17.674  10.469 -12.332  1.00  0.00     0.093 A 
ATOM     37  C   UNL     1     -18.218   9.675 -11.296  1.00  0.00     0.123 A 
BRANCH  28  38
ATOM     38  C   UNL     1     -13.207   8.819  -8.091  1.00  0.00     0.025 A 
ATOM     39  C   UNL     1     -12.812   9.630  -7.021  1.00  0.00     0.062 A 
ATOM     40  C   UNL     1     -12.993   7.458  -8.008  1.00  0.00     0.016 A 
ATOM     41  C   UNL     1     -12.101   9.045  -5.940  1.00  0.00     0.158 A 
ATOM     42  C   UNL     1     -12.294   6.877  -6.990  1.00  0.00     0.051 A 
ATOM     43  C   UNL     1     -11.758   7.673  -5.992  1.00  0.00     0.157 A 
BRANCH  41  44
ATOM     44  O   UNL     1     -11.675   9.789  -4.829  1.00  0.00    -0.504 OA
ATOM     45  H   UNL     1     -10.814   9.552  -4.362  1.00  0.00     0.293 HD
ENDBRANCH  41  44
BRANCH  43  46
ATOM     46  O   UNL     1     -10.901   7.083  -5.089  1.00  0.00    -0.504 OA
ATOM     47  H   UNL     1     -10.078   6.534  -5.370  1.00  0.00     0.293 HD
ENDBRANCH  43  46
ENDBRANCH  28  38
BRANCH  34  48
ATOM     48  O   UNL     1     -15.856  11.428 -13.559  1.00  0.00    -0.507 OA
ATOM     49  H   UNL     1     -15.953  11.177 -14.549  1.00  0.00     0.293 HD
ENDBRANCH  34  48
BRANCH  37  50
ATOM     50  O   UNL     1     -19.600   9.524 -11.175  1.00  0.00    -0.508 OA
ATOM     51  H   UNL     1     -20.264   9.864 -11.889  1.00  0.00     0.293 HD
ENDBRANCH  37  50
ENDBRANCH  26  27
ENDBRANCH   5  26
BRANCH   4  52
ATOM     52  O   UNL     1     -12.056   7.646 -11.450  1.00  0.00    -0.384 OA
ATOM     53  H   UNL     1     -12.832   7.904 -12.001  1.00  0.00     0.211 HD
ENDBRANCH   4  52
TORSDOF 16
ENDMDL
MODEL 4
REMARK VINA RESULT:    -6.841      1.841      5.637
REMARK INTER + INTRA:         -12.859
REMARK INTER:                 -11.402
REMARK INTRA:                  -1.457
REMARK UNBOUND:                -1.619
REMARK SMILES C[C@@H]1O[C@@H](OC[C@H]2O[C@H](Oc3c(-c4ccc(O)c(O)c4)oc4cc(O)cc(O)c4c3=O)[C@H](O)[C@H](O)[C@@H]2O)[C@H](O)[C@H](O)[C@H]1O
REMARK SMILES IDX 7 1 36 2 34 3 32 4 9 5 8 6 6 7 5 8 4 9 1 10 2 11 42 12 3 13
REMARK SMILES IDX 40 14 38 15 43 16 41 18 39 20 37 22 35 24 10 26 11 27 12 28
REMARK SMILES IDX 30 29 21 30 29 31 31 32 22 33 27 34 23 35 26 36 24 37 13 38
REMARK SMILES IDX 20 39 14 40 18 41 15 42 16 43 19 44 17 46 28 48 25 50 33 52
REMARK H PARENT 43 17 41 19 39 21 37 23 35 25 19 45 17 47 28 49 25 51 33 53
REMARK Flexibility Score: inf
ROOT
ATOM      1  C   UNL     1      -9.104   9.394 -11.835  1.00  0.00     0.180 C 
ATOM      2  C   UNL     1      -8.142  10.080 -10.806  1.00  0.00     0.177 C 
ATOM      3  C   UNL     1      -8.921  11.207 -10.186  1.00  0.00     0.180 C 
ATOM      4  C   UNL     1      -9.940  10.518  -9.272  1.00  0.00     0.214 C 
ATOM      5  C   UNL     1     -10.860   9.542 -10.116  1.00  0.00     0.339 C 
ATOM      6  O   UNL     1     -10.240   8.778 -11.157  1.00  0.00    -0.332 OA
ENDROOT
BRANCH   1   7
ATOM      7  C   UNL     1      -8.204   8.318 -12.545  1.00  0.00     0.198 C 
BRANCH   7   8
ATOM      8  O   UNL     1      -7.477   9.038 -13.563  1.00  0.00    -0.347 OA
BRANCH   8   9
ATOM      9  C   UNL     1      -6.147   8.758 -13.741  1.00  0.00     0.281 C 
ATOM     10  C   UNL     1      -4.934  12.243 -13.645  1.00  0.00     0.041 C 
ATOM     11  C   UNL     1      -5.745  11.107 -14.221  1.00  0.00     0.150 C 
ATOM     12  C   UNL     1      -5.634  10.905 -15.790  1.00  0.00     0.174 C 
ATOM     13  O   UNL     1      -5.353   9.916 -13.410  1.00  0.00    -0.344 OA
ATOM     14  C   UNL     1      -6.470   9.588 -16.102  1.00  0.00     0.179 C 
ATOM     15  C   UNL     1      -5.949   8.437 -15.266  1.00  0.00     0.202 C 
BRANCH  12  16
ATOM     16  O   UNL     1      -6.359  11.926 -16.458  1.00  0.00    -0.388 OA
ATOM     17  H   UNL     1      -6.394  12.648 -15.764  1.00  0.00     0.211 HD
ENDBRANCH  12  16
BRANCH  14  18
ATOM     18  O   UNL     1      -6.990   9.251 -17.407  1.00  0.00    -0.387 OA
ATOM     19  H   UNL     1      -6.488   8.420 -17.684  1.00  0.00     0.211 HD
ENDBRANCH  14  18
BRANCH  15  20
ATOM     20  O   UNL     1      -4.587   8.218 -15.486  1.00  0.00    -0.385 OA
ATOM     21  H   UNL     1      -4.085   8.937 -14.921  1.00  0.00     0.211 HD
ENDBRANCH  15  20
ENDBRANCH   8   9
ENDBRANCH   7   8
ENDBRANCH   1   7
BRANCH   2  22
ATOM     22  O   UNL     1      -6.905  10.668 -11.264  1.00  0.00    -0.387 OA
ATOM     23  H   UNL     1      -6.511  10.963 -10.380  1.00  0.00     0.211 HD
ENDBRANCH   2  22
BRANCH   3  24
ATOM     24  O   UNL     1      -9.475  12.006 -11.199  1.00  0.00    -0.387 OA
ATOM     25  H   UNL     1      -8.818  12.223 -11.907  1.00  0.00     0.211 HD
ENDBRANCH   3  24
BRANCH   5  26
ATOM     26  O   UNL     1     -12.049  10.180 -10.665  1.00  0.00    -0.454 OA
BRANCH  26  27
ATOM     27  C   UNL     1     -13.420   9.867 -10.480  1.00  0.00     0.214 A 
ATOM     28  C   UNL     1     -14.082   9.246  -9.370  1.00  0.00     0.180 A 
ATOM     29  C   UNL     1     -14.252  10.283 -11.514  1.00  0.00     0.239 A 
ATOM     30  O   UNL     1     -15.428   8.997  -9.446  1.00  0.00    -0.452 OA
ATOM     31  C   UNL     1     -15.620  10.113 -11.538  1.00  0.00     0.111 A 
ATOM     32  O   UNL     1     -13.726  10.978 -12.427  1.00  0.00    -0.285 OA
ATOM     33  C   UNL     1     -16.192   9.375 -10.467  1.00  0.00     0.146 A 
ATOM     34  C   UNL     1     -16.495  10.654 -12.535  1.00  0.00     0.134 A 
ATOM     35  C   UNL     1     -17.552   9.159 -10.368  1.00  0.00     0.094 A 
ATOM     36  C   UNL     1     -17.859  10.492 -12.368  1.00  0.00     0.093 A 
ATOM     37  C   UNL     1     -18.411   9.685 -11.347  1.00  0.00     0.123 A 
BRANCH  28  38
ATOM     38  C   UNL     1     -13.390   8.624  -8.221  1.00  0.00     0.025 A 
ATOM     39  C   UNL     1     -13.498   9.169  -6.937  1.00  0.00     0.062 A 
ATOM     40  C   UNL     1     -12.676   7.455  -8.389  1.00  0.00     0.016 A 
ATOM     41  C   UNL     1     -12.774   8.571  -5.872  1.00  0.00     0.158 A 
ATOM     42  C   UNL     1     -11.955   6.875  -7.385  1.00  0.00     0.051 A 
ATOM     43  C   UNL     1     -11.919   7.476  -6.139  1.00  0.00     0.157 A 
BRANCH  41  44
ATOM     44  O   UNL     1     -12.833   9.056  -4.556  1.00  0.00    -0.504 OA
ATOM     45  H   UNL     1     -13.699   9.024  -4.043  1.00  0.00     0.293 HD
ENDBRANCH  41  44
BRANCH  43  46
ATOM     46  O   UNL     1     -11.035   6.975  -5.208  1.00  0.00    -0.504 OA
ATOM     47  H   UNL     1     -10.774   5.981  -5.158  1.00  0.00     0.293 HD
ENDBRANCH  43  46
ENDBRANCH  28  38
BRANCH  34  48
ATOM     48  O   UNL     1     -16.030  11.438 -13.590  1.00  0.00    -0.507 OA
ATOM     49  H   UNL     1     -15.075  11.800 -13.679  1.00  0.00     0.293 HD
ENDBRANCH  34  48
BRANCH  37  50
ATOM     50  O   UNL     1     -19.796   9.565 -11.214  1.00  0.00    -0.508 OA
ATOM     51  H   UNL     1     -20.431   9.498 -12.026  1.00  0.00     0.293 HD
ENDBRANCH  37  50
ENDBRANCH  26  27
ENDBRANCH   5  26
BRANCH   4  52
ATOM     52  O   UNL     1     -10.649  11.611  -8.642  1.00  0.00    -0.384 OA
ATOM     53  H   UNL     1     -11.282  12.068  -9.243  1.00  0.00     0.211 HD
ENDBRANCH   4  52
TORSDOF 16
ENDMDL
MODEL 5
REMARK VINA RESULT:    -6.470      2.231      5.277
REMARK INTER + INTRA:         -12.249
REMARK INTER:                 -10.495
REMARK INTRA:                  -1.754
REMARK UNBOUND:                -1.619
REMARK SMILES C[C@@H]1O[C@@H](OC[C@H]2O[C@H](Oc3c(-c4ccc(O)c(O)c4)oc4cc(O)cc(O)c4c3=O)[C@H](O)[C@H](O)[C@@H]2O)[C@H](O)[C@H](O)[C@H]1O
REMARK SMILES IDX 7 1 36 2 34 3 32 4 9 5 8 6 6 7 5 8 4 9 1 10 2 11 42 12 3 13
REMARK SMILES IDX 40 14 38 15 43 16 41 18 39 20 37 22 35 24 10 26 11 27 12 28
REMARK SMILES IDX 30 29 21 30 29 31 31 32 22 33 27 34 23 35 26 36 24 37 13 38
REMARK SMILES IDX 20 39 14 40 18 41 15 42 16 43 19 44 17 46 28 48 25 50 33 52
REMARK H PARENT 43 17 41 19 39 21 37 23 35 25 19 45 17 47 28 49 25 51 33 53
REMARK Flexibility Score: inf
ROOT
ATOM      1  C   UNL     1     -10.206   8.059 -10.595  1.00  0.00     0.180 C 
ATOM      2  C   UNL     1      -9.309   7.381  -9.504  1.00  0.00     0.177 C 
ATOM      3  C   UNL     1      -9.897   7.766  -8.175  1.00  0.00     0.180 C 
ATOM      4  C   UNL     1     -11.196   6.960  -8.077  1.00  0.00     0.214 C 
ATOM      5  C   UNL     1     -12.155   7.319  -9.285  1.00  0.00     0.339 C 
ATOM      6  O   UNL     1     -11.558   7.510 -10.574  1.00  0.00    -0.332 OA
ENDROOT
BRANCH   1   7
ATOM      7  C   UNL     1      -9.475   7.738 -11.949  1.00  0.00     0.198 C 
BRANCH   7   8
ATOM      8  O   UNL     1      -8.324   8.609 -11.979  1.00  0.00    -0.347 OA
BRANCH   8   9
ATOM      9  C   UNL     1      -8.420   9.798 -12.653  1.00  0.00     0.281 C 
ATOM     10  C   UNL     1      -9.206   8.375 -15.967  1.00  0.00     0.041 C 
ATOM     11  C   UNL     1      -8.329   8.580 -14.756  1.00  0.00     0.150 C 
ATOM     12  C   UNL     1      -6.814   8.941 -15.053  1.00  0.00     0.174 C 
ATOM     13  O   UNL     1      -9.059   9.588 -13.930  1.00  0.00    -0.344 OA
ATOM     14  C   UNL     1      -6.164   9.224 -13.628  1.00  0.00     0.179 C 
ATOM     15  C   UNL     1      -6.952  10.298 -12.907  1.00  0.00     0.202 C 
BRANCH  12  16
ATOM     16  O   UNL     1      -6.126   7.786 -15.508  1.00  0.00    -0.388 OA
ATOM     17  H   UNL     1      -5.248   8.166 -15.805  1.00  0.00     0.211 HD
ENDBRANCH  12  16
BRANCH  14  18
ATOM     18  O   UNL     1      -4.745   9.181 -13.364  1.00  0.00    -0.387 OA
ATOM     19  H   UNL     1      -4.498  10.123 -13.094  1.00  0.00     0.211 HD
ENDBRANCH  14  18
BRANCH  15  20
ATOM     20  O   UNL     1      -7.023  11.474 -13.658  1.00  0.00    -0.385 OA
ATOM     21  H   UNL     1      -6.983  12.257 -12.970  1.00  0.00     0.211 HD
ENDBRANCH  15  20
ENDBRANCH   8   9
ENDBRANCH   7   8
ENDBRANCH   1   7
BRANCH   2  22
ATOM     22  O   UNL     1      -7.907   7.715  -9.421  1.00  0.00    -0.387 OA
ATOM     23  H   UNL     1      -7.500   6.790  -9.476  1.00  0.00     0.211 HD
ENDBRANCH   2  22
BRANCH   3  24
ATOM     24  O   UNL     1     -10.054   9.160  -8.119  1.00  0.00    -0.387 OA
ATOM     25  H   UNL     1     -10.099   9.570  -9.019  1.00  0.00     0.211 HD
ENDBRANCH   3  24
BRANCH   5  26
ATOM     26  O   UNL     1     -13.041   8.445  -9.022  1.00  0.00    -0.454 OA
BRANCH  26  27
ATOM     27  C   UNL     1     -14.079   8.994  -9.818  1.00  0.00     0.214 A 
ATOM     28  C   UNL     1     -14.032  10.035 -10.803  1.00  0.00     0.180 A 
ATOM     29  C   UNL     1     -15.318   8.384  -9.653  1.00  0.00     0.239 A 
ATOM     30  O   UNL     1     -15.195  10.436 -11.411  1.00  0.00    -0.452 OA
ATOM     31  C   UNL     1     -16.462   8.731 -10.339  1.00  0.00     0.111 A 
ATOM     32  O   UNL     1     -15.357   7.359  -8.917  1.00  0.00    -0.285 OA
ATOM     33  C   UNL     1     -16.373   9.856 -11.204  1.00  0.00     0.146 A 
ATOM     34  C   UNL     1     -17.705   8.023 -10.270  1.00  0.00     0.134 A 
ATOM     35  C   UNL     1     -17.444  10.284 -11.962  1.00  0.00     0.094 A 
ATOM     36  C   UNL     1     -18.736   8.425 -11.101  1.00  0.00     0.093 A 
ATOM     37  C   UNL     1     -18.665   9.594 -11.892  1.00  0.00     0.123 A 
BRANCH  28  38
ATOM     38  C   UNL     1     -12.858  10.896 -11.061  1.00  0.00     0.025 A 
ATOM     39  C   UNL     1     -11.837  11.022 -10.113  1.00  0.00     0.062 A 
ATOM     40  C   UNL     1     -12.723  11.542 -12.273  1.00  0.00     0.016 A 
ATOM     41  C   UNL     1     -10.754  11.900 -10.379  1.00  0.00     0.158 A 
ATOM     42  C   UNL     1     -11.702  12.407 -12.543  1.00  0.00     0.051 A 
ATOM     43  C   UNL     1     -10.757  12.670 -11.567  1.00  0.00     0.157 A 
BRANCH  41  44
ATOM     44  O   UNL     1      -9.690  12.078  -9.481  1.00  0.00    -0.504 OA
ATOM     45  H   UNL     1      -9.088  11.304  -9.251  1.00  0.00     0.293 HD
ENDBRANCH  41  44
BRANCH  43  46
ATOM     46  O   UNL     1      -9.856  13.686 -11.800  1.00  0.00    -0.504 OA
ATOM     47  H   UNL     1      -9.448  13.875 -12.726  1.00  0.00     0.293 HD
ENDBRANCH  43  46
ENDBRANCH  28  38
BRANCH  34  48
ATOM     48  O   UNL     1     -17.869   6.877  -9.493  1.00  0.00    -0.507 OA
ATOM     49  H   UNL     1     -18.771   6.481  -9.209  1.00  0.00     0.293 HD
ENDBRANCH  34  48
BRANCH  37  50
ATOM     50  O   UNL     1     -19.729   9.948 -12.724  1.00  0.00    -0.508 OA
ATOM     51  H   UNL     1     -19.595  10.284 -13.691  1.00  0.00     0.293 HD
ENDBRANCH  37  50
ENDBRANCH  26  27
ENDBRANCH   5  26
BRANCH   4  52
ATOM     52  O   UNL     1     -11.726   7.298  -6.773  1.00  0.00    -0.384 OA
ATOM     53  H   UNL     1     -12.672   7.575  -6.792  1.00  0.00     0.211 HD
ENDBRANCH   4  52
TORSDOF 16
ENDMDL
MODEL 6
REMARK VINA RESULT:    -5.729      2.624      8.639
REMARK INTER + INTRA:         -11.033
REMARK INTER:                 -10.836
REMARK INTRA:                  -0.196
REMARK UNBOUND:                -1.619
REMARK SMILES C[C@@H]1O[C@@H](OC[C@H]2O[C@H](Oc3c(-c4ccc(O)c(O)c4)oc4cc(O)cc(O)c4c3=O)[C@H](O)[C@H](O)[C@@H]2O)[C@H](O)[C@H](O)[C@H]1O
REMARK SMILES IDX 7 1 36 2 34 3 32 4 9 5 8 6 6 7 5 8 4 9 1 10 2 11 42 12 3 13
REMARK SMILES IDX 40 14 38 15 43 16 41 18 39 20 37 22 35 24 10 26 11 27 12 28
REMARK SMILES IDX 30 29 21 30 29 31 31 32 22 33 27 34 23 35 26 36 24 37 13 38
REMARK SMILES IDX 20 39 14 40 18 41 15 42 16 43 19 44 17 46 28 48 25 50 33 52
REMARK H PARENT 43 17 41 19 39 21 37 23 35 25 19 45 17 47 28 49 25 51 33 53
REMARK Flexibility Score: inf
ROOT
ATOM      1  C   UNL     1     -11.171   9.090 -11.417  1.00  0.00     0.180 C 
ATOM      2  C   UNL     1     -11.173   7.526 -11.512  1.00  0.00     0.177 C 
ATOM      3  C   UNL     1      -9.739   7.112 -11.694  1.00  0.00     0.180 C 
ATOM      4  C   UNL     1      -9.088   7.356 -10.329  1.00  0.00     0.214 C 
ATOM      5  C   UNL     1      -9.227   8.880  -9.920  1.00  0.00     0.339 C 
ATOM      6  O   UNL     1     -10.463   9.538 -10.222  1.00  0.00    -0.332 OA
ENDROOT
BRANCH   1   7
ATOM      7  C   UNL     1     -12.694   9.475 -11.363  1.00  0.00     0.198 C 
BRANCH   7   8
ATOM      8  O   UNL     1     -13.317   8.458 -10.549  1.00  0.00    -0.347 OA
BRANCH   8   9
ATOM      9  C   UNL     1     -13.975   8.842  -9.410  1.00  0.00     0.281 C 
ATOM     10  C   UNL     1     -17.160   7.118 -10.125  1.00  0.00     0.041 C 
ATOM     11  C   UNL     1     -16.071   8.124 -10.412  1.00  0.00     0.150 C 
ATOM     12  C   UNL     1     -16.559   9.591 -10.763  1.00  0.00     0.174 C 
ATOM     13  O   UNL     1     -15.159   8.036  -9.232  1.00  0.00    -0.344 OA
ATOM     14  C   UNL     1     -15.229  10.455 -10.889  1.00  0.00     0.179 C 
ATOM     15  C   UNL     1     -14.414  10.335  -9.618  1.00  0.00     0.202 C 
BRANCH  12  16
ATOM     16  O   UNL     1     -17.098   9.616 -12.076  1.00  0.00    -0.388 OA
ATOM     17  H   UNL     1     -17.969   9.137 -11.956  1.00  0.00     0.211 HD
ENDBRANCH  12  16
BRANCH  14  18
ATOM     18  O   UNL     1     -15.148  11.717 -11.588  1.00  0.00    -0.387 OA
ATOM     19  H   UNL     1     -15.695  11.588 -12.428  1.00  0.00     0.211 HD
ENDBRANCH  14  18
BRANCH  15  20
ATOM     20  O   UNL     1     -15.150  10.727  -8.497  1.00  0.00    -0.385 OA
ATOM     21  H   UNL     1     -15.122  11.769  -8.483  1.00  0.00     0.211 HD
ENDBRANCH  15  20
ENDBRANCH   8   9
ENDBRANCH   7   8
ENDBRANCH   1   7
BRANCH   2  22
ATOM     22  O   UNL     1     -11.904   6.875 -12.573  1.00  0.00    -0.387 OA
ATOM     23  H   UNL     1     -11.649   5.911 -12.399  1.00  0.00     0.211 HD
ENDBRANCH   2  22
BRANCH   3  24
ATOM     24  O   UNL     1      -9.175   7.832 -12.760  1.00  0.00    -0.387 OA
ATOM     25  H   UNL     1      -8.340   8.296 -12.500  1.00  0.00     0.211 HD
ENDBRANCH   3  24
BRANCH   5  26
ATOM     26  O   UNL     1      -8.135   9.719 -10.393  1.00  0.00    -0.454 OA
BRANCH  26  27
ATOM     27  C   UNL     1      -7.786  10.103 -11.713  1.00  0.00     0.214 A 
ATOM     28  C   UNL     1      -8.410  11.046 -12.595  1.00  0.00     0.180 A 
ATOM     29  C   UNL     1      -6.623   9.513 -12.198  1.00  0.00     0.239 A 
ATOM     30  O   UNL     1      -7.912  11.210 -13.862  1.00  0.00    -0.452 OA
ATOM     31  C   UNL     1      -6.077   9.756 -13.440  1.00  0.00     0.111 A 
ATOM     32  O   UNL     1      -5.960   8.806 -11.388  1.00  0.00    -0.285 OA
ATOM     33  C   UNL     1      -6.818  10.601 -14.310  1.00  0.00     0.146 A 
ATOM     34  C   UNL     1      -4.815   9.254 -13.893  1.00  0.00     0.134 A 
ATOM     35  C   UNL     1      -6.363  10.938 -15.569  1.00  0.00     0.094 A 
ATOM     36  C   UNL     1      -4.346   9.672 -15.125  1.00  0.00     0.093 A 
ATOM     37  C   UNL     1      -5.127  10.443 -16.016  1.00  0.00     0.123 A 
BRANCH  28  38
ATOM     38  C   UNL     1      -9.710  11.702 -12.339  1.00  0.00     0.025 A 
ATOM     39  C   UNL     1     -10.784  11.538 -13.221  1.00  0.00     0.062 A 
ATOM     40  C   UNL     1      -9.902  12.438 -11.187  1.00  0.00     0.016 A 
ATOM     41  C   UNL     1     -11.997  12.229 -12.965  1.00  0.00     0.158 A 
ATOM     42  C   UNL     1     -11.051  13.129 -10.931  1.00  0.00     0.051 A 
ATOM     43  C   UNL     1     -12.078  13.109 -11.860  1.00  0.00     0.157 A 
BRANCH  41  44
ATOM     44  O   UNL     1     -13.119  12.114 -13.799  1.00  0.00    -0.504 OA
ATOM     45  H   UNL     1     -13.297  11.254 -14.292  1.00  0.00     0.293 HD
ENDBRANCH  41  44
BRANCH  43  46
ATOM     46  O   UNL     1     -13.140  13.964 -11.662  1.00  0.00    -0.504 OA
ATOM     47  H   UNL     1     -14.011  13.681 -11.193  1.00  0.00     0.293 HD
ENDBRANCH  43  46
ENDBRANCH  28  38
BRANCH  34  48
ATOM     48  O   UNL     1      -3.994   8.465 -13.088  1.00  0.00    -0.507 OA
ATOM     49  H   UNL     1      -4.311   7.674 -12.518  1.00  0.00     0.293 HD
ENDBRANCH  34  48
BRANCH  37  50
ATOM     50  O   UNL     1      -4.602  10.850 -17.244  1.00  0.00    -0.508 OA
ATOM     51  H   UNL     1      -4.253  11.808 -17.412  1.00  0.00     0.293 HD
ENDBRANCH  37  50
ENDBRANCH  26  27
ENDBRANCH   5  26
BRANCH   4  52
ATOM     52  O   UNL     1      -7.723   6.905 -10.500  1.00  0.00    -0.384 OA
ATOM     53  H   UNL     1      -7.580   5.970 -10.222  1.00  0.00     0.211 HD
ENDBRANCH   4  52
TORSDOF 16
ENDMDL
MODEL 7
REMARK VINA RESULT:    -5.535      2.966      6.766
REMARK INTER + INTRA:         -10.714
REMARK INTER:                  -8.415
REMARK INTRA:                  -2.299
REMARK UNBOUND:                -1.619
REMARK SMILES C[C@@H]1O[C@@H](OC[C@H]2O[C@H](Oc3c(-c4ccc(O)c(O)c4)oc4cc(O)cc(O)c4c3=O)[C@H](O)[C@H](O)[C@@H]2O)[C@H](O)[C@H](O)[C@H]1O
REMARK SMILES IDX 7 1 36 2 34 3 32 4 9 5 8 6 6 7 5 8 4 9 1 10 2 11 42 12 3 13
REMARK SMILES IDX 40 14 38 15 43 16 41 18 39 20 37 22 35 24 10 26 11 27 12 28
REMARK SMILES IDX 30 29 21 30 29 31 31 32 22 33 27 34 23 35 26 36 24 37 13 38
REMARK SMILES IDX 20 39 14 40 18 41 15 42 16 43 19 44 17 46 28 48 25 50 33 52
REMARK H PARENT 43 17 41 19 39 21 37 23 35 25 19 45 17 47 28 49 25 51 33 53
REMARK Flexibility Score: inf
ROOT
ATOM      1  C   UNL     1     -14.746   9.723 -11.594  1.00  0.00     0.180 C 
ATOM      2  C   UNL     1     -16.302   9.539 -11.635  1.00  0.00     0.177 C 
ATOM      3  C   UNL     1     -16.576   8.147 -11.138  1.00  0.00     0.180 C 
ATOM      4  C   UNL     1     -16.294   8.210  -9.633  1.00  0.00     0.214 C 
ATOM      5  C   UNL     1     -14.796   8.656  -9.375  1.00  0.00     0.339 C 
ATOM      6  O   UNL     1     -14.252   9.676 -10.222  1.00  0.00    -0.332 OA
ENDROOT
BRANCH   1   7
ATOM      7  C   UNL     1     -14.508  11.134 -12.245  1.00  0.00     0.198 C 
BRANCH   7   8
ATOM      8  O   UNL     1     -13.199  11.060 -12.850  1.00  0.00    -0.347 OA
BRANCH   8   9
ATOM      9  C   UNL     1     -12.443  12.201 -12.918  1.00  0.00     0.281 C 
ATOM     10  C   UNL     1      -9.188  10.630 -12.167  1.00  0.00     0.041 C 
ATOM     11  C   UNL     1     -10.611  11.017 -11.844  1.00  0.00     0.150 C 
ATOM     12  C   UNL     1     -10.841  11.678 -10.421  1.00  0.00     0.174 C 
ATOM     13  O   UNL     1     -11.044  11.858 -12.999  1.00  0.00    -0.344 OA
ATOM     14  C   UNL     1     -12.376  12.095 -10.398  1.00  0.00     0.179 C 
ATOM     15  C   UNL     1     -12.686  12.989 -11.581  1.00  0.00     0.202 C 
BRANCH  12  16
ATOM     16  O   UNL     1     -10.750  10.686  -9.410  1.00  0.00    -0.388 OA
ATOM     17  H   UNL     1      -9.846  10.867  -9.018  1.00  0.00     0.211 HD
ENDBRANCH  12  16
BRANCH  14  18
ATOM     18  O   UNL     1     -13.128  12.345  -9.189  1.00  0.00    -0.387 OA
ATOM     19  H   UNL     1     -14.084  12.118  -9.422  1.00  0.00     0.211 HD
ENDBRANCH  14  18
BRANCH  15  20
ATOM     20  O   UNL     1     -11.869  14.122 -11.596  1.00  0.00    -0.385 OA
ATOM     21  H   UNL     1     -11.526  14.243 -10.619  1.00  0.00     0.211 HD
ENDBRANCH  15  20
ENDBRANCH   8   9
ENDBRANCH   7   8
ENDBRANCH   1   7
BRANCH   2  22
ATOM     22  O   UNL     1     -17.002   9.649 -12.893  1.00  0.00    -0.387 OA
ATOM     23  H   UNL     1     -17.393   8.717 -12.959  1.00  0.00     0.211 HD
ENDBRANCH   2  22
BRANCH   3  24
ATOM     24  O   UNL     1     -15.790   7.231 -11.854  1.00  0.00    -0.387 OA
ATOM     25  H   UNL     1     -16.309   6.441 -12.151  1.00  0.00     0.211 HD
ENDBRANCH   3  24
BRANCH   5  26
ATOM     26  O   UNL     1     -13.850   7.550  -9.327  1.00  0.00    -0.454 OA
BRANCH  26  27
ATOM     27  C   UNL     1     -12.439   7.563  -9.181  1.00  0.00     0.214 A 
ATOM     28  C   UNL     1     -11.636   7.621  -7.995  1.00  0.00     0.180 A 
ATOM     29  C   UNL     1     -11.734   7.441 -10.374  1.00  0.00     0.239 A 
ATOM     30  O   UNL     1     -10.270   7.675  -8.112  1.00  0.00    -0.452 OA
ATOM     31  C   UNL     1     -10.359   7.401 -10.473  1.00  0.00     0.111 A 
ATOM     32  O   UNL     1     -12.409   7.222 -11.418  1.00  0.00    -0.285 OA
ATOM     33  C   UNL     1      -9.625   7.594  -9.271  1.00  0.00     0.146 A 
ATOM     34  C   UNL     1      -9.632   7.145 -11.680  1.00  0.00     0.134 A 
ATOM     35  C   UNL     1      -8.245   7.551  -9.239  1.00  0.00     0.094 A 
ATOM     36  C   UNL     1      -8.256   7.027 -11.604  1.00  0.00     0.093 A 
ATOM     37  C   UNL     1      -7.531   7.304 -10.423  1.00  0.00     0.123 A 
BRANCH  28  38
ATOM     38  C   UNL     1     -12.162   7.867  -6.635  1.00  0.00     0.025 A 
ATOM     39  C   UNL     1     -13.373   7.302  -6.220  1.00  0.00     0.062 A 
ATOM     40  C   UNL     1     -11.431   8.611  -5.731  1.00  0.00     0.016 A 
ATOM     41  C   UNL     1     -13.868   7.609  -4.925  1.00  0.00     0.158 A 
ATOM     42  C   UNL     1     -11.896   8.936  -4.490  1.00  0.00     0.051 A 
ATOM     43  C   UNL     1     -13.159   8.519  -4.105  1.00  0.00     0.157 A 
BRANCH  41  44
ATOM     44  O   UNL     1     -15.071   7.080  -4.434  1.00  0.00    -0.504 OA
ATOM     45  H   UNL     1     -15.461   7.425  -3.572  1.00  0.00     0.293 HD
ENDBRANCH  41  44
BRANCH  43  46
ATOM     46  O   UNL     1     -13.673   9.021  -2.930  1.00  0.00    -0.504 OA
ATOM     47  H   UNL     1     -13.634   8.513  -2.036  1.00  0.00     0.293 HD
ENDBRANCH  43  46
ENDBRANCH  28  38
BRANCH  34  48
ATOM     48  O   UNL     1     -10.268   6.888 -12.894  1.00  0.00    -0.507 OA
ATOM     49  H   UNL     1     -10.556   7.602 -13.571  1.00  0.00     0.293 HD
ENDBRANCH  34  48
BRANCH  37  50
ATOM     50  O   UNL     1      -6.143   7.158 -10.396  1.00  0.00    -0.508 OA
ATOM     51  H   UNL     1      -5.679   6.236 -10.342  1.00  0.00     0.293 HD
ENDBRANCH  37  50
ENDBRANCH  26  27
ENDBRANCH   5  26
BRANCH   4  52
ATOM     52  O   UNL     1     -16.611   6.881  -9.156  1.00  0.00    -0.384 OA
ATOM     53  H   UNL     1     -17.185   6.876  -8.355  1.00  0.00     0.211 HD
ENDBRANCH   4  52
TORSDOF 16
ENDMDL
