MODEL 1
REMARK VINA RESULT:    -1.072      0.000      0.000
REMARK INTER + INTRA:          -1.691
REMARK INTER:                  -1.385
REMARK INTRA:                  -0.306
REMARK UNBOUND:                -0.306
REMARK SMILES CCCCCCC(=O)[O-]
REMARK SMILES IDX 5 1 6 2 7 3 8 4 9 5 4 6 3 7 2 8 1 9
REMARK H PARENT
REMARK Flexibility Score: inf
ROOT
ATOM      1  C   UNL     1      36.103   3.761  41.220  1.00  0.00     0.006 C 
ENDROOT
BRANCH   1   2
ATOM      2  C   UNL     1      36.513   2.502  41.988  1.00  0.00     0.053 C 
BRANCH   2   3
ATOM      3  C   UNL     1      37.995   2.307  41.921  1.00  0.00     0.041 C 
ATOM      4  O   UNL     1      38.749   3.274  41.635  1.00  0.00    -0.550 OA
ATOM      5  O   UNL     1      38.540   1.045  42.124  1.00  0.00    -0.550 OA
ENDBRANCH   2   3
ENDBRANCH   1   2
BRANCH   1   6
ATOM      6  C   UNL     1      35.315   4.722  42.118  1.00  0.00     0.000 C 
BRANCH   6   7
ATOM      7  C   UNL     1      35.956   6.119  42.125  1.00  0.00    -0.000 C 
BRANCH   7   8
ATOM      8  C   UNL     1      36.986   6.300  40.999  1.00  0.00    -0.003 C 
ATOM      9  C   UNL     1      38.168   7.174  41.414  1.00  0.00     0.004 C 
ENDBRANCH   7   8
ENDBRANCH   6   7
ENDBRANCH   1   6
TORSDOF 5
ENDMDL
MODEL 2
REMARK VINA RESULT:    -1.043      2.362      3.764
REMARK INTER + INTRA:          -1.653
REMARK INTER:                  -1.477
REMARK INTRA:                  -0.176
REMARK UNBOUND:                -0.306
REMARK SMILES CCCCCCC(=O)[O-]
REMARK SMILES IDX 5 1 6 2 7 3 8 4 9 5 4 6 3 7 2 8 1 9
REMARK H PARENT
REMARK Flexibility Score: inf
ROOT
ATOM      1  C   UNL     1      38.848   1.920  41.252  1.00  0.00     0.006 C 
ENDROOT
BRANCH   1   2
ATOM      2  C   UNL     1      40.073   1.073  40.900  1.00  0.00     0.053 C 
BRANCH   2   3
ATOM      3  C   UNL     1      41.329   1.860  41.102  1.00  0.00     0.041 C 
ATOM      4  O   UNL     1      41.339   3.102  40.894  1.00  0.00    -0.550 OA
ATOM      5  O   UNL     1      42.503   1.214  41.471  1.00  0.00    -0.550 OA
ENDBRANCH   2   3
ENDBRANCH   1   2
BRANCH   1   6
ATOM      6  C   UNL     1      37.863   1.130  42.123  1.00  0.00     0.000 C 
BRANCH   6   7
ATOM      7  C   UNL     1      36.443   1.704  42.007  1.00  0.00    -0.000 C 
BRANCH   7   8
ATOM      8  C   UNL     1      36.411   3.056  41.278  1.00  0.00    -0.003 C 
ATOM      9  C   UNL     1      35.794   4.169  42.124  1.00  0.00     0.004 C 
ENDBRANCH   7   8
ENDBRANCH   6   7
ENDBRANCH   1   6
TORSDOF 5
ENDMDL
MODEL 3
REMARK VINA RESULT:    -1.032      3.078      4.593
REMARK INTER + INTRA:          -1.640
REMARK INTER:                  -1.463
REMARK INTRA:                  -0.177
REMARK UNBOUND:                -0.306
REMARK SMILES CCCCCCC(=O)[O-]
REMARK SMILES IDX 5 1 6 2 7 3 8 4 9 5 4 6 3 7 2 8 1 9
REMARK H PARENT
REMARK Flexibility Score: inf
ROOT
ATOM      1  C   UNL     1      36.905   4.161  41.372  1.00  0.00     0.006 C 
ENDROOT
BRANCH   1   2
ATOM      2  C   UNL     1      35.600   3.890  42.124  1.00  0.00     0.053 C 
BRANCH   2   3
ATOM      3  C   UNL     1      34.462   4.617  41.478  1.00  0.00     0.041 C 
ATOM      4  O   UNL     1      33.463   3.979  41.053  1.00  0.00    -0.550 OA
ATOM      5  O   UNL     1      34.528   5.993  41.301  1.00  0.00    -0.550 OA
ENDBRANCH   2   3
ENDBRANCH   1   2
BRANCH   1   6
ATOM      6  C   UNL     1      38.097   3.511  42.085  1.00  0.00     0.000 C 
BRANCH   6   7
ATOM      7  C   UNL     1      37.948   1.982  42.123  1.00  0.00    -0.000 C 
BRANCH   7   8
ATOM      8  C   UNL     1      39.125   1.258  41.449  1.00  0.00    -0.003 C 
ATOM      9  C   UNL     1      39.038   1.283  39.924  1.00  0.00     0.004 C 
ENDBRANCH   7   8
ENDBRANCH   6   7
ENDBRANCH   1   6
TORSDOF 5
ENDMDL
MODEL 4
REMARK VINA RESULT:    -0.995      2.929      3.878
REMARK INTER + INTRA:          -1.591
REMARK INTER:                  -1.196
REMARK INTRA:                  -0.396
REMARK UNBOUND:                -0.306
REMARK SMILES CCCCCCC(=O)[O-]
REMARK SMILES IDX 5 1 6 2 7 3 8 4 9 5 4 6 3 7 2 8 1 9
REMARK H PARENT
REMARK Flexibility Score: inf
ROOT
ATOM      1  C   UNL     1      34.999   2.171  40.915  1.00  0.00     0.006 C 
ENDROOT
BRANCH   1   2
ATOM      2  C   UNL     1      34.683   3.054  42.125  1.00  0.00     0.053 C 
BRANCH   2   3
ATOM      3  C   UNL     1      34.213   4.403  41.680  1.00  0.00     0.041 C 
ATOM      4  O   UNL     1      35.028   5.358  41.581  1.00  0.00    -0.550 OA
ATOM      5  O   UNL     1      32.865   4.620  41.425  1.00  0.00    -0.550 OA
ENDBRANCH   2   3
ENDBRANCH   1   2
BRANCH   1   6
ATOM      6  C   UNL     1      36.509   2.120  40.650  1.00  0.00     0.000 C 
BRANCH   6   7
ATOM      7  C   UNL     1      37.303   2.391  41.937  1.00  0.00    -0.000 C 
BRANCH   7   8
ATOM      8  C   UNL     1      38.256   3.589  41.801  1.00  0.00    -0.003 C 
ATOM      9  C   UNL     1      38.210   4.226  40.413  1.00  0.00     0.004 C 
ENDBRANCH   7   8
ENDBRANCH   6   7
ENDBRANCH   1   6
TORSDOF 5
ENDMDL
MODEL 5
REMARK VINA RESULT:    -0.955      2.225      3.636
REMARK INTER + INTRA:          -1.540
REMARK INTER:                  -1.316
REMARK INTRA:                  -0.224
REMARK UNBOUND:                -0.306
REMARK SMILES CCCCCCC(=O)[O-]
REMARK SMILES IDX 5 1 6 2 7 3 8 4 9 5 4 6 3 7 2 8 1 9
REMARK H PARENT
REMARK Flexibility Score: inf
ROOT
ATOM      1  C   UNL     1      35.166   3.199  41.253  1.00  0.00     0.006 C 
ENDROOT
BRANCH   1   2
ATOM      2  C   UNL     1      36.219   3.908  42.109  1.00  0.00     0.053 C 
BRANCH   2   3
ATOM      3  C   UNL     1      37.553   3.250  41.949  1.00  0.00     0.041 C 
ATOM      4  O   UNL     1      37.673   2.008  42.124  1.00  0.00    -0.550 OA
ATOM      5  O   UNL     1      38.675   4.015  41.658  1.00  0.00    -0.550 OA
ENDBRANCH   2   3
ENDBRANCH   1   2
BRANCH   1   6
ATOM      6  C   UNL     1      34.217   2.366  42.125  1.00  0.00     0.000 C 
BRANCH   6   7
ATOM      7  C   UNL     1      32.750   2.702  41.817  1.00  0.00    -0.000 C 
BRANCH   7   8
ATOM      8  C   UNL     1      32.423   4.186  42.050  1.00  0.00    -0.003 C 
ATOM      9  C   UNL     1      31.722   4.832  40.856  1.00  0.00     0.004 C 
ENDBRANCH   7   8
ENDBRANCH   6   7
ENDBRANCH   1   6
TORSDOF 5
ENDMDL
MODEL 6
REMARK VINA RESULT:    -0.935      2.554      3.835
REMARK INTER + INTRA:          -1.515
REMARK INTER:                  -1.146
REMARK INTRA:                  -0.369
REMARK UNBOUND:                -0.306
REMARK SMILES CCCCCCC(=O)[O-]
REMARK SMILES IDX 5 1 6 2 7 3 8 4 9 5 4 6 3 7 2 8 1 9
REMARK H PARENT
REMARK Flexibility Score: inf
ROOT
ATOM      1  C   UNL     1      39.145   1.703  41.063  1.00  0.00     0.006 C 
ENDROOT
BRANCH   1   2
ATOM      2  C   UNL     1      39.204   2.835  40.035  1.00  0.00     0.053 C 
BRANCH   2   3
ATOM      3  C   UNL     1      38.369   2.501  38.839  1.00  0.00     0.041 C 
ATOM      4  O   UNL     1      37.345   3.183  38.571  1.00  0.00    -0.550 OA
ATOM      5  O   UNL     1      38.694   1.406  38.049  1.00  0.00    -0.550 OA
ENDBRANCH   2   3
ENDBRANCH   1   2
BRANCH   1   6
ATOM      6  C   UNL     1      38.073   1.978  42.125  1.00  0.00     0.000 C 
BRANCH   6   7
ATOM      7  C   UNL     1      36.710   1.420  41.688  1.00  0.00    -0.000 C 
BRANCH   7   8
ATOM      8  C   UNL     1      35.613   2.496  41.661  1.00  0.00    -0.003 C 
ATOM      9  C   UNL     1      36.150   3.895  41.958  1.00  0.00     0.004 C 
ENDBRANCH   7   8
ENDBRANCH   6   7
ENDBRANCH   1   6
TORSDOF 5
ENDMDL
MODEL 7
REMARK VINA RESULT:    -0.900      1.814      2.691
REMARK INTER + INTRA:          -1.469
REMARK INTER:                  -1.250
REMARK INTRA:                  -0.219
REMARK UNBOUND:                -0.306
REMARK SMILES CCCCCCC(=O)[O-]
REMARK SMILES IDX 5 1 6 2 7 3 8 4 9 5 4 6 3 7 2 8 1 9
REMARK H PARENT
REMARK Flexibility Score: inf
ROOT
ATOM      1  C   UNL     1      37.267   2.386  42.125  1.00  0.00     0.006 C 
ENDROOT
BRANCH   1   2
ATOM      2  C   UNL     1      38.352   3.268  41.503  1.00  0.00     0.053 C 
BRANCH   2   3
ATOM      3  C   UNL     1      39.416   2.425  40.874  1.00  0.00     0.041 C 
ATOM      4  O   UNL     1      39.262   1.179  40.776  1.00  0.00    -0.550 OA
ATOM      5  O   UNL     1      40.600   3.009  40.442  1.00  0.00    -0.550 OA
ENDBRANCH   2   3
ENDBRANCH   1   2
BRANCH   1   6
ATOM      6  C   UNL     1      35.888   3.051  42.021  1.00  0.00     0.000 C 
BRANCH   6   7
ATOM      7  C   UNL     1      36.006   4.580  42.124  1.00  0.00    -0.000 C 
BRANCH   7   8
ATOM      8  C   UNL     1      34.821   5.308  41.470  1.00  0.00    -0.003 C 
ATOM      9  C   UNL     1      33.972   4.387  40.595  1.00  0.00     0.004 C 
ENDBRANCH   7   8
ENDBRANCH   6   7
ENDBRANCH   1   6
TORSDOF 5
ENDMDL
