MODEL 1
REMARK VINA RESULT:    -3.264      0.000      0.000
REMARK INTER + INTRA:          -7.291
REMARK INTER:                  -5.554
REMARK INTRA:                  -1.737
REMARK UNBOUND:                -1.737
REMARK SMILES CCCCCCCCCCCCCC(=O)[O-]
REMARK SMILES IDX 8 1 9 2 10 3 11 4 12 5 13 6 14 7 15 8 16 9 7 10 6 11 5 12
REMARK SMILES IDX 4 13 3 14 2 15 1 16
REMARK H PARENT
REMARK Flexibility Score: inf
ROOT
ATOM      1  C   UNL     1       5.423  10.340  -1.346  1.00  0.00     0.000 C 
ENDROOT
BRANCH   1   2
ATOM      2  C   UNL     1       6.006  11.452  -0.461  1.00  0.00     0.000 C 
BRANCH   2   3
ATOM      3  C   UNL     1       7.418  11.127   0.061  1.00  0.00     0.000 C 
BRANCH   3   4
ATOM      4  C   UNL     1       7.464  10.110   1.215  1.00  0.00     0.000 C 
BRANCH   4   5
ATOM      5  C   UNL     1       8.207   8.815   0.844  1.00  0.00     0.006 C 
BRANCH   5   6
ATOM      6  C   UNL     1       7.248   7.710   0.383  1.00  0.00     0.053 C 
BRANCH   6   7
ATOM      7  C   UNL     1       7.809   6.934  -0.768  1.00  0.00     0.041 C 
ATOM      8  O   UNL     1       9.042   6.684  -0.823  1.00  0.00    -0.550 OA
ATOM      9  O   UNL     1       6.966   6.453  -1.762  1.00  0.00    -0.550 OA
ENDBRANCH   6   7
ENDBRANCH   5   6
ENDBRANCH   4   5
ENDBRANCH   3   4
ENDBRANCH   2   3
ENDBRANCH   1   2
BRANCH   1  10
ATOM     10  C   UNL     1       3.973  10.027  -0.950  1.00  0.00     0.000 C 
BRANCH  10  11
ATOM     11  C   UNL     1       3.860   8.827   0.006  1.00  0.00    -0.000 C 
BRANCH  11  12
ATOM     12  C   UNL     1       3.817   9.187   1.506  1.00  0.00    -0.000 C 
BRANCH  12  13
ATOM     13  C   UNL     1       3.901   7.990   2.471  1.00  0.00    -0.000 C 
BRANCH  13  14
ATOM     14  C   UNL     1       4.513   8.364   3.832  1.00  0.00    -0.000 C 
BRANCH  14  15
ATOM     15  C   UNL     1       6.012   8.034   3.914  1.00  0.00    -0.003 C 
ATOM     16  C   UNL     1       6.298   6.539   3.787  1.00  0.00     0.004 C 
ENDBRANCH  14  15
ENDBRANCH  13  14
ENDBRANCH  12  13
ENDBRANCH  11  12
ENDBRANCH  10  11
ENDBRANCH   1  10
TORSDOF 12
ENDMDL
MODEL 2
REMARK VINA RESULT:    -3.251      2.172      4.381
REMARK INTER + INTRA:          -7.269
REMARK INTER:                  -5.735
REMARK INTRA:                  -1.535
REMARK UNBOUND:                -1.737
REMARK SMILES CCCCCCCCCCCCCC(=O)[O-]
REMARK SMILES IDX 8 1 9 2 10 3 11 4 12 5 13 6 14 7 15 8 16 9 7 10 6 11 5 12
REMARK SMILES IDX 4 13 3 14 2 15 1 16
REMARK H PARENT
REMARK Flexibility Score: inf
ROOT
ATOM      1  C   UNL     1       5.681  11.348   1.780  1.00  0.00     0.000 C 
ENDROOT
BRANCH   1   2
ATOM      2  C   UNL     1       4.220  11.713   2.088  1.00  0.00     0.000 C 
BRANCH   2   3
ATOM      3  C   UNL     1       3.355  10.487   2.433  1.00  0.00     0.000 C 
BRANCH   3   4
ATOM      4  C   UNL     1       4.010   9.126   2.136  1.00  0.00     0.000 C 
BRANCH   4   5
ATOM      5  C   UNL     1       4.169   8.250   3.391  1.00  0.00     0.006 C 
BRANCH   5   6
ATOM      6  C   UNL     1       5.629   8.158   3.851  1.00  0.00     0.053 C 
BRANCH   6   7
ATOM      7  C   UNL     1       6.191   6.785   3.642  1.00  0.00     0.041 C 
ATOM      8  O   UNL     1       6.904   6.251   4.531  1.00  0.00    -0.550 OA
ATOM      9  O   UNL     1       5.897   6.081   2.482  1.00  0.00    -0.550 OA
ENDBRANCH   6   7
ENDBRANCH   5   6
ENDBRANCH   4   5
ENDBRANCH   3   4
ENDBRANCH   2   3
ENDBRANCH   1   2
BRANCH   1  10
ATOM     10  C   UNL     1       6.078  11.818   0.373  1.00  0.00     0.000 C 
BRANCH  10  11
ATOM     11  C   UNL     1       7.099  10.886  -0.303  1.00  0.00    -0.000 C 
BRANCH  11  12
ATOM     12  C   UNL     1       7.900   9.985   0.659  1.00  0.00    -0.000 C 
BRANCH  12  13
ATOM     13  C   UNL     1       7.495   8.500   0.659  1.00  0.00    -0.000 C 
BRANCH  13  14
ATOM     14  C   UNL     1       6.416   8.177  -0.389  1.00  0.00    -0.000 C 
BRANCH  14  15
ATOM     15  C   UNL     1       6.447   6.705  -0.830  1.00  0.00    -0.003 C 
ATOM     16  C   UNL     1       7.600   6.395  -1.783  1.00  0.00     0.004 C 
ENDBRANCH  14  15
ENDBRANCH  13  14
ENDBRANCH  12  13
ENDBRANCH  11  12
ENDBRANCH  10  11
ENDBRANCH   1  10
TORSDOF 12
ENDMDL
MODEL 3
REMARK VINA RESULT:    -3.229      2.470      3.648
REMARK INTER + INTRA:          -7.231
REMARK INTER:                  -5.221
REMARK INTRA:                  -2.010
REMARK UNBOUND:                -1.737
REMARK SMILES CCCCCCCCCCCCCC(=O)[O-]
REMARK SMILES IDX 8 1 9 2 10 3 11 4 12 5 13 6 14 7 15 8 16 9 7 10 6 11 5 12
REMARK SMILES IDX 4 13 3 14 2 15 1 16
REMARK H PARENT
REMARK Flexibility Score: inf
ROOT
ATOM      1  C   UNL     1       7.869   8.622   1.176  1.00  0.00     0.000 C 
ENDROOT
BRANCH   1   2
ATOM      2  C   UNL     1       8.014  10.098   0.775  1.00  0.00     0.000 C 
BRANCH   2   3
ATOM      3  C   UNL     1       6.856  10.976   1.283  1.00  0.00     0.000 C 
BRANCH   3   4
ATOM      4  C   UNL     1       5.785  11.310   0.229  1.00  0.00     0.000 C 
BRANCH   4   5
ATOM      5  C   UNL     1       6.329  11.275  -1.210  1.00  0.00     0.006 C 
BRANCH   5   6
ATOM      6  C   UNL     1       5.583  10.260  -2.086  1.00  0.00     0.053 C 
BRANCH   6   7
ATOM      7  C   UNL     1       4.349  10.852  -2.693  1.00  0.00     0.041 C 
ATOM      8  O   UNL     1       3.211  10.462  -2.321  1.00  0.00    -0.550 OA
ATOM      9  O   UNL     1       4.454  11.860  -3.643  1.00  0.00    -0.550 OA
ENDBRANCH   6   7
ENDBRANCH   5   6
ENDBRANCH   4   5
ENDBRANCH   3   4
ENDBRANCH   2   3
ENDBRANCH   1   2
BRANCH   1  10
ATOM     10  C   UNL     1       7.519   7.754  -0.041  1.00  0.00     0.000 C 
BRANCH  10  11
ATOM     11  C   UNL     1       6.202   6.978   0.135  1.00  0.00    -0.000 C 
BRANCH  11  12
ATOM     12  C   UNL     1       4.990   7.834   0.555  1.00  0.00    -0.000 C 
BRANCH  12  13
ATOM     13  C   UNL     1       4.361   7.461   1.910  1.00  0.00    -0.000 C 
BRANCH  13  14
ATOM     14  C   UNL     1       4.579   8.540   2.985  1.00  0.00    -0.000 C 
BRANCH  14  15
ATOM     15  C   UNL     1       5.796   8.244   3.877  1.00  0.00    -0.003 C 
ATOM     16  C   UNL     1       6.178   6.764   3.886  1.00  0.00     0.004 C 
ENDBRANCH  14  15
ENDBRANCH  13  14
ENDBRANCH  12  13
ENDBRANCH  11  12
ENDBRANCH  10  11
ENDBRANCH   1  10
TORSDOF 12
ENDMDL
MODEL 4
REMARK VINA RESULT:    -3.128      2.350      4.495
REMARK INTER + INTRA:          -7.060
REMARK INTER:                  -5.011
REMARK INTRA:                  -2.049
REMARK UNBOUND:                -1.737
REMARK SMILES CCCCCCCCCCCCCC(=O)[O-]
REMARK SMILES IDX 8 1 9 2 10 3 11 4 12 5 13 6 14 7 15 8 16 9 7 10 6 11 5 12
REMARK SMILES IDX 4 13 3 14 2 15 1 16
REMARK H PARENT
REMARK Flexibility Score: inf
ROOT
ATOM      1  C   UNL     1       3.174   7.901   2.306  1.00  0.00     0.000 C 
ENDROOT
BRANCH   1   2
ATOM      2  C   UNL     1       2.896   8.948   1.216  1.00  0.00     0.000 C 
BRANCH   2   3
ATOM      3  C   UNL     1       3.209  10.386   1.669  1.00  0.00     0.000 C 
BRANCH   3   4
ATOM      4  C   UNL     1       4.319  11.091   0.868  1.00  0.00     0.000 C 
BRANCH   4   5
ATOM      5  C   UNL     1       5.353  11.792   1.766  1.00  0.00     0.006 C 
BRANCH   5   6
ATOM      6  C   UNL     1       6.234  12.770   0.979  1.00  0.00     0.053 C 
BRANCH   6   7
ATOM      7  C   UNL     1       7.431  12.089   0.391  1.00  0.00     0.041 C 
ATOM      8  O   UNL     1       8.414  11.795   1.120  1.00  0.00    -0.550 OA
ATOM      9  O   UNL     1       7.447  11.746  -0.955  1.00  0.00    -0.550 OA
ENDBRANCH   6   7
ENDBRANCH   5   6
ENDBRANCH   4   5
ENDBRANCH   3   4
ENDBRANCH   2   3
ENDBRANCH   1   2
BRANCH   1  10
ATOM     10  C   UNL     1       3.827   8.549   3.535  1.00  0.00     0.000 C 
BRANCH  10  11
ATOM     11  C   UNL     1       5.254   8.035   3.794  1.00  0.00    -0.000 C 
BRANCH  11  12
ATOM     12  C   UNL     1       5.986   7.483   2.554  1.00  0.00    -0.000 C 
BRANCH  12  13
ATOM     13  C   UNL     1       6.934   8.475   1.855  1.00  0.00    -0.000 C 
BRANCH  13  14
ATOM     14  C   UNL     1       6.847   8.404   0.321  1.00  0.00    -0.000 C 
BRANCH  14  15
ATOM     15  C   UNL     1       5.918   7.278  -0.163  1.00  0.00    -0.003 C 
ATOM     16  C   UNL     1       6.638   6.250  -1.035  1.00  0.00     0.004 C 
ENDBRANCH  14  15
ENDBRANCH  13  14
ENDBRANCH  12  13
ENDBRANCH  11  12
ENDBRANCH  10  11
ENDBRANCH   1  10
TORSDOF 12
ENDMDL
MODEL 5
REMARK VINA RESULT:    -3.093      2.211      5.274
REMARK INTER + INTRA:          -6.999
REMARK INTER:                  -5.288
REMARK INTRA:                  -1.711
REMARK UNBOUND:                -1.737
REMARK SMILES CCCCCCCCCCCCCC(=O)[O-]
REMARK SMILES IDX 8 1 9 2 10 3 11 4 12 5 13 6 14 7 15 8 16 9 7 10 6 11 5 12
REMARK SMILES IDX 4 13 3 14 2 15 1 16
REMARK H PARENT
REMARK Flexibility Score: inf
ROOT
ATOM      1  C   UNL     1       6.812   8.768   0.177  1.00  0.00     0.000 C 
ENDROOT
BRANCH   1   2
ATOM      2  C   UNL     1       5.459   9.457  -0.057  1.00  0.00     0.000 C 
BRANCH   2   3
ATOM      3  C   UNL     1       4.297   8.767   0.681  1.00  0.00     0.000 C 
BRANCH   3   4
ATOM      4  C   UNL     1       4.018   9.305   2.096  1.00  0.00     0.000 C 
BRANCH   4   5
ATOM      5  C   UNL     1       4.092   8.214   3.178  1.00  0.00     0.006 C 
BRANCH   5   6
ATOM      6  C   UNL     1       5.476   8.147   3.837  1.00  0.00     0.053 C 
BRANCH   6   7
ATOM      7  C   UNL     1       6.160   6.843   3.561  1.00  0.00     0.041 C 
ATOM      8  O   UNL     1       6.867   6.298   4.448  1.00  0.00    -0.550 OA
ATOM      9  O   UNL     1       5.987   6.212   2.336  1.00  0.00    -0.550 OA
ENDBRANCH   6   7
ENDBRANCH   5   6
ENDBRANCH   4   5
ENDBRANCH   3   4
ENDBRANCH   2   3
ENDBRANCH   1   2
BRANCH   1  10
ATOM     10  C   UNL     1       7.684   9.583   1.142  1.00  0.00     0.000 C 
BRANCH  10  11
ATOM     11  C   UNL     1       7.169  11.020   1.345  1.00  0.00    -0.000 C 
BRANCH  11  12
ATOM     12  C   UNL     1       8.053  12.124   0.728  1.00  0.00    -0.000 C 
BRANCH  12  13
ATOM     13  C   UNL     1       7.377  12.969  -0.367  1.00  0.00    -0.000 C 
BRANCH  13  14
ATOM     14  C   UNL     1       7.594  12.399  -1.780  1.00  0.00    -0.000 C 
BRANCH  14  15
ATOM     15  C   UNL     1       6.275  12.221  -2.550  1.00  0.00    -0.003 C 
ATOM     16  C   UNL     1       6.233  10.926  -3.360  1.00  0.00     0.004 C 
ENDBRANCH  14  15
ENDBRANCH  13  14
ENDBRANCH  12  13
ENDBRANCH  11  12
ENDBRANCH  10  11
ENDBRANCH   1  10
TORSDOF 12
ENDMDL
MODEL 6
REMARK VINA RESULT:    -3.081      2.540      4.461
REMARK INTER + INTRA:          -6.981
REMARK INTER:                  -4.815
REMARK INTRA:                  -2.166
REMARK UNBOUND:                -1.737
REMARK SMILES CCCCCCCCCCCCCC(=O)[O-]
REMARK SMILES IDX 8 1 9 2 10 3 11 4 12 5 13 6 14 7 15 8 16 9 7 10 6 11 5 12
REMARK SMILES IDX 4 13 3 14 2 15 1 16
REMARK H PARENT
REMARK Flexibility Score: inf
ROOT
ATOM      1  C   UNL     1       6.666  12.048   1.981  1.00  0.00     0.000 C 
ENDROOT
BRANCH   1   2
ATOM      2  C   UNL     1       6.777  10.517   2.055  1.00  0.00     0.000 C 
BRANCH   2   3
ATOM      3  C   UNL     1       7.534   9.910   0.859  1.00  0.00     0.000 C 
BRANCH   3   4
ATOM      4  C   UNL     1       7.293   8.407   0.634  1.00  0.00     0.000 C 
BRANCH   4   5
ATOM      5  C   UNL     1       5.870   7.963   1.016  1.00  0.00     0.006 C 
BRANCH   5   6
ATOM      6  C   UNL     1       5.874   6.739   1.940  1.00  0.00     0.053 C 
BRANCH   6   7
ATOM      7  C   UNL     1       5.853   7.133   3.385  1.00  0.00     0.041 C 
ATOM      8  O   UNL     1       6.726   6.688   4.175  1.00  0.00    -0.550 OA
ATOM      9  O   UNL     1       4.892   8.022   3.850  1.00  0.00    -0.550 OA
ENDBRANCH   6   7
ENDBRANCH   5   6
ENDBRANCH   4   5
ENDBRANCH   3   4
ENDBRANCH   2   3
ENDBRANCH   1   2
BRANCH   1  10
ATOM     10  C   UNL     1       5.216  12.481   1.724  1.00  0.00     0.000 C 
BRANCH  10  11
ATOM     11  C   UNL     1       4.197  11.366   2.017  1.00  0.00    -0.000 C 
BRANCH  11  12
ATOM     12  C   UNL     1       3.459  10.813   0.780  1.00  0.00    -0.000 C 
BRANCH  12  13
ATOM     13  C   UNL     1       3.952  11.354  -0.574  1.00  0.00    -0.000 C 
BRANCH  13  14
ATOM     14  C   UNL     1       4.342  10.236  -1.557  1.00  0.00    -0.000 C 
BRANCH  14  15
ATOM     15  C   UNL     1       5.666  10.527  -2.283  1.00  0.00    -0.003 C 
ATOM     16  C   UNL     1       6.222  11.915  -1.968  1.00  0.00     0.004 C 
ENDBRANCH  14  15
ENDBRANCH  13  14
ENDBRANCH  12  13
ENDBRANCH  11  12
ENDBRANCH  10  11
ENDBRANCH   1  10
TORSDOF 12
ENDMDL
MODEL 7
REMARK VINA RESULT:    -3.024      2.262      3.845
REMARK INTER + INTRA:          -6.883
REMARK INTER:                  -4.955
REMARK INTRA:                  -1.928
REMARK UNBOUND:                -1.737
REMARK SMILES CCCCCCCCCCCCCC(=O)[O-]
REMARK SMILES IDX 8 1 9 2 10 3 11 4 12 5 13 6 14 7 15 8 16 9 7 10 6 11 5 12
REMARK SMILES IDX 4 13 3 14 2 15 1 16
REMARK H PARENT
REMARK Flexibility Score: inf
ROOT
ATOM      1  C   UNL     1       7.716  10.571   1.023  1.00  0.00     0.000 C 
ENDROOT
BRANCH   1   2
ATOM      2  C   UNL     1       6.609  10.831   2.056  1.00  0.00     0.000 C 
BRANCH   2   3
ATOM      3  C   UNL     1       5.464  11.701   1.503  1.00  0.00     0.000 C 
BRANCH   3   4
ATOM      4  C   UNL     1       4.363  10.927   0.757  1.00  0.00     0.000 C 
BRANCH   4   5
ATOM      5  C   UNL     1       4.063  11.504  -0.637  1.00  0.00     0.006 C 
BRANCH   5   6
ATOM      6  C   UNL     1       4.637  10.632  -1.761  1.00  0.00     0.053 C 
BRANCH   6   7
ATOM      7  C   UNL     1       5.829  11.270  -2.405  1.00  0.00     0.041 C 
ATOM      8  O   UNL     1       6.415  12.231  -1.842  1.00  0.00    -0.550 OA
ATOM      9  O   UNL     1       6.315  10.780  -3.610  1.00  0.00    -0.550 OA
ENDBRANCH   6   7
ENDBRANCH   5   6
ENDBRANCH   4   5
ENDBRANCH   3   4
ENDBRANCH   2   3
ENDBRANCH   1   2
BRANCH   1  10
ATOM     10  C   UNL     1       7.962   9.065   0.849  1.00  0.00     0.000 C 
BRANCH  10  11
ATOM     11  C   UNL     1       6.822   8.355   0.097  1.00  0.00    -0.000 C 
BRANCH  11  12
ATOM     12  C   UNL     1       6.586   6.886   0.504  1.00  0.00    -0.000 C 
BRANCH  12  13
ATOM     13  C   UNL     1       6.014   6.680   1.918  1.00  0.00    -0.000 C 
BRANCH  13  14
ATOM     14  C   UNL     1       4.750   7.519   2.178  1.00  0.00    -0.000 C 
BRANCH  14  15
ATOM     15  C   UNL     1       4.734   8.137   3.585  1.00  0.00    -0.003 C 
ATOM     16  C   UNL     1       3.475   8.959   3.857  1.00  0.00     0.004 C 
ENDBRANCH  14  15
ENDBRANCH  13  14
ENDBRANCH  12  13
ENDBRANCH  11  12
ENDBRANCH  10  11
ENDBRANCH   1  10
TORSDOF 12
ENDMDL
MODEL 8
REMARK VINA RESULT:    -3.024      1.329      3.828
REMARK INTER + INTRA:          -6.882
REMARK INTER:                  -4.955
REMARK INTRA:                  -1.927
REMARK UNBOUND:                -1.737
REMARK SMILES CCCCCCCCCCCCCC(=O)[O-]
REMARK SMILES IDX 8 1 9 2 10 3 11 4 12 5 13 6 14 7 15 8 16 9 7 10 6 11 5 12
REMARK SMILES IDX 4 13 3 14 2 15 1 16
REMARK H PARENT
REMARK Flexibility Score: inf
ROOT
ATOM      1  C   UNL     1       3.677  10.183   2.373  1.00  0.00     0.000 C 
ENDROOT
BRANCH   1   2
ATOM      2  C   UNL     1       3.282   8.968   3.227  1.00  0.00     0.000 C 
BRANCH   2   3
ATOM      3  C   UNL     1       4.479   8.063   3.575  1.00  0.00     0.000 C 
BRANCH   3   4
ATOM      4  C   UNL     1       5.861   8.681   3.298  1.00  0.00     0.000 C 
BRANCH   4   5
ATOM      5  C   UNL     1       6.703   7.849   2.315  1.00  0.00     0.006 C 
BRANCH   5   6
ATOM      6  C   UNL     1       5.837   7.150   1.259  1.00  0.00     0.053 C 
BRANCH   6   7
ATOM      7  C   UNL     1       6.641   6.741   0.064  1.00  0.00     0.041 C 
ATOM      8  O   UNL     1       6.189   5.886  -0.742  1.00  0.00    -0.550 OA
ATOM      9  O   UNL     1       7.875   7.330  -0.180  1.00  0.00    -0.550 OA
ENDBRANCH   6   7
ENDBRANCH   5   6
ENDBRANCH   4   5
ENDBRANCH   3   4
ENDBRANCH   2   3
ENDBRANCH   1   2
BRANCH   1  10
ATOM     10  C   UNL     1       3.204  10.011   0.923  1.00  0.00     0.000 C 
BRANCH  10  11
ATOM     11  C   UNL     1       3.534  11.227   0.038  1.00  0.00    -0.000 C 
BRANCH  11  12
ATOM     12  C   UNL     1       4.528  10.950  -1.109  1.00  0.00    -0.000 C 
BRANCH  12  13
ATOM     13  C   UNL     1       5.831  10.244  -0.691  1.00  0.00    -0.000 C 
BRANCH  13  14
ATOM     14  C   UNL     1       7.008  11.219  -0.519  1.00  0.00    -0.000 C 
BRANCH  14  15
ATOM     15  C   UNL     1       7.630  11.146   0.885  1.00  0.00    -0.003 C 
ATOM     16  C   UNL     1       6.876  11.990   1.912  1.00  0.00     0.004 C 
ENDBRANCH  14  15
ENDBRANCH  13  14
ENDBRANCH  12  13
ENDBRANCH  11  12
ENDBRANCH  10  11
ENDBRANCH   1  10
TORSDOF 12
ENDMDL
MODEL 9
REMARK VINA RESULT:    -2.991      2.048      3.863
REMARK INTER + INTRA:          -6.827
REMARK INTER:                  -5.099
REMARK INTRA:                  -1.728
REMARK UNBOUND:                -1.737
REMARK SMILES CCCCCCCCCCCCCC(=O)[O-]
REMARK SMILES IDX 8 1 9 2 10 3 11 4 12 5 13 6 14 7 15 8 16 9 7 10 6 11 5 12
REMARK SMILES IDX 4 13 3 14 2 15 1 16
REMARK H PARENT
REMARK Flexibility Score: inf
ROOT
ATOM      1  C   UNL     1       2.932   9.890   1.304  1.00  0.00     0.000 C 
ENDROOT
BRANCH   1   2
ATOM      2  C   UNL     1       3.344   9.083   0.063  1.00  0.00     0.000 C 
BRANCH   2   3
ATOM      3  C   UNL     1       4.398   9.802  -0.799  1.00  0.00     0.000 C 
BRANCH   3   4
ATOM      4  C   UNL     1       4.308  11.339  -0.786  1.00  0.00     0.000 C 
BRANCH   4   5
ATOM      5  C   UNL     1       5.588  12.010  -0.259  1.00  0.00     0.006 C 
BRANCH   5   6
ATOM      6  C   UNL     1       6.821  11.111  -0.419  1.00  0.00     0.053 C 
BRANCH   6   7
ATOM      7  C   UNL     1       7.496  10.856   0.893  1.00  0.00     0.041 C 
ATOM      8  O   UNL     1       8.481  10.075   0.958  1.00  0.00    -0.550 OA
ATOM      9  O   UNL     1       7.060  11.509   2.039  1.00  0.00    -0.550 OA
ENDBRANCH   6   7
ENDBRANCH   5   6
ENDBRANCH   4   5
ENDBRANCH   3   4
ENDBRANCH   2   3
ENDBRANCH   1   2
BRANCH   1  10
ATOM     10  C   UNL     1       4.005   9.799   2.398  1.00  0.00     0.000 C 
BRANCH  10  11
ATOM     11  C   UNL     1       3.888   8.520   3.246  1.00  0.00    -0.000 C 
BRANCH  11  12
ATOM     12  C   UNL     1       5.223   7.981   3.803  1.00  0.00    -0.000 C 
BRANCH  12  13
ATOM     13  C   UNL     1       6.352   7.830   2.768  1.00  0.00    -0.000 C 
BRANCH  13  14
ATOM     14  C   UNL     1       6.002   6.838   1.645  1.00  0.00    -0.000 C 
BRANCH  14  15
ATOM     15  C   UNL     1       6.699   7.183   0.318  1.00  0.00    -0.003 C 
ATOM     16  C   UNL     1       6.359   6.202  -0.803  1.00  0.00     0.004 C 
ENDBRANCH  14  15
ENDBRANCH  13  14
ENDBRANCH  12  13
ENDBRANCH  11  12
ENDBRANCH  10  11
ENDBRANCH   1  10
TORSDOF 12
ENDMDL
