MODEL 1
REMARK VINA RESULT:    -3.668      0.000      0.000
REMARK INTER + INTRA:          -4.902
REMARK INTER:                  -4.311
REMARK INTRA:                  -0.591
REMARK UNBOUND:                -0.591
REMARK SMILES C=CC(C)=CCC=C(C)C
REMARK SMILES IDX 5 1 3 2 4 3 6 4 7 5 9 6 8 7 10 8 2 9 1 10
REMARK H PARENT
REMARK Flexibility Score: inf
ROOT
ATOM      1  C   UNL     1      11.028   6.253  18.460  1.00  0.00    -0.020 C 
ATOM      2  C   UNL     1      10.992   7.498  17.943  1.00  0.00    -0.055 C 
ATOM      3  C   UNL     1      10.978   8.668  18.893  1.00  0.00     0.044 C 
ENDROOT
BRANCH   1   4
ATOM      4  C   UNL     1      11.161   4.974  17.671  1.00  0.00     0.055 C 
BRANCH   4   5
ATOM      5  C   UNL     1      12.364   4.195  18.136  1.00  0.00    -0.024 C 
ATOM      6  C   UNL     1      13.812   5.042  16.280  1.00  0.00     0.039 C 
ATOM      7  C   UNL     1      13.565   4.212  17.517  1.00  0.00    -0.080 C 
ATOM      8  C   UNL     1      14.682   3.379  18.090  1.00  0.00     0.039 C 
ENDBRANCH   4   5
ENDBRANCH   1   4
BRANCH   2   9
ATOM      9  C   UNL     1      10.999   7.752  16.478  1.00  0.00    -0.005 C 
ATOM     10  C   UNL     1      11.960   8.453  15.877  1.00  0.00     0.009 C 
ENDBRANCH   2   9
TORSDOF 3
ENDMDL
MODEL 2
REMARK VINA RESULT:    -3.357      1.033      4.657
REMARK INTER + INTRA:          -4.537
REMARK INTER:                  -4.012
REMARK INTRA:                  -0.525
REMARK UNBOUND:                -0.591
REMARK SMILES C=CC(C)=CCC=C(C)C
REMARK SMILES IDX 5 1 3 2 4 3 6 4 7 5 9 6 8 7 10 8 2 9 1 10
REMARK H PARENT
REMARK Flexibility Score: inf
ROOT
ATOM      1  C   UNL     1      12.741   6.125  15.996  1.00  0.00    -0.020 C 
ATOM      2  C   UNL     1      13.665   5.230  16.399  1.00  0.00    -0.055 C 
ATOM      3  C   UNL     1      15.078   5.383  15.896  1.00  0.00     0.044 C 
ENDROOT
BRANCH   1   4
ATOM      4  C   UNL     1      11.315   6.198  16.481  1.00  0.00     0.055 C 
BRANCH   4   5
ATOM      5  C   UNL     1      11.045   7.540  17.113  1.00  0.00    -0.024 C 
ATOM      6  C   UNL     1      11.639   6.741  19.408  1.00  0.00     0.039 C 
ATOM      7  C   UNL     1      11.183   7.799  18.431  1.00  0.00    -0.080 C 
ATOM      8  C   UNL     1      10.875   9.188  18.928  1.00  0.00     0.039 C 
ENDBRANCH   4   5
ENDBRANCH   1   4
BRANCH   2   9
ATOM      9  C   UNL     1      13.346   4.126  17.343  1.00  0.00    -0.005 C 
ATOM     10  C   UNL     1      14.278   3.520  18.079  1.00  0.00     0.009 C 
ENDBRANCH   2   9
TORSDOF 3
ENDMDL
MODEL 3
REMARK VINA RESULT:    -3.329      1.144      2.151
REMARK INTER + INTRA:          -4.504
REMARK INTER:                  -3.878
REMARK INTRA:                  -0.625
REMARK UNBOUND:                -0.591
REMARK SMILES C=CC(C)=CCC=C(C)C
REMARK SMILES IDX 5 1 3 2 4 3 6 4 7 5 9 6 8 7 10 8 2 9 1 10
REMARK H PARENT
REMARK Flexibility Score: inf
ROOT
ATOM      1  C   UNL     1      11.119   6.136  17.077  1.00  0.00    -0.020 C 
ATOM      2  C   UNL     1      11.106   7.406  17.531  1.00  0.00    -0.055 C 
ATOM      3  C   UNL     1      10.887   8.519  16.538  1.00  0.00     0.044 C 
ENDROOT
BRANCH   1   4
ATOM      4  C   UNL     1      11.210   4.896  17.931  1.00  0.00     0.055 C 
BRANCH   4   5
ATOM      5  C   UNL     1      12.556   4.240  17.759  1.00  0.00    -0.024 C 
ATOM      6  C   UNL     1      13.054   4.284  20.210  1.00  0.00     0.039 C 
ATOM      7  C   UNL     1      13.400   3.961  18.776  1.00  0.00    -0.080 C 
ATOM      8  C   UNL     1      14.718   3.305  18.458  1.00  0.00     0.039 C 
ENDBRANCH   4   5
ENDBRANCH   1   4
BRANCH   2   9
ATOM      9  C   UNL     1      11.266   7.738  18.972  1.00  0.00    -0.005 C 
ATOM     10  C   UNL     1      12.446   8.047  19.509  1.00  0.00     0.009 C 
ENDBRANCH   2   9
TORSDOF 3
ENDMDL
MODEL 4
REMARK VINA RESULT:    -3.327      1.990      4.393
REMARK INTER + INTRA:          -4.501
REMARK INTER:                  -3.811
REMARK INTRA:                  -0.690
REMARK UNBOUND:                -0.591
REMARK SMILES C=CC(C)=CCC=C(C)C
REMARK SMILES IDX 5 1 3 2 4 3 6 4 7 5 9 6 8 7 10 8 2 9 1 10
REMARK H PARENT
REMARK Flexibility Score: inf
ROOT
ATOM      1  C   UNL     1      14.640   3.497  17.719  1.00  0.00    -0.020 C 
ATOM      2  C   UNL     1      13.874   3.593  18.825  1.00  0.00    -0.055 C 
ATOM      3  C   UNL     1      14.389   2.990  20.107  1.00  0.00     0.044 C 
ENDROOT
BRANCH   1   4
ATOM      4  C   UNL     1      14.344   4.134  16.384  1.00  0.00     0.055 C 
BRANCH   4   5
ATOM      5  C   UNL     1      14.808   5.568  16.375  1.00  0.00    -0.024 C 
ATOM      6  C   UNL     1      12.522   6.456  15.875  1.00  0.00     0.039 C 
ATOM      7  C   UNL     1      13.999   6.625  16.143  1.00  0.00    -0.080 C 
ATOM      8  C   UNL     1      14.598   8.007  16.159  1.00  0.00     0.039 C 
ENDBRANCH   4   5
ENDBRANCH   1   4
BRANCH   2   9
ATOM      9  C   UNL     1      12.565   4.298  18.828  1.00  0.00    -0.005 C 
ATOM     10  C   UNL     1      12.380   5.464  19.447  1.00  0.00     0.009 C 
ENDBRANCH   2   9
TORSDOF 3
ENDMDL
MODEL 5
REMARK VINA RESULT:    -3.308      1.598      2.477
REMARK INTER + INTRA:          -4.480
REMARK INTER:                  -3.881
REMARK INTRA:                  -0.598
REMARK UNBOUND:                -0.591
REMARK SMILES C=CC(C)=CCC=C(C)C
REMARK SMILES IDX 5 1 3 2 4 3 6 4 7 5 9 6 8 7 10 8 2 9 1 10
REMARK H PARENT
REMARK Flexibility Score: inf
ROOT
ATOM      1  C   UNL     1      13.024   4.889  19.299  1.00  0.00    -0.020 C 
ATOM      2  C   UNL     1      11.958   5.570  18.833  1.00  0.00    -0.055 C 
ATOM      3  C   UNL     1      11.571   6.853  19.525  1.00  0.00     0.044 C 
ENDROOT
BRANCH   1   4
ATOM      4  C   UNL     1      13.625   3.656  18.670  1.00  0.00     0.055 C 
BRANCH   4   5
ATOM      5  C   UNL     1      15.054   3.918  18.266  1.00  0.00    -0.024 C 
ATOM      6  C   UNL     1      14.453   4.347  15.876  1.00  0.00     0.039 C 
ATOM      7  C   UNL     1      15.443   4.226  17.010  1.00  0.00    -0.080 C 
ATOM      8  C   UNL     1      16.908   4.459  16.747  1.00  0.00     0.039 C 
ENDBRANCH   4   5
ENDBRANCH   1   4
BRANCH   2   9
ATOM      9  C   UNL     1      11.180   5.119  17.649  1.00  0.00    -0.005 C 
ATOM     10  C   UNL     1      10.906   5.924  16.622  1.00  0.00     0.009 C 
ENDBRANCH   2   9
TORSDOF 3
ENDMDL
MODEL 6
REMARK VINA RESULT:    -3.293      1.642      2.885
REMARK INTER + INTRA:          -4.462
REMARK INTER:                  -3.997
REMARK INTRA:                  -0.465
REMARK UNBOUND:                -0.591
REMARK SMILES C=CC(C)=CCC=C(C)C
REMARK SMILES IDX 5 1 3 2 4 3 6 4 7 5 9 6 8 7 10 8 2 9 1 10
REMARK H PARENT
REMARK Flexibility Score: inf
ROOT
ATOM      1  C   UNL     1      14.575   5.817  16.321  1.00  0.00    -0.020 C 
ATOM      2  C   UNL     1      13.661   6.785  16.104  1.00  0.00    -0.055 C 
ATOM      3  C   UNL     1      14.133   8.216  16.059  1.00  0.00     0.044 C 
ENDROOT
BRANCH   1   4
ATOM      4  C   UNL     1      14.311   4.332  16.285  1.00  0.00     0.055 C 
BRANCH   4   5
ATOM      5  C   UNL     1      14.660   3.707  17.611  1.00  0.00    -0.024 C 
ATOM      6  C   UNL     1      12.409   4.183  18.594  1.00  0.00     0.039 C 
ATOM      7  C   UNL     1      13.815   3.636  18.663  1.00  0.00    -0.080 C 
ATOM      8  C   UNL     1      14.299   2.985  19.933  1.00  0.00     0.039 C 
ENDBRANCH   4   5
ENDBRANCH   1   4
BRANCH   2   9
ATOM      9  C   UNL     1      12.223   6.486  15.875  1.00  0.00    -0.005 C 
ATOM     10  C   UNL     1      11.259   7.375  16.113  1.00  0.00     0.009 C 
ENDBRANCH   2   9
TORSDOF 3
ENDMDL
MODEL 7
REMARK VINA RESULT:    -3.253      1.792      4.338
REMARK INTER + INTRA:          -4.414
REMARK INTER:                  -3.755
REMARK INTRA:                  -0.659
REMARK UNBOUND:                -0.591
REMARK SMILES C=CC(C)=CCC=C(C)C
REMARK SMILES IDX 5 1 3 2 4 3 6 4 7 5 9 6 8 7 10 8 2 9 1 10
REMARK H PARENT
REMARK Flexibility Score: inf
ROOT
ATOM      1  C   UNL     1      15.036   3.870  17.713  1.00  0.00    -0.020 C 
ATOM      2  C   UNL     1      15.599   4.641  16.760  1.00  0.00    -0.055 C 
ATOM      3  C   UNL     1      17.093   4.564  16.569  1.00  0.00     0.044 C 
ENDROOT
BRANCH   1   4
ATOM      4  C   UNL     1      13.556   3.729  17.970  1.00  0.00     0.055 C 
BRANCH   4   5
ATOM      5  C   UNL     1      13.099   4.760  18.971  1.00  0.00    -0.024 C 
ATOM      6  C   UNL     1      11.125   5.436  17.591  1.00  0.00     0.039 C 
ATOM      7  C   UNL     1      12.008   5.540  18.812  1.00  0.00    -0.080 C 
ATOM      8  C   UNL     1      11.669   6.533  19.893  1.00  0.00     0.039 C 
ENDBRANCH   4   5
ENDBRANCH   1   4
BRANCH   2   9
ATOM      9  C   UNL     1      14.798   5.531  15.879  1.00  0.00    -0.005 C 
ATOM     10  C   UNL     1      14.555   6.806  16.179  1.00  0.00     0.009 C 
ENDBRANCH   2   9
TORSDOF 3
ENDMDL
MODEL 8
REMARK VINA RESULT:    -0.793      1.513      5.019
REMARK INTER + INTRA:          -1.524
REMARK INTER:                  -1.178
REMARK INTRA:                  -0.345
REMARK UNBOUND:                -0.591
REMARK SMILES C=CC(C)=CCC=C(C)C
REMARK SMILES IDX 5 1 3 2 4 3 6 4 7 5 9 6 8 7 10 8 2 9 1 10
REMARK H PARENT
REMARK Flexibility Score: inf
ROOT
ATOM      1  C   UNL     1      12.741   4.125  17.941  1.00  0.00    -0.020 C 
ATOM      2  C   UNL     1      13.652   3.717  18.849  1.00  0.00    -0.055 C 
ATOM      3  C   UNL     1      14.908   3.048  18.351  1.00  0.00     0.044 C 
ENDROOT
BRANCH   1   4
ATOM      4  C   UNL     1      11.488   4.909  18.240  1.00  0.00     0.055 C 
BRANCH   4   5
ATOM      5  C   UNL     1      11.176   5.851  17.106  1.00  0.00    -0.024 C 
ATOM      6  C   UNL     1      11.591   7.891  18.494  1.00  0.00     0.039 C 
ATOM      7  C   UNL     1      11.215   7.198  17.206  1.00  0.00    -0.080 C 
ATOM      8  C   UNL     1      10.875   8.020  15.990  1.00  0.00     0.039 C 
ENDBRANCH   4   5
ENDBRANCH   1   4
BRANCH   2   9
ATOM      9  C   UNL     1      13.473   3.936  20.308  1.00  0.00    -0.005 C 
ATOM     10  C   UNL     1      13.413   2.931  21.181  1.00  0.00     0.009 C 
ENDBRANCH   2   9
TORSDOF 3
ENDMDL
