MODEL 1
REMARK VINA RESULT:    -6.451      0.000      0.000
REMARK INTER + INTRA:          -6.828
REMARK INTER:                  -6.828
REMARK INTRA:                   0.000
REMARK UNBOUND:                 0.000
REMARK SMILES O=c1ccc2cc(O)c(O)cc2o1
REMARK SMILES IDX 4 1 3 2 2 3 1 4 13 5 12 6 11 7 9 8 7 9 6 10 5 11 8 12 10 14
REMARK H PARENT 8 13 10 15
REMARK Flexibility Score: inf
ROOT
ATOM      1  C   UNL     1     -36.369  -7.345 -13.379  1.00  0.00     0.019 A 
ATOM      2  C   UNL     1     -35.801  -6.071 -13.404  1.00  0.00     0.094 A 
ATOM      3  C   UNL     1     -36.642  -4.954 -13.439  1.00  0.00     0.336 A 
ATOM      4  O   UNL     1     -36.150  -3.796 -13.463  1.00  0.00    -0.246 OA
ATOM      5  O   UNL     1     -37.965  -5.107 -13.448  1.00  0.00    -0.423 OA
ATOM      6  C   UNL     1     -38.547  -6.303 -13.424  1.00  0.00     0.142 A 
ATOM      7  C   UNL     1     -39.942  -6.402 -13.434  1.00  0.00     0.098 A 
ATOM      8  C   UNL     1     -40.562  -7.661 -13.409  1.00  0.00     0.161 A 
ATOM      9  C   UNL     1     -39.778  -8.828 -13.375  1.00  0.00     0.158 A 
ATOM     10  C   UNL     1     -38.380  -8.732 -13.364  1.00  0.00     0.062 A 
ATOM     11  C   UNL     1     -37.761  -7.476 -13.388  1.00  0.00     0.022 A 
ENDROOT
BRANCH   9  12
ATOM     12  O   UNL     1     -40.368 -10.091 -13.349  1.00  0.00    -0.504 OA
ATOM     13  H   UNL     1     -40.800 -10.500 -14.169  1.00  0.00     0.293 HD
ENDBRANCH   9  12
BRANCH   8  14
ATOM     14  O   UNL     1     -41.953  -7.755 -13.420  1.00  0.00    -0.504 OA
ATOM     15  H   UNL     1     -42.433  -8.555 -13.027  1.00  0.00     0.293 HD
ENDBRANCH   8  14
TORSDOF 2
ENDMDL
MODEL 2
REMARK VINA RESULT:    -6.117      6.559      9.234
REMARK INTER + INTRA:          -6.475
REMARK INTER:                  -6.475
REMARK INTRA:                   0.000
REMARK UNBOUND:                 0.000
REMARK SMILES O=c1ccc2cc(O)c(O)cc2o1
REMARK SMILES IDX 4 1 3 2 2 3 1 4 13 5 12 6 11 7 9 8 7 9 6 10 5 11 8 12 10 14
REMARK H PARENT 8 13 10 15
REMARK Flexibility Score: inf
ROOT
ATOM      1  C   UNL     1     -31.862  -4.156 -16.345  1.00  0.00     0.019 A 
ATOM      2  C   UNL     1     -32.959  -4.584 -15.597  1.00  0.00     0.094 A 
ATOM      3  C   UNL     1     -34.245  -4.422 -16.125  1.00  0.00     0.336 A 
ATOM      4  O   UNL     1     -35.248  -4.801 -15.466  1.00  0.00    -0.246 OA
ATOM      5  O   UNL     1     -34.416  -3.868 -17.323  1.00  0.00    -0.423 OA
ATOM      6  C   UNL     1     -33.398  -3.446 -18.069  1.00  0.00     0.142 A 
ATOM      7  C   UNL     1     -33.638  -2.872 -19.321  1.00  0.00     0.098 A 
ATOM      8  C   UNL     1     -32.569  -2.426 -20.112  1.00  0.00     0.161 A 
ATOM      9  C   UNL     1     -31.248  -2.556 -19.645  1.00  0.00     0.158 A 
ATOM     10  C   UNL     1     -31.004  -3.132 -18.391  1.00  0.00     0.062 A 
ATOM     11  C   UNL     1     -32.072  -3.578 -17.601  1.00  0.00     0.022 A 
ENDROOT
BRANCH   9  12
ATOM     12  O   UNL     1     -30.167  -2.122 -20.410  1.00  0.00    -0.504 OA
ATOM     13  H   UNL     1     -30.261  -1.398 -21.112  1.00  0.00     0.293 HD
ENDBRANCH   9  12
BRANCH   8  14
ATOM     14  O   UNL     1     -32.814  -1.854 -21.359  1.00  0.00    -0.504 OA
ATOM     15  H   UNL     1     -32.794  -0.850 -21.496  1.00  0.00     0.293 HD
ENDBRANCH   8  14
TORSDOF 2
ENDMDL
MODEL 3
REMARK VINA RESULT:    -6.066      7.290     10.140
REMARK INTER + INTRA:          -6.421
REMARK INTER:                  -6.421
REMARK INTRA:                   0.000
REMARK UNBOUND:                 0.000
REMARK SMILES O=c1ccc2cc(O)c(O)cc2o1
REMARK SMILES IDX 4 1 3 2 2 3 1 4 13 5 12 6 11 7 9 8 7 9 6 10 5 11 8 12 10 14
REMARK H PARENT 8 13 10 15
REMARK Flexibility Score: inf
ROOT
ATOM      1  C   UNL     1     -34.274  -3.219 -18.640  1.00  0.00     0.019 A 
ATOM      2  C   UNL     1     -34.620  -3.716 -17.383  1.00  0.00     0.094 A 
ATOM      3  C   UNL     1     -33.603  -4.036 -16.477  1.00  0.00     0.336 A 
ATOM      4  O   UNL     1     -33.895  -4.485 -15.338  1.00  0.00    -0.246 OA
ATOM      5  O   UNL     1     -32.326  -3.869 -16.812  1.00  0.00    -0.423 OA
ATOM      6  C   UNL     1     -31.952  -3.399 -17.999  1.00  0.00     0.142 A 
ATOM      7  C   UNL     1     -30.595  -3.244 -18.295  1.00  0.00     0.098 A 
ATOM      8  C   UNL     1     -30.194  -2.749 -19.545  1.00  0.00     0.161 A 
ATOM      9  C   UNL     1     -31.163  -2.406 -20.506  1.00  0.00     0.158 A 
ATOM     10  C   UNL     1     -32.524  -2.560 -20.213  1.00  0.00     0.062 A 
ATOM     11  C   UNL     1     -32.924  -3.054 -18.964  1.00  0.00     0.022 A 
ENDROOT
BRANCH   9  12
ATOM     12  O   UNL     1     -30.793  -1.911 -21.756  1.00  0.00    -0.504 OA
ATOM     13  H   UNL     1     -29.994  -2.272 -22.263  1.00  0.00     0.293 HD
ENDBRANCH   9  12
BRANCH   8  14
ATOM     14  O   UNL     1     -28.840  -2.597 -19.836  1.00  0.00    -0.504 OA
ATOM     15  H   UNL     1     -28.523  -2.311 -20.755  1.00  0.00     0.293 HD
ENDBRANCH   8  14
TORSDOF 2
ENDMDL
MODEL 4
REMARK VINA RESULT:    -5.966      1.136      4.553
REMARK INTER + INTRA:          -6.315
REMARK INTER:                  -6.315
REMARK INTRA:                   0.000
REMARK UNBOUND:                 0.000
REMARK SMILES O=c1ccc2cc(O)c(O)cc2o1
REMARK SMILES IDX 4 1 3 2 2 3 1 4 13 5 12 6 11 7 9 8 7 9 6 10 5 11 8 12 10 14
REMARK H PARENT 8 13 10 15
REMARK Flexibility Score: inf
ROOT
ATOM      1  C   UNL     1     -37.354  -8.608 -13.473  1.00  0.00     0.019 A 
ATOM      2  C   UNL     1     -38.593  -9.249 -13.478  1.00  0.00     0.094 A 
ATOM      3  C   UNL     1     -39.756  -8.478 -13.378  1.00  0.00     0.336 A 
ATOM      4  O   UNL     1     -40.883  -9.037 -13.380  1.00  0.00    -0.246 OA
ATOM      5  O   UNL     1     -39.679  -7.152 -13.279  1.00  0.00    -0.423 OA
ATOM      6  C   UNL     1     -38.518  -6.501 -13.271  1.00  0.00     0.142 A 
ATOM      7  C   UNL     1     -38.499  -5.108 -13.165  1.00  0.00     0.098 A 
ATOM      8  C   UNL     1     -37.278  -4.415 -13.156  1.00  0.00     0.161 A 
ATOM      9  C   UNL     1     -36.068  -5.126 -13.253  1.00  0.00     0.158 A 
ATOM     10  C   UNL     1     -36.084  -6.523 -13.359  1.00  0.00     0.062 A 
ATOM     11  C   UNL     1     -37.303  -7.214 -13.369  1.00  0.00     0.022 A 
ENDROOT
BRANCH   9  12
ATOM     12  O   UNL     1     -34.842  -4.464 -13.247  1.00  0.00    -0.504 OA
ATOM     13  H   UNL     1     -34.453  -4.059 -12.403  1.00  0.00     0.293 HD
ENDBRANCH   9  12
BRANCH   8  14
ATOM     14  O   UNL     1     -37.264  -3.025 -13.050  1.00  0.00    -0.504 OA
ATOM     15  H   UNL     1     -38.064  -2.512 -12.698  1.00  0.00     0.293 HD
ENDBRANCH   8  14
TORSDOF 2
ENDMDL
MODEL 5
REMARK VINA RESULT:    -5.891      6.484      8.588
REMARK INTER + INTRA:          -6.236
REMARK INTER:                  -6.236
REMARK INTRA:                   0.000
REMARK UNBOUND:                 0.000
REMARK SMILES O=c1ccc2cc(O)c(O)cc2o1
REMARK SMILES IDX 4 1 3 2 2 3 1 4 13 5 12 6 11 7 9 8 7 9 6 10 5 11 8 12 10 14
REMARK H PARENT 8 13 10 15
REMARK Flexibility Score: inf
ROOT
ATOM      1  C   UNL     1     -34.599  -5.480 -17.244  1.00  0.00     0.019 A 
ATOM      2  C   UNL     1     -35.679  -4.791 -17.797  1.00  0.00     0.094 A 
ATOM      3  C   UNL     1     -35.457  -3.537 -18.377  1.00  0.00     0.336 A 
ATOM      4  O   UNL     1     -36.418  -2.899 -18.881  1.00  0.00    -0.246 OA
ATOM      5  O   UNL     1     -34.234  -3.011 -18.399  1.00  0.00    -0.423 OA
ATOM      6  C   UNL     1     -33.178  -3.635 -17.883  1.00  0.00     0.142 A 
ATOM      7  C   UNL     1     -31.917  -3.034 -17.935  1.00  0.00     0.098 A 
ATOM      8  C   UNL     1     -30.799  -3.687 -17.393  1.00  0.00     0.161 A 
ATOM      9  C   UNL     1     -30.947  -4.951 -16.794  1.00  0.00     0.158 A 
ATOM     10  C   UNL     1     -32.210  -5.555 -16.740  1.00  0.00     0.062 A 
ATOM     11  C   UNL     1     -33.326  -4.904 -17.282  1.00  0.00     0.022 A 
ENDROOT
BRANCH   9  12
ATOM     12  O   UNL     1     -29.854  -5.622 -16.248  1.00  0.00    -0.504 OA
ATOM     13  H   UNL     1     -29.964  -6.400 -15.610  1.00  0.00     0.293 HD
ENDBRANCH   9  12
BRANCH   8  14
ATOM     14  O   UNL     1     -29.543  -3.084 -17.447  1.00  0.00    -0.504 OA
ATOM     15  H   UNL     1     -29.290  -2.452 -18.198  1.00  0.00     0.293 HD
ENDBRANCH   8  14
TORSDOF 2
ENDMDL
MODEL 6
REMARK VINA RESULT:    -5.852      0.935      2.237
REMARK INTER + INTRA:          -6.194
REMARK INTER:                  -6.194
REMARK INTRA:                   0.000
REMARK UNBOUND:                 0.000
REMARK SMILES O=c1ccc2cc(O)c(O)cc2o1
REMARK SMILES IDX 4 1 3 2 2 3 1 4 13 5 12 6 11 7 9 8 7 9 6 10 5 11 8 12 10 14
REMARK H PARENT 8 13 10 15
REMARK Flexibility Score: inf
ROOT
ATOM      1  C   UNL     1     -38.805  -4.590 -13.306  1.00  0.00     0.019 A 
ATOM      2  C   UNL     1     -37.478  -4.162 -13.305  1.00  0.00     0.094 A 
ATOM      3  C   UNL     1     -36.457  -5.118 -13.338  1.00  0.00     0.336 A 
ATOM      4  O   UNL     1     -35.253  -4.753 -13.337  1.00  0.00    -0.246 OA
ATOM      5  O   UNL     1     -36.750  -6.416 -13.370  1.00  0.00    -0.423 OA
ATOM      6  C   UNL     1     -38.003  -6.867 -13.373  1.00  0.00     0.142 A 
ATOM      7  C   UNL     1     -38.250  -8.243 -13.408  1.00  0.00     0.098 A 
ATOM      8  C   UNL     1     -39.568  -8.725 -13.412  1.00  0.00     0.161 A 
ATOM      9  C   UNL     1     -40.645  -7.820 -13.379  1.00  0.00     0.158 A 
ATOM     10  C   UNL     1     -40.400  -6.442 -13.343  1.00  0.00     0.062 A 
ATOM     11  C   UNL     1     -39.084  -5.960 -13.341  1.00  0.00     0.022 A 
ENDROOT
BRANCH   9  12
ATOM     12  O   UNL     1     -41.965  -8.271 -13.382  1.00  0.00    -0.504 OA
ATOM     13  H   UNL     1     -42.725  -7.712 -13.015  1.00  0.00     0.293 HD
ENDBRANCH   9  12
BRANCH   8  14
ATOM     14  O   UNL     1     -39.811 -10.097 -13.446  1.00  0.00    -0.504 OA
ATOM     15  H   UNL     1     -40.443 -10.507 -14.123  1.00  0.00     0.293 HD
ENDBRANCH   8  14
TORSDOF 2
ENDMDL
MODEL 7
REMARK VINA RESULT:    -5.846      1.932      2.473
REMARK INTER + INTRA:          -6.188
REMARK INTER:                  -6.188
REMARK INTRA:                   0.000
REMARK UNBOUND:                 0.000
REMARK SMILES O=c1ccc2cc(O)c(O)cc2o1
REMARK SMILES IDX 4 1 3 2 2 3 1 4 13 5 12 6 11 7 9 8 7 9 6 10 5 11 8 12 10 14
REMARK H PARENT 8 13 10 15
REMARK Flexibility Score: inf
ROOT
ATOM      1  C   UNL     1     -35.997  -5.201 -12.791  1.00  0.00     0.019 A 
ATOM      2  C   UNL     1     -36.530  -4.134 -12.066  1.00  0.00     0.094 A 
ATOM      3  C   UNL     1     -37.918  -4.034 -11.929  1.00  0.00     0.336 A 
ATOM      4  O   UNL     1     -38.419  -3.079 -11.279  1.00  0.00    -0.246 OA
ATOM      5  O   UNL     1     -38.717  -4.943 -12.483  1.00  0.00    -0.423 OA
ATOM      6  C   UNL     1     -38.251  -5.975 -13.182  1.00  0.00     0.142 A 
ATOM      7  C   UNL     1     -39.138  -6.900 -13.740  1.00  0.00     0.098 A 
ATOM      8  C   UNL     1     -38.653  -7.990 -14.478  1.00  0.00     0.161 A 
ATOM      9  C   UNL     1     -37.267  -8.155 -14.657  1.00  0.00     0.158 A 
ATOM     10  C   UNL     1     -36.376  -7.230 -14.099  1.00  0.00     0.062 A 
ATOM     11  C   UNL     1     -36.860  -6.141 -13.361  1.00  0.00     0.022 A 
ENDROOT
BRANCH   9  12
ATOM     12  O   UNL     1     -36.758  -9.229 -15.385  1.00  0.00    -0.504 OA
ATOM     13  H   UNL     1     -36.012  -9.115 -16.061  1.00  0.00     0.293 HD
ENDBRANCH   9  12
BRANCH   8  14
ATOM     14  O   UNL     1     -39.542  -8.909 -15.033  1.00  0.00    -0.504 OA
ATOM     15  H   UNL     1     -40.282  -8.618 -15.661  1.00  0.00     0.293 HD
ENDBRANCH   8  14
TORSDOF 2
ENDMDL
MODEL 8
REMARK VINA RESULT:    -5.813      2.287      2.983
REMARK INTER + INTRA:          -6.153
REMARK INTER:                  -6.153
REMARK INTRA:                   0.000
REMARK UNBOUND:                 0.000
REMARK SMILES O=c1ccc2cc(O)c(O)cc2o1
REMARK SMILES IDX 4 1 3 2 2 3 1 4 13 5 12 6 11 7 9 8 7 9 6 10 5 11 8 12 10 14
REMARK H PARENT 8 13 10 15
REMARK Flexibility Score: inf
ROOT
ATOM      1  C   UNL     1     -36.771  -5.459 -16.589  1.00  0.00     0.019 A 
ATOM      2  C   UNL     1     -35.623  -4.705 -16.346  1.00  0.00     0.094 A 
ATOM      3  C   UNL     1     -34.873  -4.965 -15.194  1.00  0.00     0.336 A 
ATOM      4  O   UNL     1     -33.834  -4.295 -14.956  1.00  0.00    -0.246 OA
ATOM      5  O   UNL     1     -35.250  -5.918 -14.345  1.00  0.00    -0.423 OA
ATOM      6  C   UNL     1     -36.338  -6.660 -14.539  1.00  0.00     0.142 A 
ATOM      7  C   UNL     1     -36.685  -7.647 -13.612  1.00  0.00     0.098 A 
ATOM      8  C   UNL     1     -37.831  -8.434 -13.811  1.00  0.00     0.161 A 
ATOM      9  C   UNL     1     -38.634  -8.227 -14.948  1.00  0.00     0.158 A 
ATOM     10  C   UNL     1     -38.288  -7.238 -15.878  1.00  0.00     0.062 A 
ATOM     11  C   UNL     1     -37.144  -6.454 -15.680  1.00  0.00     0.022 A 
ENDROOT
BRANCH   9  12
ATOM     12  O   UNL     1     -39.777  -8.994 -15.171  1.00  0.00    -0.504 OA
ATOM     13  H   UNL     1     -40.644  -8.584 -15.495  1.00  0.00     0.293 HD
ENDBRANCH   9  12
BRANCH   8  14
ATOM     14  O   UNL     1     -38.173  -9.416 -12.885  1.00  0.00    -0.504 OA
ATOM     15  H   UNL     1     -39.016  -9.348 -12.326  1.00  0.00     0.293 HD
ENDBRANCH   8  14
TORSDOF 2
ENDMDL
MODEL 9
REMARK VINA RESULT:    -5.812      2.449      2.980
REMARK INTER + INTRA:          -6.152
REMARK INTER:                  -6.152
REMARK INTRA:                   0.000
REMARK UNBOUND:                 0.000
REMARK SMILES O=c1ccc2cc(O)c(O)cc2o1
REMARK SMILES IDX 4 1 3 2 2 3 1 4 13 5 12 6 11 7 9 8 7 9 6 10 5 11 8 12 10 14
REMARK H PARENT 8 13 10 15
REMARK Flexibility Score: inf
ROOT
ATOM      1  C   UNL     1     -35.762  -5.202 -14.134  1.00  0.00     0.019 A 
ATOM      2  C   UNL     1     -34.763  -5.113 -15.104  1.00  0.00     0.094 A 
ATOM      3  C   UNL     1     -34.811  -5.972 -16.207  1.00  0.00     0.336 A 
ATOM      4  O   UNL     1     -33.919  -5.908 -17.093  1.00  0.00    -0.246 OA
ATOM      5  O   UNL     1     -35.794  -6.861 -16.326  1.00  0.00    -0.423 OA
ATOM      6  C   UNL     1     -36.766  -6.979 -15.425  1.00  0.00     0.142 A 
ATOM      7  C   UNL     1     -37.774  -7.931 -15.604  1.00  0.00     0.098 A 
ATOM      8  C   UNL     1     -38.802  -8.060 -14.657  1.00  0.00     0.161 A 
ATOM      9  C   UNL     1     -38.818  -7.229 -13.522  1.00  0.00     0.158 A 
ATOM     10  C   UNL     1     -37.809  -6.274 -13.340  1.00  0.00     0.062 A 
ATOM     11  C   UNL     1     -36.784  -6.145 -14.286  1.00  0.00     0.022 A 
ENDROOT
BRANCH   9  12
ATOM     12  O   UNL     1     -39.827  -7.336 -12.565  1.00  0.00    -0.504 OA
ATOM     13  H   UNL     1     -39.849  -8.089 -11.889  1.00  0.00     0.293 HD
ENDBRANCH   9  12
BRANCH   8  14
ATOM     14  O   UNL     1     -39.804  -9.011 -14.839  1.00  0.00    -0.504 OA
ATOM     15  H   UNL     1     -40.486  -8.927 -15.584  1.00  0.00     0.293 HD
ENDBRANCH   8  14
TORSDOF 2
ENDMDL
