MODEL 1
REMARK VINA RESULT:    -5.073      0.000      0.000
REMARK INTER + INTRA:         -13.341
REMARK INTER:                 -11.598
REMARK INTRA:                  -1.742
REMARK UNBOUND:                -1.742
REMARK SMILES CCCCCCCCCCCCCCCCCCCCCCCC(=O)[O-]
REMARK SMILES IDX 13 1 14 2 15 3 16 4 17 5 18 6 19 7 20 8 21 9 22 10 23 11
REMARK SMILES IDX 24 12 25 13 26 14 12 15 11 16 10 17 9 18 8 19 7 20 6 21 5 22
REMARK SMILES IDX 4 23 3 24 2 25 1 26
REMARK H PARENT
REMARK Flexibility Score: inf
ROOT
ATOM      1  C   UNL     1      55.139 142.915 -27.241  1.00  0.00     0.000 C 
ENDROOT
BRANCH   1   2
ATOM      2  C   UNL     1      55.502 144.091 -26.323  1.00  0.00     0.000 C 
BRANCH   2   3
ATOM      3  C   UNL     1      56.641 143.753 -25.348  1.00  0.00     0.000 C 
BRANCH   3   4
ATOM      4  C   UNL     1      56.128 143.386 -23.947  1.00  0.00     0.000 C 
BRANCH   4   5
ATOM      5  C   UNL     1      54.621 143.639 -23.821  1.00  0.00     0.000 C 
BRANCH   5   6
ATOM      6  C   UNL     1      53.879 142.339 -23.477  1.00  0.00     0.000 C 
BRANCH   6   7
ATOM      7  C   UNL     1      54.622 141.085 -23.964  1.00  0.00     0.000 C 
BRANCH   7   8
ATOM      8  C   UNL     1      53.868 139.788 -23.625  1.00  0.00     0.000 C 
BRANCH   8   9
ATOM      9  C   UNL     1      52.533 139.660 -24.381  1.00  0.00     0.000 C 
BRANCH   9  10
ATOM     10  C   UNL     1      51.358 139.205 -23.488  1.00  0.00     0.006 C 
BRANCH  10  11
ATOM     11  C   UNL     1      51.306 139.978 -22.164  1.00  0.00     0.053 C 
BRANCH  11  12
ATOM     12  C   UNL     1      50.202 140.986 -22.187  1.00  0.00     0.041 C 
ATOM     13  O   UNL     1      50.230 141.940 -23.008  1.00  0.00    -0.550 OA
ATOM     14  O   UNL     1      49.120 140.851 -21.326  1.00  0.00    -0.550 OA
ENDBRANCH  11  12
ENDBRANCH  10  11
ENDBRANCH   9  10
ENDBRANCH   8   9
ENDBRANCH   7   8
ENDBRANCH   6   7
ENDBRANCH   5   6
ENDBRANCH   4   5
ENDBRANCH   3   4
ENDBRANCH   2   3
ENDBRANCH   1   2
BRANCH   1  15
ATOM     15  C   UNL     1      55.092 143.358 -28.708  1.00  0.00     0.000 C 
BRANCH  15  16
ATOM     16  C   UNL     1      56.316 144.217 -29.060  1.00  0.00     0.000 C 
BRANCH  16  17
ATOM     17  C   UNL     1      57.059 143.719 -30.313  1.00  0.00     0.000 C 
BRANCH  17  18
ATOM     18  C   UNL     1      58.558 144.079 -30.373  1.00  0.00    -0.000 C 
BRANCH  18  19
ATOM     19  C   UNL     1      59.348 143.417 -31.517  1.00  0.00    -0.000 C 
BRANCH  19  20
ATOM     20  C   UNL     1      59.539 144.350 -32.726  1.00  0.00    -0.000 C 
BRANCH  20  21
ATOM     21  C   UNL     1      60.419 143.728 -33.823  1.00  0.00    -0.000 C 
BRANCH  21  22
ATOM     22  C   UNL     1      61.033 144.734 -34.815  1.00  0.00    -0.000 C 
BRANCH  22  23
ATOM     23  C   UNL     1      61.502 146.050 -34.159  1.00  0.00    -0.000 C 
BRANCH  23  24
ATOM     24  C   UNL     1      61.188 147.278 -35.030  1.00  0.00    -0.000 C 
BRANCH  24  25
ATOM     25  C   UNL     1      60.073 148.154 -34.437  1.00  0.00    -0.003 C 
ATOM     26  C   UNL     1      59.976 148.036 -32.916  1.00  0.00     0.004 C 
ENDBRANCH  24  25
ENDBRANCH  23  24
ENDBRANCH  22  23
ENDBRANCH  21  22
ENDBRANCH  20  21
ENDBRANCH  19  20
ENDBRANCH  18  19
ENDBRANCH  17  18
ENDBRANCH  16  17
ENDBRANCH  15  16
ENDBRANCH   1  15
TORSDOF 22
ENDMDL
MODEL 2
REMARK VINA RESULT:    -4.962      4.670     12.746
REMARK INTER + INTRA:         -13.087
REMARK INTER:                 -11.795
REMARK INTRA:                  -1.292
REMARK UNBOUND:                -1.742
REMARK SMILES CCCCCCCCCCCCCCCCCCCCCCCC(=O)[O-]
REMARK SMILES IDX 13 1 14 2 15 3 16 4 17 5 18 6 19 7 20 8 21 9 22 10 23 11
REMARK SMILES IDX 24 12 25 13 26 14 12 15 11 16 10 17 9 18 8 19 7 20 6 21 5 22
REMARK SMILES IDX 4 23 3 24 2 25 1 26
REMARK H PARENT
REMARK Flexibility Score: inf
ROOT
ATOM      1  C   UNL     1      55.256 144.169 -25.560  1.00  0.00     0.000 C 
ENDROOT
BRANCH   1   2
ATOM      2  C   UNL     1      56.544 143.839 -26.328  1.00  0.00     0.000 C 
BRANCH   2   3
ATOM      3  C   UNL     1      56.562 144.440 -27.743  1.00  0.00     0.000 C 
BRANCH   3   4
ATOM      4  C   UNL     1      56.055 143.454 -28.807  1.00  0.00     0.000 C 
BRANCH   4   5
ATOM      5  C   UNL     1      56.642 143.772 -30.187  1.00  0.00     0.000 C 
BRANCH   5   6
ATOM      6  C   UNL     1      58.133 144.126 -30.074  1.00  0.00     0.000 C 
BRANCH   6   7
ATOM      7  C   UNL     1      58.972 143.537 -31.218  1.00  0.00     0.000 C 
BRANCH   7   8
ATOM      8  C   UNL     1      59.143 144.522 -32.387  1.00  0.00     0.000 C 
BRANCH   8   9
ATOM      9  C   UNL     1      60.197 144.059 -33.408  1.00  0.00     0.000 C 
BRANCH   9  10
ATOM     10  C   UNL     1      60.578 145.143 -34.439  1.00  0.00     0.006 C 
BRANCH  10  11
ATOM     11  C   UNL     1      61.453 146.242 -33.823  1.00  0.00     0.053 C 
BRANCH  11  12
ATOM     12  C   UNL     1      60.785 147.575 -33.942  1.00  0.00     0.041 C 
ATOM     13  O   UNL     1      61.035 148.326 -34.921  1.00  0.00    -0.550 OA
ATOM     14  O   UNL     1      59.855 147.973 -32.989  1.00  0.00    -0.550 OA
ENDBRANCH  11  12
ENDBRANCH  10  11
ENDBRANCH   9  10
ENDBRANCH   8   9
ENDBRANCH   7   8
ENDBRANCH   6   7
ENDBRANCH   5   6
ENDBRANCH   4   5
ENDBRANCH   3   4
ENDBRANCH   2   3
ENDBRANCH   1   2
BRANCH   1  15
ATOM     15  C   UNL     1      55.365 143.739 -24.093  1.00  0.00     0.000 C 
BRANCH  15  16
ATOM     16  C   UNL     1      55.868 142.292 -23.983  1.00  0.00     0.000 C 
BRANCH  16  17
ATOM     17  C   UNL     1      54.737 141.283 -23.709  1.00  0.00     0.000 C 
BRANCH  17  18
ATOM     18  C   UNL     1      54.416 140.325 -24.876  1.00  0.00    -0.000 C 
BRANCH  18  19
ATOM     19  C   UNL     1      52.919 140.143 -25.185  1.00  0.00    -0.000 C 
BRANCH  19  20
ATOM     20  C   UNL     1      52.041 140.200 -23.922  1.00  0.00    -0.000 C 
BRANCH  20  21
ATOM     21  C   UNL     1      50.606 140.670 -24.219  1.00  0.00    -0.000 C 
BRANCH  21  22
ATOM     22  C   UNL     1      49.986 141.587 -23.147  1.00  0.00    -0.000 C 
BRANCH  22  23
ATOM     23  C   UNL     1      50.312 141.162 -21.699  1.00  0.00    -0.000 C 
BRANCH  23  24
ATOM     24  C   UNL     1      49.142 140.415 -21.035  1.00  0.00    -0.000 C 
BRANCH  24  25
ATOM     25  C   UNL     1      49.193 140.481 -19.501  1.00  0.00    -0.003 C 
ATOM     26  C   UNL     1      50.501 141.076 -18.979  1.00  0.00     0.004 C 
ENDBRANCH  24  25
ENDBRANCH  23  24
ENDBRANCH  22  23
ENDBRANCH  21  22
ENDBRANCH  20  21
ENDBRANCH  19  20
ENDBRANCH  18  19
ENDBRANCH  17  18
ENDBRANCH  16  17
ENDBRANCH  15  16
ENDBRANCH   1  15
TORSDOF 22
ENDMDL
MODEL 3
REMARK VINA RESULT:    -4.942      4.640      6.081
REMARK INTER + INTRA:         -13.039
REMARK INTER:                 -11.711
REMARK INTRA:                  -1.328
REMARK UNBOUND:                -1.742
REMARK SMILES CCCCCCCCCCCCCCCCCCCCCCCC(=O)[O-]
REMARK SMILES IDX 13 1 14 2 15 3 16 4 17 5 18 6 19 7 20 8 21 9 22 10 23 11
REMARK SMILES IDX 24 12 25 13 26 14 12 15 11 16 10 17 9 18 8 19 7 20 6 21 5 22
REMARK SMILES IDX 4 23 3 24 2 25 1 26
REMARK H PARENT
REMARK Flexibility Score: inf
ROOT
ATOM      1  C   UNL     1      56.097 143.857 -27.196  1.00  0.00     0.000 C 
ENDROOT
BRANCH   1   2
ATOM      2  C   UNL     1      55.063 144.201 -26.115  1.00  0.00     0.000 C 
BRANCH   2   3
ATOM      3  C   UNL     1      55.611 144.018 -24.690  1.00  0.00     0.000 C 
BRANCH   3   4
ATOM      4  C   UNL     1      55.293 142.632 -24.110  1.00  0.00     0.000 C 
BRANCH   4   5
ATOM      5  C   UNL     1      56.536 141.990 -23.483  1.00  0.00     0.000 C 
BRANCH   5   6
ATOM      6  C   UNL     1      57.562 143.064 -23.091  1.00  0.00     0.000 C 
BRANCH   6   7
ATOM      7  C   UNL     1      58.284 142.744 -21.773  1.00  0.00     0.000 C 
BRANCH   7   8
ATOM      8  C   UNL     1      58.907 143.993 -21.127  1.00  0.00     0.000 C 
BRANCH   8   9
ATOM      9  C   UNL     1      59.125 143.835 -19.612  1.00  0.00     0.000 C 
BRANCH   9  10
ATOM     10  C   UNL     1      59.234 145.179 -18.860  1.00  0.00     0.006 C 
BRANCH  10  11
ATOM     11  C   UNL     1      60.580 145.871 -19.106  1.00  0.00     0.053 C 
BRANCH  11  12
ATOM     12  C   UNL     1      60.650 147.167 -18.364  1.00  0.00     0.041 C 
ATOM     13  O   UNL     1      61.077 147.198 -17.179  1.00  0.00    -0.550 OA
ATOM     14  O   UNL     1      60.279 148.350 -18.992  1.00  0.00    -0.550 OA
ENDBRANCH  11  12
ENDBRANCH  10  11
ENDBRANCH   9  10
ENDBRANCH   8   9
ENDBRANCH   7   8
ENDBRANCH   6   7
ENDBRANCH   5   6
ENDBRANCH   4   5
ENDBRANCH   3   4
ENDBRANCH   2   3
ENDBRANCH   1   2
BRANCH   1  15
ATOM     15  C   UNL     1      55.424 143.221 -28.418  1.00  0.00     0.000 C 
BRANCH  15  16
ATOM     16  C   UNL     1      56.078 143.709 -29.719  1.00  0.00     0.000 C 
BRANCH  16  17
ATOM     17  C   UNL     1      57.537 144.160 -29.525  1.00  0.00     0.000 C 
BRANCH  17  18
ATOM     18  C   UNL     1      58.536 143.616 -30.567  1.00  0.00    -0.000 C 
BRANCH  18  19
ATOM     19  C   UNL     1      58.627 144.422 -31.876  1.00  0.00    -0.000 C 
BRANCH  19  20
ATOM     20  C   UNL     1      60.045 144.425 -32.474  1.00  0.00    -0.000 C 
BRANCH  20  21
ATOM     21  C   UNL     1      60.060 144.054 -33.967  1.00  0.00    -0.000 C 
BRANCH  21  22
ATOM     22  C   UNL     1      61.137 144.770 -34.806  1.00  0.00    -0.000 C 
BRANCH  22  23
ATOM     23  C   UNL     1      61.806 145.956 -34.080  1.00  0.00    -0.000 C 
BRANCH  23  24
ATOM     24  C   UNL     1      61.422 147.310 -34.704  1.00  0.00    -0.000 C 
BRANCH  24  25
ATOM     25  C   UNL     1      59.930 147.634 -34.540  1.00  0.00    -0.003 C 
ATOM     26  C   UNL     1      59.605 148.244 -33.176  1.00  0.00     0.004 C 
ENDBRANCH  24  25
ENDBRANCH  23  24
ENDBRANCH  22  23
ENDBRANCH  21  22
ENDBRANCH  20  21
ENDBRANCH  19  20
ENDBRANCH  18  19
ENDBRANCH  17  18
ENDBRANCH  16  17
ENDBRANCH  15  16
ENDBRANCH   1  15
TORSDOF 22
ENDMDL
MODEL 4
REMARK VINA RESULT:    -4.839      3.664      5.184
REMARK INTER + INTRA:         -12.804
REMARK INTER:                 -11.112
REMARK INTRA:                  -1.692
REMARK UNBOUND:                -1.742
REMARK SMILES CCCCCCCCCCCCCCCCCCCCCCCC(=O)[O-]
REMARK SMILES IDX 13 1 14 2 15 3 16 4 17 5 18 6 19 7 20 8 21 9 22 10 23 11
REMARK SMILES IDX 24 12 25 13 26 14 12 15 11 16 10 17 9 18 8 19 7 20 6 21 5 22
REMARK SMILES IDX 4 23 3 24 2 25 1 26
REMARK H PARENT
REMARK Flexibility Score: inf
ROOT
ATOM      1  C   UNL     1      55.511 144.123 -25.623  1.00  0.00     0.000 C 
ENDROOT
BRANCH   1   2
ATOM      2  C   UNL     1      55.386 142.784 -24.882  1.00  0.00     0.000 C 
BRANCH   2   3
ATOM      3  C   UNL     1      55.630 141.574 -25.797  1.00  0.00     0.000 C 
BRANCH   3   4
ATOM      4  C   UNL     1      54.957 140.296 -25.275  1.00  0.00     0.000 C 
BRANCH   4   5
ATOM      5  C   UNL     1      55.737 139.695 -24.099  1.00  0.00     0.000 C 
BRANCH   5   6
ATOM      6  C   UNL     1      57.075 139.113 -24.577  1.00  0.00     0.000 C 
BRANCH   6   7
ATOM      7  C   UNL     1      58.188 139.243 -23.525  1.00  0.00     0.000 C 
BRANCH   7   8
ATOM      8  C   UNL     1      57.843 140.266 -22.429  1.00  0.00     0.000 C 
BRANCH   8   9
ATOM      9  C   UNL     1      58.594 141.599 -22.599  1.00  0.00     0.000 C 
BRANCH   9  10
ATOM     10  C   UNL     1      59.121 142.185 -21.272  1.00  0.00     0.006 C 
BRANCH  10  11
ATOM     11  C   UNL     1      60.357 143.070 -21.482  1.00  0.00     0.053 C 
BRANCH  11  12
ATOM     12  C   UNL     1      59.999 144.515 -21.346  1.00  0.00     0.041 C 
ATOM     13  O   UNL     1      58.878 144.850 -20.882  1.00  0.00    -0.550 OA
ATOM     14  O   UNL     1      60.919 145.495 -21.697  1.00  0.00    -0.550 OA
ENDBRANCH  11  12
ENDBRANCH  10  11
ENDBRANCH   9  10
ENDBRANCH   8   9
ENDBRANCH   7   8
ENDBRANCH   6   7
ENDBRANCH   5   6
ENDBRANCH   4   5
ENDBRANCH   3   4
ENDBRANCH   2   3
ENDBRANCH   1   2
BRANCH   1  15
ATOM     15  C   UNL     1      56.608 144.060 -26.691  1.00  0.00     0.000 C 
BRANCH  15  16
ATOM     16  C   UNL     1      56.065 144.491 -28.061  1.00  0.00     0.000 C 
BRANCH  16  17
ATOM     17  C   UNL     1      56.141 143.373 -29.116  1.00  0.00     0.000 C 
BRANCH  17  18
ATOM     18  C   UNL     1      56.887 143.745 -30.415  1.00  0.00    -0.000 C 
BRANCH  18  19
ATOM     19  C   UNL     1      58.385 144.059 -30.246  1.00  0.00    -0.000 C 
BRANCH  19  20
ATOM     20  C   UNL     1      59.250 143.444 -31.360  1.00  0.00    -0.000 C 
BRANCH  20  21
ATOM     21  C   UNL     1      59.506 144.421 -32.520  1.00  0.00    -0.000 C 
BRANCH  21  22
ATOM     22  C   UNL     1      60.282 143.828 -33.713  1.00  0.00    -0.000 C 
BRANCH  22  23
ATOM     23  C   UNL     1      61.087 144.874 -34.514  1.00  0.00    -0.000 C 
BRANCH  23  24
ATOM     24  C   UNL     1      61.594 146.022 -33.624  1.00  0.00    -0.000 C 
BRANCH  24  25
ATOM     25  C   UNL     1      61.112 147.399 -34.105  1.00  0.00    -0.003 C 
ATOM     26  C   UNL     1      59.917 147.919 -33.304  1.00  0.00     0.004 C 
ENDBRANCH  24  25
ENDBRANCH  23  24
ENDBRANCH  22  23
ENDBRANCH  21  22
ENDBRANCH  20  21
ENDBRANCH  19  20
ENDBRANCH  18  19
ENDBRANCH  17  18
ENDBRANCH  16  17
ENDBRANCH  15  16
ENDBRANCH   1  15
TORSDOF 22
ENDMDL
MODEL 5
REMARK VINA RESULT:    -4.760      5.303     11.826
REMARK INTER + INTRA:         -12.625
REMARK INTER:                 -10.889
REMARK INTRA:                  -1.736
REMARK UNBOUND:                -1.742
REMARK SMILES CCCCCCCCCCCCCCCCCCCCCCCC(=O)[O-]
REMARK SMILES IDX 13 1 14 2 15 3 16 4 17 5 18 6 19 7 20 8 21 9 22 10 23 11
REMARK SMILES IDX 24 12 25 13 26 14 12 15 11 16 10 17 9 18 8 19 7 20 6 21 5 22
REMARK SMILES IDX 4 23 3 24 2 25 1 26
REMARK H PARENT
REMARK Flexibility Score: inf
ROOT
ATOM      1  C   UNL     1      55.408 144.129 -25.292  1.00  0.00     0.000 C 
ENDROOT
BRANCH   1   2
ATOM      2  C   UNL     1      56.520 143.738 -26.277  1.00  0.00     0.000 C 
BRANCH   2   3
ATOM      3  C   UNL     1      56.376 144.432 -27.640  1.00  0.00     0.000 C 
BRANCH   3   4
ATOM      4  C   UNL     1      55.813 143.497 -28.721  1.00  0.00     0.000 C 
BRANCH   4   5
ATOM      5  C   UNL     1      56.487 143.741 -30.077  1.00  0.00     0.000 C 
BRANCH   5   6
ATOM      6  C   UNL     1      57.965 144.116 -29.889  1.00  0.00     0.000 C 
BRANCH   6   7
ATOM      7  C   UNL     1      58.867 143.548 -30.995  1.00  0.00     0.000 C 
BRANCH   7   8
ATOM      8  C   UNL     1      59.012 144.511 -32.185  1.00  0.00     0.000 C 
BRANCH   8   9
ATOM      9  C   UNL     1      60.052 144.035 -33.215  1.00  0.00     0.000 C 
BRANCH   9  10
ATOM     10  C   UNL     1      60.272 145.028 -34.376  1.00  0.00     0.006 C 
BRANCH  10  11
ATOM     11  C   UNL     1      60.864 146.358 -33.894  1.00  0.00     0.053 C 
BRANCH  11  12
ATOM     12  C   UNL     1      59.982 147.500 -34.287  1.00  0.00     0.041 C 
ATOM     13  O   UNL     1      60.424 148.679 -34.268  1.00  0.00    -0.550 OA
ATOM     14  O   UNL     1      58.682 147.259 -34.714  1.00  0.00    -0.550 OA
ENDBRANCH  11  12
ENDBRANCH  10  11
ENDBRANCH   9  10
ENDBRANCH   8   9
ENDBRANCH   7   8
ENDBRANCH   6   7
ENDBRANCH   5   6
ENDBRANCH   4   5
ENDBRANCH   3   4
ENDBRANCH   2   3
ENDBRANCH   1   2
BRANCH   1  15
ATOM     15  C   UNL     1      55.035 142.948 -24.388  1.00  0.00     0.000 C 
BRANCH  15  16
ATOM     16  C   UNL     1      55.083 141.626 -25.166  1.00  0.00     0.000 C 
BRANCH  16  17
ATOM     17  C   UNL     1      56.112 140.631 -24.598  1.00  0.00     0.000 C 
BRANCH  17  18
ATOM     18  C   UNL     1      56.036 140.408 -23.073  1.00  0.00    -0.000 C 
BRANCH  18  19
ATOM     19  C   UNL     1      57.368 140.567 -22.317  1.00  0.00    -0.000 C 
BRANCH  19  20
ATOM     20  C   UNL     1      58.258 141.675 -22.908  1.00  0.00    -0.000 C 
BRANCH  20  21
ATOM     21  C   UNL     1      58.007 143.047 -22.259  1.00  0.00    -0.000 C 
BRANCH  21  22
ATOM     22  C   UNL     1      59.174 143.592 -21.413  1.00  0.00    -0.000 C 
BRANCH  22  23
ATOM     23  C   UNL     1      58.806 143.854 -19.937  1.00  0.00    -0.000 C 
BRANCH  23  24
ATOM     24  C   UNL     1      59.450 142.829 -18.987  1.00  0.00    -0.000 C 
BRANCH  24  25
ATOM     25  C   UNL     1      59.116 143.099 -17.512  1.00  0.00    -0.003 C 
ATOM     26  C   UNL     1      57.677 142.728 -17.155  1.00  0.00     0.004 C 
ENDBRANCH  24  25
ENDBRANCH  23  24
ENDBRANCH  22  23
ENDBRANCH  21  22
ENDBRANCH  20  21
ENDBRANCH  19  20
ENDBRANCH  18  19
ENDBRANCH  17  18
ENDBRANCH  16  17
ENDBRANCH  15  16
ENDBRANCH   1  15
TORSDOF 22
ENDMDL
MODEL 6
REMARK VINA RESULT:    -4.741      4.490      6.188
REMARK INTER + INTRA:         -12.581
REMARK INTER:                 -10.708
REMARK INTRA:                  -1.874
REMARK UNBOUND:                -1.742
REMARK SMILES CCCCCCCCCCCCCCCCCCCCCCCC(=O)[O-]
REMARK SMILES IDX 13 1 14 2 15 3 16 4 17 5 18 6 19 7 20 8 21 9 22 10 23 11
REMARK SMILES IDX 24 12 25 13 26 14 12 15 11 16 10 17 9 18 8 19 7 20 6 21 5 22
REMARK SMILES IDX 4 23 3 24 2 25 1 26
REMARK H PARENT
REMARK Flexibility Score: inf
ROOT
ATOM      1  C   UNL     1      55.423 142.433 -25.087  1.00  0.00     0.000 C 
ENDROOT
BRANCH   1   2
ATOM      2  C   UNL     1      56.229 143.261 -24.075  1.00  0.00     0.000 C 
BRANCH   2   3
ATOM      3  C   UNL     1      56.829 142.402 -22.950  1.00  0.00     0.000 C 
BRANCH   3   4
ATOM      4  C   UNL     1      56.940 140.920 -23.337  1.00  0.00     0.000 C 
BRANCH   4   5
ATOM      5  C   UNL     1      57.917 140.175 -22.419  1.00  0.00     0.000 C 
BRANCH   5   6
ATOM      6  C   UNL     1      58.000 140.859 -21.046  1.00  0.00     0.000 C 
BRANCH   6   7
ATOM      7  C   UNL     1      59.397 140.754 -20.414  1.00  0.00     0.000 C 
BRANCH   7   8
ATOM      8  C   UNL     1      60.185 142.071 -20.514  1.00  0.00     0.000 C 
BRANCH   8   9
ATOM      9  C   UNL     1      59.323 143.308 -20.204  1.00  0.00     0.000 C 
BRANCH   9  10
ATOM     10  C   UNL     1      59.281 144.336 -21.355  1.00  0.00     0.006 C 
BRANCH  10  11
ATOM     11  C   UNL     1      60.539 144.275 -22.230  1.00  0.00     0.053 C 
BRANCH  11  12
ATOM     12  C   UNL     1      61.509 145.341 -21.833  1.00  0.00     0.041 C 
ATOM     13  O   UNL     1      62.547 145.044 -21.185  1.00  0.00    -0.550 OA
ATOM     14  O   UNL     1      61.288 146.659 -22.213  1.00  0.00    -0.550 OA
ENDBRANCH  11  12
ENDBRANCH  10  11
ENDBRANCH   9  10
ENDBRANCH   8   9
ENDBRANCH   7   8
ENDBRANCH   6   7
ENDBRANCH   5   6
ENDBRANCH   4   5
ENDBRANCH   3   4
ENDBRANCH   2   3
ENDBRANCH   1   2
BRANCH   1  15
ATOM     15  C   UNL     1      55.844 142.762 -26.524  1.00  0.00     0.000 C 
BRANCH  15  16
ATOM     16  C   UNL     1      56.431 144.179 -26.612  1.00  0.00     0.000 C 
BRANCH  16  17
ATOM     17  C   UNL     1      56.903 144.546 -28.031  1.00  0.00     0.000 C 
BRANCH  17  18
ATOM     18  C   UNL     1      56.448 143.579 -29.144  1.00  0.00    -0.000 C 
BRANCH  18  19
ATOM     19  C   UNL     1      57.047 143.849 -30.536  1.00  0.00    -0.000 C 
BRANCH  19  20
ATOM     20  C   UNL     1      58.585 143.892 -30.523  1.00  0.00    -0.000 C 
BRANCH  20  21
ATOM     21  C   UNL     1      59.194 143.754 -31.929  1.00  0.00    -0.000 C 
BRANCH  21  22
ATOM     22  C   UNL     1      59.116 145.023 -32.801  1.00  0.00    -0.000 C 
BRANCH  22  23
ATOM     23  C   UNL     1      60.121 145.037 -33.973  1.00  0.00    -0.000 C 
BRANCH  23  24
ATOM     24  C   UNL     1      61.289 146.007 -33.725  1.00  0.00    -0.000 C 
BRANCH  24  25
ATOM     25  C   UNL     1      60.820 147.452 -33.499  1.00  0.00    -0.003 C 
ATOM     26  C   UNL     1      60.452 148.164 -34.801  1.00  0.00     0.004 C 
ENDBRANCH  24  25
ENDBRANCH  23  24
ENDBRANCH  22  23
ENDBRANCH  21  22
ENDBRANCH  20  21
ENDBRANCH  19  20
ENDBRANCH  18  19
ENDBRANCH  17  18
ENDBRANCH  16  17
ENDBRANCH  15  16
ENDBRANCH   1  15
TORSDOF 22
ENDMDL
MODEL 7
REMARK VINA RESULT:    -4.712     12.544     14.233
REMARK INTER + INTRA:         -12.513
REMARK INTER:                  -9.139
REMARK INTRA:                  -3.374
REMARK UNBOUND:                -1.742
REMARK SMILES CCCCCCCCCCCCCCCCCCCCCCCC(=O)[O-]
REMARK SMILES IDX 13 1 14 2 15 3 16 4 17 5 18 6 19 7 20 8 21 9 22 10 23 11
REMARK SMILES IDX 24 12 25 13 26 14 12 15 11 16 10 17 9 18 8 19 7 20 6 21 5 22
REMARK SMILES IDX 4 23 3 24 2 25 1 26
REMARK H PARENT
REMARK Flexibility Score: inf
ROOT
ATOM      1  C   UNL     1      49.315 155.794 -28.858  1.00  0.00     0.000 C 
ENDROOT
BRANCH   1   2
ATOM      2  C   UNL     1      48.310 156.538 -27.966  1.00  0.00     0.000 C 
BRANCH   2   3
ATOM      3  C   UNL     1      48.086 155.841 -26.615  1.00  0.00     0.000 C 
BRANCH   3   4
ATOM      4  C   UNL     1      48.313 156.783 -25.422  1.00  0.00     0.000 C 
BRANCH   4   5
ATOM      5  C   UNL     1      49.222 157.957 -25.803  1.00  0.00     0.000 C 
BRANCH   5   6
ATOM      6  C   UNL     1      50.456 158.006 -24.891  1.00  0.00     0.000 C 
BRANCH   6   7
ATOM      7  C   UNL     1      51.773 157.833 -25.663  1.00  0.00     0.000 C 
BRANCH   7   8
ATOM      8  C   UNL     1      51.826 156.507 -26.441  1.00  0.00     0.000 C 
BRANCH   8   9
ATOM      9  C   UNL     1      52.334 155.333 -25.586  1.00  0.00     0.000 C 
BRANCH   9  10
ATOM     10  C   UNL     1      51.207 154.423 -25.053  1.00  0.00     0.006 C 
BRANCH  10  11
ATOM     11  C   UNL     1      51.651 153.611 -23.829  1.00  0.00     0.053 C 
BRANCH  11  12
ATOM     12  C   UNL     1      50.498 152.851 -23.255  1.00  0.00     0.041 C 
ATOM     13  O   UNL     1      50.593 152.315 -22.120  1.00  0.00    -0.550 OA
ATOM     14  O   UNL     1      49.302 152.768 -23.957  1.00  0.00    -0.550 OA
ENDBRANCH  11  12
ENDBRANCH  10  11
ENDBRANCH   9  10
ENDBRANCH   8   9
ENDBRANCH   7   8
ENDBRANCH   6   7
ENDBRANCH   5   6
ENDBRANCH   4   5
ENDBRANCH   3   4
ENDBRANCH   2   3
ENDBRANCH   1   2
BRANCH   1  15
ATOM     15  C   UNL     1      49.563 154.373 -28.338  1.00  0.00     0.000 C 
BRANCH  15  16
ATOM     16  C   UNL     1      50.197 153.495 -29.427  1.00  0.00     0.000 C 
BRANCH  16  17
ATOM     17  C   UNL     1      49.161 152.668 -30.210  1.00  0.00     0.000 C 
BRANCH  17  18
ATOM     18  C   UNL     1      47.689 153.071 -29.977  1.00  0.00    -0.000 C 
BRANCH  18  19
ATOM     19  C   UNL     1      46.917 153.500 -31.238  1.00  0.00    -0.000 C 
BRANCH  19  20
ATOM     20  C   UNL     1      47.302 154.910 -31.721  1.00  0.00    -0.000 C 
BRANCH  20  21
ATOM     21  C   UNL     1      47.807 154.923 -33.173  1.00  0.00    -0.000 C 
BRANCH  21  22
ATOM     22  C   UNL     1      48.167 153.540 -33.751  1.00  0.00    -0.000 C 
BRANCH  22  23
ATOM     23  C   UNL     1      49.578 153.472 -34.373  1.00  0.00    -0.000 C 
BRANCH  23  24
ATOM     24  C   UNL     1      50.435 154.696 -34.004  1.00  0.00    -0.000 C 
BRANCH  24  25
ATOM     25  C   UNL     1      51.432 154.400 -32.874  1.00  0.00    -0.003 C 
ATOM     26  C   UNL     1      52.886 154.435 -33.345  1.00  0.00     0.004 C 
ENDBRANCH  24  25
ENDBRANCH  23  24
ENDBRANCH  22  23
ENDBRANCH  21  22
ENDBRANCH  20  21
ENDBRANCH  19  20
ENDBRANCH  18  19
ENDBRANCH  17  18
ENDBRANCH  16  17
ENDBRANCH  15  16
ENDBRANCH   1  15
TORSDOF 22
ENDMDL
MODEL 8
REMARK VINA RESULT:    -4.658      5.917     12.679
REMARK INTER + INTRA:         -12.392
REMARK INTER:                 -11.032
REMARK INTRA:                  -1.359
REMARK UNBOUND:                -1.742
REMARK SMILES CCCCCCCCCCCCCCCCCCCCCCCC(=O)[O-]
REMARK SMILES IDX 13 1 14 2 15 3 16 4 17 5 18 6 19 7 20 8 21 9 22 10 23 11
REMARK SMILES IDX 24 12 25 13 26 14 12 15 11 16 10 17 9 18 8 19 7 20 6 21 5 22
REMARK SMILES IDX 4 23 3 24 2 25 1 26
REMARK H PARENT
REMARK Flexibility Score: inf
ROOT
ATOM      1  C   UNL     1      55.567 142.897 -26.566  1.00  0.00     0.000 C 
ENDROOT
BRANCH   1   2
ATOM      2  C   UNL     1      56.545 144.080 -26.597  1.00  0.00     0.000 C 
BRANCH   2   3
ATOM      3  C   UNL     1      56.902 144.519 -28.026  1.00  0.00     0.000 C 
BRANCH   3   4
ATOM      4  C   UNL     1      56.147 143.713 -29.094  1.00  0.00     0.000 C 
BRANCH   4   5
ATOM      5  C   UNL     1      56.856 143.784 -30.452  1.00  0.00     0.000 C 
BRANCH   5   6
ATOM      6  C   UNL     1      58.339 144.139 -30.271  1.00  0.00     0.000 C 
BRANCH   6   7
ATOM      7  C   UNL     1      59.224 143.590 -31.402  1.00  0.00     0.000 C 
BRANCH   7   8
ATOM      8  C   UNL     1      59.340 144.569 -32.583  1.00  0.00     0.000 C 
BRANCH   8   9
ATOM      9  C   UNL     1      60.332 144.092 -33.658  1.00  0.00     0.000 C 
BRANCH   9  10
ATOM     10  C   UNL     1      60.893 145.234 -34.532  1.00  0.00     0.006 C 
BRANCH  10  11
ATOM     11  C   UNL     1      61.502 146.361 -33.688  1.00  0.00     0.053 C 
BRANCH  11  12
ATOM     12  C   UNL     1      60.783 147.649 -33.931  1.00  0.00     0.041 C 
ATOM     13  O   UNL     1      60.990 148.303 -34.986  1.00  0.00    -0.550 OA
ATOM     14  O   UNL     1      59.851 148.109 -33.008  1.00  0.00    -0.550 OA
ENDBRANCH  11  12
ENDBRANCH  10  11
ENDBRANCH   9  10
ENDBRANCH   8   9
ENDBRANCH   7   8
ENDBRANCH   6   7
ENDBRANCH   5   6
ENDBRANCH   4   5
ENDBRANCH   3   4
ENDBRANCH   2   3
ENDBRANCH   1   2
BRANCH   1  15
ATOM     15  C   UNL     1      55.316 142.429 -25.128  1.00  0.00     0.000 C 
BRANCH  15  16
ATOM     16  C   UNL     1      56.009 143.358 -24.121  1.00  0.00     0.000 C 
BRANCH  16  17
ATOM     17  C   UNL     1      56.743 142.593 -23.004  1.00  0.00     0.000 C 
BRANCH  17  18
ATOM     18  C   UNL     1      57.062 141.117 -23.321  1.00  0.00    -0.000 C 
BRANCH  18  19
ATOM     19  C   UNL     1      57.895 140.381 -22.256  1.00  0.00    -0.000 C 
BRANCH  19  20
ATOM     20  C   UNL     1      58.104 141.218 -20.982  1.00  0.00    -0.000 C 
BRANCH  20  21
ATOM     21  C   UNL     1      59.373 140.816 -20.210  1.00  0.00    -0.000 C 
BRANCH  21  22
ATOM     22  C   UNL     1      59.450 141.342 -18.763  1.00  0.00    -0.000 C 
BRANCH  22  23
ATOM     23  C   UNL     1      58.409 142.435 -18.441  1.00  0.00    -0.000 C 
BRANCH  23  24
ATOM     24  C   UNL     1      58.538 142.952 -16.998  1.00  0.00    -0.000 C 
BRANCH  24  25
ATOM     25  C   UNL     1      58.907 141.841 -16.003  1.00  0.00    -0.003 C 
ATOM     26  C   UNL     1      60.164 142.166 -15.195  1.00  0.00     0.004 C 
ENDBRANCH  24  25
ENDBRANCH  23  24
ENDBRANCH  22  23
ENDBRANCH  21  22
ENDBRANCH  20  21
ENDBRANCH  19  20
ENDBRANCH  18  19
ENDBRANCH  17  18
ENDBRANCH  16  17
ENDBRANCH  15  16
ENDBRANCH   1  15
TORSDOF 22
ENDMDL
MODEL 9
REMARK VINA RESULT:    -3.662      4.386      5.839
REMARK INTER + INTRA:         -10.115
REMARK INTER:                  -8.310
REMARK INTRA:                  -1.805
REMARK UNBOUND:                -1.742
REMARK SMILES CCCCCCCCCCCCCCCCCCCCCCCC(=O)[O-]
REMARK SMILES IDX 13 1 14 2 15 3 16 4 17 5 18 6 19 7 20 8 21 9 22 10 23 11
REMARK SMILES IDX 24 12 25 13 26 14 12 15 11 16 10 17 9 18 8 19 7 20 6 21 5 22
REMARK SMILES IDX 4 23 3 24 2 25 1 26
REMARK H PARENT
REMARK Flexibility Score: inf
ROOT
ATOM      1  C   UNL     1      56.340 144.143 -27.435  1.00  0.00     0.000 C 
ENDROOT
BRANCH   1   2
ATOM      2  C   UNL     1      55.511 144.169 -26.143  1.00  0.00     0.000 C 
BRANCH   2   3
ATOM      3  C   UNL     1      56.122 143.307 -25.027  1.00  0.00     0.000 C 
BRANCH   3   4
ATOM      4  C   UNL     1      56.137 141.812 -25.380  1.00  0.00     0.000 C 
BRANCH   4   5
ATOM      5  C   UNL     1      56.725 140.974 -24.238  1.00  0.00     0.000 C 
BRANCH   5   6
ATOM      6  C   UNL     1      56.532 141.684 -22.890  1.00  0.00     0.000 C 
BRANCH   6   7
ATOM      7  C   UNL     1      57.740 141.521 -21.954  1.00  0.00     0.000 C 
BRANCH   7   8
ATOM      8  C   UNL     1      58.361 142.872 -21.558  1.00  0.00     0.000 C 
BRANCH   8   9
ATOM      9  C   UNL     1      59.477 143.320 -22.518  1.00  0.00     0.000 C 
BRANCH   9  10
ATOM     10  C   UNL     1      60.577 142.256 -22.728  1.00  0.00     0.006 C 
BRANCH  10  11
ATOM     11  C   UNL     1      61.961 142.888 -22.924  1.00  0.00     0.053 C 
BRANCH  11  12
ATOM     12  C   UNL     1      62.584 142.405 -24.194  1.00  0.00     0.041 C 
ATOM     13  O   UNL     1      63.234 143.199 -24.924  1.00  0.00    -0.550 OA
ATOM     14  O   UNL     1      62.482 141.067 -24.555  1.00  0.00    -0.550 OA
ENDBRANCH  11  12
ENDBRANCH  10  11
ENDBRANCH   9  10
ENDBRANCH   8   9
ENDBRANCH   7   8
ENDBRANCH   6   7
ENDBRANCH   5   6
ENDBRANCH   4   5
ENDBRANCH   3   4
ENDBRANCH   2   3
ENDBRANCH   1   2
BRANCH   1  15
ATOM     15  C   UNL     1      55.550 143.501 -28.581  1.00  0.00     0.000 C 
BRANCH  15  16
ATOM     16  C   UNL     1      56.254 143.729 -29.927  1.00  0.00     0.000 C 
BRANCH  16  17
ATOM     17  C   UNL     1      57.739 144.107 -29.770  1.00  0.00     0.000 C 
BRANCH  17  18
ATOM     18  C   UNL     1      58.673 143.563 -30.871  1.00  0.00    -0.000 C 
BRANCH  18  19
ATOM     19  C   UNL     1      58.871 144.491 -32.084  1.00  0.00    -0.000 C 
BRANCH  19  20
ATOM     20  C   UNL     1      60.299 144.427 -32.654  1.00  0.00    -0.000 C 
BRANCH  20  21
ATOM     21  C   UNL     1      60.336 143.920 -34.106  1.00  0.00    -0.000 C 
BRANCH  21  22
ATOM     22  C   UNL     1      60.944 144.903 -35.125  1.00  0.00    -0.000 C 
BRANCH  22  23
ATOM     23  C   UNL     1      61.551 146.169 -34.484  1.00  0.00    -0.000 C 
BRANCH  23  24
ATOM     24  C   UNL     1      60.946 147.461 -35.063  1.00  0.00    -0.000 C 
BRANCH  24  25
ATOM     25  C   UNL     1      59.630 147.857 -34.377  1.00  0.00    -0.003 C 
ATOM     26  C   UNL     1      59.789 148.064 -32.870  1.00  0.00     0.004 C 
ENDBRANCH  24  25
ENDBRANCH  23  24
ENDBRANCH  22  23
ENDBRANCH  21  22
ENDBRANCH  20  21
ENDBRANCH  19  20
ENDBRANCH  18  19
ENDBRANCH  17  18
ENDBRANCH  16  17
ENDBRANCH  15  16
ENDBRANCH   1  15
TORSDOF 22
ENDMDL
