MODEL 1
REMARK VINA RESULT:    -4.943      0.000      0.000
REMARK INTER + INTRA:          -8.368
REMARK INTER:                  -7.544
REMARK INTRA:                  -0.825
REMARK UNBOUND:                -0.825
REMARK SMILES CCCCCCCCCCC(=O)[O-]
REMARK SMILES IDX 7 1 8 2 9 3 10 4 11 5 12 6 13 7 6 8 5 9 4 10 3 11 2 12 1 13
REMARK H PARENT
REMARK Flexibility Score: inf
ROOT
ATOM      1  C   UNL     1      46.567  -4.008  26.222  1.00  0.00     0.000 C 
ENDROOT
BRANCH   1   2
ATOM      2  C   UNL     1      45.735  -4.249  27.492  1.00  0.00     0.000 C 
BRANCH   2   3
ATOM      3  C   UNL     1      45.142  -5.663  27.497  1.00  0.00     0.006 C 
BRANCH   3   4
ATOM      4  C   UNL     1      44.697  -6.079  26.092  1.00  0.00     0.053 C 
BRANCH   4   5
ATOM      5  C   UNL     1      45.284  -7.404  25.726  1.00  0.00     0.041 C 
ATOM      6  O   UNL     1      46.078  -7.984  26.514  1.00  0.00    -0.550 OA
ATOM      7  O   UNL     1      44.919  -8.023  24.537  1.00  0.00    -0.550 OA
ENDBRANCH   4   5
ENDBRANCH   3   4
ENDBRANCH   2   3
ENDBRANCH   1   2
BRANCH   1   8
ATOM      8  C   UNL     1      47.972  -4.628  26.307  1.00  0.00     0.000 C 
BRANCH   8   9
ATOM      9  C   UNL     1      48.369  -5.368  25.018  1.00  0.00    -0.000 C 
BRANCH   9  10
ATOM     10  C   UNL     1      49.009  -6.742  25.290  1.00  0.00    -0.000 C 
BRANCH  10  11
ATOM     11  C   UNL     1      48.838  -7.777  24.163  1.00  0.00    -0.000 C 
BRANCH  11  12
ATOM     12  C   UNL     1      48.475  -7.140  22.813  1.00  0.00    -0.003 C 
ATOM     13  C   UNL     1      47.228  -7.787  22.218  1.00  0.00     0.004 C 
ENDBRANCH  11  12
ENDBRANCH  10  11
ENDBRANCH   9  10
ENDBRANCH   8   9
ENDBRANCH   1   8
TORSDOF 9
ENDMDL
MODEL 2
REMARK VINA RESULT:    -4.814      2.119      3.462
REMARK INTER + INTRA:          -8.171
REMARK INTER:                  -7.290
REMARK INTRA:                  -0.882
REMARK UNBOUND:                -0.825
REMARK SMILES CCCCCCCCCCC(=O)[O-]
REMARK SMILES IDX 7 1 8 2 9 3 10 4 11 5 12 6 13 7 6 8 5 9 4 10 3 11 2 12 1 13
REMARK H PARENT
REMARK Flexibility Score: inf
ROOT
ATOM      1  C   UNL     1      45.459  -7.354  24.045  1.00  0.00     0.000 C 
ENDROOT
BRANCH   1   2
ATOM      2  C   UNL     1      45.505  -8.105  25.385  1.00  0.00     0.000 C 
BRANCH   2   3
ATOM      3  C   UNL     1      45.328  -7.136  26.561  1.00  0.00     0.006 C 
BRANCH   3   4
ATOM      4  C   UNL     1      44.654  -5.838  26.107  1.00  0.00     0.053 C 
BRANCH   4   5
ATOM      5  C   UNL     1      43.574  -5.446  27.063  1.00  0.00     0.041 C 
ATOM      6  O   UNL     1      43.802  -5.420  28.302  1.00  0.00    -0.550 OA
ATOM      7  O   UNL     1      42.327  -5.062  26.585  1.00  0.00    -0.550 OA
ENDBRANCH   4   5
ENDBRANCH   3   4
ENDBRANCH   2   3
ENDBRANCH   1   2
BRANCH   1   8
ATOM      8  C   UNL     1      46.498  -7.875  23.037  1.00  0.00     0.000 C 
BRANCH   8   9
ATOM      9  C   UNL     1      47.662  -6.891  22.830  1.00  0.00    -0.000 C 
BRANCH   9  10
ATOM     10  C   UNL     1      48.990  -7.403  23.421  1.00  0.00    -0.000 C 
BRANCH  10  11
ATOM     11  C   UNL     1      49.043  -7.455  24.959  1.00  0.00    -0.000 C 
BRANCH  11  12
ATOM     12  C   UNL     1      49.044  -6.063  25.607  1.00  0.00    -0.003 C 
ATOM     13  C   UNL     1      50.463  -5.514  25.729  1.00  0.00     0.004 C 
ENDBRANCH  11  12
ENDBRANCH  10  11
ENDBRANCH   9  10
ENDBRANCH   8   9
ENDBRANCH   1   8
TORSDOF 9
ENDMDL
MODEL 3
REMARK VINA RESULT:    -4.804      2.185      3.671
REMARK INTER + INTRA:          -8.157
REMARK INTER:                  -7.139
REMARK INTRA:                  -1.018
REMARK UNBOUND:                -0.825
REMARK SMILES CCCCCCCCCCC(=O)[O-]
REMARK SMILES IDX 7 1 8 2 9 3 10 4 11 5 12 6 13 7 6 8 5 9 4 10 3 11 2 12 1 13
REMARK H PARENT
REMARK Flexibility Score: inf
ROOT
ATOM      1  C   UNL     1      44.900  -7.490  25.081  1.00  0.00     0.000 C 
ENDROOT
BRANCH   1   2
ATOM      2  C   UNL     1      45.928  -7.559  26.221  1.00  0.00     0.000 C 
BRANCH   2   3
ATOM      3  C   UNL     1      45.799  -6.345  27.149  1.00  0.00     0.006 C 
BRANCH   3   4
ATOM      4  C   UNL     1      46.558  -5.139  26.585  1.00  0.00     0.053 C 
BRANCH   4   5
ATOM      5  C   UNL     1      46.059  -3.872  27.202  1.00  0.00     0.041 C 
ATOM      6  O   UNL     1      45.071  -3.893  27.983  1.00  0.00    -0.550 OA
ATOM      7  O   UNL     1      46.715  -2.672  26.954  1.00  0.00    -0.550 OA
ENDBRANCH   4   5
ENDBRANCH   3   4
ENDBRANCH   2   3
ENDBRANCH   1   2
BRANCH   1   8
ATOM      8  C   UNL     1      45.407  -8.145  23.785  1.00  0.00     0.000 C 
BRANCH   8   9
ATOM      9  C   UNL     1      46.273  -7.192  22.943  1.00  0.00    -0.000 C 
BRANCH   9  10
ATOM     10  C   UNL     1      47.423  -7.914  22.216  1.00  0.00    -0.000 C 
BRANCH  10  11
ATOM     11  C   UNL     1      48.838  -7.515  22.674  1.00  0.00    -0.000 C 
BRANCH  11  12
ATOM     12  C   UNL     1      48.835  -6.629  23.928  1.00  0.00    -0.003 C 
ATOM     13  C   UNL     1      49.379  -7.385  25.137  1.00  0.00     0.004 C 
ENDBRANCH  11  12
ENDBRANCH  10  11
ENDBRANCH   9  10
ENDBRANCH   8   9
ENDBRANCH   1   8
TORSDOF 9
ENDMDL
MODEL 4
REMARK VINA RESULT:    -4.768      2.146      3.539
REMARK INTER + INTRA:          -8.102
REMARK INTER:                  -7.275
REMARK INTRA:                  -0.826
REMARK UNBOUND:                -0.825
REMARK SMILES CCCCCCCCCCC(=O)[O-]
REMARK SMILES IDX 7 1 8 2 9 3 10 4 11 5 12 6 13 7 6 8 5 9 4 10 3 11 2 12 1 13
REMARK H PARENT
REMARK Flexibility Score: inf
ROOT
ATOM      1  C   UNL     1      44.934  -5.169  26.536  1.00  0.00     0.000 C 
ENDROOT
BRANCH   1   2
ATOM      2  C   UNL     1      46.220  -4.495  27.040  1.00  0.00     0.000 C 
BRANCH   2   3
ATOM      3  C   UNL     1      47.268  -4.412  25.924  1.00  0.00     0.006 C 
BRANCH   3   4
ATOM      4  C   UNL     1      48.628  -4.927  26.406  1.00  0.00     0.053 C 
BRANCH   4   5
ATOM      5  C   UNL     1      49.427  -5.451  25.257  1.00  0.00     0.041 C 
ATOM      6  O   UNL     1      49.011  -5.308  24.077  1.00  0.00    -0.550 OA
ATOM      7  O   UNL     1      50.658  -6.056  25.484  1.00  0.00    -0.550 OA
ENDBRANCH   4   5
ENDBRANCH   3   4
ENDBRANCH   2   3
ENDBRANCH   1   2
BRANCH   1   8
ATOM      8  C   UNL     1      44.722  -6.568  27.139  1.00  0.00     0.000 C 
BRANCH   8   9
ATOM      9  C   UNL     1      45.496  -7.660  26.380  1.00  0.00    -0.000 C 
BRANCH   9  10
ATOM     10  C   UNL     1      45.449  -7.474  24.852  1.00  0.00    -0.000 C 
BRANCH  10  11
ATOM     11  C   UNL     1      46.776  -7.747  24.120  1.00  0.00    -0.000 C 
BRANCH  11  12
ATOM     12  C   UNL     1      46.677  -7.540  22.601  1.00  0.00    -0.003 C 
ATOM     13  C   UNL     1      48.005  -7.851  21.916  1.00  0.00     0.004 C 
ENDBRANCH  11  12
ENDBRANCH  10  11
ENDBRANCH   9  10
ENDBRANCH   8   9
ENDBRANCH   1   8
TORSDOF 9
ENDMDL
MODEL 5
REMARK VINA RESULT:    -4.765      2.231      3.219
REMARK INTER + INTRA:          -8.096
REMARK INTER:                  -7.491
REMARK INTRA:                  -0.605
REMARK UNBOUND:                -0.825
REMARK SMILES CCCCCCCCCCC(=O)[O-]
REMARK SMILES IDX 7 1 8 2 9 3 10 4 11 5 12 6 13 7 6 8 5 9 4 10 3 11 2 12 1 13
REMARK H PARENT
REMARK Flexibility Score: inf
ROOT
ATOM      1  C   UNL     1      45.250  -6.973  26.204  1.00  0.00     0.000 C 
ENDROOT
BRANCH   1   2
ATOM      2  C   UNL     1      44.057  -6.049  26.498  1.00  0.00     0.000 C 
BRANCH   2   3
ATOM      3  C   UNL     1      44.498  -4.831  27.317  1.00  0.00     0.006 C 
BRANCH   3   4
ATOM      4  C   UNL     1      46.016  -4.827  27.524  1.00  0.00     0.053 C 
BRANCH   4   5
ATOM      5  C   UNL     1      46.648  -3.719  26.745  1.00  0.00     0.041 C 
ATOM      6  O   UNL     1      46.631  -2.541  27.190  1.00  0.00    -0.550 OA
ATOM      7  O   UNL     1      47.300  -3.994  25.549  1.00  0.00    -0.550 OA
ENDBRANCH   4   5
ENDBRANCH   3   4
ENDBRANCH   2   3
ENDBRANCH   1   2
BRANCH   1   8
ATOM      8  C   UNL     1      45.096  -7.737  24.878  1.00  0.00     0.000 C 
BRANCH   8   9
ATOM      9  C   UNL     1      46.160  -7.339  23.841  1.00  0.00    -0.000 C 
BRANCH   9  10
ATOM     10  C   UNL     1      47.581  -7.283  24.433  1.00  0.00    -0.000 C 
BRANCH  10  11
ATOM     11  C   UNL     1      48.716  -7.589  23.438  1.00  0.00    -0.000 C 
BRANCH  11  12
ATOM     12  C   UNL     1      48.241  -7.623  21.978  1.00  0.00    -0.003 C 
ATOM     13  C   UNL     1      49.373  -8.036  21.041  1.00  0.00     0.004 C 
ENDBRANCH  11  12
ENDBRANCH  10  11
ENDBRANCH   9  10
ENDBRANCH   8   9
ENDBRANCH   1   8
TORSDOF 9
ENDMDL
MODEL 6
REMARK VINA RESULT:    -4.711      1.858      2.178
REMARK INTER + INTRA:          -8.014
REMARK INTER:                  -7.220
REMARK INTRA:                  -0.793
REMARK UNBOUND:                -0.825
REMARK SMILES CCCCCCCCCCC(=O)[O-]
REMARK SMILES IDX 7 1 8 2 9 3 10 4 11 5 12 6 13 7 6 8 5 9 4 10 3 11 2 12 1 13
REMARK H PARENT
REMARK Flexibility Score: inf
ROOT
ATOM      1  C   UNL     1      47.750  -4.487  26.392  1.00  0.00     0.000 C 
ENDROOT
BRANCH   1   2
ATOM      2  C   UNL     1      46.241  -4.535  26.680  1.00  0.00     0.000 C 
BRANCH   2   3
ATOM      3  C   UNL     1      45.712  -5.971  26.589  1.00  0.00     0.006 C 
BRANCH   3   4
ATOM      4  C   UNL     1      44.295  -6.001  26.007  1.00  0.00     0.053 C 
BRANCH   4   5
ATOM      5  C   UNL     1      43.302  -5.530  27.020  1.00  0.00     0.041 C 
ATOM      6  O   UNL     1      43.462  -5.804  28.239  1.00  0.00    -0.550 OA
ATOM      7  O   UNL     1      42.224  -4.747  26.626  1.00  0.00    -0.550 OA
ENDBRANCH   4   5
ENDBRANCH   3   4
ENDBRANCH   2   3
ENDBRANCH   1   2
BRANCH   1   8
ATOM      8  C   UNL     1      48.127  -5.194  25.080  1.00  0.00     0.000 C 
BRANCH   8   9
ATOM      9  C   UNL     1      49.066  -6.391  25.304  1.00  0.00    -0.000 C 
BRANCH   9  10
ATOM     10  C   UNL     1      48.732  -7.592  24.399  1.00  0.00    -0.000 C 
BRANCH  10  11
ATOM     11  C   UNL     1      48.566  -7.258  22.905  1.00  0.00    -0.000 C 
BRANCH  11  12
ATOM     12  C   UNL     1      47.265  -7.814  22.307  1.00  0.00    -0.003 C 
ATOM     13  C   UNL     1      46.086  -7.586  23.248  1.00  0.00     0.004 C 
ENDBRANCH  11  12
ENDBRANCH  10  11
ENDBRANCH   9  10
ENDBRANCH   8   9
ENDBRANCH   1   8
TORSDOF 9
ENDMDL
MODEL 7
REMARK VINA RESULT:    -4.662      3.361      4.367
REMARK INTER + INTRA:          -7.940
REMARK INTER:                  -7.397
REMARK INTRA:                  -0.543
REMARK UNBOUND:                -0.825
REMARK SMILES CCCCCCCCCCC(=O)[O-]
REMARK SMILES IDX 7 1 8 2 9 3 10 4 11 5 12 6 13 7 6 8 5 9 4 10 3 11 2 12 1 13
REMARK H PARENT
REMARK Flexibility Score: inf
ROOT
ATOM      1  C   UNL     1      45.699  -5.322  27.502  1.00  0.00     0.000 C 
ENDROOT
BRANCH   1   2
ATOM      2  C   UNL     1      46.415  -4.247  26.669  1.00  0.00     0.000 C 
BRANCH   2   3
ATOM      3  C   UNL     1      46.249  -2.862  27.304  1.00  0.00     0.006 C 
BRANCH   3   4
ATOM      4  C   UNL     1      44.999  -2.808  28.188  1.00  0.00     0.053 C 
BRANCH   4   5
ATOM      5  C   UNL     1      44.779  -1.422  28.702  1.00  0.00     0.041 C 
ATOM      6  O   UNL     1      43.847  -1.188  29.516  1.00  0.00    -0.550 OA
ATOM      7  O   UNL     1      45.634  -0.395  28.320  1.00  0.00    -0.550 OA
ENDBRANCH   4   5
ENDBRANCH   3   4
ENDBRANCH   2   3
ENDBRANCH   1   2
BRANCH   1   8
ATOM      8  C   UNL     1      44.809  -6.240  26.648  1.00  0.00     0.000 C 
BRANCH   8   9
ATOM      9  C   UNL     1      45.466  -7.602  26.365  1.00  0.00    -0.000 C 
BRANCH   9  10
ATOM     10  C   UNL     1      46.121  -7.673  24.973  1.00  0.00    -0.000 C 
BRANCH  10  11
ATOM     11  C   UNL     1      47.621  -7.327  24.938  1.00  0.00    -0.000 C 
BRANCH  11  12
ATOM     12  C   UNL     1      48.205  -7.330  23.517  1.00  0.00    -0.003 C 
ATOM     13  C   UNL     1      47.102  -7.462  22.470  1.00  0.00     0.004 C 
ENDBRANCH  11  12
ENDBRANCH  10  11
ENDBRANCH   9  10
ENDBRANCH   8   9
ENDBRANCH   1   8
TORSDOF 9
ENDMDL
MODEL 8
REMARK VINA RESULT:    -4.651      2.292      5.542
REMARK INTER + INTRA:          -7.922
REMARK INTER:                  -7.141
REMARK INTRA:                  -0.782
REMARK UNBOUND:                -0.825
REMARK SMILES CCCCCCCCCCC(=O)[O-]
REMARK SMILES IDX 7 1 8 2 9 3 10 4 11 5 12 6 13 7 6 8 5 9 4 10 3 11 2 12 1 13
REMARK H PARENT
REMARK Flexibility Score: inf
ROOT
ATOM      1  C   UNL     1      45.410  -7.702  24.804  1.00  0.00     0.000 C 
ENDROOT
BRANCH   1   2
ATOM      2  C   UNL     1      46.492  -7.397  23.756  1.00  0.00     0.000 C 
BRANCH   2   3
ATOM      3  C   UNL     1      47.885  -7.382  24.396  1.00  0.00     0.006 C 
BRANCH   3   4
ATOM      4  C   UNL     1      48.579  -6.034  24.171  1.00  0.00     0.053 C 
BRANCH   4   5
ATOM      5  C   UNL     1      49.012  -5.445  25.475  1.00  0.00     0.041 C 
ATOM      6  O   UNL     1      48.190  -4.813  26.190  1.00  0.00    -0.550 OA
ATOM      7  O   UNL     1      50.313  -5.634  25.926  1.00  0.00    -0.550 OA
ENDBRANCH   4   5
ENDBRANCH   3   4
ENDBRANCH   2   3
ENDBRANCH   1   2
BRANCH   1   8
ATOM      8  C   UNL     1      45.946  -7.643  26.244  1.00  0.00     0.000 C 
BRANCH   8   9
ATOM      9  C   UNL     1      45.225  -6.585  27.098  1.00  0.00    -0.000 C 
BRANCH   9  10
ATOM     10  C   UNL     1      44.230  -5.735  26.285  1.00  0.00    -0.000 C 
BRANCH  10  11
ATOM     11  C   UNL     1      43.115  -5.068  27.109  1.00  0.00    -0.000 C 
BRANCH  11  12
ATOM     12  C   UNL     1      42.879  -5.751  28.464  1.00  0.00    -0.003 C 
ATOM     13  C   UNL     1      42.948  -4.743  29.608  1.00  0.00     0.004 C 
ENDBRANCH  11  12
ENDBRANCH  10  11
ENDBRANCH   9  10
ENDBRANCH   8   9
ENDBRANCH   1   8
TORSDOF 9
ENDMDL
MODEL 9
REMARK VINA RESULT:    -4.581      2.474      5.781
REMARK INTER + INTRA:          -7.816
REMARK INTER:                  -7.374
REMARK INTRA:                  -0.443
REMARK UNBOUND:                -0.825
REMARK SMILES CCCCCCCCCCC(=O)[O-]
REMARK SMILES IDX 7 1 8 2 9 3 10 4 11 5 12 6 13 7 6 8 5 9 4 10 3 11 2 12 1 13
REMARK H PARENT
REMARK Flexibility Score: inf
ROOT
ATOM      1  C   UNL     1      44.703  -6.070  26.003  1.00  0.00     0.000 C 
ENDROOT
BRANCH   1   2
ATOM      2  C   UNL     1      45.454  -7.394  25.788  1.00  0.00     0.000 C 
BRANCH   2   3
ATOM      3  C   UNL     1      46.492  -7.258  24.668  1.00  0.00     0.006 C 
BRANCH   3   4
ATOM      4  C   UNL     1      47.915  -7.412  25.214  1.00  0.00     0.053 C 
BRANCH   4   5
ATOM      5  C   UNL     1      48.625  -6.097  25.204  1.00  0.00     0.041 C 
ATOM      6  O   UNL     1      49.883  -6.056  25.165  1.00  0.00    -0.550 OA
ATOM      7  O   UNL     1      47.897  -4.913  25.188  1.00  0.00    -0.550 OA
ENDBRANCH   4   5
ENDBRANCH   3   4
ENDBRANCH   2   3
ENDBRANCH   1   2
BRANCH   1   8
ATOM      8  C   UNL     1      44.301  -5.848  27.471  1.00  0.00     0.000 C 
BRANCH   8   9
ATOM      9  C   UNL     1      42.900  -5.229  27.611  1.00  0.00    -0.000 C 
BRANCH   9  10
ATOM     10  C   UNL     1      42.917  -3.862  28.321  1.00  0.00    -0.000 C 
BRANCH  10  11
ATOM     11  C   UNL     1      44.317  -3.270  28.564  1.00  0.00    -0.000 C 
BRANCH  11  12
ATOM     12  C   UNL     1      44.283  -1.776  28.921  1.00  0.00    -0.003 C 
ATOM     13  C   UNL     1      45.407  -1.018  28.218  1.00  0.00     0.004 C 
ENDBRANCH  11  12
ENDBRANCH  10  11
ENDBRANCH   9  10
ENDBRANCH   8   9
ENDBRANCH   1   8
TORSDOF 9
ENDMDL
