MODEL 1
REMARK VINA RESULT:    -5.105      0.000      0.000
REMARK INTER + INTRA:          -7.643
REMARK INTER:                  -6.895
REMARK INTRA:                  -0.748
REMARK UNBOUND:                -0.748
REMARK SMILES CC(=O)CCC=C(C)CCC=C(C)C
REMARK SMILES IDX 7 1 6 2 8 3 9 4 10 5 11 6 13 7 12 8 14 9 5 10 4 11 2 12 3 13
REMARK SMILES IDX 1 14
REMARK H PARENT
REMARK Flexibility Score: inf
ROOT
ATOM      1  C   UNL     1      50.449  23.662  20.767  1.00  0.00    -0.077 C 
ATOM      2  C   UNL     1      50.447  23.192  19.500  1.00  0.00    -0.028 C 
ATOM      3  C   UNL     1      51.260  24.876  21.155  1.00  0.00     0.039 C 
ENDROOT
BRANCH   1   4
ATOM      4  C   UNL     1      49.622  22.955  21.822  1.00  0.00     0.034 C 
BRANCH   4   5
ATOM      5  C   UNL     1      48.405  22.242  21.216  1.00  0.00     0.032 C 
BRANCH   5   6
ATOM      6  C   UNL     1      47.173  23.114  21.247  1.00  0.00    -0.028 C 
ATOM      7  C   UNL     1      44.794  23.682  21.024  1.00  0.00     0.039 C 
ATOM      8  C   UNL     1      45.917  22.678  21.005  1.00  0.00    -0.080 C 
ATOM      9  C   UNL     1      45.612  21.223  20.734  1.00  0.00     0.039 C 
ENDBRANCH   5   6
ENDBRANCH   4   5
ENDBRANCH   1   4
BRANCH   2  10
ATOM     10  C   UNL     1      51.245  23.824  18.386  1.00  0.00     0.035 C 
BRANCH  10  11
ATOM     11  C   UNL     1      50.361  24.713  17.506  1.00  0.00     0.079 C 
BRANCH  11  12
ATOM     12  C   UNL     1      50.857  26.132  17.512  1.00  0.00     0.130 C 
ATOM     13  O   UNL     1      51.837  26.436  16.847  1.00  0.00    -0.300 OA
ATOM     14  C   UNL     1      50.172  27.173  18.345  1.00  0.00     0.087 C 
ENDBRANCH  11  12
ENDBRANCH  10  11
ENDBRANCH   2  10
TORSDOF 6
ENDMDL
MODEL 2
REMARK VINA RESULT:    -5.072      3.154      6.142
REMARK INTER + INTRA:          -7.599
REMARK INTER:                  -6.708
REMARK INTRA:                  -0.891
REMARK UNBOUND:                -0.748
REMARK SMILES CC(=O)CCC=C(C)CCC=C(C)C
REMARK SMILES IDX 7 1 6 2 8 3 9 4 10 5 11 6 13 7 12 8 14 9 5 10 4 11 2 12 3 13
REMARK SMILES IDX 1 14
REMARK H PARENT
REMARK Flexibility Score: inf
ROOT
ATOM      1  C   UNL     1      48.063  22.935  21.398  1.00  0.00    -0.077 C 
ATOM      2  C   UNL     1      47.442  22.044  20.594  1.00  0.00    -0.028 C 
ATOM      3  C   UNL     1      47.381  24.211  21.834  1.00  0.00     0.039 C 
ENDROOT
BRANCH   1   4
ATOM      4  C   UNL     1      49.473  22.650  21.871  1.00  0.00     0.034 C 
BRANCH   4   5
ATOM      5  C   UNL     1      50.442  23.784  21.507  1.00  0.00     0.032 C 
BRANCH   5   6
ATOM      6  C   UNL     1      50.863  23.716  20.058  1.00  0.00    -0.028 C 
ATOM      7  C   UNL     1      51.177  24.500  17.752  1.00  0.00     0.039 C 
ATOM      8  C   UNL     1      50.760  24.738  19.180  1.00  0.00    -0.080 C 
ATOM      9  C   UNL     1      50.260  26.103  19.593  1.00  0.00     0.039 C 
ENDBRANCH   5   6
ENDBRANCH   4   5
ENDBRANCH   1   4
BRANCH   2  10
ATOM     10  C   UNL     1      46.042  22.247  20.067  1.00  0.00     0.035 C 
BRANCH  10  11
ATOM     11  C   UNL     1      45.009  21.539  20.949  1.00  0.00     0.079 C 
BRANCH  11  12
ATOM     12  C   UNL     1      43.782  22.391  21.124  1.00  0.00     0.130 C 
ATOM     13  O   UNL     1      42.688  21.862  21.247  1.00  0.00    -0.300 OA
ATOM     14  C   UNL     1      43.891  23.886  21.126  1.00  0.00     0.087 C 
ENDBRANCH  11  12
ENDBRANCH  10  11
ENDBRANCH   2  10
TORSDOF 6
ENDMDL
MODEL 3
REMARK VINA RESULT:    -5.061      1.438      2.206
REMARK INTER + INTRA:          -7.585
REMARK INTER:                  -7.216
REMARK INTRA:                  -0.369
REMARK UNBOUND:                -0.748
REMARK SMILES CC(=O)CCC=C(C)CCC=C(C)C
REMARK SMILES IDX 7 1 6 2 8 3 9 4 10 5 11 6 13 7 12 8 14 9 5 10 4 11 2 12 3 13
REMARK SMILES IDX 1 14
REMARK H PARENT
REMARK Flexibility Score: inf
ROOT
ATOM      1  C   UNL     1      50.618  23.976  20.707  1.00  0.00    -0.077 C 
ATOM      2  C   UNL     1      50.493  23.576  19.423  1.00  0.00    -0.028 C 
ATOM      3  C   UNL     1      51.590  25.063  21.103  1.00  0.00     0.039 C 
ENDROOT
BRANCH   1   4
ATOM      4  C   UNL     1      49.766  23.320  21.775  1.00  0.00     0.034 C 
BRANCH   4   5
ATOM      5  C   UNL     1      48.488  22.701  21.191  1.00  0.00     0.032 C 
BRANCH   5   6
ATOM      6  C   UNL     1      48.610  21.203  21.045  1.00  0.00    -0.028 C 
ATOM      7  C   UNL     1      47.846  18.882  20.790  1.00  0.00     0.039 C 
ATOM      8  C   UNL     1      47.568  20.361  20.869  1.00  0.00    -0.080 C 
ATOM      9  C   UNL     1      46.148  20.860  20.735  1.00  0.00     0.039 C 
ENDBRANCH   5   6
ENDBRANCH   4   5
ENDBRANCH   1   4
BRANCH   2  10
ATOM     10  C   UNL     1      51.305  24.164  18.295  1.00  0.00     0.035 C 
BRANCH  10  11
ATOM     11  C   UNL     1      50.609  25.388  17.691  1.00  0.00     0.079 C 
BRANCH  11  12
ATOM     12  C   UNL     1      51.196  25.729  16.350  1.00  0.00     0.130 C 
ATOM     13  O   UNL     1      50.535  26.362  15.540  1.00  0.00    -0.300 OA
ATOM     14  C   UNL     1      52.579  25.277  15.990  1.00  0.00     0.087 C 
ENDBRANCH  11  12
ENDBRANCH  10  11
ENDBRANCH   2  10
TORSDOF 6
ENDMDL
MODEL 4
REMARK VINA RESULT:    -5.052      1.869      3.667
REMARK INTER + INTRA:          -7.572
REMARK INTER:                  -6.744
REMARK INTRA:                  -0.828
REMARK UNBOUND:                -0.748
REMARK SMILES CC(=O)CCC=C(C)CCC=C(C)C
REMARK SMILES IDX 7 1 6 2 8 3 9 4 10 5 11 6 13 7 12 8 14 9 5 10 4 11 2 12 3 13
REMARK SMILES IDX 1 14
REMARK H PARENT
REMARK Flexibility Score: inf
ROOT
ATOM      1  C   UNL     1      47.511  21.594  20.514  1.00  0.00    -0.077 C 
ATOM      2  C   UNL     1      48.043  22.665  21.142  1.00  0.00    -0.028 C 
ATOM      3  C   UNL     1      48.290  20.310  20.349  1.00  0.00     0.039 C 
ENDROOT
BRANCH   1   4
ATOM      4  C   UNL     1      46.103  21.681  19.962  1.00  0.00     0.034 C 
BRANCH   4   5
ATOM      5  C   UNL     1      45.049  21.719  21.079  1.00  0.00     0.032 C 
BRANCH   5   6
ATOM      6  C   UNL     1      43.935  22.689  20.763  1.00  0.00    -0.028 C 
ATOM      7  C   UNL     1      42.722  24.824  20.772  1.00  0.00     0.039 C 
ATOM      8  C   UNL     1      43.930  23.993  21.115  1.00  0.00    -0.080 C 
ATOM      9  C   UNL     1      45.101  24.637  21.821  1.00  0.00     0.039 C 
ENDBRANCH   5   6
ENDBRANCH   4   5
ENDBRANCH   1   4
BRANCH   2  10
ATOM     10  C   UNL     1      49.439  22.673  21.716  1.00  0.00     0.035 C 
BRANCH  10  11
ATOM     11  C   UNL     1      50.135  24.015  21.462  1.00  0.00     0.079 C 
BRANCH  11  12
ATOM     12  C   UNL     1      50.518  24.153  20.015  1.00  0.00     0.130 C 
ATOM     13  O   UNL     1      50.325  25.209  19.433  1.00  0.00    -0.300 OA
ATOM     14  C   UNL     1      51.117  22.994  19.275  1.00  0.00     0.087 C 
ENDBRANCH  11  12
ENDBRANCH  10  11
ENDBRANCH   2  10
TORSDOF 6
ENDMDL
MODEL 5
REMARK VINA RESULT:    -5.006      2.469      5.973
REMARK INTER + INTRA:          -7.510
REMARK INTER:                  -6.876
REMARK INTRA:                  -0.634
REMARK UNBOUND:                -0.748
REMARK SMILES CC(=O)CCC=C(C)CCC=C(C)C
REMARK SMILES IDX 7 1 6 2 8 3 9 4 10 5 11 6 13 7 12 8 14 9 5 10 4 11 2 12 3 13
REMARK SMILES IDX 1 14
REMARK H PARENT
REMARK Flexibility Score: inf
ROOT
ATOM      1  C   UNL     1      49.970  23.230  20.503  1.00  0.00    -0.077 C 
ATOM      2  C   UNL     1      49.353  22.211  19.866  1.00  0.00    -0.028 C 
ATOM      3  C   UNL     1      49.522  23.691  21.871  1.00  0.00     0.039 C 
ENDROOT
BRANCH   1   4
ATOM      4  C   UNL     1      51.134  23.930  19.831  1.00  0.00     0.034 C 
BRANCH   4   5
ATOM      5  C   UNL     1      51.128  23.721  18.309  1.00  0.00     0.032 C 
BRANCH   5   6
ATOM      6  C   UNL     1      50.564  24.919  17.583  1.00  0.00    -0.028 C 
ATOM      7  C   UNL     1      50.521  26.790  15.992  1.00  0.00     0.039 C 
ATOM      8  C   UNL     1      51.192  25.579  16.586  1.00  0.00    -0.080 C 
ATOM      9  C   UNL     1      52.529  25.127  16.044  1.00  0.00     0.039 C 
ENDBRANCH   5   6
ENDBRANCH   4   5
ENDBRANCH   1   4
BRANCH   2  10
ATOM     10  C   UNL     1      48.181  21.462  20.453  1.00  0.00     0.035 C 
BRANCH  10  11
ATOM     11  C   UNL     1      46.878  21.816  19.729  1.00  0.00     0.079 C 
BRANCH  11  12
ATOM     12  C   UNL     1      45.830  22.269  20.708  1.00  0.00     0.130 C 
ATOM     13  O   UNL     1      46.039  23.243  21.415  1.00  0.00    -0.300 OA
ATOM     14  C   UNL     1      44.538  21.519  20.837  1.00  0.00     0.087 C 
ENDBRANCH  11  12
ENDBRANCH  10  11
ENDBRANCH   2  10
TORSDOF 6
ENDMDL
MODEL 6
REMARK VINA RESULT:    -4.998      3.622      6.396
REMARK INTER + INTRA:          -7.500
REMARK INTER:                  -6.893
REMARK INTRA:                  -0.607
REMARK UNBOUND:                -0.748
REMARK SMILES CC(=O)CCC=C(C)CCC=C(C)C
REMARK SMILES IDX 7 1 6 2 8 3 9 4 10 5 11 6 13 7 12 8 14 9 5 10 4 11 2 12 3 13
REMARK SMILES IDX 1 14
REMARK H PARENT
REMARK Flexibility Score: inf
ROOT
ATOM      1  C   UNL     1      50.106  24.655  21.530  1.00  0.00    -0.077 C 
ATOM      2  C   UNL     1      49.885  23.323  21.483  1.00  0.00    -0.028 C 
ATOM      3  C   UNL     1      48.964  25.644  21.502  1.00  0.00     0.039 C 
ENDROOT
BRANCH   1   4
ATOM      4  C   UNL     1      51.529  25.169  21.609  1.00  0.00     0.034 C 
BRANCH   4   5
ATOM      5  C   UNL     1      51.587  26.623  22.100  1.00  0.00     0.032 C 
BRANCH   5   6
ATOM      6  C   UNL     1      52.068  26.711  23.529  1.00  0.00    -0.028 C 
ATOM      7  C   UNL     1      52.075  27.437  25.876  1.00  0.00     0.039 C 
ATOM      8  C   UNL     1      51.444  27.403  24.508  1.00  0.00    -0.080 C 
ATOM      9  C   UNL     1      50.136  28.121  24.273  1.00  0.00     0.039 C 
ENDBRANCH   5   6
ENDBRANCH   4   5
ENDBRANCH   1   4
BRANCH   2  10
ATOM     10  C   UNL     1      48.505  22.719  21.394  1.00  0.00     0.035 C 
BRANCH  10  11
ATOM     11  C   UNL     1      48.423  21.685  20.266  1.00  0.00     0.079 C 
BRANCH  11  12
ATOM     12  C   UNL     1      47.532  20.539  20.656  1.00  0.00     0.130 C 
ATOM     13  O   UNL     1      46.322  20.702  20.714  1.00  0.00    -0.300 OA
ATOM     14  C   UNL     1      48.119  19.202  20.998  1.00  0.00     0.087 C 
ENDBRANCH  11  12
ENDBRANCH  10  11
ENDBRANCH   2  10
TORSDOF 6
ENDMDL
MODEL 7
REMARK VINA RESULT:    -4.895      1.469      2.255
REMARK INTER + INTRA:          -7.360
REMARK INTER:                  -6.559
REMARK INTRA:                  -0.800
REMARK UNBOUND:                -0.748
REMARK SMILES CC(=O)CCC=C(C)CCC=C(C)C
REMARK SMILES IDX 7 1 6 2 8 3 9 4 10 5 11 6 13 7 12 8 14 9 5 10 4 11 2 12 3 13
REMARK SMILES IDX 1 14
REMARK H PARENT
REMARK Flexibility Score: inf
ROOT
ATOM      1  C   UNL     1      50.655  23.970  19.761  1.00  0.00    -0.077 C 
ATOM      2  C   UNL     1      50.436  25.054  18.985  1.00  0.00    -0.028 C 
ATOM      3  C   UNL     1      51.061  22.643  19.163  1.00  0.00     0.039 C 
ENDROOT
BRANCH   1   4
ATOM      4  C   UNL     1      50.490  24.085  21.262  1.00  0.00     0.034 C 
BRANCH   4   5
ATOM      5  C   UNL     1      49.610  22.962  21.832  1.00  0.00     0.032 C 
BRANCH   5   6
ATOM      6  C   UNL     1      48.196  23.042  21.310  1.00  0.00    -0.028 C 
ATOM      7  C   UNL     1      46.142  22.270  20.205  1.00  0.00     0.039 C 
ATOM      8  C   UNL     1      47.536  22.021  20.720  1.00  0.00    -0.080 C 
ATOM      9  C   UNL     1      48.147  20.646  20.581  1.00  0.00     0.039 C 
ENDBRANCH   5   6
ENDBRANCH   4   5
ENDBRANCH   1   4
BRANCH   2  10
ATOM     10  C   UNL     1      50.568  25.031  17.482  1.00  0.00     0.035 C 
BRANCH  10  11
ATOM     11  C   UNL     1      51.346  26.250  16.975  1.00  0.00     0.079 C 
BRANCH  11  12
ATOM     12  C   UNL     1      52.048  25.936  15.683  1.00  0.00     0.130 C 
ATOM     13  O   UNL     1      51.778  26.572  14.675  1.00  0.00    -0.300 OA
ATOM     14  C   UNL     1      53.060  24.832  15.617  1.00  0.00     0.087 C 
ENDBRANCH  11  12
ENDBRANCH  10  11
ENDBRANCH   2  10
TORSDOF 6
ENDMDL
MODEL 8
REMARK VINA RESULT:    -4.887      2.492      5.122
REMARK INTER + INTRA:          -7.350
REMARK INTER:                  -6.287
REMARK INTRA:                  -1.063
REMARK UNBOUND:                -0.748
REMARK SMILES CC(=O)CCC=C(C)CCC=C(C)C
REMARK SMILES IDX 7 1 6 2 8 3 9 4 10 5 11 6 13 7 12 8 14 9 5 10 4 11 2 12 3 13
REMARK SMILES IDX 1 14
REMARK H PARENT
REMARK Flexibility Score: inf
ROOT
ATOM      1  C   UNL     1      50.327  23.631  20.626  1.00  0.00    -0.077 C 
ATOM      2  C   UNL     1      49.490  23.009  21.486  1.00  0.00    -0.028 C 
ATOM      3  C   UNL     1      50.243  23.394  19.136  1.00  0.00     0.039 C 
ENDROOT
BRANCH   1   4
ATOM      4  C   UNL     1      51.373  24.584  21.167  1.00  0.00     0.034 C 
BRANCH   4   5
ATOM      5  C   UNL     1      50.741  25.754  21.935  1.00  0.00     0.032 C 
BRANCH   5   6
ATOM      6  C   UNL     1      50.204  26.811  21.000  1.00  0.00    -0.028 C 
ATOM      7  C   UNL     1      48.510  28.113  19.787  1.00  0.00     0.039 C 
ATOM      8  C   UNL     1      48.892  27.057  20.792  1.00  0.00    -0.080 C 
ATOM      9  C   UNL     1      47.809  26.320  21.545  1.00  0.00     0.039 C 
ENDBRANCH   5   6
ENDBRANCH   4   5
ENDBRANCH   1   4
BRANCH   2  10
ATOM     10  C   UNL     1      48.424  22.038  21.040  1.00  0.00     0.035 C 
BRANCH  10  11
ATOM     11  C   UNL     1      47.032  22.675  21.104  1.00  0.00     0.079 C 
BRANCH  11  12
ATOM     12  C   UNL     1      46.102  22.025  20.117  1.00  0.00     0.130 C 
ATOM     13  O   UNL     1      46.385  22.019  18.929  1.00  0.00    -0.300 OA
ATOM     14  C   UNL     1      44.818  21.404  20.579  1.00  0.00     0.087 C 
ENDBRANCH  11  12
ENDBRANCH  10  11
ENDBRANCH   2  10
TORSDOF 6
ENDMDL
MODEL 9
REMARK VINA RESULT:    -4.864      3.582      6.479
REMARK INTER + INTRA:          -7.319
REMARK INTER:                  -6.814
REMARK INTRA:                  -0.505
REMARK UNBOUND:                -0.748
REMARK SMILES CC(=O)CCC=C(C)CCC=C(C)C
REMARK SMILES IDX 7 1 6 2 8 3 9 4 10 5 11 6 13 7 12 8 14 9 5 10 4 11 2 12 3 13
REMARK SMILES IDX 1 14
REMARK H PARENT
REMARK Flexibility Score: inf
ROOT
ATOM      1  C   UNL     1      48.108  21.851  20.845  1.00  0.00    -0.077 C 
ATOM      2  C   UNL     1      46.939  22.501  20.660  1.00  0.00    -0.028 C 
ATOM      3  C   UNL     1      48.271  20.399  20.460  1.00  0.00     0.039 C 
ENDROOT
BRANCH   1   4
ATOM      4  C   UNL     1      49.281  22.592  21.453  1.00  0.00     0.034 C 
BRANCH   4   5
ATOM      5  C   UNL     1      49.912  23.581  20.462  1.00  0.00     0.032 C 
BRANCH   5   6
ATOM      6  C   UNL     1      51.154  24.225  21.030  1.00  0.00    -0.028 C 
ATOM      7  C   UNL     1      52.520  25.979  22.075  1.00  0.00     0.039 C 
ATOM      8  C   UNL     1      51.193  25.450  21.598  1.00  0.00    -0.080 C 
ATOM      9  C   UNL     1      49.948  26.288  21.780  1.00  0.00     0.039 C 
ENDBRANCH   5   6
ENDBRANCH   4   5
ENDBRANCH   1   4
BRANCH   2  10
ATOM     10  C   UNL     1      45.715  21.843  20.070  1.00  0.00     0.035 C 
BRANCH  10  11
ATOM     11  C   UNL     1      44.724  21.433  21.165  1.00  0.00     0.079 C 
BRANCH  11  12
ATOM     12  C   UNL     1      43.497  22.302  21.126  1.00  0.00     0.130 C 
ATOM     13  O   UNL     1      42.401  21.797  20.936  1.00  0.00    -0.300 OA
ATOM     14  C   UNL     1      43.612  23.787  21.298  1.00  0.00     0.087 C 
ENDBRANCH  11  12
ENDBRANCH  10  11
ENDBRANCH   2  10
TORSDOF 6
ENDMDL
