MODEL 1
REMARK VINA RESULT:    -3.602      0.000      0.000
REMARK INTER + INTRA:          -4.710
REMARK INTER:                  -5.077
REMARK INTRA:                   0.366
REMARK UNBOUND:                 0.366
REMARK SMILES CC1=CCC(=C(C)C)C(=O)CC(C)=CCC1
REMARK SMILES IDX 12 1 14 2 13 3 15 4 16 5 2 6 1 7 3 8 11 10 9 11 10 12 5 13
REMARK SMILES IDX 6 14 7 15 8 16 4 17
REMARK H PARENT
REMARK Flexibility Score: 60.00
ROOT
ATOM      1  C   UNL     1      32.125   7.494 107.273  1.00  0.00    -0.070 C 
ATOM      2  C   UNL     1      33.336   7.319 107.847  1.00  0.00    -0.027 C 
ATOM      3  C   UNL     1      31.330   6.263 106.915  1.00  0.00     0.039 C 
ENDROOT
BRANCH   2   4
ATOM      4  C   UNL     1      34.235   8.422 108.363  1.00  0.00     0.032 C 
BRANCH   4   5
ATOM      5  C   UNL     1      35.242   8.973 107.333  1.00  0.00     0.034 C 
BRANCH   5   6
ATOM      6  C   UNL     1      35.173  10.482 107.179  1.00  0.00    -0.077 C 
ATOM      7  C   UNL     1      35.882  11.324 108.210  1.00  0.00     0.039 C 
ATOM      8  C   UNL     1      34.576  11.118 106.142  1.00  0.00    -0.023 CG0
ATOM      9  G   UNL     1      33.793  10.485 105.009  1.00  0.00     0.000 G0
ENDBRANCH   5   6
ENDBRANCH   4   5
ENDBRANCH   2   4
BRANCH   1  10
ATOM     10  C   UNL     1      31.494   8.854 107.060  1.00  0.00     0.111 C 
BRANCH  10  11
ATOM     11  C   UNL     1      31.605   9.299 105.625  1.00  0.00     0.163 C 
ATOM     12  O   UNL     1      31.040   8.601 104.741  1.00  0.00    -0.294 OA
BRANCH  11  13
ATOM     13  C   UNL     1      32.300  10.560 105.229  1.00  0.00    -0.002 C 
ATOM     14  C   UNL     1      31.614  11.740 105.146  1.00  0.00    -0.069 C 
ATOM     15  C   UNL     1      32.316  13.059 104.902  1.00  0.00     0.039 C 
ATOM     16  C   UNL     1      30.110  11.785 105.297  1.00  0.00     0.039 C 
BRANCH  13  17
ATOM     17  C   UNL     1      33.804  10.489 105.017  1.00  0.00     0.066 CG0
ATOM     18  G   UNL     1      34.576  11.131 106.153  1.00  0.00     0.000 G0
ENDBRANCH  13  17
ENDBRANCH  11  13
ENDBRANCH  10  11
ENDBRANCH   1  10
TORSDOF 0
ENDMDL
MODEL 2
REMARK VINA RESULT:    -3.147      1.924      3.897
REMARK INTER + INTRA:          -4.068
REMARK INTER:                  -4.499
REMARK INTRA:                   0.430
REMARK UNBOUND:                 0.366
REMARK SMILES CC1=CCC(=C(C)C)C(=O)CC(C)=CCC1
REMARK SMILES IDX 12 1 14 2 13 3 15 4 16 5 2 6 1 7 3 8 11 10 9 11 10 12 5 13
REMARK SMILES IDX 6 14 7 15 8 16 4 17
REMARK H PARENT
REMARK Flexibility Score: 60.00
ROOT
ATOM      1  C   UNL     1      36.233  12.018 106.245  1.00  0.00    -0.070 C 
ATOM      2  C   UNL     1      36.439  10.911 106.992  1.00  0.00    -0.027 C 
ATOM      3  C   UNL     1      37.335  12.455 105.312  1.00  0.00     0.039 C 
ENDROOT
BRANCH   2   4
ATOM      4  C   UNL     1      35.424  10.263 107.909  1.00  0.00     0.032 C 
BRANCH   4   5
ATOM      5  C   UNL     1      34.928   8.877 107.450  1.00  0.00     0.034 C 
BRANCH   5   6
ATOM      6  C   UNL     1      33.416   8.784 107.361  1.00  0.00    -0.077 C 
ATOM      7  C   UNL     1      32.685   8.122 108.503  1.00  0.00     0.039 C 
ATOM      8  C   UNL     1      32.675   9.317 106.359  1.00  0.00    -0.023 CG0
ATOM      9  G   UNL     1      33.187  10.006 105.110  1.00  0.00     0.000 G0
ENDBRANCH   5   6
ENDBRANCH   4   5
ENDBRANCH   2   4
BRANCH   1  10
ATOM     10  C   UNL     1      34.925  12.781 106.233  1.00  0.00     0.111 C 
BRANCH  10  11
ATOM     11  C   UNL     1      34.085  12.425 105.035  1.00  0.00     0.163 C 
ATOM     12  O   UNL     1      34.432  12.877 103.911  1.00  0.00    -0.294 OA
BRANCH  11  13
ATOM     13  C   UNL     1      32.907  11.512 105.125  1.00  0.00    -0.002 C 
ATOM     14  C   UNL     1      31.633  12.011 105.126  1.00  0.00    -0.069 C 
ATOM     15  C   UNL     1      30.420  11.111 105.057  1.00  0.00     0.039 C 
ATOM     16  C   UNL     1      31.376  13.501 105.194  1.00  0.00     0.039 C 
BRANCH  13  17
ATOM     17  C   UNL     1      33.182  10.017 105.119  1.00  0.00     0.066 CG0
ATOM     18  G   UNL     1      32.655   9.329 106.362  1.00  0.00     0.000 G0
ENDBRANCH  13  17
ENDBRANCH  11  13
ENDBRANCH  10  11
ENDBRANCH   1  10
TORSDOF 0
ENDMDL
MODEL 3
REMARK VINA RESULT:    -3.070      1.485      3.646
REMARK INTER + INTRA:          -3.961
REMARK INTER:                  -4.122
REMARK INTRA:                   0.162
REMARK UNBOUND:                 0.366
REMARK SMILES CC1=CCC(=C(C)C)C(=O)CC(C)=CCC1
REMARK SMILES IDX 12 1 14 2 13 3 15 4 16 5 2 6 1 7 3 8 11 10 9 11 10 12 5 13
REMARK SMILES IDX 6 14 7 15 8 16 4 17
REMARK H PARENT
REMARK Flexibility Score: 60.00
ROOT
ATOM      1  C   UNL     1      32.907   7.475 107.905  1.00  0.00    -0.070 C 
ATOM      2  C   UNL     1      31.773   7.316 107.189  1.00  0.00    -0.027 C 
ATOM      3  C   UNL     1      33.652   6.235 108.331  1.00  0.00     0.039 C 
ENDROOT
BRANCH   2   4
ATOM      4  C   UNL     1      30.942   8.431 106.590  1.00  0.00     0.032 C 
BRANCH   4   5
ATOM      5  C   UNL     1      31.429   8.936 105.216  1.00  0.00     0.034 C 
BRANCH   5   6
ATOM      6  C   UNL     1      31.569  10.446 105.151  1.00  0.00    -0.077 C 
ATOM      7  C   UNL     1      30.305  11.268 105.137  1.00  0.00     0.039 C 
ATOM      8  C   UNL     1      32.754  11.105 105.173  1.00  0.00    -0.023 CG0
ATOM      9  G   UNL     1      34.141  10.493 105.168  1.00  0.00     0.000 G0
ENDBRANCH   5   6
ENDBRANCH   4   5
ENDBRANCH   2   4
BRANCH   1  10
ATOM     10  C   UNL     1      33.511   8.829 108.216  1.00  0.00     0.111 C 
BRANCH  10  11
ATOM     11  C   UNL     1      34.663   9.148 107.300  1.00  0.00     0.163 C 
ATOM     12  O   UNL     1      35.541   8.263 107.120  1.00  0.00    -0.294 OA
BRANCH  11  13
ATOM     13  C   UNL     1      34.762  10.440 106.558  1.00  0.00    -0.002 C 
ATOM     14  C   UNL     1      35.455  11.496 107.082  1.00  0.00    -0.069 C 
ATOM     15  C   UNL     1      35.707  12.761 106.290  1.00  0.00     0.039 C 
ATOM     16  C   UNL     1      36.007  11.450 108.489  1.00  0.00     0.039 C 
BRANCH  13  17
ATOM     17  C   UNL     1      34.147  10.493 105.169  1.00  0.00     0.066 CG0
ATOM     18  G   UNL     1      32.767  11.121 105.173  1.00  0.00     0.000 G0
ENDBRANCH  13  17
ENDBRANCH  11  13
ENDBRANCH  10  11
ENDBRANCH   1  10
TORSDOF 0
ENDMDL
MODEL 4
REMARK VINA RESULT:    -3.060      1.983      4.948
REMARK INTER + INTRA:          -3.946
REMARK INTER:                  -4.338
REMARK INTRA:                   0.392
REMARK UNBOUND:                 0.366
REMARK SMILES CC1=CCC(=C(C)C)C(=O)CC(C)=CCC1
REMARK SMILES IDX 12 1 14 2 13 3 15 4 16 5 2 6 1 7 3 8 11 10 9 11 10 12 5 13
REMARK SMILES IDX 6 14 7 15 8 16 4 17
REMARK H PARENT
REMARK Flexibility Score: 60.00
ROOT
ATOM      1  C   UNL     1      36.465  12.313 106.631  1.00  0.00    -0.070 C 
ATOM      2  C   UNL     1      36.246  13.360 105.807  1.00  0.00    -0.027 C 
ATOM      3  C   UNL     1      37.885  12.036 107.060  1.00  0.00     0.039 C 
ENDROOT
BRANCH   2   4
ATOM      4  C   UNL     1      34.891  13.853 105.346  1.00  0.00     0.032 C 
BRANCH   4   5
ATOM      5  C   UNL     1      34.130  12.884 104.418  1.00  0.00     0.034 C 
BRANCH   5   6
ATOM      6  C   UNL     1      32.738  12.548 104.919  1.00  0.00    -0.077 C 
ATOM      7  C   UNL     1      31.784  13.691 105.159  1.00  0.00     0.039 C 
ATOM      8  C   UNL     1      32.274  11.286 105.099  1.00  0.00    -0.023 CG0
ATOM      9  G   UNL     1      33.052   9.995 104.939  1.00  0.00     0.000 G0
ENDBRANCH   5   6
ENDBRANCH   4   5
ENDBRANCH   2   4
BRANCH   1  10
ATOM     10  C   UNL     1      35.352  11.466 107.214  1.00  0.00     0.111 C 
BRANCH  10  11
ATOM     11  C   UNL     1      35.151  10.197 106.430  1.00  0.00     0.163 C 
ATOM     12  O   UNL     1      36.172   9.592 106.007  1.00  0.00    -0.294 OA
BRANCH  11  13
ATOM     13  C   UNL     1      33.799   9.605 106.197  1.00  0.00    -0.002 C 
ATOM     14  C   UNL     1      33.218   8.798 107.136  1.00  0.00    -0.069 C 
ATOM     15  C   UNL     1      31.791   8.312 107.001  1.00  0.00     0.039 C 
ATOM     16  C   UNL     1      33.978   8.350 108.365  1.00  0.00     0.039 C 
BRANCH  13  17
ATOM     17  C   UNL     1      33.071  10.013 104.927  1.00  0.00     0.066 CG0
ATOM     18  G   UNL     1      32.264  11.283 105.108  1.00  0.00     0.000 G0
ENDBRANCH  13  17
ENDBRANCH  11  13
ENDBRANCH  10  11
ENDBRANCH   1  10
TORSDOF 0
ENDMDL
MODEL 5
REMARK VINA RESULT:    -2.914      2.229      4.302
REMARK INTER + INTRA:          -3.740
REMARK INTER:                  -5.599
REMARK INTRA:                   1.860
REMARK UNBOUND:                 0.366
REMARK SMILES CC1=CCC(=C(C)C)C(=O)CC(C)=CCC1
REMARK SMILES IDX 12 1 14 2 13 3 15 4 16 5 2 6 1 7 3 8 11 10 9 11 10 12 5 13
REMARK SMILES IDX 6 14 7 15 8 16 4 17
REMARK H PARENT
REMARK Flexibility Score: 60.00
ROOT
ATOM      1  C   UNL     1      30.881   6.479 105.647  1.00  0.00    -0.070 C 
ATOM      2  C   UNL     1      30.995   5.137 105.764  1.00  0.00    -0.027 C 
ATOM      3  C   UNL     1      30.620   7.048 104.275  1.00  0.00     0.039 C 
ENDROOT
BRANCH   2   4
ATOM      4  C   UNL     1      31.159   4.375 107.061  1.00  0.00     0.032 C 
BRANCH   4   5
ATOM      5  C   UNL     1      31.809   5.177 108.207  1.00  0.00     0.034 C 
BRANCH   5   6
ATOM      6  C   UNL     1      33.316   5.298 108.071  1.00  0.00    -0.077 C 
ATOM      7  C   UNL     1      34.093   4.048 107.745  1.00  0.00     0.039 C 
ATOM      8  C   UNL     1      34.000   6.466 108.155  1.00  0.00    -0.023 CG0
ATOM      9  G   UNL     1      33.437   7.833 108.489  1.00  0.00     0.000 G0
ENDBRANCH   5   6
ENDBRANCH   4   5
ENDBRANCH   2   4
BRANCH   1  10
ATOM     10  C   UNL     1      30.910   7.422 106.832  1.00  0.00     0.111 C 
BRANCH  10  11
ATOM     11  C   UNL     1      31.840   8.582 106.596  1.00  0.00     0.163 C 
ATOM     12  O   UNL     1      31.426   9.542 105.892  1.00  0.00    -0.294 OA
BRANCH  11  13
ATOM     13  C   UNL     1      33.198   8.659 107.215  1.00  0.00    -0.002 C 
ATOM     14  C   UNL     1      34.147   9.506 106.713  1.00  0.00    -0.069 C 
ATOM     15  C   UNL     1      35.473   9.724 107.409  1.00  0.00     0.039 C 
ATOM     16  C   UNL     1      33.915  10.273 105.430  1.00  0.00     0.039 C 
BRANCH  13  17
ATOM     17  C   UNL     1      33.439   7.835 108.469  1.00  0.00     0.066 CG0
ATOM     18  G   UNL     1      34.004   6.463 108.157  1.00  0.00     0.000 G0
ENDBRANCH  13  17
ENDBRANCH  11  13
ENDBRANCH  10  11
ENDBRANCH   1  10
TORSDOF 0
ENDMDL
MODEL 6
REMARK VINA RESULT:    -2.890      4.967      7.553
REMARK INTER + INTRA:          -3.706
REMARK INTER:                  -4.141
REMARK INTRA:                   0.435
REMARK UNBOUND:                 0.366
REMARK SMILES CC1=CCC(=C(C)C)C(=O)CC(C)=CCC1
REMARK SMILES IDX 12 1 14 2 13 3 15 4 16 5 2 6 1 7 3 8 11 10 9 11 10 12 5 13
REMARK SMILES IDX 6 14 7 15 8 16 4 17
REMARK H PARENT
REMARK Flexibility Score: 60.00
ROOT
ATOM      1  C   UNL     1      37.669  12.115 103.499  1.00  0.00    -0.070 C 
ATOM      2  C   UNL     1      36.393  12.035 103.937  1.00  0.00    -0.027 C 
ATOM      3  C   UNL     1      38.299  10.869 102.930  1.00  0.00     0.039 C 
ENDROOT
BRANCH   2   4
ATOM      4  C   UNL     1      35.561  13.192 104.448  1.00  0.00     0.032 C 
BRANCH   4   5
ATOM      5  C   UNL     1      35.928  13.678 105.865  1.00  0.00     0.034 C 
BRANCH   5   6
ATOM      6  C   UNL     1      36.502  12.580 106.742  1.00  0.00    -0.077 C 
ATOM      7  C   UNL     1      35.552  11.532 107.266  1.00  0.00     0.039 C 
ATOM      8  C   UNL     1      37.820  12.441 107.030  1.00  0.00    -0.023 CG0
ATOM      9  G   UNL     1      38.946  13.375 106.632  1.00  0.00     0.000 G0
ENDBRANCH   5   6
ENDBRANCH   4   5
ENDBRANCH   2   4
BRANCH   1  10
ATOM     10  C   UNL     1      38.458  13.409 103.467  1.00  0.00     0.111 C 
BRANCH  10  11
ATOM     11  C   UNL     1      39.770  13.277 104.193  1.00  0.00     0.163 C 
ATOM     12  O   UNL     1      40.812  13.690 103.616  1.00  0.00    -0.294 OA
BRANCH  11  13
ATOM     13  C   UNL     1      39.868  12.737 105.582  1.00  0.00    -0.002 C 
ATOM     14  C   UNL     1      40.796  11.784 105.899  1.00  0.00    -0.069 C 
ATOM     15  C   UNL     1      41.026  11.333 107.325  1.00  0.00     0.039 C 
ATOM     16  C   UNL     1      41.646  11.132 104.831  1.00  0.00     0.039 C 
BRANCH  13  17
ATOM     17  C   UNL     1      38.963  13.358 106.634  1.00  0.00     0.066 CG0
ATOM     18  G   UNL     1      37.831  12.434 107.038  1.00  0.00     0.000 G0
ENDBRANCH  13  17
ENDBRANCH  11  13
ENDBRANCH  10  11
ENDBRANCH   1  10
TORSDOF 0
ENDMDL
MODEL 7
REMARK VINA RESULT:    -2.884      5.053      7.145
REMARK INTER + INTRA:          -3.698
REMARK INTER:                  -4.537
REMARK INTRA:                   0.839
REMARK UNBOUND:                 0.366
REMARK SMILES CC1=CCC(=C(C)C)C(=O)CC(C)=CCC1
REMARK SMILES IDX 12 1 14 2 13 3 15 4 16 5 2 6 1 7 3 8 11 10 9 11 10 12 5 13
REMARK SMILES IDX 6 14 7 15 8 16 4 17
REMARK H PARENT
REMARK Flexibility Score: 60.00
ROOT
ATOM      1  C   UNL     1      39.231  12.165 103.294  1.00  0.00    -0.070 C 
ATOM      2  C   UNL     1      40.514  11.826 103.550  1.00  0.00    -0.027 C 
ATOM      3  C   UNL     1      38.271  11.063 102.923  1.00  0.00     0.039 C 
ENDROOT
BRANCH   2   4
ATOM      4  C   UNL     1      41.598  12.769 104.028  1.00  0.00     0.032 C 
BRANCH   4   5
ATOM      5  C   UNL     1      41.526  13.131 105.526  1.00  0.00     0.034 C 
BRANCH   5   6
ATOM      6  C   UNL     1      40.790  12.096 106.356  1.00  0.00    -0.077 C 
ATOM      7  C   UNL     1      41.529  10.831 106.715  1.00  0.00     0.039 C 
ATOM      8  C   UNL     1      39.540  12.262 106.853  1.00  0.00    -0.023 CG0
ATOM      9  G   UNL     1      38.608  13.433 106.610  1.00  0.00     0.000 G0
ENDBRANCH   5   6
ENDBRANCH   4   5
ENDBRANCH   2   4
BRANCH   1  10
ATOM     10  C   UNL     1      38.696  13.573 103.452  1.00  0.00     0.111 C 
BRANCH  10  11
ATOM     11  C   UNL     1      37.456  13.604 104.306  1.00  0.00     0.163 C 
ATOM     12  O   UNL     1      36.392  14.042 103.793  1.00  0.00    -0.294 OA
BRANCH  11  13
ATOM     13  C   UNL     1      37.433  13.079 105.704  1.00  0.00    -0.002 C 
ATOM     14  C   UNL     1      36.439  12.235 106.118  1.00  0.00    -0.069 C 
ATOM     15  C   UNL     1      36.472  11.563 107.473  1.00  0.00     0.039 C 
ATOM     16  C   UNL     1      35.251  11.930 105.233  1.00  0.00     0.039 C 
BRANCH  13  17
ATOM     17  C   UNL     1      38.602  13.445 106.604  1.00  0.00     0.066 CG0
ATOM     18  G   UNL     1      39.528  12.270 106.852  1.00  0.00     0.000 G0
ENDBRANCH  13  17
ENDBRANCH  11  13
ENDBRANCH  10  11
ENDBRANCH   1  10
TORSDOF 0
ENDMDL
MODEL 8
REMARK VINA RESULT:    -2.688      6.363      9.009
REMARK INTER + INTRA:          -3.421
REMARK INTER:                  -3.641
REMARK INTRA:                   0.219
REMARK UNBOUND:                 0.366
REMARK SMILES CC1=CCC(=C(C)C)C(=O)CC(C)=CCC1
REMARK SMILES IDX 12 1 14 2 13 3 15 4 16 5 2 6 1 7 3 8 11 10 9 11 10 12 5 13
REMARK SMILES IDX 6 14 7 15 8 16 4 17
REMARK H PARENT
REMARK Flexibility Score: 60.00
ROOT
ATOM      1  C   UNL     1      40.426  11.784 103.154  1.00  0.00    -0.070 C 
ATOM      2  C   UNL     1      39.093  11.646 102.985  1.00  0.00    -0.027 C 
ATOM      3  C   UNL     1      41.296  10.575 102.917  1.00  0.00     0.039 C 
ENDROOT
BRANCH   2   4
ATOM      4  C   UNL     1      38.071  12.759 103.081  1.00  0.00     0.032 C 
BRANCH   4   5
ATOM      5  C   UNL     1      37.892  13.355 104.492  1.00  0.00     0.034 C 
BRANCH   5   6
ATOM      6  C   UNL     1      37.918  12.307 105.590  1.00  0.00    -0.077 C 
ATOM      7  C   UNL     1      36.772  11.328 105.652  1.00  0.00     0.039 C 
ATOM      8  C   UNL     1      38.934  12.149 106.473  1.00  0.00    -0.023 CG0
ATOM      9  G   UNL     1      40.169  13.018 106.610  1.00  0.00     0.000 G0
ENDBRANCH   5   6
ENDBRANCH   4   5
ENDBRANCH   2   4
BRANCH   1  10
ATOM     10  C   UNL     1      41.092  13.106 103.477  1.00  0.00     0.111 C 
BRANCH  10  11
ATOM     11  C   UNL     1      41.931  13.015 104.724  1.00  0.00     0.163 C 
ATOM     12  O   UNL     1      43.085  13.522 104.701  1.00  0.00    -0.294 OA
BRANCH  11  13
ATOM     13  C   UNL     1      41.423  12.408 105.990  1.00  0.00    -0.002 C 
ATOM     14  C   UNL     1      42.107  11.395 106.603  1.00  0.00    -0.069 C 
ATOM     15  C   UNL     1      41.706  10.867 107.964  1.00  0.00     0.039 C 
ATOM     16  C   UNL     1      43.306  10.748 105.946  1.00  0.00     0.039 C 
BRANCH  13  17
ATOM     17  C   UNL     1      40.180  13.027 106.608  1.00  0.00     0.066 CG0
ATOM     18  G   UNL     1      38.959  12.140 106.455  1.00  0.00     0.000 G0
ENDBRANCH  13  17
ENDBRANCH  11  13
ENDBRANCH  10  11
ENDBRANCH   1  10
TORSDOF 0
ENDMDL
MODEL 9
REMARK VINA RESULT:    -2.621      1.304      4.019
REMARK INTER + INTRA:          -3.328
REMARK INTER:                  -4.650
REMARK INTRA:                   1.322
REMARK UNBOUND:                 0.366
REMARK SMILES CC1=CCC(=C(C)C)C(=O)CC(C)=CCC1
REMARK SMILES IDX 12 1 14 2 13 3 15 4 16 5 2 6 1 7 3 8 11 10 9 11 10 12 5 13
REMARK SMILES IDX 6 14 7 15 8 16 4 17
REMARK H PARENT
REMARK Flexibility Score: 60.00
ROOT
ATOM      1  C   UNL     1      31.731  10.953 105.126  1.00  0.00    -0.070 C 
ATOM      2  C   UNL     1      32.481  12.077 105.126  1.00  0.00    -0.027 C 
ATOM      3  C   UNL     1      30.232  11.105 105.190  1.00  0.00     0.039 C 
ENDROOT
BRANCH   2   4
ATOM      4  C   UNL     1      33.985  12.134 104.971  1.00  0.00     0.032 C 
BRANCH   4   5
ATOM      5  C   UNL     1      34.782  11.802 106.249  1.00  0.00     0.034 C 
BRANCH   5   6
ATOM      6  C   UNL     1      35.369  10.402 106.240  1.00  0.00    -0.077 C 
ATOM      7  C   UNL     1      36.650  10.184 105.475  1.00  0.00     0.039 C 
ATOM      8  C   UNL     1      34.855   9.353 106.928  1.00  0.00    -0.023 CG0
ATOM      9  G   UNL     1      33.577   9.332 107.743  1.00  0.00     0.000 G0
ENDBRANCH   5   6
ENDBRANCH   4   5
ENDBRANCH   2   4
BRANCH   1  10
ATOM     10  C   UNL     1      32.314   9.563 104.971  1.00  0.00     0.111 C 
BRANCH  10  11
ATOM     11  C   UNL     1      31.797   8.623 106.027  1.00  0.00     0.163 C 
ATOM     12  O   UNL     1      30.681   8.069 105.834  1.00  0.00    -0.294 OA
BRANCH  11  13
ATOM     13  C   UNL     1      32.583   8.280 107.249  1.00  0.00    -0.002 C 
ATOM     14  C   UNL     1      32.462   7.050 107.836  1.00  0.00    -0.069 C 
ATOM     15  C   UNL     1      33.356   6.616 108.977  1.00  0.00     0.039 C 
ATOM     16  C   UNL     1      31.421   6.057 107.368  1.00  0.00     0.039 C 
BRANCH  13  17
ATOM     17  C   UNL     1      33.581   9.312 107.747  1.00  0.00     0.066 CG0
ATOM     18  G   UNL     1      34.843   9.345 106.908  1.00  0.00     0.000 G0
ENDBRANCH  13  17
ENDBRANCH  11  13
ENDBRANCH  10  11
ENDBRANCH   1  10
TORSDOF 0
ENDMDL
