MODEL 1
REMARK VINA RESULT:    -3.274      0.000      0.000
REMARK INTER + INTRA:          -3.668
REMARK INTER:                  -3.656
REMARK INTRA:                  -0.012
REMARK UNBOUND:                -0.012
REMARK SMILES CCCC(=O)[O-]
REMARK SMILES IDX 3 1 4 2 5 3 6 4 2 5 1 6
REMARK H PARENT
REMARK Flexibility Score: inf
ROOT
ATOM      1  C   UNL     1      -9.853  37.178   5.479  1.00  0.00     0.052 C 
ENDROOT
BRANCH   1   2
ATOM      2  C   UNL     1      -9.787  38.632   5.827  1.00  0.00     0.041 C 
ATOM      3  O   UNL     1     -10.774  39.382   5.606  1.00  0.00    -0.550 OA
ATOM      4  O   UNL     1      -8.618  39.169   6.353  1.00  0.00    -0.550 OA
ENDBRANCH   1   2
BRANCH   1   5
ATOM      5  C   UNL     1      -8.480  36.524   5.652  1.00  0.00     0.003 C 
ATOM      6  C   UNL     1      -8.604  35.008   5.780  1.00  0.00     0.004 C 
ENDBRANCH   1   5
TORSDOF 2
ENDMDL
MODEL 2
REMARK VINA RESULT:    -3.267     11.072     12.252
REMARK INTER + INTRA:          -3.661
REMARK INTER:                  -3.617
REMARK INTRA:                  -0.044
REMARK UNBOUND:                -0.012
REMARK SMILES CCCC(=O)[O-]
REMARK SMILES IDX 3 1 4 2 5 3 6 4 2 5 1 6
REMARK H PARENT
REMARK Flexibility Score: inf
ROOT
ATOM      1  C   UNL     1      -2.062  28.029   8.128  1.00  0.00     0.052 C 
ENDROOT
BRANCH   1   2
ATOM      2  C   UNL     1      -2.774  27.377   9.270  1.00  0.00     0.041 C 
ATOM      3  O   UNL     1      -3.919  26.882   9.103  1.00  0.00    -0.550 OA
ATOM      4  O   UNL     1      -2.193  27.358  10.532  1.00  0.00    -0.550 OA
ENDBRANCH   1   2
BRANCH   1   5
ATOM      5  C   UNL     1      -3.065  28.694   7.181  1.00  0.00     0.003 C 
ATOM      6  C   UNL     1      -3.304  30.151   7.566  1.00  0.00     0.004 C 
ENDBRANCH   1   5
TORSDOF 2
ENDMDL
MODEL 3
REMARK VINA RESULT:    -3.233      0.859      1.668
REMARK INTER + INTRA:          -3.623
REMARK INTER:                  -3.615
REMARK INTRA:                  -0.008
REMARK UNBOUND:                -0.012
REMARK SMILES CCCC(=O)[O-]
REMARK SMILES IDX 3 1 4 2 5 3 6 4 2 5 1 6
REMARK H PARENT
REMARK Flexibility Score: inf
ROOT
ATOM      1  C   UNL     1      -8.350  37.246   5.758  1.00  0.00     0.052 C 
ENDROOT
BRANCH   1   2
ATOM      2  C   UNL     1      -8.753  38.644   6.107  1.00  0.00     0.041 C 
ATOM      3  O   UNL     1      -7.963  39.392   6.739  1.00  0.00    -0.550 OA
ATOM      4  O   UNL     1     -10.021  39.105   5.775  1.00  0.00    -0.550 OA
ENDBRANCH   1   2
BRANCH   1   5
ATOM      5  C   UNL     1      -9.560  36.309   5.820  1.00  0.00     0.003 C 
ATOM      6  C   UNL     1      -9.140  34.891   6.195  1.00  0.00     0.004 C 
ENDBRANCH   1   5
TORSDOF 2
ENDMDL
MODEL 4
REMARK VINA RESULT:    -3.212      2.188      3.593
REMARK INTER + INTRA:          -3.600
REMARK INTER:                  -3.594
REMARK INTRA:                  -0.006
REMARK UNBOUND:                -0.012
REMARK SMILES CCCC(=O)[O-]
REMARK SMILES IDX 3 1 4 2 5 3 6 4 2 5 1 6
REMARK H PARENT
REMARK Flexibility Score: inf
ROOT
ATOM      1  C   UNL     1     -10.466  38.941   5.660  1.00  0.00     0.052 C 
ENDROOT
BRANCH   1   2
ATOM      2  C   UNL     1      -9.238  38.488   6.385  1.00  0.00     0.041 C 
ATOM      3  O   UNL     1      -8.240  39.248   6.477  1.00  0.00    -0.550 OA
ATOM      4  O   UNL     1      -9.179  37.206   6.918  1.00  0.00    -0.550 OA
ENDBRANCH   1   2
BRANCH   1   5
ATOM      5  C   UNL     1     -11.590  39.252   6.653  1.00  0.00     0.003 C 
ATOM      6  C   UNL     1     -12.569  40.270   6.076  1.00  0.00     0.004 C 
ENDBRANCH   1   5
TORSDOF 2
ENDMDL
MODEL 5
REMARK VINA RESULT:    -3.210      1.714      3.077
REMARK INTER + INTRA:          -3.598
REMARK INTER:                  -3.558
REMARK INTRA:                  -0.040
REMARK UNBOUND:                -0.012
REMARK SMILES CCCC(=O)[O-]
REMARK SMILES IDX 3 1 4 2 5 3 6 4 2 5 1 6
REMARK H PARENT
REMARK Flexibility Score: inf
ROOT
ATOM      1  C   UNL     1     -10.093  37.458   5.370  1.00  0.00     0.052 C 
ENDROOT
BRANCH   1   2
ATOM      2  C   UNL     1      -8.664  37.212   5.739  1.00  0.00     0.041 C 
ATOM      3  O   UNL     1      -8.215  36.037   5.790  1.00  0.00    -0.550 OA
ATOM      4  O   UNL     1      -7.839  38.279   6.073  1.00  0.00    -0.550 OA
ENDBRANCH   1   2
BRANCH   1   5
ATOM      5  C   UNL     1     -10.482  38.907   5.674  1.00  0.00     0.003 C 
ATOM      6  C   UNL     1     -11.242  39.009   6.993  1.00  0.00     0.004 C 
ENDBRANCH   1   5
TORSDOF 2
ENDMDL
MODEL 6
REMARK VINA RESULT:    -3.178     10.804     11.820
REMARK INTER + INTRA:          -3.561
REMARK INTER:                  -3.524
REMARK INTRA:                  -0.038
REMARK UNBOUND:                -0.012
REMARK SMILES CCCC(=O)[O-]
REMARK SMILES IDX 3 1 4 2 5 3 6 4 2 5 1 6
REMARK H PARENT
REMARK Flexibility Score: inf
ROOT
ATOM      1  C   UNL     1      -3.256  27.433   7.882  1.00  0.00     0.052 C 
ENDROOT
BRANCH   1   2
ATOM      2  C   UNL     1      -3.193  28.770   7.213  1.00  0.00     0.041 C 
ATOM      3  O   UNL     1      -2.996  29.810   7.895  1.00  0.00    -0.550 OA
ATOM      4  O   UNL     1      -3.399  28.873   5.843  1.00  0.00    -0.550 OA
ENDBRANCH   1   2
BRANCH   1   5
ATOM      5  C   UNL     1      -2.004  27.199   8.732  1.00  0.00     0.003 C 
ATOM      6  C   UNL     1      -2.362  27.030  10.205  1.00  0.00     0.004 C 
ENDBRANCH   1   5
TORSDOF 2
ENDMDL
MODEL 7
REMARK VINA RESULT:    -3.065      2.385      3.324
REMARK INTER + INTRA:          -3.436
REMARK INTER:                  -3.367
REMARK INTRA:                  -0.069
REMARK UNBOUND:                -0.012
REMARK SMILES CCCC(=O)[O-]
REMARK SMILES IDX 3 1 4 2 5 3 6 4 2 5 1 6
REMARK H PARENT
REMARK Flexibility Score: inf
ROOT
ATOM      1  C   UNL     1      -8.584  37.103   5.697  1.00  0.00     0.052 C 
ENDROOT
BRANCH   1   2
ATOM      2  C   UNL     1      -9.544  36.108   6.267  1.00  0.00     0.041 C 
ATOM      3  O   UNL     1      -9.604  35.925   7.511  1.00  0.00    -0.550 OA
ATOM      4  O   UNL     1     -10.339  35.345   5.420  1.00  0.00    -0.550 OA
ENDBRANCH   1   2
BRANCH   1   5
ATOM      5  C   UNL     1      -8.963  38.522   6.131  1.00  0.00     0.003 C 
ATOM      6  C   UNL     1     -10.367  38.886   5.656  1.00  0.00     0.004 C 
ENDBRANCH   1   5
TORSDOF 2
ENDMDL
MODEL 8
REMARK VINA RESULT:    -3.036     12.472     13.085
REMARK INTER + INTRA:          -3.403
REMARK INTER:                  -3.367
REMARK INTRA:                  -0.036
REMARK UNBOUND:                -0.012
REMARK SMILES CCCC(=O)[O-]
REMARK SMILES IDX 3 1 4 2 5 3 6 4 2 5 1 6
REMARK H PARENT
REMARK Flexibility Score: inf
ROOT
ATOM      1  C   UNL     1      -0.415  43.867  -0.512  1.00  0.00     0.052 C 
ENDROOT
BRANCH   1   2
ATOM      2  C   UNL     1      -0.282  42.391  -0.717  1.00  0.00     0.041 C 
ATOM      3  O   UNL     1      -0.863  41.588   0.059  1.00  0.00    -0.550 OA
ATOM      4  O   UNL     1       0.525  41.901  -1.737  1.00  0.00    -0.550 OA
ENDBRANCH   1   2
BRANCH   1   5
ATOM      5  C   UNL     1      -1.123  44.512  -1.707  1.00  0.00     0.003 C 
ATOM      6  C   UNL     1      -0.204  45.496  -2.425  1.00  0.00     0.004 C 
ENDBRANCH   1   5
TORSDOF 2
ENDMDL
MODEL 9
REMARK VINA RESULT:    -2.912      3.676      4.436
REMARK INTER + INTRA:          -3.265
REMARK INTER:                  -3.260
REMARK INTRA:                  -0.006
REMARK UNBOUND:                -0.012
REMARK SMILES CCCC(=O)[O-]
REMARK SMILES IDX 3 1 4 2 5 3 6 4 2 5 1 6
REMARK H PARENT
REMARK Flexibility Score: inf
ROOT
ATOM      1  C   UNL     1      -8.911  34.911   5.929  1.00  0.00     0.052 C 
ENDROOT
BRANCH   1   2
ATOM      2  C   UNL     1      -7.970  33.892   5.368  1.00  0.00     0.041 C 
ATOM      3  O   UNL     1      -8.399  32.983   4.610  1.00  0.00    -0.550 OA
ATOM      4  O   UNL     1      -6.627  33.917   5.722  1.00  0.00    -0.550 OA
ENDBRANCH   1   2
BRANCH   1   5
ATOM      5  C   UNL     1      -8.410  36.326   5.627  1.00  0.00     0.003 C 
ATOM      6  C   UNL     1      -9.558  37.331   5.638  1.00  0.00     0.004 C 
ENDBRANCH   1   5
TORSDOF 2
ENDMDL
