MODEL 1
REMARK VINA RESULT:    -3.005      0.000      0.000
REMARK INTER + INTRA:          -3.827
REMARK INTER:                  -4.587
REMARK INTRA:                   0.760
REMARK UNBOUND:                 0.760
REMARK SMILES CC1=CCC[C@H](C)C(=O)C[C@@H](C(C)C)C(=O)C1
REMARK SMILES IDX 8 1 9 2 6 3 7 4 5 5 4 6 3 7 2 8 1 9 10 11 11 12 15 13 16 14
REMARK SMILES IDX 17 15 12 17 13 18 14 19
REMARK H PARENT
REMARK Flexibility Score: 70.00
ROOT
ATOM      1  C   UNL     1      -5.025 -14.147  -8.318  1.00  0.00     0.136 C 
ATOM      2  O   UNL     1      -6.003 -14.509  -8.953  1.00  0.00    -0.299 OA
ENDROOT
BRANCH   1   3
ATOM      3  C   UNL     1      -5.139 -14.051  -6.804  1.00  0.00     0.053 C 
ATOM      4  C   UNL     1      -6.344 -13.197  -6.391  1.00  0.00     0.016 C 
BRANCH   3   5
ATOM      5  C   UNL     1      -5.192 -15.445  -6.147  1.00  0.00     0.015 C 
BRANCH   5   6
ATOM      6  C   UNL     1      -4.080 -16.360  -6.693  1.00  0.00     0.028 C 
BRANCH   6   7
ATOM      7  C   UNL     1      -2.861 -16.442  -5.809  1.00  0.00    -0.028 C 
ATOM      8  C   UNL     1      -1.789 -15.607  -5.828  1.00  0.00    -0.070 CG0
ATOM      9  C   UNL     1      -0.766 -15.783  -4.730  1.00  0.00     0.039 C 
ATOM     10  G   UNL     1      -1.486 -14.596  -6.932  1.00  0.00     0.000 G0
ENDBRANCH   6   7
ENDBRANCH   5   6
ENDBRANCH   3   5
ENDBRANCH   1   3
BRANCH   1  11
ATOM     11  C   UNL     1      -3.731 -13.843  -9.048  1.00  0.00     0.087 C 
BRANCH  11  12
ATOM     12  C   UNL     1      -2.775 -12.836  -8.346  1.00  0.00     0.066 C 
BRANCH  12  13
ATOM     13  C   UNL     1      -2.270 -13.317  -6.990  1.00  0.00     0.140 C 
ATOM     14  O   UNL     1      -2.442 -12.643  -5.986  1.00  0.00    -0.299 OA
BRANCH  13  15
ATOM     15  C   UNL     1      -1.438 -14.574  -6.919  1.00  0.00     0.106 CG0
ATOM     16  G   UNL     1      -1.806 -15.559  -5.812  1.00  0.00     0.000 G0
ENDBRANCH  13  15
ENDBRANCH  12  13
BRANCH  12  17
ATOM     17  C   UNL     1      -3.258 -11.350  -8.389  1.00  0.00    -0.006 C 
ATOM     18  C   UNL     1      -4.675 -11.228  -8.973  1.00  0.00     0.008 C 
ATOM     19  C   UNL     1      -2.300 -10.381  -9.098  1.00  0.00     0.008 C 
ENDBRANCH  12  17
ENDBRANCH  11  12
ENDBRANCH   1  11
TORSDOF 1
ENDMDL
MODEL 2
REMARK VINA RESULT:    -2.814      1.615      3.411
REMARK INTER + INTRA:          -3.534
REMARK INTER:                  -4.229
REMARK INTRA:                   0.695
REMARK UNBOUND:                 0.760
REMARK SMILES CC1=CCC[C@H](C)C(=O)C[C@@H](C(C)C)C(=O)C1
REMARK SMILES IDX 8 1 9 2 6 3 7 4 5 5 4 6 3 7 2 8 1 9 10 11 11 12 15 13 16 14
REMARK SMILES IDX 17 15 12 17 13 18 14 19
REMARK H PARENT
REMARK Flexibility Score: 70.00
ROOT
ATOM      1  C   UNL     1      -4.821 -12.176  -7.588  1.00  0.00     0.136 C 
ATOM      2  O   UNL     1      -5.606 -11.296  -7.903  1.00  0.00    -0.299 OA
ENDROOT
BRANCH   1   3
ATOM      3  C   UNL     1      -3.450 -12.194  -8.247  1.00  0.00     0.053 C 
ATOM      4  C   UNL     1      -3.135 -10.847  -8.910  1.00  0.00     0.016 C 
BRANCH   3   5
ATOM      5  C   UNL     1      -2.345 -12.596  -7.250  1.00  0.00     0.015 C 
BRANCH   5   6
ATOM      6  C   UNL     1      -1.556 -13.818  -7.758  1.00  0.00     0.028 C 
BRANCH   6   7
ATOM      7  C   UNL     1      -1.060 -14.729  -6.663  1.00  0.00    -0.028 C 
ATOM      8  C   UNL     1      -1.813 -15.319  -5.698  1.00  0.00    -0.070 CG0
ATOM      9  C   UNL     1      -1.121 -16.329  -4.814  1.00  0.00     0.039 C 
ATOM     10  G   UNL     1      -3.258 -14.952  -5.369  1.00  0.00     0.000 G0
ENDBRANCH   6   7
ENDBRANCH   5   6
ENDBRANCH   3   5
ENDBRANCH   1   3
BRANCH   1  11
ATOM     11  C   UNL     1      -5.221 -13.191  -6.535  1.00  0.00     0.087 C 
BRANCH  11  12
ATOM     12  C   UNL     1      -5.280 -14.673  -7.007  1.00  0.00     0.066 C 
BRANCH  12  13
ATOM     13  C   UNL     1      -4.294 -15.585  -6.284  1.00  0.00     0.140 C 
ATOM     14  O   UNL     1      -4.397 -16.799  -6.359  1.00  0.00    -0.299 OA
BRANCH  13  15
ATOM     15  C   UNL     1      -3.263 -14.972  -5.367  1.00  0.00     0.106 CG0
ATOM     16  G   UNL     1      -1.807 -15.315  -5.672  1.00  0.00     0.000 G0
ENDBRANCH  13  15
ENDBRANCH  12  13
BRANCH  12  17
ATOM     17  C   UNL     1      -5.340 -14.854  -8.559  1.00  0.00    -0.006 C 
ATOM     18  C   UNL     1      -6.727 -14.500  -9.121  1.00  0.00     0.008 C 
ATOM     19  C   UNL     1      -4.893 -16.235  -9.064  1.00  0.00     0.008 C 
ENDBRANCH  12  17
ENDBRANCH  11  12
ENDBRANCH   1  11
TORSDOF 1
ENDMDL
MODEL 3
REMARK VINA RESULT:    -2.646      1.797      3.587
REMARK INTER + INTRA:          -3.278
REMARK INTER:                  -4.545
REMARK INTRA:                   1.267
REMARK UNBOUND:                 0.760
REMARK SMILES CC1=CCC[C@H](C)C(=O)C[C@@H](C(C)C)C(=O)C1
REMARK SMILES IDX 8 1 9 2 6 3 7 4 5 5 4 6 3 7 2 8 1 9 10 11 11 12 15 13 16 14
REMARK SMILES IDX 17 15 12 17 13 18 14 19
REMARK H PARENT
REMARK Flexibility Score: 70.00
ROOT
ATOM      1  C   UNL     1      -1.537 -14.557  -6.549  1.00  0.00     0.136 C 
ATOM      2  O   UNL     1      -0.555 -13.919  -6.206  1.00  0.00    -0.299 OA
ENDROOT
BRANCH   1   3
ATOM      3  C   UNL     1      -1.947 -15.761  -5.715  1.00  0.00     0.053 C 
ATOM      4  C   UNL     1      -0.782 -16.261  -4.852  1.00  0.00     0.016 C 
BRANCH   3   5
ATOM      5  C   UNL     1      -3.190 -15.460  -4.854  1.00  0.00     0.015 C 
BRANCH   5   6
ATOM      6  C   UNL     1      -4.374 -16.361  -5.251  1.00  0.00     0.028 C 
BRANCH   6   7
ATOM      7  C   UNL     1      -4.487 -16.610  -6.734  1.00  0.00    -0.028 C 
ATOM      8  C   UNL     1      -4.846 -15.706  -7.682  1.00  0.00    -0.070 CG0
ATOM      9  C   UNL     1      -4.721 -16.140  -9.124  1.00  0.00     0.039 C 
ATOM     10  G   UNL     1      -5.473 -14.342  -7.398  1.00  0.00     0.000 G0
ENDBRANCH   6   7
ENDBRANCH   5   6
ENDBRANCH   3   5
ENDBRANCH   1   3
BRANCH   1  11
ATOM     11  C   UNL     1      -2.330 -14.112  -7.763  1.00  0.00     0.087 C 
BRANCH  11  12
ATOM     12  C   UNL     1      -3.297 -12.913  -7.541  1.00  0.00     0.066 C 
BRANCH  12  13
ATOM     13  C   UNL     1      -4.583 -13.291  -6.816  1.00  0.00     0.140 C 
ATOM     14  O   UNL     1      -4.833 -12.837  -5.710  1.00  0.00    -0.299 OA
BRANCH  13  15
ATOM     15  C   UNL     1      -5.487 -14.338  -7.420  1.00  0.00     0.106 CG0
ATOM     16  G   UNL     1      -4.848 -15.697  -7.695  1.00  0.00     0.000 G0
ENDBRANCH  13  15
ENDBRANCH  12  13
BRANCH  12  17
ATOM     17  C   UNL     1      -3.482 -11.993  -8.791  1.00  0.00    -0.006 C 
ATOM     18  C   UNL     1      -2.532 -10.784  -8.756  1.00  0.00     0.008 C 
ATOM     19  C   UNL     1      -4.927 -11.533  -9.044  1.00  0.00     0.008 C 
ENDBRANCH  12  17
ENDBRANCH  11  12
ENDBRANCH   1  11
TORSDOF 1
ENDMDL
MODEL 4
REMARK VINA RESULT:    -2.612      1.991      3.890
REMARK INTER + INTRA:          -3.226
REMARK INTER:                  -3.725
REMARK INTRA:                   0.499
REMARK UNBOUND:                 0.760
REMARK SMILES CC1=CCC[C@H](C)C(=O)C[C@@H](C(C)C)C(=O)C1
REMARK SMILES IDX 8 1 9 2 6 3 7 4 5 5 4 6 3 7 2 8 1 9 10 11 11 12 15 13 16 14
REMARK SMILES IDX 17 15 12 17 13 18 14 19
REMARK H PARENT
REMARK Flexibility Score: 70.00
ROOT
ATOM      1  C   UNL     1      -2.851 -12.937  -7.411  1.00  0.00     0.136 C 
ATOM      2  O   UNL     1      -2.655 -11.776  -7.086  1.00  0.00    -0.299 OA
ENDROOT
BRANCH   1   3
ATOM      3  C   UNL     1      -4.181 -13.296  -8.055  1.00  0.00     0.053 C 
ATOM      4  C   UNL     1      -4.774 -12.099  -8.808  1.00  0.00     0.016 C 
BRANCH   3   5
ATOM      5  C   UNL     1      -4.054 -14.526  -8.976  1.00  0.00     0.015 C 
BRANCH   5   6
ATOM      6  C   UNL     1      -5.017 -15.647  -8.543  1.00  0.00     0.028 C 
BRANCH   6   7
ATOM      7  C   UNL     1      -4.368 -16.737  -7.729  1.00  0.00    -0.028 C 
ATOM      8  C   UNL     1      -4.219 -16.760  -6.378  1.00  0.00    -0.070 CG0
ATOM      9  C   UNL     1      -3.691 -18.038  -5.770  1.00  0.00     0.039 C 
ATOM     10  G   UNL     1      -4.429 -15.563  -5.454  1.00  0.00     0.000 G0
ENDBRANCH   6   7
ENDBRANCH   5   6
ENDBRANCH   3   5
ENDBRANCH   1   3
BRANCH   1  11
ATOM     11  C   UNL     1      -1.757 -13.966  -7.196  1.00  0.00     0.087 C 
BRANCH  11  12
ATOM     12  C   UNL     1      -1.957 -14.929  -5.990  1.00  0.00     0.066 C 
BRANCH  12  13
ATOM     13  C   UNL     1      -3.244 -14.676  -5.213  1.00  0.00     0.140 C 
ATOM     14  O   UNL     1      -3.285 -13.832  -4.331  1.00  0.00    -0.299 OA
BRANCH  13  15
ATOM     15  C   UNL     1      -4.436 -15.570  -5.454  1.00  0.00     0.106 CG0
ATOM     16  G   UNL     1      -4.205 -16.759  -6.383  1.00  0.00     0.000 G0
ENDBRANCH  13  15
ENDBRANCH  12  13
BRANCH  12  17
ATOM     17  C   UNL     1      -0.680 -15.140  -5.113  1.00  0.00    -0.006 C 
ATOM     18  C   UNL     1       0.577 -14.570  -5.791  1.00  0.00     0.008 C 
ATOM     19  C   UNL     1      -0.438 -16.590  -4.666  1.00  0.00     0.008 C 
ENDBRANCH  12  17
ENDBRANCH  11  12
ENDBRANCH   1  11
TORSDOF 1
ENDMDL
MODEL 5
REMARK VINA RESULT:    -2.316      1.666      4.090
REMARK INTER + INTRA:          -2.775
REMARK INTER:                  -4.622
REMARK INTRA:                   1.847
REMARK UNBOUND:                 0.760
REMARK SMILES CC1=CCC[C@H](C)C(=O)C[C@@H](C(C)C)C(=O)C1
REMARK SMILES IDX 8 1 9 2 6 3 7 4 5 5 4 6 3 7 2 8 1 9 10 11 11 12 15 13 16 14
REMARK SMILES IDX 17 15 12 17 13 18 14 19
REMARK H PARENT
REMARK Flexibility Score: 70.00
ROOT
ATOM      1  C   UNL     1      -4.883 -15.042  -7.845  1.00  0.00     0.136 C 
ATOM      2  O   UNL     1      -4.123 -15.835  -8.377  1.00  0.00    -0.299 OA
ENDROOT
BRANCH   1   3
ATOM      3  C   UNL     1      -5.282 -13.791  -8.614  1.00  0.00     0.053 C 
ATOM      4  C   UNL     1      -6.725 -13.890  -9.125  1.00  0.00     0.016 C 
BRANCH   3   5
ATOM      5  C   UNL     1      -5.074 -12.516  -7.774  1.00  0.00     0.015 C 
BRANCH   5   6
ATOM      6  C   UNL     1      -3.727 -11.845  -8.104  1.00  0.00     0.028 C 
BRANCH   6   7
ATOM      7  C   UNL     1      -2.522 -12.671  -7.733  1.00  0.00    -0.028 C 
ATOM      8  C   UNL     1      -2.401 -13.490  -6.655  1.00  0.00    -0.070 CG0
ATOM      9  C   UNL     1      -1.161 -14.350  -6.585  1.00  0.00     0.039 C 
ATOM     10  G   UNL     1      -3.357 -13.516  -5.465  1.00  0.00     0.000 G0
ENDBRANCH   6   7
ENDBRANCH   5   6
ENDBRANCH   3   5
ENDBRANCH   1   3
BRANCH   1  11
ATOM     11  C   UNL     1      -5.430 -15.344  -6.463  1.00  0.00     0.087 C 
BRANCH  11  12
ATOM     12  C   UNL     1      -4.407 -15.918  -5.439  1.00  0.00     0.066 C 
BRANCH  12  13
ATOM     13  C   UNL     1      -3.550 -14.850  -4.768  1.00  0.00     0.140 C 
ATOM     14  O   UNL     1      -3.100 -15.025  -3.646  1.00  0.00    -0.299 OA
BRANCH  13  15
ATOM     15  C   UNL     1      -3.369 -13.516  -5.451  1.00  0.00     0.106 CG0
ATOM     16  G   UNL     1      -2.415 -13.497  -6.643  1.00  0.00     0.000 G0
ENDBRANCH  13  15
ENDBRANCH  12  13
BRANCH  12  17
ATOM     17  C   UNL     1      -3.630 -17.178  -5.939  1.00  0.00    -0.006 C 
ATOM     18  C   UNL     1      -4.385 -18.479  -5.616  1.00  0.00     0.008 C 
ATOM     19  C   UNL     1      -2.173 -17.270  -5.460  1.00  0.00     0.008 C 
ENDBRANCH  12  17
ENDBRANCH  11  12
ENDBRANCH   1  11
TORSDOF 1
ENDMDL
MODEL 6
REMARK VINA RESULT:    -2.222      2.032      5.034
REMARK INTER + INTRA:          -2.631
REMARK INTER:                  -3.185
REMARK INTRA:                   0.554
REMARK UNBOUND:                 0.760
REMARK SMILES CC1=CCC[C@H](C)C(=O)C[C@@H](C(C)C)C(=O)C1
REMARK SMILES IDX 8 1 9 2 6 3 7 4 5 5 4 6 3 7 2 8 1 9 10 11 11 12 15 13 16 14
REMARK SMILES IDX 17 15 12 17 13 18 14 19
REMARK H PARENT
REMARK Flexibility Score: 70.00
ROOT
ATOM      1  C   UNL     1      -2.525 -12.822  -6.619  1.00  0.00     0.136 C 
ATOM      2  O   UNL     1      -2.117 -12.824  -5.468  1.00  0.00    -0.299 OA
ENDROOT
BRANCH   1   3
ATOM      3  C   UNL     1      -3.247 -11.585  -7.129  1.00  0.00     0.053 C 
ATOM      4  C   UNL     1      -2.582 -11.038  -8.399  1.00  0.00     0.016 C 
BRANCH   3   5
ATOM      5  C   UNL     1      -4.748 -11.856  -7.359  1.00  0.00     0.015 C 
BRANCH   5   6
ATOM      6  C   UNL     1      -5.053 -12.065  -8.854  1.00  0.00     0.028 C 
BRANCH   6   7
ATOM      7  C   UNL     1      -6.212 -12.992  -9.121  1.00  0.00    -0.028 C 
ATOM      8  C   UNL     1      -6.225 -14.341  -8.959  1.00  0.00    -0.070 CG0
ATOM      9  C   UNL     1      -7.555 -15.037  -9.125  1.00  0.00     0.039 C 
ATOM     10  G   UNL     1      -4.986 -15.208  -8.744  1.00  0.00     0.000 G0
ENDBRANCH   6   7
ENDBRANCH   5   6
ENDBRANCH   3   5
ENDBRANCH   1   3
BRANCH   1  11
ATOM     11  C   UNL     1      -2.269 -14.027  -7.503  1.00  0.00     0.087 C 
BRANCH  11  12
ATOM     12  C   UNL     1      -2.977 -15.346  -7.076  1.00  0.00     0.066 C 
BRANCH  12  13
ATOM     13  C   UNL     1      -4.482 -15.339  -7.320  1.00  0.00     0.140 C 
ATOM     14  O   UNL     1      -5.264 -15.531  -6.401  1.00  0.00    -0.299 OA
BRANCH  13  15
ATOM     15  C   UNL     1      -4.997 -15.222  -8.734  1.00  0.00     0.106 CG0
ATOM     16  G   UNL     1      -6.200 -14.303  -8.935  1.00  0.00     0.000 G0
ENDBRANCH  13  15
ENDBRANCH  12  13
BRANCH  12  17
ATOM     17  C   UNL     1      -2.531 -15.896  -5.683  1.00  0.00    -0.006 C 
ATOM     18  C   UNL     1      -1.017 -15.734  -5.464  1.00  0.00     0.008 C 
ATOM     19  C   UNL     1      -2.963 -17.342  -5.392  1.00  0.00     0.008 C 
ENDBRANCH  12  17
ENDBRANCH  11  12
ENDBRANCH   1  11
TORSDOF 1
ENDMDL
MODEL 7
REMARK VINA RESULT:    -2.030      1.995      4.822
REMARK INTER + INTRA:          -2.338
REMARK INTER:                  -3.025
REMARK INTRA:                   0.687
REMARK UNBOUND:                 0.760
REMARK SMILES CC1=CCC[C@H](C)C(=O)C[C@@H](C(C)C)C(=O)C1
REMARK SMILES IDX 8 1 9 2 6 3 7 4 5 5 4 6 3 7 2 8 1 9 10 11 11 12 15 13 16 14
REMARK SMILES IDX 17 15 12 17 13 18 14 19
REMARK H PARENT
REMARK Flexibility Score: 70.00
ROOT
ATOM      1  C   UNL     1      -2.440 -12.821  -7.843  1.00  0.00     0.136 C 
ATOM      2  O   UNL     1      -1.989 -13.262  -8.889  1.00  0.00    -0.299 OA
ENDROOT
BRANCH   1   3
ATOM      3  C   UNL     1      -3.157 -11.480  -7.871  1.00  0.00     0.053 C 
ATOM      4  C   UNL     1      -2.164 -10.317  -7.756  1.00  0.00     0.016 C 
BRANCH   3   5
ATOM      5  C   UNL     1      -4.044 -11.334  -9.124  1.00  0.00     0.015 C 
BRANCH   5   6
ATOM      6  C   UNL     1      -5.297 -12.223  -9.025  1.00  0.00     0.028 C 
BRANCH   6   7
ATOM      7  C   UNL     1      -5.979 -12.179  -7.681  1.00  0.00    -0.028 C 
ATOM      8  C   UNL     1      -5.970 -13.155  -6.736  1.00  0.00    -0.070 CG0
ATOM      9  C   UNL     1      -6.580 -12.815  -5.396  1.00  0.00     0.039 C 
ATOM     10  G   UNL     1      -5.505 -14.591  -6.966  1.00  0.00     0.000 G0
ENDBRANCH   6   7
ENDBRANCH   5   6
ENDBRANCH   3   5
ENDBRANCH   1   3
BRANCH   1  11
ATOM     11  C   UNL     1      -2.305 -13.635  -6.571  1.00  0.00     0.087 C 
BRANCH  11  12
ATOM     12  C   UNL     1      -2.944 -15.053  -6.600  1.00  0.00     0.066 C 
BRANCH  12  13
ATOM     13  C   UNL     1      -4.379 -15.088  -6.084  1.00  0.00     0.140 C 
ATOM     14  O   UNL     1      -4.643 -15.601  -5.008  1.00  0.00    -0.299 OA
BRANCH  13  15
ATOM     15  C   UNL     1      -5.493 -14.597  -6.977  1.00  0.00     0.106 CG0
ATOM     16  G   UNL     1      -5.971 -13.169  -6.727  1.00  0.00     0.000 G0
ENDBRANCH  13  15
ENDBRANCH  12  13
BRANCH  12  17
ATOM     17  C   UNL     1      -2.016 -16.191  -6.064  1.00  0.00    -0.006 C 
ATOM     18  C   UNL     1      -2.826 -17.378  -5.516  1.00  0.00     0.008 C 
ATOM     19  C   UNL     1      -0.968 -15.737  -5.036  1.00  0.00     0.008 C 
ENDBRANCH  12  17
ENDBRANCH  11  12
ENDBRANCH   1  11
TORSDOF 1
ENDMDL
MODEL 8
REMARK VINA RESULT:    -1.870      2.103      5.568
REMARK INTER + INTRA:          -2.093
REMARK INTER:                  -2.191
REMARK INTRA:                   0.097
REMARK UNBOUND:                 0.760
REMARK SMILES CC1=CCC[C@H](C)C(=O)C[C@@H](C(C)C)C(=O)C1
REMARK SMILES IDX 8 1 9 2 6 3 7 4 5 5 4 6 3 7 2 8 1 9 10 11 11 12 15 13 16 14
REMARK SMILES IDX 17 15 12 17 13 18 14 19
REMARK H PARENT
REMARK Flexibility Score: 70.00
ROOT
ATOM      1  C   UNL     1      -1.463 -15.609  -5.336  1.00  0.00     0.136 C 
ATOM      2  O   UNL     1      -0.661 -16.442  -4.943  1.00  0.00    -0.299 OA
ENDROOT
BRANCH   1   3
ATOM      3  C   UNL     1      -0.931 -14.331  -5.966  1.00  0.00     0.053 C 
ATOM      4  C   UNL     1       0.583 -14.415  -6.200  1.00  0.00     0.016 C 
BRANCH   3   5
ATOM      5  C   UNL     1      -1.678 -13.985  -7.270  1.00  0.00     0.015 C 
BRANCH   5   6
ATOM      6  C   UNL     1      -2.625 -12.788  -7.068  1.00  0.00     0.028 C 
BRANCH   6   7
ATOM      7  C   UNL     1      -3.828 -12.795  -7.977  1.00  0.00    -0.028 C 
ATOM      8  C   UNL     1      -4.952 -13.544  -7.828  1.00  0.00    -0.070 CG0
ATOM      9  C   UNL     1      -6.097 -13.253  -8.769  1.00  0.00     0.039 C 
ATOM     10  G   UNL     1      -5.096 -14.724  -6.870  1.00  0.00     0.000 G0
ENDBRANCH   6   7
ENDBRANCH   5   6
ENDBRANCH   3   5
ENDBRANCH   1   3
BRANCH   1  11
ATOM     11  C   UNL     1      -2.949 -15.890  -5.217  1.00  0.00     0.087 C 
BRANCH  11  12
ATOM     12  C   UNL     1      -3.562 -16.784  -6.333  1.00  0.00     0.066 C 
BRANCH  12  13
ATOM     13  C   UNL     1      -4.449 -16.019  -7.310  1.00  0.00     0.140 C 
ATOM     14  O   UNL     1      -4.552 -16.379  -8.473  1.00  0.00    -0.299 OA
BRANCH  13  15
ATOM     15  C   UNL     1      -5.099 -14.733  -6.861  1.00  0.00     0.106 CG0
ATOM     16  G   UNL     1      -4.968 -13.548  -7.815  1.00  0.00     0.000 G0
ENDBRANCH  13  15
ENDBRANCH  12  13
BRANCH  12  17
ATOM     17  C   UNL     1      -4.147 -18.141  -5.824  1.00  0.00    -0.006 C 
ATOM     18  C   UNL     1      -5.143 -17.936  -4.670  1.00  0.00     0.008 C 
ATOM     19  C   UNL     1      -3.095 -19.194  -5.443  1.00  0.00     0.008 C 
ENDBRANCH  12  17
ENDBRANCH  11  12
ENDBRANCH   1  11
TORSDOF 1
ENDMDL
MODEL 9
REMARK VINA RESULT:    -1.758      1.666      4.142
REMARK INTER + INTRA:          -1.922
REMARK INTER:                  -2.818
REMARK INTRA:                   0.896
REMARK UNBOUND:                 0.760
REMARK SMILES CC1=CCC[C@H](C)C(=O)C[C@@H](C(C)C)C(=O)C1
REMARK SMILES IDX 8 1 9 2 6 3 7 4 5 5 4 6 3 7 2 8 1 9 10 11 11 12 15 13 16 14
REMARK SMILES IDX 17 15 12 17 13 18 14 19
REMARK H PARENT
REMARK Flexibility Score: 70.00
ROOT
ATOM      1  C   UNL     1      -5.966 -13.097  -6.773  1.00  0.00     0.136 C 
ATOM      2  O   UNL     1      -6.365 -12.159  -6.101  1.00  0.00    -0.299 OA
ENDROOT
BRANCH   1   3
ATOM      3  C   UNL     1      -5.607 -12.846  -8.229  1.00  0.00     0.053 C 
ATOM      4  C   UNL     1      -6.851 -12.904  -9.125  1.00  0.00     0.016 C 
BRANCH   3   5
ATOM      5  C   UNL     1      -4.852 -11.514  -8.408  1.00  0.00     0.015 C 
BRANCH   5   6
ATOM      6  C   UNL     1      -3.393 -11.755  -8.837  1.00  0.00     0.028 C 
BRANCH   6   7
ATOM      7  C   UNL     1      -2.540 -12.406  -7.778  1.00  0.00    -0.028 C 
ATOM      8  C   UNL     1      -2.235 -13.727  -7.682  1.00  0.00    -0.070 CG0
ATOM      9  C   UNL     1      -1.221 -14.121  -6.635  1.00  0.00     0.039 C 
ATOM     10  G   UNL     1      -2.924 -14.842  -8.466  1.00  0.00     0.000 G0
ENDBRANCH   6   7
ENDBRANCH   5   6
ENDBRANCH   3   5
ENDBRANCH   1   3
BRANCH   1  11
ATOM     11  C   UNL     1      -5.808 -14.462  -6.129  1.00  0.00     0.087 C 
BRANCH  11  12
ATOM     12  C   UNL     1      -4.440 -15.168  -6.361  1.00  0.00     0.066 C 
BRANCH  12  13
ATOM     13  C   UNL     1      -4.140 -15.450  -7.829  1.00  0.00     0.140 C 
ATOM     14  O   UNL     1      -4.811 -16.252  -8.460  1.00  0.00    -0.299 OA
BRANCH  13  15
ATOM     15  C   UNL     1      -2.920 -14.826  -8.463  1.00  0.00     0.106 CG0
ATOM     16  G   UNL     1      -2.238 -13.723  -7.657  1.00  0.00     0.000 G0
ENDBRANCH  13  15
ENDBRANCH  12  13
BRANCH  12  17
ATOM     17  C   UNL     1      -4.151 -16.352  -5.382  1.00  0.00    -0.006 C 
ATOM     18  C   UNL     1      -4.114 -15.885  -3.917  1.00  0.00     0.008 C 
ATOM     19  C   UNL     1      -2.895 -17.172  -5.715  1.00  0.00     0.008 C 
ENDBRANCH  12  17
ENDBRANCH  11  12
ENDBRANCH   1  11
TORSDOF 1
ENDMDL
