MODEL 1
REMARK VINA RESULT:    27.007      0.000      0.000
REMARK INTER + INTRA:          27.007
REMARK INTER:                  27.007
REMARK INTRA:                   0.000
REMARK UNBOUND:                 0.000
REMARK SMILES C=C1CCCC(C)(C)[C@@]12CC=C(C)CC2
REMARK SMILES IDX 13 1 12 2 11 3 10 4 9 5 15 6 14 7 2 8 1 9 3 10 4 11 5 12
REMARK SMILES IDX 6 13 7 14 8 15
REMARK H PARENT
REMARK Flexibility Score: inf
ROOT
ATOM      1  C   UNL     1      13.672   9.887 -11.586  1.00  0.00     0.039 C 
ATOM      2  C   UNL     1      13.136   9.226 -10.346  1.00  0.00    -0.077 C 
ATOM      3  C   UNL     1      13.075   7.881 -10.292  1.00  0.00    -0.027 C 
ATOM      4  C   UNL     1      12.574   7.122  -9.085  1.00  0.00     0.039 C 
ATOM      5  C   UNL     1      11.647   7.964  -8.139  1.00  0.00    -0.000 C 
ATOM      6  C   UNL     1      12.384   9.324  -7.927  1.00  0.00     0.017 C 
ATOM      7  C   UNL     1      12.567  10.092  -9.244  1.00  0.00     0.031 C 
ATOM      8  C   UNL     1      10.251   8.245  -8.761  1.00  0.00    -0.070 C 
ATOM      9  C   UNL     1       9.884   7.875 -10.007  1.00  0.00     0.008 C 
ATOM     10  C   UNL     1       9.236   8.970  -7.906  1.00  0.00     0.031 C 
ATOM     11  C   UNL     1       9.020   8.211  -6.602  1.00  0.00     0.005 C 
ATOM     12  C   UNL     1      10.347   7.961  -5.875  1.00  0.00     0.008 C 
ATOM     13  C   UNL     1      11.407   7.209  -6.746  1.00  0.00    -0.026 C 
ATOM     14  C   UNL     1      10.907   5.757  -6.987  1.00  0.00     0.012 C 
ATOM     15  C   UNL     1      12.690   7.104  -5.875  1.00  0.00     0.012 C 
ENDROOT
TORSDOF 0
ENDMDL
MODEL 2
REMARK VINA RESULT:    27.362     10.527     12.627
REMARK INTER + INTRA:          27.362
REMARK INTER:                  27.362
REMARK INTRA:                   0.000
REMARK UNBOUND:                 0.000
REMARK SMILES C=C1CCCC(C)(C)[C@@]12CC=C(C)CC2
REMARK SMILES IDX 13 1 12 2 11 3 10 4 9 5 15 6 14 7 2 8 1 9 3 10 4 11 5 12
REMARK SMILES IDX 6 13 7 14 8 15
REMARK H PARENT
REMARK Flexibility Score: inf
ROOT
ATOM      1  C   UNL     1      -2.924   6.465 -13.395  1.00  0.00     0.039 C 
ATOM      2  C   UNL     1      -1.906   6.005 -12.389  1.00  0.00    -0.077 C 
ATOM      3  C   UNL     1      -2.067   4.808 -11.791  1.00  0.00    -0.027 C 
ATOM      4  C   UNL     1      -1.089   4.246 -10.785  1.00  0.00     0.039 C 
ATOM      5  C   UNL     1      -0.195   5.331 -10.087  1.00  0.00    -0.000 C 
ATOM      6  C   UNL     1       0.340   6.241 -11.237  1.00  0.00     0.017 C 
ATOM      7  C   UNL     1      -0.796   6.950 -11.987  1.00  0.00     0.031 C 
ATOM      8  C   UNL     1      -0.992   6.211  -9.085  1.00  0.00    -0.070 C 
ATOM      9  C   UNL     1      -2.323   6.115  -8.877  1.00  0.00     0.008 C 
ATOM     10  C   UNL     1      -0.219   7.233  -8.281  1.00  0.00     0.031 C 
ATOM     11  C   UNL     1       0.901   6.546  -7.509  1.00  0.00     0.005 C 
ATOM     12  C   UNL     1       1.793   5.715  -8.439  1.00  0.00     0.008 C 
ATOM     13  C   UNL     1       1.008   4.651  -9.275  1.00  0.00    -0.026 C 
ATOM     14  C   UNL     1       0.470   3.561  -8.306  1.00  0.00     0.012 C 
ATOM     15  C   UNL     1       2.055   3.960 -10.193  1.00  0.00     0.012 C 
ENDROOT
TORSDOF 0
ENDMDL
MODEL 3
REMARK VINA RESULT:    28.426     10.495     12.772
REMARK INTER + INTRA:          28.426
REMARK INTER:                  28.426
REMARK INTRA:                   0.000
REMARK UNBOUND:                 0.000
REMARK SMILES C=C1CCCC(C)(C)[C@@]12CC=C(C)CC2
REMARK SMILES IDX 13 1 12 2 11 3 10 4 9 5 15 6 14 7 2 8 1 9 3 10 4 11 5 12
REMARK SMILES IDX 6 13 7 14 8 15
REMARK H PARENT
REMARK Flexibility Score: inf
ROOT
ATOM      1  C   UNL     1      -1.480   4.876 -14.404  1.00  0.00     0.039 C 
ATOM      2  C   UNL     1      -1.345   5.240 -12.951  1.00  0.00    -0.077 C 
ATOM      3  C   UNL     1      -1.498   6.527 -12.580  1.00  0.00    -0.027 C 
ATOM      4  C   UNL     1      -1.405   6.991 -11.144  1.00  0.00     0.039 C 
ATOM      5  C   UNL     1      -0.605   6.018 -10.208  1.00  0.00    -0.000 C 
ATOM      6  C   UNL     1      -1.160   4.591 -10.509  1.00  0.00     0.017 C 
ATOM      7  C   UNL     1      -0.921   4.174 -11.966  1.00  0.00     0.031 C 
ATOM      8  C   UNL     1       0.922   6.030 -10.496  1.00  0.00    -0.070 C 
ATOM      9  C   UNL     1       1.505   6.739 -11.487  1.00  0.00     0.008 C 
ATOM     10  C   UNL     1       1.812   5.202  -9.595  1.00  0.00     0.031 C 
ATOM     11  C   UNL     1       1.608   5.616  -8.143  1.00  0.00     0.005 C 
ATOM     12  C   UNL     1       0.128   5.554  -7.746  1.00  0.00     0.008 C 
ATOM     13  C   UNL     1      -0.804   6.408  -8.666  1.00  0.00    -0.026 C 
ATOM     14  C   UNL     1      -0.484   7.911  -8.434  1.00  0.00     0.012 C 
ATOM     15  C   UNL     1      -2.253   6.173  -8.156  1.00  0.00     0.012 C 
ENDROOT
TORSDOF 0
ENDMDL
