MODEL 1
REMARK VINA RESULT:    -4.551      0.000      0.000
REMARK INTER + INTRA:         -10.155
REMARK INTER:                  -8.807
REMARK INTRA:                  -1.348
REMARK UNBOUND:                -1.348
REMARK SMILES CCCCCCCCCCCCCCCCCC(=O)[O-]
REMARK SMILES IDX 10 1 11 2 12 3 13 4 14 5 15 6 16 7 17 8 18 9 19 10 20 11
REMARK SMILES IDX 9 12 8 13 7 14 6 15 5 16 4 17 3 18 2 19 1 20
REMARK H PARENT
REMARK Flexibility Score: inf
ROOT
ATOM      1  C   UNL     1      28.124  -1.874  44.553  1.00  0.00     0.000 C 
ENDROOT
BRANCH   1   2
ATOM      2  C   UNL     1      27.909  -1.530  43.071  1.00  0.00     0.000 C 
BRANCH   2   3
ATOM      3  C   UNL     1      26.716  -0.583  42.856  1.00  0.00     0.000 C 
BRANCH   3   4
ATOM      4  C   UNL     1      26.499   0.383  44.035  1.00  0.00     0.000 C 
BRANCH   4   5
ATOM      5  C   UNL     1      25.487   1.516  43.776  1.00  0.00     0.000 C 
BRANCH   5   6
ATOM      6  C   UNL     1      26.077   2.669  42.952  1.00  0.00     0.000 C 
BRANCH   6   7
ATOM      7  C   UNL     1      25.402   2.766  41.578  1.00  0.00     0.006 C 
BRANCH   7   8
ATOM      8  C   UNL     1      26.424   3.098  40.487  1.00  0.00     0.053 C 
BRANCH   8   9
ATOM      9  C   UNL     1      26.395   2.063  39.408  1.00  0.00     0.041 C 
ATOM     10  O   UNL     1      26.334   0.840  39.704  1.00  0.00    -0.550 OA
ATOM     11  O   UNL     1      26.385   2.450  38.074  1.00  0.00    -0.550 OA
ENDBRANCH   8   9
ENDBRANCH   7   8
ENDBRANCH   6   7
ENDBRANCH   5   6
ENDBRANCH   4   5
ENDBRANCH   3   4
ENDBRANCH   2   3
ENDBRANCH   1   2
BRANCH   1  12
ATOM     12  C   UNL     1      27.897  -3.366  44.856  1.00  0.00     0.000 C 
BRANCH  12  13
ATOM     13  C   UNL     1      27.979  -4.239  43.586  1.00  0.00    -0.000 C 
BRANCH  13  14
ATOM     14  C   UNL     1      26.900  -5.336  43.513  1.00  0.00    -0.000 C 
BRANCH  14  15
ATOM     15  C   UNL     1      25.685  -5.113  44.430  1.00  0.00    -0.000 C 
BRANCH  15  16
ATOM     16  C   UNL     1      25.150  -6.417  45.038  1.00  0.00    -0.000 C 
BRANCH  16  17
ATOM     17  C   UNL     1      24.807  -6.226  46.524  1.00  0.00    -0.000 C 
BRANCH  17  18
ATOM     18  C   UNL     1      25.799  -5.302  47.247  1.00  0.00    -0.000 C 
BRANCH  18  19
ATOM     19  C   UNL     1      25.548  -5.234  48.760  1.00  0.00    -0.003 C 
ATOM     20  C   UNL     1      24.091  -5.548  49.089  1.00  0.00     0.004 C 
ENDBRANCH  18  19
ENDBRANCH  17  18
ENDBRANCH  16  17
ENDBRANCH  15  16
ENDBRANCH  14  15
ENDBRANCH  13  14
ENDBRANCH  12  13
ENDBRANCH   1  12
TORSDOF 16
ENDMDL
MODEL 2
REMARK VINA RESULT:    -4.537      3.661      8.678
REMARK INTER + INTRA:         -10.129
REMARK INTER:                  -8.393
REMARK INTRA:                  -1.735
REMARK UNBOUND:                -1.348
REMARK SMILES CCCCCCCCCCCCCCCCCC(=O)[O-]
REMARK SMILES IDX 10 1 11 2 12 3 13 4 14 5 15 6 16 7 17 8 18 9 19 10 20 11
REMARK SMILES IDX 9 12 8 13 7 14 6 15 5 16 4 17 3 18 2 19 1 20
REMARK H PARENT
REMARK Flexibility Score: inf
ROOT
ATOM      1  C   UNL     1      27.837  -1.604  43.006  1.00  0.00     0.000 C 
ENDROOT
BRANCH   1   2
ATOM      2  C   UNL     1      28.113  -1.777  44.507  1.00  0.00     0.000 C 
BRANCH   2   3
ATOM      3  C   UNL     1      27.796  -3.200  45.002  1.00  0.00     0.000 C 
BRANCH   3   4
ATOM      4  C   UNL     1      27.207  -4.098  43.898  1.00  0.00     0.000 C 
BRANCH   4   5
ATOM      5  C   UNL     1      25.706  -4.414  44.043  1.00  0.00     0.000 C 
BRANCH   5   6
ATOM      6  C   UNL     1      25.397  -5.914  43.943  1.00  0.00     0.000 C 
BRANCH   6   7
ATOM      7  C   UNL     1      25.597  -6.609  45.295  1.00  0.00     0.006 C 
BRANCH   7   8
ATOM      8  C   UNL     1      24.937  -5.813  46.425  1.00  0.00     0.053 C 
BRANCH   8   9
ATOM      9  C   UNL     1      25.929  -5.509  47.502  1.00  0.00     0.041 C 
ATOM     10  O   UNL     1      27.157  -5.716  47.311  1.00  0.00    -0.550 OA
ATOM     11  O   UNL     1      25.504  -4.950  48.700  1.00  0.00    -0.550 OA
ENDBRANCH   8   9
ENDBRANCH   7   8
ENDBRANCH   6   7
ENDBRANCH   5   6
ENDBRANCH   4   5
ENDBRANCH   3   4
ENDBRANCH   2   3
ENDBRANCH   1   2
BRANCH   1  12
ATOM     12  C   UNL     1      26.782  -0.520  42.717  1.00  0.00     0.000 C 
BRANCH  12  13
ATOM     13  C   UNL     1      26.557   0.412  43.926  1.00  0.00    -0.000 C 
BRANCH  13  14
ATOM     14  C   UNL     1      25.571   1.564  43.648  1.00  0.00    -0.000 C 
BRANCH  14  15
ATOM     15  C   UNL     1      25.956   2.479  42.475  1.00  0.00    -0.000 C 
BRANCH  15  16
ATOM     16  C   UNL     1      24.755   2.867  41.601  1.00  0.00    -0.000 C 
BRANCH  16  17
ATOM     17  C   UNL     1      25.040   2.573  40.120  1.00  0.00    -0.000 C 
BRANCH  17  18
ATOM     18  C   UNL     1      26.469   2.061  39.882  1.00  0.00    -0.000 C 
BRANCH  18  19
ATOM     19  C   UNL     1      26.504   0.779  39.038  1.00  0.00    -0.003 C 
ATOM     20  C   UNL     1      27.788  -0.008  39.289  1.00  0.00     0.004 C 
ENDBRANCH  18  19
ENDBRANCH  17  18
ENDBRANCH  16  17
ENDBRANCH  15  16
ENDBRANCH  14  15
ENDBRANCH  13  14
ENDBRANCH  12  13
ENDBRANCH   1  12
TORSDOF 16
ENDMDL
MODEL 3
REMARK VINA RESULT:    -4.510      5.834      8.232
REMARK INTER + INTRA:         -10.076
REMARK INTER:                  -8.544
REMARK INTRA:                  -1.532
REMARK UNBOUND:                -1.348
REMARK SMILES CCCCCCCCCCCCCCCCCC(=O)[O-]
REMARK SMILES IDX 10 1 11 2 12 3 13 4 14 5 15 6 16 7 17 8 18 9 19 10 20 11
REMARK SMILES IDX 9 12 8 13 7 14 6 15 5 16 4 17 3 18 2 19 1 20
REMARK H PARENT
REMARK Flexibility Score: inf
ROOT
ATOM      1  C   UNL     1      25.330  -2.159  36.643  1.00  0.00     0.000 C 
ENDROOT
BRANCH   1   2
ATOM      2  C   UNL     1      25.009  -0.741  37.139  1.00  0.00     0.000 C 
BRANCH   2   3
ATOM      3  C   UNL     1      26.252  -0.012  37.678  1.00  0.00     0.000 C 
BRANCH   3   4
ATOM      4  C   UNL     1      25.979   0.748  38.989  1.00  0.00     0.000 C 
BRANCH   4   5
ATOM      5  C   UNL     1      25.991   2.284  38.869  1.00  0.00     0.000 C 
BRANCH   5   6
ATOM      6  C   UNL     1      26.455   2.981  40.156  1.00  0.00     0.000 C 
BRANCH   6   7
ATOM      7  C   UNL     1      25.397   2.861  41.260  1.00  0.00     0.006 C 
BRANCH   7   8
ATOM      8  C   UNL     1      26.054   2.742  42.638  1.00  0.00     0.053 C 
BRANCH   8   9
ATOM      9  C   UNL     1      25.855   1.369  43.197  1.00  0.00     0.041 C 
ATOM     10  O   UNL     1      26.374   0.371  42.631  1.00  0.00    -0.550 OA
ATOM     11  O   UNL     1      25.137   1.197  44.374  1.00  0.00    -0.550 OA
ENDBRANCH   8   9
ENDBRANCH   7   8
ENDBRANCH   6   7
ENDBRANCH   5   6
ENDBRANCH   4   5
ENDBRANCH   3   4
ENDBRANCH   2   3
ENDBRANCH   1   2
BRANCH   1  12
ATOM     12  C   UNL     1      24.245  -2.721  35.705  1.00  0.00     0.000 C 
BRANCH  12  13
ATOM     13  C   UNL     1      22.991  -3.184  36.476  1.00  0.00    -0.000 C 
BRANCH  13  14
ATOM     14  C   UNL     1      22.205  -4.306  35.769  1.00  0.00    -0.000 C 
BRANCH  14  15
ATOM     15  C   UNL     1      22.968  -5.020  34.641  1.00  0.00    -0.000 C 
BRANCH  15  16
ATOM     16  C   UNL     1      23.092  -6.533  34.870  1.00  0.00    -0.000 C 
BRANCH  16  17
ATOM     17  C   UNL     1      24.566  -6.944  35.016  1.00  0.00    -0.000 C 
BRANCH  17  18
ATOM     18  C   UNL     1      25.130  -6.642  36.413  1.00  0.00    -0.000 C 
BRANCH  18  19
ATOM     19  C   UNL     1      26.405  -5.788  36.363  1.00  0.00    -0.003 C 
ATOM     20  C   UNL     1      26.720  -5.355  34.933  1.00  0.00     0.004 C 
ENDBRANCH  18  19
ENDBRANCH  17  18
ENDBRANCH  16  17
ENDBRANCH  15  16
ENDBRANCH  14  15
ENDBRANCH  13  14
ENDBRANCH  12  13
ENDBRANCH   1  12
TORSDOF 16
ENDMDL
MODEL 4
REMARK VINA RESULT:    -4.489      6.745      8.472
REMARK INTER + INTRA:         -10.037
REMARK INTER:                  -8.460
REMARK INTRA:                  -1.577
REMARK UNBOUND:                -1.348
REMARK SMILES CCCCCCCCCCCCCCCCCC(=O)[O-]
REMARK SMILES IDX 10 1 11 2 12 3 13 4 14 5 15 6 16 7 17 8 18 9 19 10 20 11
REMARK SMILES IDX 9 12 8 13 7 14 6 15 5 16 4 17 3 18 2 19 1 20
REMARK H PARENT
REMARK Flexibility Score: inf
ROOT
ATOM      1  C   UNL     1      22.626  -3.336  36.746  1.00  0.00     0.000 C 
ENDROOT
BRANCH   1   2
ATOM      2  C   UNL     1      23.966  -2.828  36.191  1.00  0.00     0.000 C 
BRANCH   2   3
ATOM      3  C   UNL     1      24.151  -1.315  36.401  1.00  0.00     0.000 C 
BRANCH   3   4
ATOM      4  C   UNL     1      25.464  -0.968  37.127  1.00  0.00     0.000 C 
BRANCH   4   5
ATOM      5  C   UNL     1      25.470   0.388  37.857  1.00  0.00     0.000 C 
BRANCH   5   6
ATOM      6  C   UNL     1      26.755   0.629  38.663  1.00  0.00     0.000 C 
BRANCH   6   7
ATOM      7  C   UNL     1      26.782   2.048  39.245  1.00  0.00     0.006 C 
BRANCH   7   8
ATOM      8  C   UNL     1      25.487   2.355  40.003  1.00  0.00     0.053 C 
BRANCH   8   9
ATOM      9  C   UNL     1      25.788   3.033  41.301  1.00  0.00     0.041 C 
ATOM     10  O   UNL     1      25.231   2.647  42.363  1.00  0.00    -0.550 OA
ATOM     11  O   UNL     1      26.722   4.060  41.348  1.00  0.00    -0.550 OA
ENDBRANCH   8   9
ENDBRANCH   7   8
ENDBRANCH   6   7
ENDBRANCH   5   6
ENDBRANCH   4   5
ENDBRANCH   3   4
ENDBRANCH   2   3
ENDBRANCH   1   2
BRANCH   1  12
ATOM     12  C   UNL     1      22.218  -4.699  36.158  1.00  0.00     0.000 C 
BRANCH  12  13
ATOM     13  C   UNL     1      22.981  -5.025  34.856  1.00  0.00    -0.000 C 
BRANCH  13  14
ATOM     14  C   UNL     1      23.586  -6.442  34.828  1.00  0.00    -0.000 C 
BRANCH  14  15
ATOM     15  C   UNL     1      24.355  -6.844  36.098  1.00  0.00    -0.000 C 
BRANCH  15  16
ATOM     16  C   UNL     1      25.876  -6.868  35.891  1.00  0.00    -0.000 C 
BRANCH  16  17
ATOM     17  C   UNL     1      26.503  -5.523  36.288  1.00  0.00    -0.000 C 
BRANCH  17  18
ATOM     18  C   UNL     1      26.812  -4.632  35.075  1.00  0.00    -0.000 C 
BRANCH  18  19
ATOM     19  C   UNL     1      28.057  -3.758  35.285  1.00  0.00    -0.003 C 
ATOM     20  C   UNL     1      28.211  -3.366  36.752  1.00  0.00     0.004 C 
ENDBRANCH  18  19
ENDBRANCH  17  18
ENDBRANCH  16  17
ENDBRANCH  15  16
ENDBRANCH  14  15
ENDBRANCH  13  14
ENDBRANCH  12  13
ENDBRANCH   1  12
TORSDOF 16
ENDMDL
MODEL 5
REMARK VINA RESULT:    -4.476      1.481      2.444
REMARK INTER + INTRA:         -10.011
REMARK INTER:                  -8.408
REMARK INTRA:                  -1.603
REMARK UNBOUND:                -1.348
REMARK SMILES CCCCCCCCCCCCCCCCCC(=O)[O-]
REMARK SMILES IDX 10 1 11 2 12 3 13 4 14 5 15 6 16 7 17 8 18 9 19 10 20 11
REMARK SMILES IDX 9 12 8 13 7 14 6 15 5 16 4 17 3 18 2 19 1 20
REMARK H PARENT
REMARK Flexibility Score: inf
ROOT
ATOM      1  C   UNL     1      27.051  -1.663  43.860  1.00  0.00     0.000 C 
ENDROOT
BRANCH   1   2
ATOM      2  C   UNL     1      26.744  -0.370  43.089  1.00  0.00     0.000 C 
BRANCH   2   3
ATOM      3  C   UNL     1      26.382   0.798  44.023  1.00  0.00     0.000 C 
BRANCH   3   4
ATOM      4  C   UNL     1      25.463   1.837  43.353  1.00  0.00     0.000 C 
BRANCH   4   5
ATOM      5  C   UNL     1      25.969   2.387  42.006  1.00  0.00     0.000 C 
BRANCH   5   6
ATOM      6  C   UNL     1      24.836   2.891  41.102  1.00  0.00     0.000 C 
BRANCH   6   7
ATOM      7  C   UNL     1      25.036   2.422  39.655  1.00  0.00     0.006 C 
BRANCH   7   8
ATOM      8  C   UNL     1      26.517   2.174  39.358  1.00  0.00     0.053 C 
BRANCH   8   9
ATOM      9  C   UNL     1      26.728   0.773  38.878  1.00  0.00     0.041 C 
ATOM     10  O   UNL     1      25.926   0.256  38.056  1.00  0.00    -0.550 OA
ATOM     11  O   UNL     1      27.840   0.055  39.299  1.00  0.00    -0.550 OA
ENDBRANCH   8   9
ENDBRANCH   7   8
ENDBRANCH   6   7
ENDBRANCH   5   6
ENDBRANCH   4   5
ENDBRANCH   3   4
ENDBRANCH   2   3
ENDBRANCH   1   2
BRANCH   1  12
ATOM     12  C   UNL     1      27.882  -2.663  43.036  1.00  0.00     0.000 C 
BRANCH  12  13
ATOM     13  C   UNL     1      27.331  -4.101  43.135  1.00  0.00    -0.000 C 
BRANCH  13  14
ATOM     14  C   UNL     1      25.950  -4.194  43.813  1.00  0.00    -0.000 C 
BRANCH  14  15
ATOM     15  C   UNL     1      25.617  -5.567  44.421  1.00  0.00    -0.000 C 
BRANCH  15  16
ATOM     16  C   UNL     1      25.478  -5.524  45.949  1.00  0.00    -0.000 C 
BRANCH  16  17
ATOM     17  C   UNL     1      26.679  -4.810  46.587  1.00  0.00    -0.000 C 
BRANCH  17  18
ATOM     18  C   UNL     1      27.906  -5.723  46.726  1.00  0.00    -0.000 C 
BRANCH  18  19
ATOM     19  C   UNL     1      29.144  -5.161  46.012  1.00  0.00    -0.003 C 
ATOM     20  C   UNL     1      29.337  -3.681  46.330  1.00  0.00     0.004 C 
ENDBRANCH  18  19
ENDBRANCH  17  18
ENDBRANCH  16  17
ENDBRANCH  15  16
ENDBRANCH  14  15
ENDBRANCH  13  14
ENDBRANCH  12  13
ENDBRANCH   1  12
TORSDOF 16
ENDMDL
MODEL 6
REMARK VINA RESULT:    -4.377      1.198      2.452
REMARK INTER + INTRA:          -9.819
REMARK INTER:                  -8.467
REMARK INTRA:                  -1.352
REMARK UNBOUND:                -1.348
REMARK SMILES CCCCCCCCCCCCCCCCCC(=O)[O-]
REMARK SMILES IDX 10 1 11 2 12 3 13 4 14 5 15 6 16 7 17 8 18 9 19 10 20 11
REMARK SMILES IDX 9 12 8 13 7 14 6 15 5 16 4 17 3 18 2 19 1 20
REMARK H PARENT
REMARK Flexibility Score: inf
ROOT
ATOM      1  C   UNL     1      26.706  -1.772  43.501  1.00  0.00     0.000 C 
ENDROOT
BRANCH   1   2
ATOM      2  C   UNL     1      26.743  -0.324  42.988  1.00  0.00     0.000 C 
BRANCH   2   3
ATOM      3  C   UNL     1      26.377   0.695  44.082  1.00  0.00     0.000 C 
BRANCH   3   4
ATOM      4  C   UNL     1      26.325   2.142  43.557  1.00  0.00     0.000 C 
BRANCH   4   5
ATOM      5  C   UNL     1      25.637   2.319  42.191  1.00  0.00     0.000 C 
BRANCH   5   6
ATOM      6  C   UNL     1      26.200   3.497  41.384  1.00  0.00     0.000 C 
BRANCH   6   7
ATOM      7  C   UNL     1      26.671   3.040  39.998  1.00  0.00     0.006 C 
BRANCH   7   8
ATOM      8  C   UNL     1      26.324   1.568  39.758  1.00  0.00     0.053 C 
BRANCH   8   9
ATOM      9  C   UNL     1      25.454   1.424  38.550  1.00  0.00     0.041 C 
ATOM     10  O   UNL     1      24.664   2.350  38.224  1.00  0.00    -0.550 OA
ATOM     11  O   UNL     1      25.551   0.290  37.755  1.00  0.00    -0.550 OA
ENDBRANCH   8   9
ENDBRANCH   7   8
ENDBRANCH   6   7
ENDBRANCH   5   6
ENDBRANCH   4   5
ENDBRANCH   3   4
ENDBRANCH   2   3
ENDBRANCH   1   2
BRANCH   1  12
ATOM     12  C   UNL     1      27.866  -2.093  44.461  1.00  0.00     0.000 C 
BRANCH  12  13
ATOM     13  C   UNL     1      28.083  -3.612  44.627  1.00  0.00    -0.000 C 
BRANCH  13  14
ATOM     14  C   UNL     1      28.270  -4.058  46.090  1.00  0.00    -0.000 C 
BRANCH  14  15
ATOM     15  C   UNL     1      28.411  -5.576  46.292  1.00  0.00    -0.000 C 
BRANCH  15  16
ATOM     16  C   UNL     1      27.330  -6.156  47.215  1.00  0.00    -0.000 C 
BRANCH  16  17
ATOM     17  C   UNL     1      26.078  -5.266  47.218  1.00  0.00    -0.000 C 
BRANCH  17  18
ATOM     18  C   UNL     1      24.860  -5.955  46.583  1.00  0.00    -0.000 C 
BRANCH  18  19
ATOM     19  C   UNL     1      25.222  -6.748  45.319  1.00  0.00    -0.003 C 
ATOM     20  C   UNL     1      25.252  -5.841  44.091  1.00  0.00     0.004 C 
ENDBRANCH  18  19
ENDBRANCH  17  18
ENDBRANCH  16  17
ENDBRANCH  15  16
ENDBRANCH  14  15
ENDBRANCH  13  14
ENDBRANCH  12  13
ENDBRANCH   1  12
TORSDOF 16
ENDMDL
MODEL 7
REMARK VINA RESULT:    -4.366      1.904      3.327
REMARK INTER + INTRA:          -9.798
REMARK INTER:                  -7.785
REMARK INTRA:                  -2.013
REMARK UNBOUND:                -1.348
REMARK SMILES CCCCCCCCCCCCCCCCCC(=O)[O-]
REMARK SMILES IDX 10 1 11 2 12 3 13 4 14 5 15 6 16 7 17 8 18 9 19 10 20 11
REMARK SMILES IDX 9 12 8 13 7 14 6 15 5 16 4 17 3 18 2 19 1 20
REMARK H PARENT
REMARK Flexibility Score: inf
ROOT
ATOM      1  C   UNL     1      27.527  -4.674  43.400  1.00  0.00     0.000 C 
ENDROOT
BRANCH   1   2
ATOM      2  C   UNL     1      26.804  -3.501  44.082  1.00  0.00     0.000 C 
BRANCH   2   3
ATOM      3  C   UNL     1      27.743  -2.313  44.354  1.00  0.00     0.000 C 
BRANCH   3   4
ATOM      4  C   UNL     1      27.921  -1.398  43.129  1.00  0.00     0.000 C 
BRANCH   4   5
ATOM      5  C   UNL     1      26.695  -0.538  42.770  1.00  0.00     0.000 C 
BRANCH   5   6
ATOM      6  C   UNL     1      26.223   0.347  43.932  1.00  0.00     0.000 C 
BRANCH   6   7
ATOM      7  C   UNL     1      26.196   1.825  43.523  1.00  0.00     0.006 C 
BRANCH   7   8
ATOM      8  C   UNL     1      26.077   1.973  42.004  1.00  0.00     0.053 C 
BRANCH   8   9
ATOM      9  C   UNL     1      25.808   3.397  41.635  1.00  0.00     0.041 C 
ATOM     10  O   UNL     1      24.647   3.872  41.742  1.00  0.00    -0.550 OA
ATOM     11  O   UNL     1      26.851   4.215  41.220  1.00  0.00    -0.550 OA
ENDBRANCH   8   9
ENDBRANCH   7   8
ENDBRANCH   6   7
ENDBRANCH   5   6
ENDBRANCH   4   5
ENDBRANCH   3   4
ENDBRANCH   2   3
ENDBRANCH   1   2
BRANCH   1  12
ATOM     12  C   UNL     1      26.710  -5.978  43.438  1.00  0.00     0.000 C 
BRANCH  12  13
ATOM     13  C   UNL     1      25.318  -5.777  44.074  1.00  0.00    -0.000 C 
BRANCH  13  14
ATOM     14  C   UNL     1      25.065  -6.660  45.312  1.00  0.00    -0.000 C 
BRANCH  14  15
ATOM     15  C   UNL     1      25.283  -5.959  46.663  1.00  0.00    -0.000 C 
BRANCH  15  16
ATOM     16  C   UNL     1      26.574  -6.405  47.365  1.00  0.00    -0.000 C 
BRANCH  16  17
ATOM     17  C   UNL     1      27.751  -5.499  46.971  1.00  0.00    -0.000 C 
BRANCH  17  18
ATOM     18  C   UNL     1      28.987  -6.295  46.524  1.00  0.00    -0.000 C 
BRANCH  18  19
ATOM     19  C   UNL     1      30.123  -5.390  46.026  1.00  0.00    -0.003 C 
ATOM     20  C   UNL     1      30.050  -4.009  46.673  1.00  0.00     0.004 C 
ENDBRANCH  18  19
ENDBRANCH  17  18
ENDBRANCH  16  17
ENDBRANCH  15  16
ENDBRANCH  14  15
ENDBRANCH  13  14
ENDBRANCH  12  13
ENDBRANCH   1  12
TORSDOF 16
ENDMDL
MODEL 8
REMARK VINA RESULT:    -4.364      3.163      8.562
REMARK INTER + INTRA:          -9.794
REMARK INTER:                  -8.334
REMARK INTRA:                  -1.460
REMARK UNBOUND:                -1.348
REMARK SMILES CCCCCCCCCCCCCCCCCC(=O)[O-]
REMARK SMILES IDX 10 1 11 2 12 3 13 4 14 5 15 6 16 7 17 8 18 9 19 10 20 11
REMARK SMILES IDX 9 12 8 13 7 14 6 15 5 16 4 17 3 18 2 19 1 20
REMARK H PARENT
REMARK Flexibility Score: inf
ROOT
ATOM      1  C   UNL     1      26.819  -2.905  43.508  1.00  0.00     0.000 C 
ENDROOT
BRANCH   1   2
ATOM      2  C   UNL     1      27.688  -4.122  43.154  1.00  0.00     0.000 C 
BRANCH   2   3
ATOM      3  C   UNL     1      26.902  -5.443  43.222  1.00  0.00     0.000 C 
BRANCH   3   4
ATOM      4  C   UNL     1      25.627  -5.337  44.078  1.00  0.00     0.000 C 
BRANCH   4   5
ATOM      5  C   UNL     1      25.580  -6.272  45.301  1.00  0.00     0.000 C 
BRANCH   5   6
ATOM      6  C   UNL     1      25.563  -5.513  46.635  1.00  0.00     0.000 C 
BRANCH   6   7
ATOM      7  C   UNL     1      26.802  -4.621  46.778  1.00  0.00     0.006 C 
BRANCH   7   8
ATOM      8  C   UNL     1      28.086  -5.455  46.735  1.00  0.00     0.053 C 
BRANCH   8   9
ATOM      9  C   UNL     1      29.261  -4.592  46.402  1.00  0.00     0.041 C 
ATOM     10  O   UNL     1      29.113  -3.351  46.245  1.00  0.00    -0.550 OA
ATOM     11  O   UNL     1      30.530  -5.150  46.313  1.00  0.00    -0.550 OA
ENDBRANCH   8   9
ENDBRANCH   7   8
ENDBRANCH   6   7
ENDBRANCH   5   6
ENDBRANCH   4   5
ENDBRANCH   3   4
ENDBRANCH   2   3
ENDBRANCH   1   2
BRANCH   1  12
ATOM     12  C   UNL     1      27.608  -1.583  43.479  1.00  0.00     0.000 C 
BRANCH  12  13
ATOM     13  C   UNL     1      26.709  -0.374  43.143  1.00  0.00    -0.000 C 
BRANCH  13  14
ATOM     14  C   UNL     1      26.683   0.706  44.242  1.00  0.00    -0.000 C 
BRANCH  14  15
ATOM     15  C   UNL     1      26.439   2.138  43.737  1.00  0.00    -0.000 C 
BRANCH  15  16
ATOM     16  C   UNL     1      25.664   2.179  42.412  1.00  0.00    -0.000 C 
BRANCH  16  17
ATOM     17  C   UNL     1      26.111   3.373  41.555  1.00  0.00    -0.000 C 
BRANCH  17  18
ATOM     18  C   UNL     1      26.515   2.961  40.130  1.00  0.00    -0.000 C 
BRANCH  18  19
ATOM     19  C   UNL     1      25.655   1.814  39.581  1.00  0.00    -0.003 C 
ATOM     20  C   UNL     1      24.997   2.205  38.260  1.00  0.00     0.004 C 
ENDBRANCH  18  19
ENDBRANCH  17  18
ENDBRANCH  16  17
ENDBRANCH  15  16
ENDBRANCH  14  15
ENDBRANCH  13  14
ENDBRANCH  12  13
ENDBRANCH   1  12
TORSDOF 16
ENDMDL
MODEL 9
REMARK VINA RESULT:    -4.345      4.080      8.887
REMARK INTER + INTRA:          -9.757
REMARK INTER:                  -8.557
REMARK INTRA:                  -1.200
REMARK UNBOUND:                -1.348
REMARK SMILES CCCCCCCCCCCCCCCCCC(=O)[O-]
REMARK SMILES IDX 10 1 11 2 12 3 13 4 14 5 15 6 16 7 17 8 18 9 19 10 20 11
REMARK SMILES IDX 9 12 8 13 7 14 6 15 5 16 4 17 3 18 2 19 1 20
REMARK H PARENT
REMARK Flexibility Score: inf
ROOT
ATOM      1  C   UNL     1      27.864  -3.962  43.412  1.00  0.00     0.000 C 
ENDROOT
BRANCH   1   2
ATOM      2  C   UNL     1      26.999  -5.205  43.670  1.00  0.00     0.000 C 
BRANCH   2   3
ATOM      3  C   UNL     1      25.636  -4.852  44.291  1.00  0.00     0.000 C 
BRANCH   3   4
ATOM      4  C   UNL     1      25.375  -5.588  45.618  1.00  0.00     0.000 C 
BRANCH   4   5
ATOM      5  C   UNL     1      26.296  -5.184  46.784  1.00  0.00     0.000 C 
BRANCH   5   6
ATOM      6  C   UNL     1      26.079  -6.035  48.043  1.00  0.00     0.000 C 
BRANCH   6   7
ATOM      7  C   UNL     1      25.357  -5.234  49.132  1.00  0.00     0.006 C 
BRANCH   7   8
ATOM      8  C   UNL     1      24.208  -6.044  49.740  1.00  0.00     0.053 C 
BRANCH   8   9
ATOM      9  C   UNL     1      22.916  -5.712  49.064  1.00  0.00     0.041 C 
ATOM     10  O   UNL     1      22.571  -6.324  48.019  1.00  0.00    -0.550 OA
ATOM     11  O   UNL     1      22.069  -4.760  49.616  1.00  0.00    -0.550 OA
ENDBRANCH   8   9
ENDBRANCH   7   8
ENDBRANCH   6   7
ENDBRANCH   5   6
ENDBRANCH   4   5
ENDBRANCH   3   4
ENDBRANCH   2   3
ENDBRANCH   1   2
BRANCH   1  12
ATOM     12  C   UNL     1      28.050  -3.095  44.670  1.00  0.00     0.000 C 
BRANCH  12  13
ATOM     13  C   UNL     1      28.297  -1.611  44.325  1.00  0.00    -0.000 C 
BRANCH  13  14
ATOM     14  C   UNL     1      27.604  -1.150  43.028  1.00  0.00    -0.000 C 
BRANCH  14  15
ATOM     15  C   UNL     1      26.228  -0.492  43.226  1.00  0.00    -0.000 C 
BRANCH  15  16
ATOM     16  C   UNL     1      26.302   0.817  44.025  1.00  0.00    -0.000 C 
BRANCH  16  17
ATOM     17  C   UNL     1      25.392   1.888  43.403  1.00  0.00    -0.000 C 
BRANCH  17  18
ATOM     18  C   UNL     1      26.118   2.747  42.356  1.00  0.00    -0.000 C 
BRANCH  18  19
ATOM     19  C   UNL     1      25.359   2.818  41.023  1.00  0.00    -0.003 C 
ATOM     20  C   UNL     1      26.186   2.222  39.887  1.00  0.00     0.004 C 
ENDBRANCH  18  19
ENDBRANCH  17  18
ENDBRANCH  16  17
ENDBRANCH  15  16
ENDBRANCH  14  15
ENDBRANCH  13  14
ENDBRANCH  12  13
ENDBRANCH   1  12
TORSDOF 16
ENDMDL
