MODEL 1
REMARK VINA RESULT:     4.868      0.000      0.000
REMARK INTER + INTRA:          15.205
REMARK INTER:                  11.128
REMARK INTRA:                   4.077
REMARK UNBOUND:                 4.077
REMARK SMILES CCCCCCCCCCCCCCCCCCCCCCCC(=O)[O-]
REMARK SMILES IDX 13 1 14 2 15 3 16 4 17 5 18 6 19 7 20 8 21 9 22 10 23 11
REMARK SMILES IDX 24 12 25 13 26 14 12 15 11 16 10 17 9 18 8 19 7 20 6 21 5 22
REMARK SMILES IDX 4 23 3 24 2 25 1 26
REMARK H PARENT
REMARK Flexibility Score: inf
ROOT
ATOM      1  C   UNL     1      -2.039  15.931   9.431  1.00  0.00     0.000 C 
ENDROOT
BRANCH   1   2
ATOM      2  C   UNL     1      -0.506  15.885   9.441  1.00  0.00     0.000 C 
BRANCH   2   3
ATOM      3  C   UNL     1       0.035  15.942  10.878  1.00  0.00     0.000 C 
BRANCH   3   4
ATOM      4  C   UNL     1      -0.947  15.365  11.910  1.00  0.00     0.000 C 
BRANCH   4   5
ATOM      5  C   UNL     1      -1.858  14.277  11.315  1.00  0.00     0.000 C 
BRANCH   5   6
ATOM      6  C   UNL     1      -1.298  13.687  10.011  1.00  0.00     0.000 C 
BRANCH   6   7
ATOM      7  C   UNL     1      -1.529  12.169   9.901  1.00  0.00     0.000 C 
BRANCH   7   8
ATOM      8  C   UNL     1      -1.388  11.648   8.460  1.00  0.00     0.000 C 
BRANCH   8   9
ATOM      9  C   UNL     1      -2.622  10.905   7.917  1.00  0.00     0.000 C 
BRANCH   9  10
ATOM     10  C   UNL     1      -3.946  11.491   8.437  1.00  0.00     0.006 C 
BRANCH  10  11
ATOM     11  C   UNL     1      -3.948  13.027   8.416  1.00  0.00     0.053 C 
BRANCH  11  12
ATOM     12  C   UNL     1      -4.646  13.599   9.612  1.00  0.00     0.041 C 
ATOM     13  O   UNL     1      -5.114  14.767   9.575  1.00  0.00    -0.550 OA
ATOM     14  O   UNL     1      -4.753  12.852  10.779  1.00  0.00    -0.550 OA
ENDBRANCH  11  12
ENDBRANCH  10  11
ENDBRANCH   9  10
ENDBRANCH   8   9
ENDBRANCH   7   8
ENDBRANCH   6   7
ENDBRANCH   5   6
ENDBRANCH   4   5
ENDBRANCH   3   4
ENDBRANCH   2   3
ENDBRANCH   1   2
BRANCH   1  15
ATOM     15  C   UNL     1      -2.563  16.643   8.175  1.00  0.00     0.000 C 
BRANCH  15  16
ATOM     16  C   UNL     1      -2.769  18.155   8.381  1.00  0.00     0.000 C 
BRANCH  16  17
ATOM     17  C   UNL     1      -4.220  18.589   8.659  1.00  0.00     0.000 C 
BRANCH  17  18
ATOM     18  C   UNL     1      -4.712  18.179  10.057  1.00  0.00    -0.000 C 
BRANCH  18  19
ATOM     19  C   UNL     1      -5.109  19.388  10.921  1.00  0.00    -0.000 C 
BRANCH  19  20
ATOM     20  C   UNL     1      -4.005  19.807  11.903  1.00  0.00    -0.000 C 
BRANCH  20  21
ATOM     21  C   UNL     1      -4.346  21.145  12.570  1.00  0.00    -0.000 C 
BRANCH  21  22
ATOM     22  C   UNL     1      -5.028  20.927  13.928  1.00  0.00    -0.000 C 
BRANCH  22  23
ATOM     23  C   UNL     1      -4.456  19.724  14.697  1.00  0.00    -0.000 C 
BRANCH  23  24
ATOM     24  C   UNL     1      -4.643  19.820  16.227  1.00  0.00    -0.000 C 
BRANCH  24  25
ATOM     25  C   UNL     1      -3.561  20.686  16.891  1.00  0.00    -0.003 C 
ATOM     26  C   UNL     1      -2.621  21.287  15.851  1.00  0.00     0.004 C 
ENDBRANCH  24  25
ENDBRANCH  23  24
ENDBRANCH  22  23
ENDBRANCH  21  22
ENDBRANCH  20  21
ENDBRANCH  19  20
ENDBRANCH  18  19
ENDBRANCH  17  18
ENDBRANCH  16  17
ENDBRANCH  15  16
ENDBRANCH   1  15
TORSDOF 22
ENDMDL
MODEL 2
REMARK VINA RESULT:     5.152      1.724      2.771
REMARK INTER + INTRA:          15.856
REMARK INTER:                   8.254
REMARK INTRA:                   7.602
REMARK UNBOUND:                 4.077
REMARK SMILES CCCCCCCCCCCCCCCCCCCCCCCC(=O)[O-]
REMARK SMILES IDX 13 1 14 2 15 3 16 4 17 5 18 6 19 7 20 8 21 9 22 10 23 11
REMARK SMILES IDX 24 12 25 13 26 14 12 15 11 16 10 17 9 18 8 19 7 20 6 21 5 22
REMARK SMILES IDX 4 23 3 24 2 25 1 26
REMARK H PARENT
REMARK Flexibility Score: inf
ROOT
ATOM      1  C   UNL     1      -2.361  15.622   9.293  1.00  0.00     0.000 C 
ENDROOT
BRANCH   1   2
ATOM      2  C   UNL     1      -2.600  16.281  10.657  1.00  0.00     0.000 C 
BRANCH   2   3
ATOM      3  C   UNL     1      -3.968  15.880  11.229  1.00  0.00     0.000 C 
BRANCH   3   4
ATOM      4  C   UNL     1      -4.663  14.786  10.403  1.00  0.00     0.000 C 
BRANCH   4   5
ATOM      5  C   UNL     1      -3.748  13.580  10.130  1.00  0.00     0.000 C 
BRANCH   5   6
ATOM      6  C   UNL     1      -2.598  13.471  11.145  1.00  0.00     0.000 C 
BRANCH   6   7
ATOM      7  C   UNL     1      -2.309  12.016  11.557  1.00  0.00     0.000 C 
BRANCH   7   8
ATOM      8  C   UNL     1      -0.903  11.835  12.157  1.00  0.00     0.000 C 
BRANCH   8   9
ATOM      9  C   UNL     1       0.102  11.111  11.243  1.00  0.00     0.000 C 
BRANCH   9  10
ATOM     10  C   UNL     1      -0.441  10.885   9.822  1.00  0.00     0.006 C 
BRANCH  10  11
ATOM     11  C   UNL     1      -1.976  10.875   9.783  1.00  0.00     0.053 C 
BRANCH  11  12
ATOM     12  C   UNL     1      -2.504  11.428   8.495  1.00  0.00     0.041 C 
ATOM     13  O   UNL     1      -3.519  10.918   7.953  1.00  0.00    -0.550 OA
ATOM     14  O   UNL     1      -1.855  12.489   7.875  1.00  0.00    -0.550 OA
ENDBRANCH  11  12
ENDBRANCH  10  11
ENDBRANCH   9  10
ENDBRANCH   8   9
ENDBRANCH   7   8
ENDBRANCH   6   7
ENDBRANCH   5   6
ENDBRANCH   4   5
ENDBRANCH   3   4
ENDBRANCH   2   3
ENDBRANCH   1   2
BRANCH   1  15
ATOM     15  C   UNL     1      -1.701  16.603   8.313  1.00  0.00     0.000 C 
BRANCH  15  16
ATOM     16  C   UNL     1      -2.203  18.050   8.477  1.00  0.00     0.000 C 
BRANCH  16  17
ATOM     17  C   UNL     1      -3.595  18.334   7.884  1.00  0.00     0.000 C 
BRANCH  17  18
ATOM     18  C   UNL     1      -4.741  17.774   8.745  1.00  0.00    -0.000 C 
BRANCH  18  19
ATOM     19  C   UNL     1      -5.115  18.708   9.908  1.00  0.00    -0.000 C 
BRANCH  19  20
ATOM     20  C   UNL     1      -5.024  18.019  11.278  1.00  0.00    -0.000 C 
BRANCH  20  21
ATOM     21  C   UNL     1      -5.065  19.051  12.411  1.00  0.00    -0.000 C 
BRANCH  21  22
ATOM     22  C   UNL     1      -5.093  20.482  11.855  1.00  0.00    -0.000 C 
BRANCH  22  23
ATOM     23  C   UNL     1      -4.774  21.544  12.922  1.00  0.00    -0.000 C 
BRANCH  23  24
ATOM     24  C   UNL     1      -3.708  21.095  13.944  1.00  0.00    -0.000 C 
BRANCH  24  25
ATOM     25  C   UNL     1      -4.218  21.179  15.391  1.00  0.00    -0.003 C 
ATOM     26  C   UNL     1      -4.917  19.886  15.804  1.00  0.00     0.004 C 
ENDBRANCH  24  25
ENDBRANCH  23  24
ENDBRANCH  22  23
ENDBRANCH  21  22
ENDBRANCH  20  21
ENDBRANCH  19  20
ENDBRANCH  18  19
ENDBRANCH  17  18
ENDBRANCH  16  17
ENDBRANCH  15  16
ENDBRANCH   1  15
TORSDOF 22
ENDMDL
MODEL 3
REMARK VINA RESULT:     5.822     18.575     23.140
REMARK INTER + INTRA:          17.386
REMARK INTER:                  18.248
REMARK INTRA:                  -0.862
REMARK UNBOUND:                 4.077
REMARK SMILES CCCCCCCCCCCCCCCCCCCCCCCC(=O)[O-]
REMARK SMILES IDX 13 1 14 2 15 3 16 4 17 5 18 6 19 7 20 8 21 9 22 10 23 11
REMARK SMILES IDX 24 12 25 13 26 14 12 15 11 16 10 17 9 18 8 19 7 20 6 21 5 22
REMARK SMILES IDX 4 23 3 24 2 25 1 26
REMARK H PARENT
REMARK Flexibility Score: inf
ROOT
ATOM      1  C   UNL     1      13.170  31.087  18.156  1.00  0.00     0.000 C 
ENDROOT
BRANCH   1   2
ATOM      2  C   UNL     1      14.256  30.996  19.234  1.00  0.00     0.000 C 
BRANCH   2   3
ATOM      3  C   UNL     1      14.590  29.531  19.555  1.00  0.00     0.000 C 
BRANCH   3   4
ATOM      4  C   UNL     1      14.924  29.305  21.038  1.00  0.00     0.000 C 
BRANCH   4   5
ATOM      5  C   UNL     1      15.102  30.623  21.811  1.00  0.00     0.000 C 
BRANCH   5   6
ATOM      6  C   UNL     1      14.432  30.590  23.194  1.00  0.00     0.000 C 
BRANCH   6   7
ATOM      7  C   UNL     1      13.595  29.317  23.416  1.00  0.00     0.000 C 
BRANCH   7   8
ATOM      8  C   UNL     1      14.340  28.248  24.235  1.00  0.00     0.000 C 
BRANCH   8   9
ATOM      9  C   UNL     1      13.910  28.146  25.709  1.00  0.00     0.000 C 
BRANCH   9  10
ATOM     10  C   UNL     1      15.105  28.022  26.670  1.00  0.00     0.006 C 
BRANCH  10  11
ATOM     11  C   UNL     1      14.948  28.916  27.909  1.00  0.00     0.053 C 
BRANCH  11  12
ATOM     12  C   UNL     1      13.884  29.952  27.717  1.00  0.00     0.041 C 
ATOM     13  O   UNL     1      14.177  31.085  27.254  1.00  0.00    -0.550 OA
ATOM     14  O   UNL     1      12.571  29.676  28.079  1.00  0.00    -0.550 OA
ENDBRANCH  11  12
ENDBRANCH  10  11
ENDBRANCH   9  10
ENDBRANCH   8   9
ENDBRANCH   7   8
ENDBRANCH   6   7
ENDBRANCH   5   6
ENDBRANCH   4   5
ENDBRANCH   3   4
ENDBRANCH   2   3
ENDBRANCH   1   2
BRANCH   1  15
ATOM     15  C   UNL     1      11.976  30.183  18.495  1.00  0.00     0.000 C 
BRANCH  15  16
ATOM     16  C   UNL     1      11.591  30.225  19.986  1.00  0.00     0.000 C 
BRANCH  16  17
ATOM     17  C   UNL     1      10.254  30.920  20.300  1.00  0.00     0.000 C 
BRANCH  17  18
ATOM     18  C   UNL     1       9.295  30.950  19.098  1.00  0.00    -0.000 C 
BRANCH  18  19
ATOM     19  C   UNL     1       8.343  29.743  19.072  1.00  0.00    -0.000 C 
BRANCH  19  20
ATOM     20  C   UNL     1       6.867  30.151  18.945  1.00  0.00    -0.000 C 
BRANCH  20  21
ATOM     21  C   UNL     1       5.979  28.921  18.723  1.00  0.00    -0.000 C 
BRANCH  21  22
ATOM     22  C   UNL     1       4.536  29.192  19.173  1.00  0.00    -0.000 C 
BRANCH  22  23
ATOM     23  C   UNL     1       3.527  28.196  18.577  1.00  0.00    -0.000 C 
BRANCH  23  24
ATOM     24  C   UNL     1       2.566  28.828  17.548  1.00  0.00    -0.000 C 
BRANCH  24  25
ATOM     25  C   UNL     1       2.454  27.990  16.265  1.00  0.00    -0.003 C 
ATOM     26  C   UNL     1       2.334  26.503  16.588  1.00  0.00     0.004 C 
ENDBRANCH  24  25
ENDBRANCH  23  24
ENDBRANCH  22  23
ENDBRANCH  21  22
ENDBRANCH  20  21
ENDBRANCH  19  20
ENDBRANCH  18  19
ENDBRANCH  17  18
ENDBRANCH  16  17
ENDBRANCH  15  16
ENDBRANCH   1  15
TORSDOF 22
ENDMDL
MODEL 4
REMARK VINA RESULT:     7.723     11.324     13.037
REMARK INTER + INTRA:          21.732
REMARK INTER:                  23.205
REMARK INTRA:                  -1.473
REMARK UNBOUND:                 4.077
REMARK SMILES CCCCCCCCCCCCCCCCCCCCCCCC(=O)[O-]
REMARK SMILES IDX 13 1 14 2 15 3 16 4 17 5 18 6 19 7 20 8 21 9 22 10 23 11
REMARK SMILES IDX 24 12 25 13 26 14 12 15 11 16 10 17 9 18 8 19 7 20 6 21 5 22
REMARK SMILES IDX 4 23 3 24 2 25 1 26
REMARK H PARENT
REMARK Flexibility Score: inf
ROOT
ATOM      1  C   UNL     1       7.276  22.568  15.335  1.00  0.00     0.000 C 
ENDROOT
BRANCH   1   2
ATOM      2  C   UNL     1       6.545  23.203  16.524  1.00  0.00     0.000 C 
BRANCH   2   3
ATOM      3  C   UNL     1       6.743  22.369  17.799  1.00  0.00     0.000 C 
BRANCH   3   4
ATOM      4  C   UNL     1       5.427  21.795  18.348  1.00  0.00     0.000 C 
BRANCH   4   5
ATOM      5  C   UNL     1       5.550  20.315  18.750  1.00  0.00     0.000 C 
BRANCH   5   6
ATOM      6  C   UNL     1       5.633  19.378  17.534  1.00  0.00     0.000 C 
BRANCH   6   7
ATOM      7  C   UNL     1       5.720  17.894  17.935  1.00  0.00     0.000 C 
BRANCH   7   8
ATOM      8  C   UNL     1       7.161  17.355  17.917  1.00  0.00     0.000 C 
BRANCH   8   9
ATOM      9  C   UNL     1       7.899  17.526  16.577  1.00  0.00     0.000 C 
BRANCH   9  10
ATOM     10  C   UNL     1       8.641  16.252  16.139  1.00  0.00     0.006 C 
BRANCH  10  11
ATOM     11  C   UNL     1       9.297  16.409  14.759  1.00  0.00     0.053 C 
BRANCH  11  12
ATOM     12  C   UNL     1       8.319  16.881  13.728  1.00  0.00     0.041 C 
ATOM     13  O   UNL     1       7.313  16.181  13.439  1.00  0.00    -0.550 OA
ATOM     14  O   UNL     1       8.535  18.082  13.063  1.00  0.00    -0.550 OA
ENDBRANCH  11  12
ENDBRANCH  10  11
ENDBRANCH   9  10
ENDBRANCH   8   9
ENDBRANCH   7   8
ENDBRANCH   6   7
ENDBRANCH   5   6
ENDBRANCH   4   5
ENDBRANCH   3   4
ENDBRANCH   2   3
ENDBRANCH   1   2
BRANCH   1  15
ATOM     15  C   UNL     1       6.865  23.234  14.014  1.00  0.00     0.000 C 
BRANCH  15  16
ATOM     16  C   UNL     1       5.803  24.333  14.196  1.00  0.00     0.000 C 
BRANCH  16  17
ATOM     17  C   UNL     1       5.640  25.295  13.005  1.00  0.00     0.000 C 
BRANCH  17  18
ATOM     18  C   UNL     1       4.640  24.784  11.953  1.00  0.00    -0.000 C 
BRANCH  18  19
ATOM     19  C   UNL     1       4.563  25.700  10.720  1.00  0.00    -0.000 C 
BRANCH  19  20
ATOM     20  C   UNL     1       5.796  26.603  10.571  1.00  0.00    -0.000 C 
BRANCH  20  21
ATOM     21  C   UNL     1       5.745  27.382   9.251  1.00  0.00    -0.000 C 
BRANCH  21  22
ATOM     22  C   UNL     1       4.525  26.971   8.413  1.00  0.00    -0.000 C 
BRANCH  22  23
ATOM     23  C   UNL     1       3.605  28.157   8.076  1.00  0.00    -0.000 C 
BRANCH  23  24
ATOM     24  C   UNL     1       3.837  29.395   8.968  1.00  0.00    -0.000 C 
BRANCH  24  25
ATOM     25  C   UNL     1       2.629  30.344   8.972  1.00  0.00    -0.003 C 
ATOM     26  C   UNL     1       1.591  29.919   7.937  1.00  0.00     0.004 C 
ENDBRANCH  24  25
ENDBRANCH  23  24
ENDBRANCH  22  23
ENDBRANCH  21  22
ENDBRANCH  20  21
ENDBRANCH  19  20
ENDBRANCH  18  19
ENDBRANCH  17  18
ENDBRANCH  16  17
ENDBRANCH  15  16
ENDBRANCH   1  15
TORSDOF 22
ENDMDL
