MODEL 1
REMARK VINA RESULT:    -3.732      0.000      0.000
REMARK INTER + INTRA:          -4.720
REMARK INTER:                  -4.604
REMARK INTRA:                  -0.115
REMARK UNBOUND:                -0.115
REMARK SMILES CCCCCC(=O)[O-]
REMARK SMILES IDX 4 1 5 2 6 3 7 4 8 5 3 6 2 7 1 8
REMARK H PARENT
REMARK Flexibility Score: inf
ROOT
ATOM      1  C   UNL     1      -7.669  13.359 -13.933  1.00  0.00     0.006 C 
ENDROOT
BRANCH   1   2
ATOM      2  C   UNL     1      -8.515  14.603 -13.631  1.00  0.00     0.053 C 
BRANCH   2   3
ATOM      3  C   UNL     1      -8.175  15.194 -12.297  1.00  0.00     0.041 C 
ATOM      4  O   UNL     1      -8.284  16.433 -12.104  1.00  0.00    -0.550 OA
ATOM      5  O   UNL     1      -7.710  14.377 -11.273  1.00  0.00    -0.550 OA
ENDBRANCH   2   3
ENDBRANCH   1   2
BRANCH   1   6
ATOM      6  C   UNL     1      -8.202  12.571 -15.140  1.00  0.00     0.000 C 
BRANCH   6   7
ATOM      7  C   UNL     1      -9.539  13.146 -15.622  1.00  0.00    -0.003 C 
ATOM      8  C   UNL     1     -10.513  12.034 -15.999  1.00  0.00     0.004 C 
ENDBRANCH   6   7
ENDBRANCH   1   6
TORSDOF 4
ENDMDL
MODEL 2
REMARK VINA RESULT:    -3.727      0.131      1.150
REMARK INTER + INTRA:          -4.714
REMARK INTER:                  -4.599
REMARK INTRA:                  -0.115
REMARK UNBOUND:                -0.115
REMARK SMILES CCCCCC(=O)[O-]
REMARK SMILES IDX 4 1 5 2 6 3 7 4 8 5 3 6 2 7 1 8
REMARK H PARENT
REMARK Flexibility Score: inf
ROOT
ATOM      1  C   UNL     1      -7.713  13.276 -13.769  1.00  0.00     0.006 C 
ENDROOT
BRANCH   1   2
ATOM      2  C   UNL     1      -8.425  14.621 -13.573  1.00  0.00     0.053 C 
BRANCH   2   3
ATOM      3  C   UNL     1      -8.153  15.201 -12.219  1.00  0.00     0.041 C 
ATOM      4  O   UNL     1      -7.698  14.474 -11.296  1.00  0.00    -0.550 OA
ATOM      5  O   UNL     1      -8.430  16.539 -11.967  1.00  0.00    -0.550 OA
ENDBRANCH   2   3
ENDBRANCH   1   2
BRANCH   1   6
ATOM      6  C   UNL     1      -8.183  12.548 -15.038  1.00  0.00     0.000 C 
BRANCH   6   7
ATOM      7  C   UNL     1      -9.486  13.157 -15.569  1.00  0.00    -0.003 C 
ATOM      8  C   UNL     1     -10.479  12.070 -15.970  1.00  0.00     0.004 C 
ENDBRANCH   6   7
ENDBRANCH   1   6
TORSDOF 4
ENDMDL
MODEL 3
REMARK VINA RESULT:    -3.664      0.860      1.055
REMARK INTER + INTRA:          -4.636
REMARK INTER:                  -4.517
REMARK INTRA:                  -0.119
REMARK UNBOUND:                -0.115
REMARK SMILES CCCCCC(=O)[O-]
REMARK SMILES IDX 4 1 5 2 6 3 7 4 8 5 3 6 2 7 1 8
REMARK H PARENT
REMARK Flexibility Score: inf
ROOT
ATOM      1  C   UNL     1      -8.009  13.638 -13.690  1.00  0.00     0.006 C 
ENDROOT
BRANCH   1   2
ATOM      2  C   UNL     1      -8.466  15.045 -14.097  1.00  0.00     0.053 C 
BRANCH   2   3
ATOM      3  C   UNL     1      -8.819  15.880 -12.905  1.00  0.00     0.041 C 
ATOM      4  O   UNL     1      -9.961  16.403 -12.811  1.00  0.00    -0.550 OA
ATOM      5  O   UNL     1      -7.876  16.106 -11.909  1.00  0.00    -0.550 OA
ENDBRANCH   2   3
ENDBRANCH   1   2
BRANCH   1   6
ATOM      6  C   UNL     1      -8.427  12.571 -14.713  1.00  0.00     0.000 C 
BRANCH   6   7
ATOM      7  C   UNL     1      -9.454  13.134 -15.703  1.00  0.00    -0.003 C 
ATOM      8  C   UNL     1     -10.555  12.118 -15.991  1.00  0.00     0.004 C 
ENDBRANCH   6   7
ENDBRANCH   1   6
TORSDOF 4
ENDMDL
MODEL 4
REMARK VINA RESULT:    -3.449      1.738      2.386
REMARK INTER + INTRA:          -4.370
REMARK INTER:                  -4.217
REMARK INTRA:                  -0.154
REMARK UNBOUND:                -0.115
REMARK SMILES CCCCCC(=O)[O-]
REMARK SMILES IDX 4 1 5 2 6 3 7 4 8 5 3 6 2 7 1 8
REMARK H PARENT
REMARK Flexibility Score: inf
ROOT
ATOM      1  C   UNL     1      -8.458  15.336 -14.885  1.00  0.00     0.006 C 
ENDROOT
BRANCH   1   2
ATOM      2  C   UNL     1      -8.417  16.781 -14.371  1.00  0.00     0.053 C 
BRANCH   2   3
ATOM      3  C   UNL     1      -9.228  16.949 -13.122  1.00  0.00     0.041 C 
ATOM      4  O   UNL     1     -10.373  16.433 -13.034  1.00  0.00    -0.550 OA
ATOM      5  O   UNL     1      -8.729  17.700 -12.065  1.00  0.00    -0.550 OA
ENDBRANCH   2   3
ENDBRANCH   1   2
BRANCH   1   6
ATOM      6  C   UNL     1      -7.630  14.384 -14.009  1.00  0.00     0.000 C 
BRANCH   6   7
ATOM      7  C   UNL     1      -8.097  12.934 -14.182  1.00  0.00    -0.003 C 
ATOM      8  C   UNL     1      -9.284  12.848 -15.137  1.00  0.00     0.004 C 
ENDBRANCH   6   7
ENDBRANCH   1   6
TORSDOF 4
ENDMDL
MODEL 5
REMARK VINA RESULT:    -3.234      1.202      2.096
REMARK INTER + INTRA:          -4.106
REMARK INTER:                  -3.957
REMARK INTRA:                  -0.149
REMARK UNBOUND:                -0.115
REMARK SMILES CCCCCC(=O)[O-]
REMARK SMILES IDX 4 1 5 2 6 3 7 4 8 5 3 6 2 7 1 8
REMARK H PARENT
REMARK Flexibility Score: inf
ROOT
ATOM      1  C   UNL     1      -8.398  13.250 -14.107  1.00  0.00     0.006 C 
ENDROOT
BRANCH   1   2
ATOM      2  C   UNL     1      -8.683  14.708 -13.721  1.00  0.00     0.053 C 
BRANCH   2   3
ATOM      3  C   UNL     1      -8.001  15.087 -12.443  1.00  0.00     0.041 C 
ATOM      4  O   UNL     1      -7.708  16.289 -12.211  1.00  0.00    -0.550 OA
ATOM      5  O   UNL     1      -7.663  14.106 -11.518  1.00  0.00    -0.550 OA
ENDBRANCH   2   3
ENDBRANCH   1   2
BRANCH   1   6
ATOM      6  C   UNL     1      -8.018  13.103 -15.588  1.00  0.00     0.000 C 
BRANCH   6   7
ATOM      7  C   UNL     1      -6.525  12.791 -15.743  1.00  0.00    -0.003 C 
ATOM      8  C   UNL     1      -5.883  12.487 -14.392  1.00  0.00     0.004 C 
ENDBRANCH   6   7
ENDBRANCH   1   6
TORSDOF 4
ENDMDL
MODEL 6
REMARK VINA RESULT:    -3.212      2.653      4.517
REMARK INTER + INTRA:          -4.078
REMARK INTER:                  -3.962
REMARK INTRA:                  -0.117
REMARK UNBOUND:                -0.115
REMARK SMILES CCCCCC(=O)[O-]
REMARK SMILES IDX 4 1 5 2 6 3 7 4 8 5 3 6 2 7 1 8
REMARK H PARENT
REMARK Flexibility Score: inf
ROOT
ATOM      1  C   UNL     1      -9.402  16.225 -12.665  1.00  0.00     0.006 C 
ENDROOT
BRANCH   1   2
ATOM      2  C   UNL     1      -8.209  15.521 -13.324  1.00  0.00     0.053 C 
BRANCH   2   3
ATOM      3  C   UNL     1      -7.831  14.269 -12.593  1.00  0.00     0.041 C 
ATOM      4  O   UNL     1      -7.670  14.285 -11.345  1.00  0.00    -0.550 OA
ATOM      5  O   UNL     1      -7.629  13.087 -13.297  1.00  0.00    -0.550 OA
ENDBRANCH   2   3
ENDBRANCH   1   2
BRANCH   1   6
ATOM      6  C   UNL     1      -9.199  17.745 -12.568  1.00  0.00     0.000 C 
BRANCH   6   7
ATOM      7  C   UNL     1      -8.397  18.269 -13.765  1.00  0.00    -0.003 C 
ATOM      8  C   UNL     1      -7.931  19.703 -13.531  1.00  0.00     0.004 C 
ENDBRANCH   6   7
ENDBRANCH   1   6
TORSDOF 4
ENDMDL
MODEL 7
REMARK VINA RESULT:    -3.210      2.685      4.222
REMARK INTER + INTRA:          -4.076
REMARK INTER:                  -3.921
REMARK INTRA:                  -0.155
REMARK UNBOUND:                -0.115
REMARK SMILES CCCCCC(=O)[O-]
REMARK SMILES IDX 4 1 5 2 6 3 7 4 8 5 3 6 2 7 1 8
REMARK H PARENT
REMARK Flexibility Score: inf
ROOT
ATOM      1  C   UNL     1      -7.747  15.135 -13.475  1.00  0.00     0.006 C 
ENDROOT
BRANCH   1   2
ATOM      2  C   UNL     1      -8.137  13.749 -14.007  1.00  0.00     0.053 C 
BRANCH   2   3
ATOM      3  C   UNL     1      -9.107  13.845 -15.145  1.00  0.00     0.041 C 
ATOM      4  O   UNL     1      -9.061  14.821 -15.939  1.00  0.00    -0.550 OA
ATOM      5  O   UNL     1     -10.082  12.869 -15.311  1.00  0.00    -0.550 OA
ENDBRANCH   2   3
ENDBRANCH   1   2
BRANCH   1   6
ATOM      6  C   UNL     1      -8.605  15.560 -12.274  1.00  0.00     0.000 C 
BRANCH   6   7
ATOM      7  C   UNL     1      -9.642  16.612 -12.686  1.00  0.00    -0.003 C 
ATOM      8  C   UNL     1      -8.994  17.979 -12.879  1.00  0.00     0.004 C 
ENDBRANCH   6   7
ENDBRANCH   1   6
TORSDOF 4
ENDMDL
MODEL 8
REMARK VINA RESULT:    -3.192      3.293      5.124
REMARK INTER + INTRA:          -4.053
REMARK INTER:                  -3.900
REMARK INTRA:                  -0.153
REMARK UNBOUND:                -0.115
REMARK SMILES CCCCCC(=O)[O-]
REMARK SMILES IDX 4 1 5 2 6 3 7 4 8 5 3 6 2 7 1 8
REMARK H PARENT
REMARK Flexibility Score: inf
ROOT
ATOM      1  C   UNL     1      -8.933  18.158 -12.844  1.00  0.00     0.006 C 
ENDROOT
BRANCH   1   2
ATOM      2  C   UNL     1      -9.703  16.837 -12.722  1.00  0.00     0.053 C 
BRANCH   2   3
ATOM      3  C   UNL     1      -8.788  15.653 -12.795  1.00  0.00     0.041 C 
ATOM      4  O   UNL     1      -8.984  14.749 -13.649  1.00  0.00    -0.550 OA
ATOM      5  O   UNL     1      -7.734  15.533 -11.896  1.00  0.00    -0.550 OA
ENDBRANCH   2   3
ENDBRANCH   1   2
BRANCH   1   6
ATOM      6  C   UNL     1      -8.204  18.285 -14.190  1.00  0.00     0.000 C 
BRANCH   6   7
ATOM      7  C   UNL     1      -7.111  19.358 -14.122  1.00  0.00    -0.003 C 
ATOM      8  C   UNL     1      -7.502  20.484 -13.170  1.00  0.00     0.004 C 
ENDBRANCH   6   7
ENDBRANCH   1   6
TORSDOF 4
ENDMDL
