MODEL 1
REMARK VINA RESULT:    -5.945      0.000      0.000
REMARK INTER + INTRA:          -6.682
REMARK INTER:                  -6.640
REMARK INTRA:                  -0.042
REMARK UNBOUND:                -0.042
REMARK SMILES O=C([O-])c1ccc(O)c(O)c1
REMARK SMILES IDX 4 1 11 2 5 3 9 4 6 5 7 6 2 7 1 8 3 9 10 10 8 12
REMARK H PARENT 10 11 8 13
REMARK Flexibility Score: inf
ROOT
ATOM      1  C   UNL     1     136.465 134.671 113.799  1.00  0.00     0.001 A 
ATOM      2  C   UNL     1     137.569 134.502 112.945  1.00  0.00     0.060 A 
ATOM      3  C   UNL     1     136.689 134.825 115.178  1.00  0.00     0.014 A 
ATOM      4  C   UNL     1     138.875 134.488 113.459  1.00  0.00     0.158 A 
ATOM      5  C   UNL     1     137.989 134.810 115.691  1.00  0.00     0.051 A 
ATOM      6  C   UNL     1     139.083 134.642 114.839  1.00  0.00     0.157 A 
ENDROOT
BRANCH   1   7
ATOM      7  C   UNL     1     135.092 134.687 113.251  1.00  0.00     0.072 C 
ATOM      8  O   UNL     1     134.876 135.071 112.071  1.00  0.00    -0.545 OA
ATOM      9  O   UNL     1     134.017 134.277 114.033  1.00  0.00    -0.545 OA
ENDBRANCH   1   7
BRANCH   4  10
ATOM     10  O   UNL     1     139.962 134.320 112.603  1.00  0.00    -0.504 OA
ATOM     11  H   UNL     1     139.855 133.908 111.683  1.00  0.00     0.293 HD
ENDBRANCH   4  10
BRANCH   6  12
ATOM     12  O   UNL     1     140.369 134.631 115.380  1.00  0.00    -0.504 OA
ATOM     13  H   UNL     1     140.709 133.861 115.944  1.00  0.00     0.293 HD
ENDBRANCH   6  12
TORSDOF 3
ENDMDL
MODEL 2
REMARK VINA RESULT:    -5.916     10.047     11.739
REMARK INTER + INTRA:          -6.649
REMARK INTER:                  -6.612
REMARK INTRA:                  -0.038
REMARK UNBOUND:                -0.042
REMARK SMILES O=C([O-])c1ccc(O)c(O)c1
REMARK SMILES IDX 4 1 11 2 5 3 9 4 6 5 7 6 2 7 1 8 3 9 10 10 8 12
REMARK H PARENT 10 11 8 13
REMARK Flexibility Score: inf
ROOT
ATOM      1  C   UNL     1     128.287 133.757 108.248  1.00  0.00     0.001 A 
ATOM      2  C   UNL     1     128.647 134.605 107.187  1.00  0.00     0.060 A 
ATOM      3  C   UNL     1     127.187 134.103 109.053  1.00  0.00     0.014 A 
ATOM      4  C   UNL     1     127.921 135.778 106.931  1.00  0.00     0.158 A 
ATOM      5  C   UNL     1     126.464 135.272 108.799  1.00  0.00     0.051 A 
ATOM      6  C   UNL     1     126.825 136.112 107.743  1.00  0.00     0.157 A 
ENDROOT
BRANCH   1   7
ATOM      7  C   UNL     1     129.056 132.522 108.512  1.00  0.00     0.072 C 
ATOM      8  O   UNL     1     129.135 131.617 107.639  1.00  0.00    -0.545 OA
ATOM      9  O   UNL     1     129.703 132.340 109.730  1.00  0.00    -0.545 OA
ENDBRANCH   1   7
BRANCH   4  10
ATOM     10  O   UNL     1     128.287 136.613 105.875  1.00  0.00    -0.504 OA
ATOM     11  H   UNL     1     129.173 136.504 105.395  1.00  0.00     0.293 HD
ENDBRANCH   4  10
BRANCH   6  12
ATOM     12  O   UNL     1     126.084 137.272 107.515  1.00  0.00    -0.504 OA
ATOM     13  H   UNL     1     125.433 137.350 106.742  1.00  0.00     0.293 HD
ENDBRANCH   6  12
TORSDOF 3
ENDMDL
MODEL 3
REMARK VINA RESULT:    -5.873     10.357     12.154
REMARK INTER + INTRA:          -6.602
REMARK INTER:                  -6.566
REMARK INTRA:                  -0.036
REMARK UNBOUND:                -0.042
REMARK SMILES O=C([O-])c1ccc(O)c(O)c1
REMARK SMILES IDX 4 1 11 2 5 3 9 4 6 5 7 6 2 7 1 8 3 9 10 10 8 12
REMARK H PARENT 10 11 8 13
REMARK Flexibility Score: inf
ROOT
ATOM      1  C   UNL     1     128.332 133.774 107.703  1.00  0.00     0.001 A 
ATOM      2  C   UNL     1     127.276 133.954 108.613  1.00  0.00     0.060 A 
ATOM      3  C   UNL     1     128.602 134.784 106.763  1.00  0.00     0.014 A 
ATOM      4  C   UNL     1     126.502 135.124 108.586  1.00  0.00     0.158 A 
ATOM      5  C   UNL     1     127.830 135.949 106.735  1.00  0.00     0.051 A 
ATOM      6  C   UNL     1     126.780 136.125 107.640  1.00  0.00     0.157 A 
ENDROOT
BRANCH   1   7
ATOM      7  C   UNL     1     129.146 132.540 107.737  1.00  0.00     0.072 C 
ATOM      8  O   UNL     1     130.178 132.472 108.456  1.00  0.00    -0.545 OA
ATOM      9  O   UNL     1     128.784 131.435 106.974  1.00  0.00    -0.545 OA
ENDBRANCH   1   7
BRANCH   4  10
ATOM     10  O   UNL     1     125.456 135.292 109.493  1.00  0.00    -0.504 OA
ATOM     11  H   UNL     1     125.017 136.194 109.635  1.00  0.00     0.293 HD
ENDBRANCH   4  10
BRANCH   6  12
ATOM     12  O   UNL     1     126.028 137.298 107.588  1.00  0.00    -0.504 OA
ATOM     13  H   UNL     1     125.629 137.718 108.419  1.00  0.00     0.293 HD
ENDBRANCH   6  12
TORSDOF 3
ENDMDL
MODEL 4
REMARK VINA RESULT:    -5.758     10.725     11.919
REMARK INTER + INTRA:          -6.474
REMARK INTER:                  -6.429
REMARK INTRA:                  -0.044
REMARK UNBOUND:                -0.042
REMARK SMILES O=C([O-])c1ccc(O)c(O)c1
REMARK SMILES IDX 4 1 11 2 5 3 9 4 6 5 7 6 2 7 1 8 3 9 10 10 8 12
REMARK H PARENT 10 11 8 13
REMARK Flexibility Score: inf
ROOT
ATOM      1  C   UNL     1     127.913 134.150 108.146  1.00  0.00     0.001 A 
ATOM      2  C   UNL     1     127.321 135.193 107.413  1.00  0.00     0.060 A 
ATOM      3  C   UNL     1     127.872 134.196 109.551  1.00  0.00     0.014 A 
ATOM      4  C   UNL     1     126.698 136.265 108.070  1.00  0.00     0.158 A 
ATOM      5  C   UNL     1     127.252 135.264 110.206  1.00  0.00     0.051 A 
ATOM      6  C   UNL     1     126.666 136.299 109.474  1.00  0.00     0.157 A 
ENDROOT
BRANCH   1   7
ATOM      7  C   UNL     1     128.568 133.023 107.448  1.00  0.00     0.072 C 
ATOM      8  O   UNL     1     128.985 132.024 108.093  1.00  0.00    -0.545 OA
ATOM      9  O   UNL     1     128.732 133.049 106.067  1.00  0.00    -0.545 OA
ENDBRANCH   1   7
BRANCH   4  10
ATOM     10  O   UNL     1     126.114 137.295 107.333  1.00  0.00    -0.504 OA
ATOM     11  H   UNL     1     126.058 137.257 106.322  1.00  0.00     0.293 HD
ENDBRANCH   4  10
BRANCH   6  12
ATOM     12  O   UNL     1     126.054 137.351 110.156  1.00  0.00    -0.504 OA
ATOM     13  H   UNL     1     125.132 137.690 109.907  1.00  0.00     0.293 HD
ENDBRANCH   6  12
TORSDOF 3
ENDMDL
MODEL 5
REMARK VINA RESULT:    -5.692      1.550      2.602
REMARK INTER + INTRA:          -6.400
REMARK INTER:                  -6.356
REMARK INTRA:                  -0.044
REMARK UNBOUND:                -0.042
REMARK SMILES O=C([O-])c1ccc(O)c(O)c1
REMARK SMILES IDX 4 1 11 2 5 3 9 4 6 5 7 6 2 7 1 8 3 9 10 10 8 12
REMARK H PARENT 10 11 8 13
REMARK Flexibility Score: inf
ROOT
ATOM      1  C   UNL     1     137.152 134.644 114.586  1.00  0.00     0.001 A 
ATOM      2  C   UNL     1     136.977 134.546 115.977  1.00  0.00     0.060 A 
ATOM      3  C   UNL     1     138.456 134.650 114.061  1.00  0.00     0.014 A 
ATOM      4  C   UNL     1     138.086 134.455 116.831  1.00  0.00     0.158 A 
ATOM      5  C   UNL     1     139.561 134.560 114.912  1.00  0.00     0.051 A 
ATOM      6  C   UNL     1     139.384 134.463 116.294  1.00  0.00     0.157 A 
ENDROOT
BRANCH   1   7
ATOM      7  C   UNL     1     135.979 134.739 113.690  1.00  0.00     0.072 C 
ATOM      8  O   UNL     1     136.127 134.973 112.461  1.00  0.00    -0.545 OA
ATOM      9  O   UNL     1     134.693 134.571 114.192  1.00  0.00    -0.545 OA
ENDBRANCH   1   7
BRANCH   4  10
ATOM     10  O   UNL     1     137.902 134.358 118.211  1.00  0.00    -0.504 OA
ATOM     11  H   UNL     1     137.992 135.166 118.816  1.00  0.00     0.293 HD
ENDBRANCH   4  10
BRANCH   6  12
ATOM     12  O   UNL     1     140.507 134.375 117.118  1.00  0.00    -0.504 OA
ATOM     13  H   UNL     1     141.355 133.907 116.822  1.00  0.00     0.293 HD
ENDBRANCH   6  12
TORSDOF 3
ENDMDL
MODEL 6
REMARK VINA RESULT:    -5.668     11.500     12.095
REMARK INTER + INTRA:          -6.373
REMARK INTER:                  -6.336
REMARK INTRA:                  -0.037
REMARK UNBOUND:                -0.042
REMARK SMILES O=C([O-])c1ccc(O)c(O)c1
REMARK SMILES IDX 4 1 11 2 5 3 9 4 6 5 7 6 2 7 1 8 3 9 10 10 8 12
REMARK H PARENT 10 11 8 13
REMARK Flexibility Score: inf
ROOT
ATOM      1  C   UNL     1     126.521 134.923 109.073  1.00  0.00     0.001 A 
ATOM      2  C   UNL     1     126.612 136.230 108.565  1.00  0.00     0.060 A 
ATOM      3  C   UNL     1     127.320 133.915 108.508  1.00  0.00     0.014 A 
ATOM      4  C   UNL     1     127.488 136.527 107.510  1.00  0.00     0.158 A 
ATOM      5  C   UNL     1     128.192 134.210 107.456  1.00  0.00     0.051 A 
ATOM      6  C   UNL     1     128.280 135.510 106.953  1.00  0.00     0.157 A 
ENDROOT
BRANCH   1   7
ATOM      7  C   UNL     1     125.597 134.617 110.186  1.00  0.00     0.072 C 
ATOM      8  O   UNL     1     124.606 133.859 110.007  1.00  0.00    -0.545 OA
ATOM      9  O   UNL     1     125.808 135.161 111.449  1.00  0.00    -0.545 OA
ENDBRANCH   1   7
BRANCH   4  10
ATOM     10  O   UNL     1     127.571 137.828 107.013  1.00  0.00    -0.504 OA
ATOM     11  H   UNL     1     128.086 138.041 106.168  1.00  0.00     0.293 HD
ENDBRANCH   4  10
BRANCH   6  12
ATOM     12  O   UNL     1     129.160 135.774 105.903  1.00  0.00    -0.504 OA
ATOM     13  H   UNL     1     128.833 135.988 104.968  1.00  0.00     0.293 HD
ENDBRANCH   6  12
TORSDOF 3
ENDMDL
MODEL 7
REMARK VINA RESULT:    -5.427      6.387      7.774
REMARK INTER + INTRA:          -6.104
REMARK INTER:                  -6.060
REMARK INTRA:                  -0.044
REMARK UNBOUND:                -0.042
REMARK SMILES O=C([O-])c1ccc(O)c(O)c1
REMARK SMILES IDX 4 1 11 2 5 3 9 4 6 5 7 6 2 7 1 8 3 9 10 10 8 12
REMARK H PARENT 10 11 8 13
REMARK Flexibility Score: inf
ROOT
ATOM      1  C   UNL     1     129.722 133.300 110.649  1.00  0.00     0.001 A 
ATOM      2  C   UNL     1     130.698 132.696 109.838  1.00  0.00     0.060 A 
ATOM      3  C   UNL     1     129.923 133.341 112.040  1.00  0.00     0.014 A 
ATOM      4  C   UNL     1     131.857 132.145 110.404  1.00  0.00     0.158 A 
ATOM      5  C   UNL     1     131.077 132.791 112.605  1.00  0.00     0.051 A 
ATOM      6  C   UNL     1     132.045 132.192 111.795  1.00  0.00     0.157 A 
ENDROOT
BRANCH   1   7
ATOM      7  C   UNL     1     128.503 133.881 110.047  1.00  0.00     0.072 C 
ATOM      8  O   UNL     1     128.237 133.694 108.830  1.00  0.00    -0.545 OA
ATOM      9  O   UNL     1     127.630 134.643 110.816  1.00  0.00    -0.545 OA
ENDBRANCH   1   7
BRANCH   4  10
ATOM     10  O   UNL     1     132.819 131.548 109.589  1.00  0.00    -0.504 OA
ATOM     11  H   UNL     1     133.133 131.986 108.731  1.00  0.00     0.293 HD
ENDBRANCH   4  10
BRANCH   6  12
ATOM     12  O   UNL     1     133.186 131.651 112.387  1.00  0.00    -0.504 OA
ATOM     13  H   UNL     1     133.198 131.347 113.354  1.00  0.00     0.293 HD
ENDBRANCH   6  12
TORSDOF 3
ENDMDL
MODEL 8
REMARK VINA RESULT:    -5.405      8.075      9.874
REMARK INTER + INTRA:          -6.079
REMARK INTER:                  -6.039
REMARK INTRA:                  -0.040
REMARK UNBOUND:                -0.042
REMARK SMILES O=C([O-])c1ccc(O)c(O)c1
REMARK SMILES IDX 4 1 11 2 5 3 9 4 6 5 7 6 2 7 1 8 3 9 10 10 8 12
REMARK H PARENT 10 11 8 13
REMARK Flexibility Score: inf
ROOT
ATOM      1  C   UNL     1     129.906 133.355 109.817  1.00  0.00     0.001 A 
ATOM      2  C   UNL     1     129.957 134.751 109.670  1.00  0.00     0.060 A 
ATOM      3  C   UNL     1     129.474 132.570 108.734  1.00  0.00     0.014 A 
ATOM      4  C   UNL     1     129.585 135.356 108.460  1.00  0.00     0.158 A 
ATOM      5  C   UNL     1     129.102 133.172 107.528  1.00  0.00     0.051 A 
ATOM      6  C   UNL     1     129.154 134.561 107.385  1.00  0.00     0.157 A 
ENDROOT
BRANCH   1   7
ATOM      7  C   UNL     1     130.301 132.723 111.095  1.00  0.00     0.072 C 
ATOM      8  O   UNL     1     130.977 131.659 111.103  1.00  0.00    -0.545 OA
ATOM      9  O   UNL     1     129.932 133.294 112.308  1.00  0.00    -0.545 OA
ENDBRANCH   1   7
BRANCH   4  10
ATOM     10  O   UNL     1     129.639 136.743 108.324  1.00  0.00    -0.504 OA
ATOM     11  H   UNL     1     130.165 137.183 107.578  1.00  0.00     0.293 HD
ENDBRANCH   4  10
BRANCH   6  12
ATOM     12  O   UNL     1     128.776 135.132 106.170  1.00  0.00    -0.504 OA
ATOM     13  H   UNL     1     128.202 135.965 106.123  1.00  0.00     0.293 HD
ENDBRANCH   6  12
TORSDOF 3
ENDMDL
MODEL 9
REMARK VINA RESULT:    -5.309     11.103     11.834
REMARK INTER + INTRA:          -5.972
REMARK INTER:                  -5.936
REMARK INTRA:                  -0.036
REMARK UNBOUND:                -0.042
REMARK SMILES O=C([O-])c1ccc(O)c(O)c1
REMARK SMILES IDX 4 1 11 2 5 3 9 4 6 5 7 6 2 7 1 8 3 9 10 10 8 12
REMARK H PARENT 10 11 8 13
REMARK Flexibility Score: inf
ROOT
ATOM      1  C   UNL     1     126.606 134.808 109.113  1.00  0.00     0.001 A 
ATOM      2  C   UNL     1     127.552 133.874 108.655  1.00  0.00     0.060 A 
ATOM      3  C   UNL     1     126.518 136.057 108.475  1.00  0.00     0.014 A 
ATOM      4  C   UNL     1     128.395 134.182 107.577  1.00  0.00     0.158 A 
ATOM      5  C   UNL     1     127.359 136.365 107.402  1.00  0.00     0.051 A 
ATOM      6  C   UNL     1     128.298 135.434 106.949  1.00  0.00     0.157 A 
ENDROOT
BRANCH   1   7
ATOM      7  C   UNL     1     125.719 134.477 110.249  1.00  0.00     0.072 C 
ATOM      8  O   UNL     1     126.069 134.733 111.432  1.00  0.00    -0.545 OA
ATOM      9  O   UNL     1     124.484 133.878 110.029  1.00  0.00    -0.545 OA
ENDBRANCH   1   7
BRANCH   4  10
ATOM     10  O   UNL     1     129.330 133.248 107.130  1.00  0.00    -0.504 OA
ATOM     11  H   UNL     1     129.057 132.451 106.568  1.00  0.00     0.293 HD
ENDBRANCH   4  10
BRANCH   6  12
ATOM     12  O   UNL     1     129.122 135.770 105.875  1.00  0.00    -0.504 OA
ATOM     13  H   UNL     1     130.133 135.772 105.953  1.00  0.00     0.293 HD
ENDBRANCH   6  12
TORSDOF 3
ENDMDL
