MODEL 1
REMARK VINA RESULT:    -2.097      0.000      0.000
REMARK INTER + INTRA:          -2.097
REMARK INTER:                  -2.097
REMARK INTRA:                   0.000
REMARK UNBOUND:                 0.000
REMARK SMILES CC(=O)[O-]
REMARK SMILES IDX 1 1 2 2 3 3 4 4
REMARK H PARENT
REMARK Flexibility Score: inf
ROOT
ATOM      1  C   UNL     1      48.756 -13.308 -56.128  1.00  0.00     0.063 C 
ATOM      2  C   UNL     1      48.039 -14.563 -55.760  1.00  0.00     0.038 C 
ATOM      3  O   UNL     1      47.072 -14.524 -54.955  1.00  0.00    -0.550 OA
ATOM      4  O   UNL     1      48.400 -15.769 -56.346  1.00  0.00    -0.550 OA
ENDROOT
TORSDOF 0
ENDMDL
MODEL 2
REMARK VINA RESULT:    -2.089      0.121      1.622
REMARK INTER + INTRA:          -2.089
REMARK INTER:                  -2.089
REMARK INTRA:                   0.000
REMARK UNBOUND:                 0.000
REMARK SMILES CC(=O)[O-]
REMARK SMILES IDX 1 1 2 2 3 3 4 4
REMARK H PARENT
REMARK Flexibility Score: inf
ROOT
ATOM      1  C   UNL     1      48.809 -13.292 -56.140  1.00  0.00     0.063 C 
ATOM      2  C   UNL     1      48.083 -14.540 -55.766  1.00  0.00     0.038 C 
ATOM      3  O   UNL     1      48.386 -15.635 -56.309  1.00  0.00    -0.550 OA
ATOM      4  O   UNL     1      47.107 -14.508 -54.778  1.00  0.00    -0.550 OA
ENDROOT
TORSDOF 0
ENDMDL
MODEL 3
REMARK VINA RESULT:    -2.033      1.349      1.784
REMARK INTER + INTRA:          -2.033
REMARK INTER:                  -2.033
REMARK INTRA:                   0.000
REMARK UNBOUND:                 0.000
REMARK SMILES CC(=O)[O-]
REMARK SMILES IDX 1 1 2 2 3 3 4 4
REMARK H PARENT
REMARK Flexibility Score: inf
ROOT
ATOM      1  C   UNL     1      48.099 -16.094 -56.323  1.00  0.00     0.063 C 
ATOM      2  C   UNL     1      48.006 -14.738 -55.708  1.00  0.00     0.038 C 
ATOM      3  O   UNL     1      47.158 -14.511 -54.806  1.00  0.00    -0.550 OA
ATOM      4  O   UNL     1      48.891 -13.738 -56.090  1.00  0.00    -0.550 OA
ENDROOT
TORSDOF 0
ENDMDL
MODEL 4
REMARK VINA RESULT:    -1.972      9.350      9.767
REMARK INTER + INTRA:          -1.972
REMARK INTER:                  -1.972
REMARK INTRA:                   0.000
REMARK UNBOUND:                 0.000
REMARK SMILES CC(=O)[O-]
REMARK SMILES IDX 1 1 2 2 3 3 4 4
REMARK H PARENT
REMARK Flexibility Score: inf
ROOT
ATOM      1  C   UNL     1      47.592 -21.211 -47.542  1.00  0.00     0.063 C 
ATOM      2  C   UNL     1      47.118 -19.858 -47.955  1.00  0.00     0.038 C 
ATOM      3  O   UNL     1      47.927 -18.896 -48.013  1.00  0.00    -0.550 OA
ATOM      4  O   UNL     1      45.794 -19.669 -48.331  1.00  0.00    -0.550 OA
ENDROOT
TORSDOF 0
ENDMDL
MODEL 5
REMARK VINA RESULT:    -1.962      1.985      2.474
REMARK INTER + INTRA:          -1.962
REMARK INTER:                  -1.962
REMARK INTRA:                   0.000
REMARK UNBOUND:                 0.000
REMARK SMILES CC(=O)[O-]
REMARK SMILES IDX 1 1 2 2 3 3 4 4
REMARK H PARENT
REMARK Flexibility Score: inf
ROOT
ATOM      1  C   UNL     1      47.488 -14.569 -55.347  1.00  0.00     0.063 C 
ATOM      2  C   UNL     1      48.058 -13.449 -56.151  1.00  0.00     0.038 C 
ATOM      3  O   UNL     1      49.296 -13.224 -56.133  1.00  0.00    -0.550 OA
ATOM      4  O   UNL     1      47.231 -12.686 -56.966  1.00  0.00    -0.550 OA
ENDROOT
TORSDOF 0
ENDMDL
MODEL 6
REMARK VINA RESULT:    -1.902      2.634      3.158
REMARK INTER + INTRA:          -1.902
REMARK INTER:                  -1.902
REMARK INTRA:                   0.000
REMARK UNBOUND:                 0.000
REMARK SMILES CC(=O)[O-]
REMARK SMILES IDX 1 1 2 2 3 3 4 4
REMARK H PARENT
REMARK Flexibility Score: inf
ROOT
ATOM      1  C   UNL     1      48.924 -13.206 -56.102  1.00  0.00     0.063 C 
ATOM      2  C   UNL     1      47.949 -12.201 -56.616  1.00  0.00     0.038 C 
ATOM      3  O   UNL     1      46.960 -12.574 -57.300  1.00  0.00    -0.550 OA
ATOM      4  O   UNL     1      48.099 -10.858 -56.296  1.00  0.00    -0.550 OA
ENDROOT
TORSDOF 0
ENDMDL
MODEL 7
REMARK VINA RESULT:    -1.858      7.607      8.160
REMARK INTER + INTRA:          -1.858
REMARK INTER:                  -1.858
REMARK INTRA:                   0.000
REMARK UNBOUND:                 0.000
REMARK SMILES CC(=O)[O-]
REMARK SMILES IDX 1 1 2 2 3 3 4 4
REMARK H PARENT
REMARK Flexibility Score: inf
ROOT
ATOM      1  C   UNL     1      51.377  -6.269 -55.028  1.00  0.00     0.063 C 
ATOM      2  C   UNL     1      50.096  -6.788 -54.468  1.00  0.00     0.038 C 
ATOM      3  O   UNL     1      49.124  -6.009 -54.287  1.00  0.00    -0.550 OA
ATOM      4  O   UNL     1      49.953  -8.142 -54.196  1.00  0.00    -0.550 OA
ENDROOT
TORSDOF 0
ENDMDL
MODEL 8
REMARK VINA RESULT:    -1.843      2.155      2.414
REMARK INTER + INTRA:          -1.843
REMARK INTER:                  -1.843
REMARK INTRA:                   0.000
REMARK UNBOUND:                 0.000
REMARK SMILES CC(=O)[O-]
REMARK SMILES IDX 1 1 2 2 3 3 4 4
REMARK H PARENT
REMARK Flexibility Score: inf
ROOT
ATOM      1  C   UNL     1      47.968 -15.105 -55.772  1.00  0.00     0.063 C 
ATOM      2  C   UNL     1      48.023 -16.515 -56.255  1.00  0.00     0.038 C 
ATOM      3  O   UNL     1      47.587 -16.809 -57.399  1.00  0.00    -0.550 OA
ATOM      4  O   UNL     1      48.605 -17.499 -55.466  1.00  0.00    -0.550 OA
ENDROOT
TORSDOF 0
ENDMDL
MODEL 9
REMARK VINA RESULT:    -1.841      8.522      9.068
REMARK INTER + INTRA:          -1.841
REMARK INTER:                  -1.841
REMARK INTRA:                   0.000
REMARK UNBOUND:                 0.000
REMARK SMILES CC(=O)[O-]
REMARK SMILES IDX 1 1 2 2 3 3 4 4
REMARK H PARENT
REMARK Flexibility Score: inf
ROOT
ATOM      1  C   UNL     1      50.291  -4.834 -54.490  1.00  0.00     0.063 C 
ATOM      2  C   UNL     1      50.885  -6.146 -54.879  1.00  0.00     0.038 C 
ATOM      3  O   UNL     1      51.865  -6.186 -55.668  1.00  0.00    -0.550 OA
ATOM      4  O   UNL     1      50.394  -7.323 -54.329  1.00  0.00    -0.550 OA
ENDROOT
TORSDOF 0
ENDMDL
