MODEL 1
REMARK VINA RESULT:    -3.032      0.000      0.000
REMARK INTER + INTRA:          -3.326
REMARK INTER:                  -3.297
REMARK INTRA:                  -0.029
REMARK UNBOUND:                -0.029
REMARK SMILES O=C([O-])c1ccc(O)cc1
REMARK SMILES IDX 4 1 5 2 10 3 6 4 9 5 7 6 2 7 1 8 3 9 8 10
REMARK H PARENT 8 11
REMARK Flexibility Score: inf
ROOT
ATOM      1  C   UNL     1      -9.040   8.793  -0.312  1.00  0.00    -0.003 A 
ATOM      2  C   UNL     1     -10.125   8.518  -1.164  1.00  0.00     0.014 A 
ATOM      3  C   UNL     1      -7.764   8.983  -0.873  1.00  0.00     0.014 A 
ATOM      4  C   UNL     1      -9.937   8.436  -2.547  1.00  0.00     0.047 A 
ATOM      5  C   UNL     1      -7.579   8.898  -2.257  1.00  0.00     0.047 A 
ATOM      6  C   UNL     1      -8.662   8.626  -3.097  1.00  0.00     0.115 A 
ENDROOT
BRANCH   1   7
ATOM      7  C   UNL     1      -9.233   8.882   1.152  1.00  0.00     0.071 C 
ATOM      8  O   UNL     1      -9.991   9.758   1.646  1.00  0.00    -0.545 OA
ATOM      9  O   UNL     1      -8.580   7.998   2.003  1.00  0.00    -0.545 OA
ENDBRANCH   1   7
BRANCH   6  10
ATOM     10  O   UNL     1      -8.463   8.546  -4.473  1.00  0.00    -0.508 OA
ATOM     11  H   UNL     1      -9.017   7.926  -5.052  1.00  0.00     0.293 HD
ENDBRANCH   6  10
TORSDOF 2
ENDMDL
MODEL 2
REMARK VINA RESULT:    -2.950     17.411     18.113
REMARK INTER + INTRA:          -3.237
REMARK INTER:                  -3.208
REMARK INTRA:                  -0.029
REMARK UNBOUND:                -0.029
REMARK SMILES O=C([O-])c1ccc(O)cc1
REMARK SMILES IDX 4 1 5 2 10 3 6 4 9 5 7 6 2 7 1 8 3 9 8 10
REMARK H PARENT 8 11
REMARK Flexibility Score: inf
ROOT
ATOM      1  C   UNL     1      -9.005  -8.829  -0.541  1.00  0.00    -0.003 A 
ATOM      2  C   UNL     1      -7.760  -9.040   0.078  1.00  0.00     0.014 A 
ATOM      3  C   UNL     1     -10.125  -8.543   0.261  1.00  0.00     0.014 A 
ATOM      4  C   UNL     1      -7.638  -8.967   1.469  1.00  0.00     0.047 A 
ATOM      5  C   UNL     1     -10.000  -8.471   1.652  1.00  0.00     0.047 A 
ATOM      6  C   UNL     1      -8.760  -8.681   2.260  1.00  0.00     0.115 A 
ENDROOT
BRANCH   1   7
ATOM      7  C   UNL     1      -9.139  -8.905  -2.012  1.00  0.00     0.071 C 
ATOM      8  O   UNL     1      -9.909  -9.750  -2.542  1.00  0.00    -0.545 OA
ATOM      9  O   UNL     1      -8.417  -8.044  -2.831  1.00  0.00    -0.545 OA
ENDBRANCH   1   7
BRANCH   6  10
ATOM     10  O   UNL     1      -8.650  -8.607   3.646  1.00  0.00    -0.508 OA
ATOM     11  H   UNL     1      -8.932  -7.777   4.155  1.00  0.00     0.293 HD
ENDBRANCH   6  10
TORSDOF 2
ENDMDL
MODEL 3
REMARK VINA RESULT:    -2.857     21.081     22.217
REMARK INTER + INTRA:          -3.136
REMARK INTER:                  -3.108
REMARK INTRA:                  -0.028
REMARK UNBOUND:                -0.029
REMARK SMILES O=C([O-])c1ccc(O)cc1
REMARK SMILES IDX 4 1 5 2 10 3 6 4 9 5 7 6 2 7 1 8 3 9 8 10
REMARK H PARENT 8 11
REMARK Flexibility Score: inf
ROOT
ATOM      1  C   UNL     1       0.478  -9.072   8.583  1.00  0.00    -0.003 A 
ATOM      2  C   UNL     1      -0.061  -7.813   8.904  1.00  0.00     0.014 A 
ATOM      3  C   UNL     1      -0.397 -10.125   8.259  1.00  0.00     0.014 A 
ATOM      4  C   UNL     1      -1.444  -7.612   8.899  1.00  0.00     0.047 A 
ATOM      5  C   UNL     1      -1.780  -9.921   8.257  1.00  0.00     0.047 A 
ATOM      6  C   UNL     1      -2.308  -8.667   8.575  1.00  0.00     0.115 A 
ENDROOT
BRANCH   1   7
ATOM      7  C   UNL     1       1.941  -9.290   8.586  1.00  0.00     0.071 C 
ATOM      8  O   UNL     1       2.662  -8.805   7.675  1.00  0.00    -0.545 OA
ATOM      9  O   UNL     1       2.540 -10.035   9.595  1.00  0.00    -0.545 OA
ENDBRANCH   1   7
BRANCH   6  10
ATOM     10  O   UNL     1      -3.688  -8.478   8.568  1.00  0.00    -0.508 OA
ATOM     11  H   UNL     1      -4.305  -9.062   9.121  1.00  0.00     0.293 HD
ENDBRANCH   6  10
TORSDOF 2
ENDMDL
MODEL 4
REMARK VINA RESULT:    -2.831     21.195     22.207
REMARK INTER + INTRA:          -3.108
REMARK INTER:                  -3.079
REMARK INTRA:                  -0.029
REMARK UNBOUND:                -0.029
REMARK SMILES O=C([O-])c1ccc(O)cc1
REMARK SMILES IDX 4 1 5 2 10 3 6 4 9 5 7 6 2 7 1 8 3 9 8 10
REMARK H PARENT 8 11
REMARK Flexibility Score: inf
ROOT
ATOM      1  C   UNL     1       9.019   0.178   9.013  1.00  0.00    -0.003 A 
ATOM      2  C   UNL     1       8.683   0.971  10.125  1.00  0.00     0.014 A 
ATOM      3  C   UNL     1       9.333   0.809   7.796  1.00  0.00     0.014 A 
ATOM      4  C   UNL     1       8.662   2.365  10.021  1.00  0.00     0.047 A 
ATOM      5  C   UNL     1       9.311   2.204   7.695  1.00  0.00     0.047 A 
ATOM      6  C   UNL     1       8.976   2.985   8.804  1.00  0.00     0.115 A 
ENDROOT
BRANCH   1   7
ATOM      7  C   UNL     1       9.043  -1.298   9.117  1.00  0.00     0.071 C 
ATOM      8  O   UNL     1       8.247  -2.001   8.440  1.00  0.00    -0.545 OA
ATOM      9  O   UNL     1       9.946  -1.929   9.965  1.00  0.00    -0.545 OA
ENDBRANCH   1   7
BRANCH   6  10
ATOM     10  O   UNL     1       8.958   4.373   8.689  1.00  0.00    -0.508 OA
ATOM     11  H   UNL     1       8.176   4.859   8.266  1.00  0.00     0.293 HD
ENDBRANCH   6  10
TORSDOF 2
ENDMDL
MODEL 5
REMARK VINA RESULT:    -2.799     17.092     17.488
REMARK INTER + INTRA:          -3.073
REMARK INTER:                  -3.045
REMARK INTRA:                  -0.028
REMARK UNBOUND:                -0.029
REMARK SMILES O=C([O-])c1ccc(O)cc1
REMARK SMILES IDX 4 1 5 2 10 3 6 4 9 5 7 6 2 7 1 8 3 9 8 10
REMARK H PARENT 8 11
REMARK Flexibility Score: inf
ROOT
ATOM      1  C   UNL     1      -8.306  -8.732  -1.162  1.00  0.00    -0.003 A 
ATOM      2  C   UNL     1      -7.712  -7.838  -2.070  1.00  0.00     0.014 A 
ATOM      3  C   UNL     1      -9.514  -9.360  -1.516  1.00  0.00     0.014 A 
ATOM      4  C   UNL     1      -8.313  -7.579  -3.306  1.00  0.00     0.047 A 
ATOM      5  C   UNL     1     -10.114  -9.098  -2.752  1.00  0.00     0.047 A 
ATOM      6  C   UNL     1      -9.517  -8.209  -3.650  1.00  0.00     0.115 A 
ENDROOT
BRANCH   1   7
ATOM      7  C   UNL     1      -7.675  -9.011   0.146  1.00  0.00     0.071 C 
ATOM      8  O   UNL     1      -8.214  -8.618   1.214  1.00  0.00    -0.545 OA
ATOM      9  O   UNL     1      -6.476  -9.711   0.214  1.00  0.00    -0.545 OA
ENDBRANCH   1   7
BRANCH   6  10
ATOM     10  O   UNL     1     -10.125  -7.958  -4.877  1.00  0.00    -0.508 OA
ATOM     11  H   UNL     1      -9.637  -8.112  -5.751  1.00  0.00     0.293 HD
ENDBRANCH   6  10
TORSDOF 2
ENDMDL
MODEL 6
REMARK VINA RESULT:    -2.696     21.745     22.732
REMARK INTER + INTRA:          -2.961
REMARK INTER:                  -2.932
REMARK INTRA:                  -0.029
REMARK UNBOUND:                -0.029
REMARK SMILES O=C([O-])c1ccc(O)cc1
REMARK SMILES IDX 4 1 5 2 10 3 6 4 9 5 7 6 2 7 1 8 3 9 8 10
REMARK H PARENT 8 11
REMARK Flexibility Score: inf
ROOT
ATOM      1  C   UNL     1       1.167  -8.532   8.464  1.00  0.00    -0.003 A 
ATOM      2  C   UNL     1       2.015  -7.818   7.597  1.00  0.00     0.014 A 
ATOM      3  C   UNL     1       1.657  -9.690   9.094  1.00  0.00     0.014 A 
ATOM      4  C   UNL     1       3.323  -8.254   7.367  1.00  0.00     0.047 A 
ATOM      5  C   UNL     1       2.966 -10.124   8.861  1.00  0.00     0.047 A 
ATOM      6  C   UNL     1       3.802  -9.410   7.999  1.00  0.00     0.115 A 
ENDROOT
BRANCH   1   7
ATOM      7  C   UNL     1      -0.217  -8.075   8.711  1.00  0.00     0.071 C 
ATOM      8  O   UNL     1      -1.196  -8.819   8.437  1.00  0.00    -0.545 OA
ATOM      9  O   UNL     1      -0.458  -6.817   9.251  1.00  0.00    -0.545 OA
ENDBRANCH   1   7
BRANCH   6  10
ATOM     10  O   UNL     1       5.103  -9.854   7.776  1.00  0.00    -0.508 OA
ATOM     11  H   UNL     1       5.375 -10.811   7.966  1.00  0.00     0.293 HD
ENDBRANCH   6  10
TORSDOF 2
ENDMDL
MODEL 7
REMARK VINA RESULT:    -1.918     10.827     12.675
REMARK INTER + INTRA:          -2.115
REMARK INTER:                  -2.085
REMARK INTRA:                  -0.030
REMARK UNBOUND:                -0.029
REMARK SMILES O=C([O-])c1ccc(O)cc1
REMARK SMILES IDX 4 1 5 2 10 3 6 4 9 5 7 6 2 7 1 8 3 9 8 10
REMARK H PARENT 8 11
REMARK Flexibility Score: inf
ROOT
ATOM      1  C   UNL     1       0.607   8.963  -9.366  1.00  0.00    -0.003 A 
ATOM      2  C   UNL     1      -0.146  10.125  -9.118  1.00  0.00     0.014 A 
ATOM      3  C   UNL     1      -0.067   7.764  -9.660  1.00  0.00     0.014 A 
ATOM      4  C   UNL     1      -1.543  10.087  -9.164  1.00  0.00     0.047 A 
ATOM      5  C   UNL     1      -1.465   7.729  -9.704  1.00  0.00     0.047 A 
ATOM      6  C   UNL     1      -2.206   8.888  -9.457  1.00  0.00     0.115 A 
ENDROOT
BRANCH   1   7
ATOM      7  C   UNL     1       2.085   8.997  -9.319  1.00  0.00     0.071 C 
ATOM      8  O   UNL     1       2.722   8.185  -8.597  1.00  0.00    -0.545 OA
ATOM      9  O   UNL     1       2.792   9.927 -10.073  1.00  0.00    -0.545 OA
ENDBRANCH   1   7
BRANCH   6  10
ATOM     10  O   UNL     1      -3.597   8.838  -9.505  1.00  0.00    -0.508 OA
ATOM     11  H   UNL     1      -4.101   7.969  -9.376  1.00  0.00     0.293 HD
ENDBRANCH   6  10
TORSDOF 2
ENDMDL
