MODEL 1
REMARK VINA RESULT:    -4.203      0.000      0.000
REMARK INTER + INTRA:          -5.360
REMARK INTER:                  -5.063
REMARK INTRA:                  -0.297
REMARK UNBOUND:                -0.297
REMARK SMILES NC(=O)C[C@@H]([NH3+])C(=O)[O-]
REMARK SMILES IDX 4 1 5 2 6 3 7 7 8 8 9 9 2 10 3 11 1 12
REMARK H PARENT 6 4 6 5 6 6 1 13 1 14
REMARK Flexibility Score: inf
ROOT
ATOM      1  C   UNL     1       0.484  54.503   4.774  1.00  0.00     0.171 C 
ENDROOT
BRANCH   1   2
ATOM      2  C   UNL     1      -0.548  55.551   5.233  1.00  0.00     0.237 C 
BRANCH   2   3
ATOM      3  N   UNL     1      -1.776  55.446   4.436  1.00  0.00    -0.350 N 
ATOM      4  H   UNL     1      -2.472  56.156   4.761  1.00  0.00     0.345 HD
ATOM      5  H   UNL     1      -1.562  55.635   3.430  1.00  0.00     0.345 HD
ATOM      6  H   UNL     1      -2.192  54.489   4.523  1.00  0.00     0.345 HD
ENDBRANCH   2   3
BRANCH   2   7
ATOM      7  C   UNL     1      -0.867  55.386   6.697  1.00  0.00     0.100 C 
ATOM      8  O   UNL     1      -2.018  55.663   7.128  1.00  0.00    -0.544 OA
ATOM      9  O   UNL     1       0.107  54.943   7.582  1.00  0.00    -0.544 OA
ENDBRANCH   2   7
ENDBRANCH   1   2
BRANCH   1  10
ATOM     10  C   UNL     1      -0.180  53.314   4.138  1.00  0.00     0.223 C 
ATOM     11  O   UNL     1      -0.911  52.561   4.834  1.00  0.00    -0.275 OA
ATOM     12  N   UNL     1      -0.019  53.054   2.744  1.00  0.00    -0.369 N 
ATOM     13  H   UNL     1      -0.495  52.236   2.303  1.00  0.00     0.159 HD
ATOM     14  H   UNL     1       0.568  53.680   2.149  1.00  0.00     0.159 HD
ENDBRANCH   1  10
TORSDOF 4
ENDMDL
MODEL 2
REMARK VINA RESULT:    -3.964      1.870      3.579
REMARK INTER + INTRA:          -5.072
REMARK INTER:                  -4.580
REMARK INTRA:                  -0.492
REMARK UNBOUND:                -0.297
REMARK SMILES NC(=O)C[C@@H]([NH3+])C(=O)[O-]
REMARK SMILES IDX 4 1 5 2 6 3 7 7 8 8 9 9 2 10 3 11 1 12
REMARK H PARENT 6 4 6 5 6 6 1 13 1 14
REMARK Flexibility Score: inf
ROOT
ATOM      1  C   UNL     1      -1.137  53.993   6.363  1.00  0.00     0.171 C 
ENDROOT
BRANCH   1   2
ATOM      2  C   UNL     1      -1.201  54.176   4.834  1.00  0.00     0.237 C 
BRANCH   2   3
ATOM      3  N   UNL     1      -1.747  55.496   4.497  1.00  0.00    -0.350 N 
ATOM      4  H   UNL     1      -1.460  56.195   5.222  1.00  0.00     0.345 HD
ATOM      5  H   UNL     1      -1.369  55.810   3.574  1.00  0.00     0.345 HD
ATOM      6  H   UNL     1      -2.792  55.462   4.445  1.00  0.00     0.345 HD
ENDBRANCH   2   3
BRANCH   2   7
ATOM      7  C   UNL     1       0.162  54.007   4.214  1.00  0.00     0.100 C 
ATOM      8  O   UNL     1       0.331  53.187   3.274  1.00  0.00    -0.544 OA
ATOM      9  O   UNL     1       1.242  54.745   4.683  1.00  0.00    -0.544 OA
ENDBRANCH   2   7
ENDBRANCH   1   2
BRANCH   1  10
ATOM     10  C   UNL     1      -1.068  55.314   7.076  1.00  0.00     0.223 C 
ATOM     11  O   UNL     1      -2.125  55.845   7.512  1.00  0.00    -0.275 OA
ATOM     12  N   UNL     1       0.188  55.954   7.296  1.00  0.00    -0.369 N 
ATOM     13  H   UNL     1       0.233  56.865   7.806  1.00  0.00     0.159 HD
ATOM     14  H   UNL     1       1.075  55.519   6.959  1.00  0.00     0.159 HD
ENDBRANCH   1  10
TORSDOF 4
ENDMDL
MODEL 3
REMARK VINA RESULT:    -3.872      1.758      3.700
REMARK INTER + INTRA:          -4.961
REMARK INTER:                  -4.883
REMARK INTRA:                  -0.078
REMARK UNBOUND:                -0.297
REMARK SMILES NC(=O)C[C@@H]([NH3+])C(=O)[O-]
REMARK SMILES IDX 4 1 5 2 6 3 7 7 8 8 9 9 2 10 3 11 1 12
REMARK H PARENT 6 4 6 5 6 6 1 13 1 14
REMARK Flexibility Score: inf
ROOT
ATOM      1  C   UNL     1       0.551  55.133   5.464  1.00  0.00     0.171 C 
ENDROOT
BRANCH   1   2
ATOM      2  C   UNL     1      -0.775  54.466   5.049  1.00  0.00     0.237 C 
BRANCH   2   3
ATOM      3  N   UNL     1      -1.629  55.423   4.334  1.00  0.00    -0.350 N 
ATOM      4  H   UNL     1      -2.632  55.255   4.578  1.00  0.00     0.345 HD
ATOM      5  H   UNL     1      -1.382  56.399   4.617  1.00  0.00     0.345 HD
ATOM      6  H   UNL     1      -1.505  55.327   3.299  1.00  0.00     0.345 HD
ENDBRANCH   2   3
BRANCH   2   7
ATOM      7  C   UNL     1      -0.523  53.256   4.188  1.00  0.00     0.100 C 
ATOM      8  O   UNL     1       0.359  53.291   3.289  1.00  0.00    -0.544 OA
ATOM      9  O   UNL     1      -1.270  52.098   4.369  1.00  0.00    -0.544 OA
ENDBRANCH   2   7
ENDBRANCH   1   2
BRANCH   1  10
ATOM     10  C   UNL     1       0.534  55.549   6.907  1.00  0.00     0.223 C 
ATOM     11  O   UNL     1       0.048  54.774   7.775  1.00  0.00    -0.275 OA
ATOM     12  N   UNL     1       1.098  56.796   7.309  1.00  0.00    -0.369 N 
ATOM     13  H   UNL     1       1.098  57.074   8.315  1.00  0.00     0.159 HD
ATOM     14  H   UNL     1       1.522  57.441   6.606  1.00  0.00     0.159 HD
ENDBRANCH   1  10
TORSDOF 4
ENDMDL
MODEL 4
REMARK VINA RESULT:    -3.859      1.446      1.537
REMARK INTER + INTRA:          -4.946
REMARK INTER:                  -4.711
REMARK INTRA:                  -0.235
REMARK UNBOUND:                -0.297
REMARK SMILES NC(=O)C[C@@H]([NH3+])C(=O)[O-]
REMARK SMILES IDX 4 1 5 2 6 3 7 7 8 8 9 9 2 10 3 11 1 12
REMARK H PARENT 6 4 6 5 6 6 1 13 1 14
REMARK Flexibility Score: inf
ROOT
ATOM      1  C   UNL     1      -1.602  53.271   5.561  1.00  0.00     0.171 C 
ENDROOT
BRANCH   1   2
ATOM      2  C   UNL     1      -0.990  54.683   5.489  1.00  0.00     0.237 C 
BRANCH   2   3
ATOM      3  N   UNL     1      -1.704  55.502   4.501  1.00  0.00    -0.350 N 
ATOM      4  H   UNL     1      -1.192  56.402   4.349  1.00  0.00     0.345 HD
ATOM      5  H   UNL     1      -1.750  54.994   3.587  1.00  0.00     0.345 HD
ATOM      6  H   UNL     1      -2.677  55.708   4.826  1.00  0.00     0.345 HD
ENDBRANCH   2   3
BRANCH   2   7
ATOM      7  C   UNL     1      -1.025  55.355   6.837  1.00  0.00     0.100 C 
ATOM      8  O   UNL     1      -2.125  55.541   7.423  1.00  0.00    -0.544 OA
ATOM      9  O   UNL     1       0.152  55.786   7.437  1.00  0.00    -0.544 OA
ENDBRANCH   2   7
ENDBRANCH   1   2
BRANCH   1  10
ATOM     10  C   UNL     1      -0.995  52.352   4.539  1.00  0.00     0.223 C 
ATOM     11  O   UNL     1      -0.139  52.797   3.728  1.00  0.00    -0.275 OA
ATOM     12  N   UNL     1      -1.351  50.970   4.504  1.00  0.00    -0.369 N 
ATOM     13  H   UNL     1      -0.915  50.332   3.803  1.00  0.00     0.159 HD
ATOM     14  H   UNL     1      -2.044  50.581   5.181  1.00  0.00     0.159 HD
ENDBRANCH   1  10
TORSDOF 4
ENDMDL
MODEL 5
REMARK VINA RESULT:    -3.855      2.294      2.942
REMARK INTER + INTRA:          -4.941
REMARK INTER:                  -4.757
REMARK INTRA:                  -0.183
REMARK UNBOUND:                -0.297
REMARK SMILES NC(=O)C[C@@H]([NH3+])C(=O)[O-]
REMARK SMILES IDX 4 1 5 2 6 3 7 7 8 8 9 9 2 10 3 11 1 12
REMARK H PARENT 6 4 6 5 6 6 1 13 1 14
REMARK Flexibility Score: inf
ROOT
ATOM      1  C   UNL     1      -1.366  53.956   6.234  1.00  0.00     0.171 C 
ENDROOT
BRANCH   1   2
ATOM      2  C   UNL     1      -1.110  54.234   4.740  1.00  0.00     0.237 C 
BRANCH   2   3
ATOM      3  N   UNL     1      -1.718  55.510   4.344  1.00  0.00    -0.350 N 
ATOM      4  H   UNL     1      -1.805  56.137   5.178  1.00  0.00     0.345 HD
ATOM      5  H   UNL     1      -1.111  55.988   3.639  1.00  0.00     0.345 HD
ATOM      6  H   UNL     1      -2.666  55.355   3.929  1.00  0.00     0.345 HD
ENDBRANCH   2   3
BRANCH   2   7
ATOM      7  C   UNL     1       0.368  54.252   4.442  1.00  0.00     0.100 C 
ATOM      8  O   UNL     1       1.058  55.265   4.727  1.00  0.00    -0.544 OA
ATOM      9  O   UNL     1       0.974  53.157   3.837  1.00  0.00    -0.544 OA
ENDBRANCH   2   7
ENDBRANCH   1   2
BRANCH   1  10
ATOM     10  C   UNL     1      -1.445  52.483   6.517  1.00  0.00     0.223 C 
ATOM     11  O   UNL     1      -1.539  52.079   7.707  1.00  0.00    -0.275 OA
ATOM     12  N   UNL     1      -1.454  51.539   5.447  1.00  0.00    -0.369 N 
ATOM     13  H   UNL     1      -1.524  50.517   5.647  1.00  0.00     0.159 HD
ATOM     14  H   UNL     1      -1.396  51.857   4.454  1.00  0.00     0.159 HD
ENDBRANCH   1  10
TORSDOF 4
ENDMDL
MODEL 6
REMARK VINA RESULT:    -3.843      1.574      3.335
REMARK INTER + INTRA:          -4.926
REMARK INTER:                  -4.717
REMARK INTRA:                  -0.209
REMARK UNBOUND:                -0.297
REMARK SMILES NC(=O)C[C@@H]([NH3+])C(=O)[O-]
REMARK SMILES IDX 4 1 5 2 6 3 7 7 8 8 9 9 2 10 3 11 1 12
REMARK H PARENT 6 4 6 5 6 6 1 13 1 14
REMARK Flexibility Score: inf
ROOT
ATOM      1  C   UNL     1       1.011  54.212   4.729  1.00  0.00     0.171 C 
ENDROOT
BRANCH   1   2
ATOM      2  C   UNL     1      -0.331  53.815   4.084  1.00  0.00     0.237 C 
BRANCH   2   3
ATOM      3  N   UNL     1      -0.102  53.104   2.820  1.00  0.00    -0.350 N 
ATOM      4  H   UNL     1       0.171  52.113   3.014  1.00  0.00     0.345 HD
ATOM      5  H   UNL     1      -0.982  53.096   2.254  1.00  0.00     0.345 HD
ATOM      6  H   UNL     1       0.655  53.569   2.267  1.00  0.00     0.345 HD
ENDBRANCH   2   3
BRANCH   2   7
ATOM      7  C   UNL     1      -1.145  52.956   5.018  1.00  0.00     0.100 C 
ATOM      8  O   UNL     1      -1.071  51.701   4.948  1.00  0.00    -0.544 OA
ATOM      9  O   UNL     1      -1.991  53.542   5.952  1.00  0.00    -0.544 OA
ENDBRANCH   2   7
ENDBRANCH   1   2
BRANCH   1  10
ATOM     10  C   UNL     1       0.863  55.412   5.621  1.00  0.00     0.223 C 
ATOM     11  O   UNL     1       1.773  55.695   6.444  1.00  0.00    -0.275 OA
ATOM     12  N   UNL     1      -0.284  56.255   5.516  1.00  0.00    -0.369 N 
ATOM     13  H   UNL     1      -0.376  57.097   6.127  1.00  0.00     0.159 HD
ATOM     14  H   UNL     1      -1.039  56.046   4.826  1.00  0.00     0.159 HD
ENDBRANCH   1  10
TORSDOF 4
ENDMDL
MODEL 7
REMARK VINA RESULT:    -3.751      1.531      2.043
REMARK INTER + INTRA:          -4.815
REMARK INTER:                  -4.612
REMARK INTRA:                  -0.203
REMARK UNBOUND:                -0.297
REMARK SMILES NC(=O)C[C@@H]([NH3+])C(=O)[O-]
REMARK SMILES IDX 4 1 5 2 6 3 7 7 8 8 9 9 2 10 3 11 1 12
REMARK H PARENT 6 4 6 5 6 6 1 13 1 14
REMARK Flexibility Score: inf
ROOT
ATOM      1  C   UNL     1       0.097  53.239   4.123  1.00  0.00     0.171 C 
ENDROOT
BRANCH   1   2
ATOM      2  C   UNL     1      -0.063  54.760   4.312  1.00  0.00     0.237 C 
BRANCH   2   3
ATOM      3  N   UNL     1      -1.484  55.123   4.377  1.00  0.00    -0.350 N 
ATOM      4  H   UNL     1      -1.625  55.881   5.084  1.00  0.00     0.345 HD
ATOM      5  H   UNL     1      -1.801  55.480   3.446  1.00  0.00     0.345 HD
ATOM      6  H   UNL     1      -2.065  54.293   4.639  1.00  0.00     0.345 HD
ENDBRANCH   2   3
BRANCH   2   7
ATOM      7  C   UNL     1       0.646  55.227   5.557  1.00  0.00     0.100 C 
ATOM      8  O   UNL     1       1.901  55.149   5.637  1.00  0.00    -0.544 OA
ATOM      9  O   UNL     1      -0.079  55.731   6.630  1.00  0.00    -0.544 OA
ENDBRANCH   2   7
ENDBRANCH   1   2
BRANCH   1  10
ATOM     10  C   UNL     1      -1.024  52.480   4.774  1.00  0.00     0.223 C 
ATOM     11  O   UNL     1      -1.378  52.772   5.947  1.00  0.00    -0.275 OA
ATOM     12  N   UNL     1      -1.716  51.457   4.060  1.00  0.00    -0.369 N 
ATOM     13  H   UNL     1      -2.506  50.942   4.510  1.00  0.00     0.159 HD
ATOM     14  H   UNL     1      -1.449  51.216   3.080  1.00  0.00     0.159 HD
ENDBRANCH   1  10
TORSDOF 4
ENDMDL
MODEL 8
REMARK VINA RESULT:    -3.717      2.130      3.200
REMARK INTER + INTRA:          -4.774
REMARK INTER:                  -4.596
REMARK INTRA:                  -0.178
REMARK UNBOUND:                -0.297
REMARK SMILES NC(=O)C[C@@H]([NH3+])C(=O)[O-]
REMARK SMILES IDX 4 1 5 2 6 3 7 7 8 8 9 9 2 10 3 11 1 12
REMARK H PARENT 6 4 6 5 6 6 1 13 1 14
REMARK Flexibility Score: inf
ROOT
ATOM      1  C   UNL     1       1.165  55.228   5.641  1.00  0.00     0.171 C 
ENDROOT
BRANCH   1   2
ATOM      2  C   UNL     1      -0.347  55.483   5.486  1.00  0.00     0.237 C 
BRANCH   2   3
ATOM      3  N   UNL     1      -0.807  55.052   4.160  1.00  0.00    -0.350 N 
ATOM      4  H   UNL     1      -0.028  54.569   3.653  1.00  0.00     0.345 HD
ATOM      5  H   UNL     1      -1.598  54.376   4.263  1.00  0.00     0.345 HD
ATOM      6  H   UNL     1      -1.130  55.872   3.596  1.00  0.00     0.345 HD
ENDBRANCH   2   3
BRANCH   2   7
ATOM      7  C   UNL     1      -1.127  54.770   6.560  1.00  0.00     0.100 C 
ATOM      8  O   UNL     1      -1.670  55.426   7.488  1.00  0.00    -0.544 OA
ATOM      9  O   UNL     1      -1.240  53.385   6.542  1.00  0.00    -0.544 OA
ENDBRANCH   2   7
ENDBRANCH   1   2
BRANCH   1  10
ATOM     10  C   UNL     1       1.688  55.775   6.938  1.00  0.00     0.223 C 
ATOM     11  O   UNL     1       2.574  55.141   7.572  1.00  0.00    -0.275 OA
ATOM     12  N   UNL     1       1.218  57.025   7.440  1.00  0.00    -0.369 N 
ATOM     13  H   UNL     1       1.595  57.409   8.335  1.00  0.00     0.159 HD
ATOM     14  H   UNL     1       0.498  57.573   6.918  1.00  0.00     0.159 HD
ENDBRANCH   1  10
TORSDOF 4
ENDMDL
MODEL 9
REMARK VINA RESULT:    -3.624      1.975      2.403
REMARK INTER + INTRA:          -4.663
REMARK INTER:                  -4.238
REMARK INTRA:                  -0.425
REMARK UNBOUND:                -0.297
REMARK SMILES NC(=O)C[C@@H]([NH3+])C(=O)[O-]
REMARK SMILES IDX 4 1 5 2 6 3 7 7 8 8 9 9 2 10 3 11 1 12
REMARK H PARENT 6 4 6 5 6 6 1 13 1 14
REMARK Flexibility Score: inf
ROOT
ATOM      1  C   UNL     1      -1.698  54.663   4.953  1.00  0.00     0.171 C 
ENDROOT
BRANCH   1   2
ATOM      2  C   UNL     1      -1.910  53.675   6.116  1.00  0.00     0.237 C 
BRANCH   2   3
ATOM      3  N   UNL     1      -1.357  52.358   5.777  1.00  0.00    -0.350 N 
ATOM      4  H   UNL     1      -0.946  51.915   6.632  1.00  0.00     0.345 HD
ATOM      5  H   UNL     1      -2.117  51.735   5.419  1.00  0.00     0.345 HD
ATOM      6  H   UNL     1      -0.615  52.446   5.044  1.00  0.00     0.345 HD
ENDBRANCH   2   3
BRANCH   2   7
ATOM      7  C   UNL     1      -1.278  54.190   7.383  1.00  0.00     0.100 C 
ATOM      8  O   UNL     1      -0.869  53.382   8.258  1.00  0.00    -0.544 OA
ATOM      9  O   UNL     1      -1.156  55.557   7.600  1.00  0.00    -0.544 OA
ENDBRANCH   2   7
ENDBRANCH   1   2
BRANCH   1  10
ATOM     10  C   UNL     1      -0.269  54.674   4.489  1.00  0.00     0.223 C 
ATOM     11  O   UNL     1       0.163  53.732   3.773  1.00  0.00    -0.275 OA
ATOM     12  N   UNL     1       0.592  55.762   4.822  1.00  0.00    -0.369 N 
ATOM     13  H   UNL     1       1.580  55.774   4.485  1.00  0.00     0.159 HD
ATOM     14  H   UNL     1       0.245  56.561   5.399  1.00  0.00     0.159 HD
ENDBRANCH   1  10
TORSDOF 4
ENDMDL
