MODEL 1
REMARK VINA RESULT:    -4.327      0.000      0.000
REMARK INTER + INTRA:          -5.024
REMARK INTER:                  -4.833
REMARK INTRA:                  -0.191
REMARK UNBOUND:                -0.191
REMARK SMILES O=C([O-])c1ccccc1C(=O)[O-]
REMARK SMILES IDX 4 1 9 2 5 3 8 4 6 5 7 6 2 7 1 8 3 9 10 10 11 11 12 12
REMARK H PARENT
REMARK Flexibility Score: inf
ROOT
ATOM      1  C   UNL     1     -26.235  88.055  84.913  1.00  0.00     0.006 A 
ATOM      2  C   UNL     1     -25.307  88.608  85.840  1.00  0.00     0.006 A 
ATOM      3  C   UNL     1     -27.539  88.580  84.854  1.00  0.00     0.010 A 
ATOM      4  C   UNL     1     -25.738  89.620  86.716  1.00  0.00     0.010 A 
ATOM      5  C   UNL     1     -27.937  89.600  85.718  1.00  0.00     0.001 A 
ATOM      6  C   UNL     1     -27.043  90.110  86.656  1.00  0.00     0.001 A 
ENDROOT
BRANCH   1   7
ATOM      7  C   UNL     1     -25.909  86.895  84.052  1.00  0.00     0.072 C 
ATOM      8  O   UNL     1     -25.706  87.058  82.819  1.00  0.00    -0.545 OA
ATOM      9  O   UNL     1     -25.886  85.607  84.573  1.00  0.00    -0.545 OA
ENDBRANCH   1   7
BRANCH   2  10
ATOM     10  C   UNL     1     -23.879  88.217  85.882  1.00  0.00     0.072 C 
ATOM     11  O   UNL     1     -22.991  88.969  85.401  1.00  0.00    -0.545 OA
ATOM     12  O   UNL     1     -23.497  87.040  86.516  1.00  0.00    -0.545 OA
ENDBRANCH   2  10
TORSDOF 2
ENDMDL
MODEL 2
REMARK VINA RESULT:    -4.318      0.126      2.872
REMARK INTER + INTRA:          -5.014
REMARK INTER:                  -4.826
REMARK INTRA:                  -0.188
REMARK UNBOUND:                -0.191
REMARK SMILES O=C([O-])c1ccccc1C(=O)[O-]
REMARK SMILES IDX 4 1 9 2 5 3 8 4 6 5 7 6 2 7 1 8 3 9 10 10 11 11 12 12
REMARK H PARENT
REMARK Flexibility Score: inf
ROOT
ATOM      1  C   UNL     1     -25.345  88.708  85.877  1.00  0.00     0.006 A 
ATOM      2  C   UNL     1     -26.276  88.173  84.944  1.00  0.00     0.006 A 
ATOM      3  C   UNL     1     -25.759  89.733  86.747  1.00  0.00     0.010 A 
ATOM      4  C   UNL     1     -27.567  88.727  84.873  1.00  0.00     0.010 A 
ATOM      5  C   UNL     1     -27.052  90.252  86.674  1.00  0.00     0.001 A 
ATOM      6  C   UNL     1     -27.950  89.759  85.731  1.00  0.00     0.001 A 
ENDROOT
BRANCH   1   7
ATOM      7  C   UNL     1     -23.927  88.282  85.924  1.00  0.00     0.072 C 
ATOM      8  O   UNL     1     -23.035  88.985  85.377  1.00  0.00    -0.545 OA
ATOM      9  O   UNL     1     -23.567  87.076  86.512  1.00  0.00    -0.545 OA
ENDBRANCH   1   7
BRANCH   2  10
ATOM     10  C   UNL     1     -25.976  87.005  84.084  1.00  0.00     0.072 C 
ATOM     11  O   UNL     1     -25.648  87.161  82.878  1.00  0.00    -0.545 OA
ATOM     12  O   UNL     1     -25.988  85.722  84.619  1.00  0.00    -0.545 OA
ENDBRANCH   2  10
TORSDOF 2
ENDMDL
MODEL 3
REMARK VINA RESULT:    -4.314      7.867      9.908
REMARK INTER + INTRA:          -5.009
REMARK INTER:                  -4.834
REMARK INTRA:                  -0.176
REMARK UNBOUND:                -0.191
REMARK SMILES O=C([O-])c1ccccc1C(=O)[O-]
REMARK SMILES IDX 4 1 9 2 5 3 8 4 6 5 7 6 2 7 1 8 3 9 10 10 11 11 12 12
REMARK H PARENT
REMARK Flexibility Score: inf
ROOT
ATOM      1  C   UNL     1     -25.404  85.443  75.728  1.00  0.00     0.006 A 
ATOM      2  C   UNL     1     -26.312  86.034  76.651  1.00  0.00     0.006 A 
ATOM      3  C   UNL     1     -25.863  84.419  74.878  1.00  0.00     0.010 A 
ATOM      4  C   UNL     1     -27.624  85.534  76.734  1.00  0.00     0.010 A 
ATOM      5  C   UNL     1     -27.175  83.955  74.963  1.00  0.00     0.001 A 
ATOM      6  C   UNL     1     -28.051  84.503  75.897  1.00  0.00     0.001 A 
ENDROOT
BRANCH   1   7
ATOM      7  C   UNL     1     -23.971  85.809  75.671  1.00  0.00     0.072 C 
ATOM      8  O   UNL     1     -23.105  85.067  76.209  1.00  0.00    -0.545 OA
ATOM      9  O   UNL     1     -23.565  87.001  75.084  1.00  0.00    -0.545 OA
ENDBRANCH   1   7
BRANCH   2  10
ATOM     10  C   UNL     1     -25.962  87.204  77.489  1.00  0.00     0.072 C 
ATOM     11  O   UNL     1     -25.648  87.059  78.700  1.00  0.00    -0.545 OA
ATOM     12  O   UNL     1     -25.912  88.474  76.927  1.00  0.00    -0.545 OA
ENDBRANCH   2  10
TORSDOF 2
ENDMDL
MODEL 4
REMARK VINA RESULT:    -4.301      9.144     10.240
REMARK INTER + INTRA:          -4.994
REMARK INTER:                  -4.987
REMARK INTRA:                  -0.007
REMARK UNBOUND:                -0.191
REMARK SMILES O=C([O-])c1ccccc1C(=O)[O-]
REMARK SMILES IDX 4 1 9 2 5 3 8 4 6 5 7 6 2 7 1 8 3 9 10 10 11 11 12 12
REMARK H PARENT
REMARK Flexibility Score: inf
ROOT
ATOM      1  C   UNL     1     -25.383  86.471  75.960  1.00  0.00     0.006 A 
ATOM      2  C   UNL     1     -26.400  85.523  75.655  1.00  0.00     0.006 A 
ATOM      3  C   UNL     1     -25.749  87.711  76.515  1.00  0.00     0.010 A 
ATOM      4  C   UNL     1     -27.746  85.876  75.857  1.00  0.00     0.010 A 
ATOM      5  C   UNL     1     -27.090  88.031  76.727  1.00  0.00     0.001 A 
ATOM      6  C   UNL     1     -28.087  87.120  76.388  1.00  0.00     0.001 A 
ENDROOT
BRANCH   1   7
ATOM      7  C   UNL     1     -23.954  86.238  75.649  1.00  0.00     0.072 C 
ATOM      8  O   UNL     1     -23.337  87.023  74.879  1.00  0.00    -0.545 OA
ATOM      9  O   UNL     1     -23.292  85.122  76.145  1.00  0.00    -0.545 OA
ENDBRANCH   1   7
BRANCH   2  10
ATOM     10  C   UNL     1     -26.106  84.145  75.197  1.00  0.00     0.072 C 
ATOM     11  O   UNL     1     -25.895  83.902  73.980  1.00  0.00    -0.545 OA
ATOM     12  O   UNL     1     -25.995  83.112  76.120  1.00  0.00    -0.545 OA
ENDBRANCH   2  10
TORSDOF 2
ENDMDL
MODEL 5
REMARK VINA RESULT:    -4.300      7.804      9.881
REMARK INTER + INTRA:          -4.993
REMARK INTER:                  -4.833
REMARK INTRA:                  -0.161
REMARK UNBOUND:                -0.191
REMARK SMILES O=C([O-])c1ccccc1C(=O)[O-]
REMARK SMILES IDX 4 1 9 2 5 3 8 4 6 5 7 6 2 7 1 8 3 9 10 10 11 11 12 12
REMARK H PARENT
REMARK Flexibility Score: inf
ROOT
ATOM      1  C   UNL     1     -26.317  86.111  76.710  1.00  0.00     0.006 A 
ATOM      2  C   UNL     1     -25.478  85.510  75.730  1.00  0.00     0.006 A 
ATOM      3  C   UNL     1     -27.641  85.655  76.850  1.00  0.00     0.010 A 
ATOM      4  C   UNL     1     -26.015  84.522  74.885  1.00  0.00     0.010 A 
ATOM      5  C   UNL     1     -28.145  84.658  76.015  1.00  0.00     0.001 A 
ATOM      6  C   UNL     1     -27.337  84.101  75.026  1.00  0.00     0.001 A 
ENDROOT
BRANCH   1   7
ATOM      7  C   UNL     1     -25.879  87.252  77.546  1.00  0.00     0.072 C 
ATOM      8  O   UNL     1     -25.644  87.085  78.773  1.00  0.00    -0.545 OA
ATOM      9  O   UNL     1     -25.782  88.530  77.010  1.00  0.00    -0.545 OA
ENDBRANCH   1   7
BRANCH   2  10
ATOM     10  C   UNL     1     -24.037  85.825  75.599  1.00  0.00     0.072 C 
ATOM     11  O   UNL     1     -23.657  86.873  75.013  1.00  0.00    -0.545 OA
ATOM     12  O   UNL     1     -23.086  84.997  76.183  1.00  0.00    -0.545 OA
ENDBRANCH   2  10
TORSDOF 2
ENDMDL
MODEL 6
REMARK VINA RESULT:    -4.298      9.093      9.881
REMARK INTER + INTRA:          -4.992
REMARK INTER:                  -4.993
REMARK INTRA:                   0.001
REMARK UNBOUND:                -0.191
REMARK SMILES O=C([O-])c1ccccc1C(=O)[O-]
REMARK SMILES IDX 4 1 9 2 5 3 8 4 6 5 7 6 2 7 1 8 3 9 10 10 11 11 12 12
REMARK H PARENT
REMARK Flexibility Score: inf
ROOT
ATOM      1  C   UNL     1     -26.427  85.542  75.732  1.00  0.00     0.006 A 
ATOM      2  C   UNL     1     -25.402  86.495  75.986  1.00  0.00     0.006 A 
ATOM      3  C   UNL     1     -27.766  85.892  75.988  1.00  0.00     0.010 A 
ATOM      4  C   UNL     1     -25.748  87.738  76.547  1.00  0.00     0.010 A 
ATOM      5  C   UNL     1     -28.088  87.138  76.524  1.00  0.00     0.001 A 
ATOM      6  C   UNL     1     -27.080  88.055  76.814  1.00  0.00     0.001 A 
ENDROOT
BRANCH   1   7
ATOM      7  C   UNL     1     -26.141  84.162  75.275  1.00  0.00     0.072 C 
ATOM      8  O   UNL     1     -26.114  83.213  76.104  1.00  0.00    -0.545 OA
ATOM      9  O   UNL     1     -25.834  83.904  73.945  1.00  0.00    -0.545 OA
ENDBRANCH   1   7
BRANCH   2  10
ATOM     10  C   UNL     1     -23.984  86.270  75.622  1.00  0.00     0.072 C 
ATOM     11  O   UNL     1     -23.361  87.103  74.912  1.00  0.00    -0.545 OA
ATOM     12  O   UNL     1     -23.303  85.165  76.119  1.00  0.00    -0.545 OA
ENDBRANCH   2  10
TORSDOF 2
ENDMDL
MODEL 7
REMARK VINA RESULT:    -4.298      1.752      3.214
REMARK INTER + INTRA:          -4.991
REMARK INTER:                  -4.980
REMARK INTRA:                  -0.011
REMARK UNBOUND:                -0.191
REMARK SMILES O=C([O-])c1ccccc1C(=O)[O-]
REMARK SMILES IDX 4 1 9 2 5 3 8 4 6 5 7 6 2 7 1 8 3 9 10 10 11 11 12 12
REMARK H PARENT
REMARK Flexibility Score: inf
ROOT
ATOM      1  C   UNL     1     -25.384  87.671  85.623  1.00  0.00     0.006 A 
ATOM      2  C   UNL     1     -26.327  88.681  85.962  1.00  0.00     0.006 A 
ATOM      3  C   UNL     1     -25.844  86.467  85.058  1.00  0.00     0.010 A 
ATOM      4  C   UNL     1     -27.698  88.423  85.784  1.00  0.00     0.010 A 
ATOM      5  C   UNL     1     -27.207  86.242  84.871  1.00  0.00     0.001 A 
ATOM      6  C   UNL     1     -28.133  87.213  85.244  1.00  0.00     0.001 A 
ENDROOT
BRANCH   1   7
ATOM      7  C   UNL     1     -23.936  87.802  85.906  1.00  0.00     0.072 C 
ATOM      8  O   UNL     1     -23.358  86.967  86.652  1.00  0.00    -0.545 OA
ATOM      9  O   UNL     1     -23.209  88.878  85.410  1.00  0.00    -0.545 OA
ENDBRANCH   1   7
BRANCH   2  10
ATOM     10  C   UNL     1     -25.931  90.029  86.432  1.00  0.00     0.072 C 
ATOM     11  O   UNL     1     -25.940  91.014  85.647  1.00  0.00    -0.545 OA
ATOM     12  O   UNL     1     -25.608  90.235  87.768  1.00  0.00    -0.545 OA
ENDBRANCH   2  10
TORSDOF 2
ENDMDL
MODEL 8
REMARK VINA RESULT:    -4.182      8.924     10.563
REMARK INTER + INTRA:          -4.862
REMARK INTER:                  -4.639
REMARK INTRA:                  -0.223
REMARK UNBOUND:                -0.191
REMARK SMILES O=C([O-])c1ccccc1C(=O)[O-]
REMARK SMILES IDX 4 1 9 2 5 3 8 4 6 5 7 6 2 7 1 8 3 9 10 10 11 11 12 12
REMARK H PARENT
REMARK Flexibility Score: inf
ROOT
ATOM      1  C   UNL     1     -23.509  80.439  80.080  1.00  0.00     0.006 A 
ATOM      2  C   UNL     1     -23.310  79.084  80.466  1.00  0.00     0.006 A 
ATOM      3  C   UNL     1     -23.986  81.359  81.032  1.00  0.00     0.010 A 
ATOM      4  C   UNL     1     -23.658  78.687  81.770  1.00  0.00     0.010 A 
ATOM      5  C   UNL     1     -24.303  80.947  82.326  1.00  0.00     0.001 A 
ATOM      6  C   UNL     1     -24.150  79.612  82.691  1.00  0.00     0.001 A 
ENDROOT
BRANCH   1   7
ATOM      7  C   UNL     1     -23.304  80.913  78.692  1.00  0.00     0.072 C 
ATOM      8  O   UNL     1     -22.242  81.516  78.378  1.00  0.00    -0.545 OA
ATOM      9  O   UNL     1     -24.299  80.759  77.734  1.00  0.00    -0.545 OA
ENDBRANCH   1   7
BRANCH   2  10
ATOM     10  C   UNL     1     -22.686  78.076  79.578  1.00  0.00     0.072 C 
ATOM     11  O   UNL     1     -23.392  77.360  78.820  1.00  0.00    -0.545 OA
ATOM     12  O   UNL     1     -21.302  77.954  79.525  1.00  0.00    -0.545 OA
ENDBRANCH   2  10
TORSDOF 2
ENDMDL
MODEL 9
REMARK VINA RESULT:    -4.145      1.766      3.170
REMARK INTER + INTRA:          -4.821
REMARK INTER:                  -4.853
REMARK INTRA:                   0.032
REMARK UNBOUND:                -0.191
REMARK SMILES O=C([O-])c1ccccc1C(=O)[O-]
REMARK SMILES IDX 4 1 9 2 5 3 8 4 6 5 7 6 2 7 1 8 3 9 10 10 11 11 12 12
REMARK H PARENT
REMARK Flexibility Score: inf
ROOT
ATOM      1  C   UNL     1     -26.381  88.785  85.919  1.00  0.00     0.006 A 
ATOM      2  C   UNL     1     -25.431  87.779  85.589  1.00  0.00     0.006 A 
ATOM      3  C   UNL     1     -27.751  88.519  85.737  1.00  0.00     0.010 A 
ATOM      4  C   UNL     1     -25.882  86.570  85.029  1.00  0.00     0.010 A 
ATOM      5  C   UNL     1     -28.176  87.304  85.201  1.00  0.00     0.001 A 
ATOM      6  C   UNL     1     -27.244  86.336  84.837  1.00  0.00     0.001 A 
ENDROOT
BRANCH   1   7
ATOM      7  C   UNL     1     -25.987  90.136  86.380  1.00  0.00     0.072 C 
ATOM      8  O   UNL     1     -25.789  90.355  87.606  1.00  0.00    -0.545 OA
ATOM      9  O   UNL     1     -25.894  91.194  85.484  1.00  0.00    -0.545 OA
ENDBRANCH   1   7
BRANCH   2  10
ATOM     10  C   UNL     1     -23.983  87.913  85.871  1.00  0.00     0.072 C 
ATOM     11  O   UNL     1     -23.329  88.896  85.431  1.00  0.00    -0.545 OA
ATOM     12  O   UNL     1     -23.342  86.987  86.685  1.00  0.00    -0.545 OA
ENDBRANCH   2  10
TORSDOF 2
ENDMDL
