MODEL 1
REMARK VINA RESULT:    -5.015      0.000      0.000
REMARK INTER + INTRA:          -5.700
REMARK INTER:                  -5.455
REMARK INTRA:                  -0.245
REMARK UNBOUND:                -0.245
REMARK SMILES O=C([O-])c1ccccc1O
REMARK SMILES IDX 4 1 9 2 5 3 8 4 6 5 7 6 2 7 1 8 3 9 10 10
REMARK H PARENT 10 11
REMARK Flexibility Score: inf
ROOT
ATOM      1  C   UNL     1       2.625 -27.471  -1.444  1.00  0.00     0.039 A 
ATOM      2  C   UNL     1       3.367 -28.471  -0.773  1.00  0.00     0.124 A 
ATOM      3  C   UNL     1       1.566 -26.838  -0.765  1.00  0.00     0.014 A 
ATOM      4  C   UNL     1       3.041 -28.815   0.548  1.00  0.00     0.047 A 
ATOM      5  C   UNL     1       1.252 -27.190   0.551  1.00  0.00     0.001 A 
ATOM      6  C   UNL     1       1.988 -28.177   1.206  1.00  0.00     0.004 A 
ENDROOT
BRANCH   1   7
ATOM      7  C   UNL     1       2.930 -27.070  -2.842  1.00  0.00     0.075 C 
ATOM      8  O   UNL     1       2.009 -26.775  -3.649  1.00  0.00    -0.545 OA
ATOM      9  O   UNL     1       4.247 -27.015  -3.284  1.00  0.00    -0.545 OA
ENDBRANCH   1   7
BRANCH   2  10
ATOM     10  O   UNL     1       4.424 -29.124  -1.407  1.00  0.00    -0.507 OA
ATOM     11  H   UNL     1       4.461 -29.223  -2.414  1.00  0.00     0.293 HD
ENDBRANCH   2  10
TORSDOF 2
ENDMDL
MODEL 2
REMARK VINA RESULT:    -4.932      4.978      6.181
REMARK INTER + INTRA:          -5.610
REMARK INTER:                  -5.357
REMARK INTRA:                  -0.253
REMARK UNBOUND:                -0.245
REMARK SMILES O=C([O-])c1ccccc1O
REMARK SMILES IDX 4 1 9 2 5 3 8 4 6 5 7 6 2 7 1 8 3 9 10 10
REMARK H PARENT 10 11
REMARK Flexibility Score: inf
ROOT
ATOM      1  C   UNL     1      -2.102 -25.261   0.001  1.00  0.00     0.039 A 
ATOM      2  C   UNL     1      -3.083 -26.071   0.621  1.00  0.00     0.124 A 
ATOM      3  C   UNL     1      -2.225 -23.860   0.086  1.00  0.00     0.014 A 
ATOM      4  C   UNL     1      -4.153 -25.474   1.305  1.00  0.00     0.047 A 
ATOM      5  C   UNL     1      -3.295 -23.279   0.771  1.00  0.00     0.001 A 
ATOM      6  C   UNL     1      -4.257 -24.084   1.379  1.00  0.00     0.004 A 
ENDROOT
BRANCH   1   7
ATOM      7  C   UNL     1      -0.950 -25.844  -0.734  1.00  0.00     0.075 C 
ATOM      8  O   UNL     1      -0.661 -25.458  -1.898  1.00  0.00    -0.545 OA
ATOM      9  O   UNL     1      -0.169 -26.831  -0.144  1.00  0.00    -0.545 OA
ENDBRANCH   1   7
BRANCH   2  10
ATOM     10  O   UNL     1      -3.002 -27.463   0.562  1.00  0.00    -0.507 OA
ATOM     11  H   UNL     1      -2.371 -27.985   1.157  1.00  0.00     0.293 HD
ENDBRANCH   2  10
TORSDOF 2
ENDMDL
MODEL 3
REMARK VINA RESULT:    -4.874      2.184      3.318
REMARK INTER + INTRA:          -5.547
REMARK INTER:                  -5.332
REMARK INTRA:                  -0.214
REMARK UNBOUND:                -0.245
REMARK SMILES O=C([O-])c1ccccc1O
REMARK SMILES IDX 4 1 9 2 5 3 8 4 6 5 7 6 2 7 1 8 3 9 10 10
REMARK H PARENT 10 11
REMARK Flexibility Score: inf
ROOT
ATOM      1  C   UNL     1       1.065 -27.229  -0.258  1.00  0.00     0.039 A 
ATOM      2  C   UNL     1       2.030 -27.269  -1.292  1.00  0.00     0.124 A 
ATOM      3  C   UNL     1       1.358 -27.858   0.969  1.00  0.00     0.014 A 
ATOM      4  C   UNL     1       3.251 -27.927  -1.084  1.00  0.00     0.047 A 
ATOM      5  C   UNL     1       2.579 -28.509   1.162  1.00  0.00     0.001 A 
ATOM      6  C   UNL     1       3.523 -28.543   0.138  1.00  0.00     0.004 A 
ENDROOT
BRANCH   1   7
ATOM      7  C   UNL     1      -0.243 -26.546  -0.427  1.00  0.00     0.075 C 
ATOM      8  O   UNL     1      -0.383 -25.608  -1.256  1.00  0.00    -0.545 OA
ATOM      9  O   UNL     1      -1.341 -26.933   0.333  1.00  0.00    -0.545 OA
ENDBRANCH   1   7
BRANCH   2  10
ATOM     10  O   UNL     1       1.783 -26.660  -2.523  1.00  0.00    -0.507 OA
ATOM     11  H   UNL     1       1.074 -25.945  -2.631  1.00  0.00     0.293 HD
ENDBRANCH   2  10
TORSDOF 2
ENDMDL
MODEL 4
REMARK VINA RESULT:    -4.866      0.999      2.150
REMARK INTER + INTRA:          -5.538
REMARK INTER:                  -5.314
REMARK INTRA:                  -0.225
REMARK UNBOUND:                -0.245
REMARK SMILES O=C([O-])c1ccccc1O
REMARK SMILES IDX 4 1 9 2 5 3 8 4 6 5 7 6 2 7 1 8 3 9 10 10
REMARK H PARENT 10 11
REMARK Flexibility Score: inf
ROOT
ATOM      1  C   UNL     1       2.808 -27.620  -1.144  1.00  0.00     0.039 A 
ATOM      2  C   UNL     1       1.613 -27.222  -0.500  1.00  0.00     0.124 A 
ATOM      3  C   UNL     1       3.715 -28.442  -0.447  1.00  0.00     0.014 A 
ATOM      4  C   UNL     1       1.350 -27.648   0.811  1.00  0.00     0.047 A 
ATOM      5  C   UNL     1       3.440 -28.860   0.857  1.00  0.00     0.001 A 
ATOM      6  C   UNL     1       2.260 -28.464   1.485  1.00  0.00     0.004 A 
ENDROOT
BRANCH   1   7
ATOM      7  C   UNL     1       3.134 -27.196  -2.530  1.00  0.00     0.075 C 
ATOM      8  O   UNL     1       2.223 -26.965  -3.370  1.00  0.00    -0.545 OA
ATOM      9  O   UNL     1       4.458 -27.046  -2.925  1.00  0.00    -0.545 OA
ENDBRANCH   1   7
BRANCH   2  10
ATOM     10  O   UNL     1       0.687 -26.407  -1.152  1.00  0.00    -0.507 OA
ATOM     11  H   UNL     1       0.960 -25.782  -1.899  1.00  0.00     0.293 HD
ENDBRANCH   2  10
TORSDOF 2
ENDMDL
MODEL 5
REMARK VINA RESULT:    -4.836      1.763      2.527
REMARK INTER + INTRA:          -5.506
REMARK INTER:                  -5.295
REMARK INTRA:                  -0.210
REMARK UNBOUND:                -0.245
REMARK SMILES O=C([O-])c1ccccc1O
REMARK SMILES IDX 4 1 9 2 5 3 8 4 6 5 7 6 2 7 1 8 3 9 10 10
REMARK H PARENT 10 11
REMARK Flexibility Score: inf
ROOT
ATOM      1  C   UNL     1       2.103 -27.820  -0.039  1.00  0.00     0.039 A 
ATOM      2  C   UNL     1       3.259 -28.224  -0.749  1.00  0.00     0.124 A 
ATOM      3  C   UNL     1       2.011 -28.116   1.335  1.00  0.00     0.014 A 
ATOM      4  C   UNL     1       4.286 -28.908  -0.081  1.00  0.00     0.047 A 
ATOM      5  C   UNL     1       3.042 -28.797   1.988  1.00  0.00     0.001 A 
ATOM      6  C   UNL     1       4.177 -29.192   1.281  1.00  0.00     0.004 A 
ENDROOT
BRANCH   1   7
ATOM      7  C   UNL     1       0.988 -27.094  -0.700  1.00  0.00     0.075 C 
ATOM      8  O   UNL     1      -0.176 -27.117  -0.220  1.00  0.00    -0.545 OA
ATOM      9  O   UNL     1       1.215 -26.372  -1.867  1.00  0.00    -0.545 OA
ENDBRANCH   1   7
BRANCH   2  10
ATOM     10  O   UNL     1       3.392 -27.953  -2.111  1.00  0.00    -0.507 OA
ATOM     11  H   UNL     1       2.794 -28.387  -2.802  1.00  0.00     0.293 HD
ENDBRANCH   2  10
TORSDOF 2
ENDMDL
MODEL 6
REMARK VINA RESULT:    -4.767      2.608      3.428
REMARK INTER + INTRA:          -5.430
REMARK INTER:                  -5.220
REMARK INTRA:                  -0.210
REMARK UNBOUND:                -0.245
REMARK SMILES O=C([O-])c1ccccc1O
REMARK SMILES IDX 4 1 9 2 5 3 8 4 6 5 7 6 2 7 1 8 3 9 10 10
REMARK H PARENT 10 11
REMARK Flexibility Score: inf
ROOT
ATOM      1  C   UNL     1       1.237 -27.086  -0.682  1.00  0.00     0.039 A 
ATOM      2  C   UNL     1       1.897 -27.838   0.318  1.00  0.00     0.124 A 
ATOM      3  C   UNL     1       1.891 -26.866  -1.910  1.00  0.00     0.014 A 
ATOM      4  C   UNL     1       3.181 -28.349   0.075  1.00  0.00     0.047 A 
ATOM      5  C   UNL     1       3.169 -27.381  -2.139  1.00  0.00     0.001 A 
ATOM      6  C   UNL     1       3.813 -28.121  -1.148  1.00  0.00     0.004 A 
ENDROOT
BRANCH   1   7
ATOM      7  C   UNL     1      -0.123 -26.523  -0.475  1.00  0.00     0.075 C 
ATOM      8  O   UNL     1      -0.908 -27.020   0.375  1.00  0.00    -0.545 OA
ATOM      9  O   UNL     1      -0.551 -25.432  -1.222  1.00  0.00    -0.545 OA
ENDBRANCH   1   7
BRANCH   2  10
ATOM     10  O   UNL     1       1.287 -28.081   1.549  1.00  0.00    -0.507 OA
ATOM     11  H   UNL     1       1.828 -28.271   2.384  1.00  0.00     0.293 HD
ENDBRANCH   2  10
TORSDOF 2
ENDMDL
MODEL 7
REMARK VINA RESULT:    -4.754      1.959      3.754
REMARK INTER + INTRA:          -5.416
REMARK INTER:                  -5.196
REMARK INTRA:                  -0.221
REMARK UNBOUND:                -0.245
REMARK SMILES O=C([O-])c1ccccc1O
REMARK SMILES IDX 4 1 9 2 5 3 8 4 6 5 7 6 2 7 1 8 3 9 10 10
REMARK H PARENT 10 11
REMARK Flexibility Score: inf
ROOT
ATOM      1  C   UNL     1       2.884 -28.538   0.888  1.00  0.00     0.039 A 
ATOM      2  C   UNL     1       3.448 -28.522  -0.410  1.00  0.00     0.124 A 
ATOM      3  C   UNL     1       1.718 -27.786   1.131  1.00  0.00     0.014 A 
ATOM      4  C   UNL     1       2.844 -27.766  -1.426  1.00  0.00     0.047 A 
ATOM      5  C   UNL     1       1.126 -27.038   0.110  1.00  0.00     0.001 A 
ATOM      6  C   UNL     1       1.688 -27.028  -1.166  1.00  0.00     0.004 A 
ENDROOT
BRANCH   1   7
ATOM      7  C   UNL     1       3.485 -29.322   1.998  1.00  0.00     0.075 C 
ATOM      8  O   UNL     1       2.779 -29.739   2.954  1.00  0.00    -0.545 OA
ATOM      9  O   UNL     1       4.845 -29.610   1.997  1.00  0.00    -0.545 OA
ENDBRANCH   1   7
BRANCH   2  10
ATOM     10  O   UNL     1       4.602 -29.251  -0.696  1.00  0.00    -0.507 OA
ATOM     11  H   UNL     1       5.278 -29.483   0.022  1.00  0.00     0.293 HD
ENDBRANCH   2  10
TORSDOF 2
ENDMDL
MODEL 8
REMARK VINA RESULT:    -4.723      6.267      7.267
REMARK INTER + INTRA:          -5.383
REMARK INTER:                  -5.236
REMARK INTRA:                  -0.147
REMARK UNBOUND:                -0.245
REMARK SMILES O=C([O-])c1ccccc1O
REMARK SMILES IDX 4 1 9 2 5 3 8 4 6 5 7 6 2 7 1 8 3 9 10 10
REMARK H PARENT 10 11
REMARK Flexibility Score: inf
ROOT
ATOM      1  C   UNL     1       3.574 -29.805   4.768  1.00  0.00     0.039 A 
ATOM      2  C   UNL     1       4.894 -30.281   4.950  1.00  0.00     0.124 A 
ATOM      3  C   UNL     1       3.178 -29.373   3.488  1.00  0.00     0.014 A 
ATOM      4  C   UNL     1       5.781 -30.316   3.863  1.00  0.00     0.047 A 
ATOM      5  C   UNL     1       4.071 -29.413   2.414  1.00  0.00     0.001 A 
ATOM      6  C   UNL     1       5.370 -29.884   2.601  1.00  0.00     0.004 A 
ENDROOT
BRANCH   1   7
ATOM      7  C   UNL     1       2.598 -29.748   5.886  1.00  0.00     0.075 C 
ATOM      8  O   UNL     1       2.664 -28.845   6.761  1.00  0.00    -0.545 OA
ATOM      9  O   UNL     1       1.587 -30.698   5.983  1.00  0.00    -0.545 OA
ENDBRANCH   1   7
BRANCH   2  10
ATOM     10  O   UNL     1       5.330 -30.719   6.201  1.00  0.00    -0.507 OA
ATOM     11  H   UNL     1       6.247 -30.482   6.559  1.00  0.00     0.293 HD
ENDBRANCH   2  10
TORSDOF 2
ENDMDL
MODEL 9
REMARK VINA RESULT:    -4.709      5.142      6.554
REMARK INTER + INTRA:          -5.367
REMARK INTER:                  -5.138
REMARK INTRA:                  -0.229
REMARK UNBOUND:                -0.245
REMARK SMILES O=C([O-])c1ccccc1O
REMARK SMILES IDX 4 1 9 2 5 3 8 4 6 5 7 6 2 7 1 8 3 9 10 10
REMARK H PARENT 10 11
REMARK Flexibility Score: inf
ROOT
ATOM      1  C   UNL     1      -2.267 -25.005   0.025  1.00  0.00     0.039 A 
ATOM      2  C   UNL     1      -2.485 -23.648   0.362  1.00  0.00     0.124 A 
ATOM      3  C   UNL     1      -3.196 -25.970   0.459  1.00  0.00     0.014 A 
ATOM      4  C   UNL     1      -3.612 -23.287   1.115  1.00  0.00     0.047 A 
ATOM      5  C   UNL     1      -4.315 -25.597   1.208  1.00  0.00     0.001 A 
ATOM      6  C   UNL     1      -4.522 -24.258   1.536  1.00  0.00     0.004 A 
ENDROOT
BRANCH   1   7
ATOM      7  C   UNL     1      -1.089 -25.438  -0.771  1.00  0.00     0.075 C 
ATOM      8  O   UNL     1      -0.912 -25.024  -1.947  1.00  0.00    -0.545 OA
ATOM      9  O   UNL     1      -0.158 -26.315  -0.224  1.00  0.00    -0.545 OA
ENDBRANCH   1   7
BRANCH   2  10
ATOM     10  O   UNL     1      -1.591 -22.657  -0.046  1.00  0.00    -0.507 OA
ATOM     11  H   UNL     1      -1.374 -22.505  -1.024  1.00  0.00     0.293 HD
ENDBRANCH   2  10
TORSDOF 2
ENDMDL
