MODEL 1
REMARK VINA RESULT:    -5.470      0.000      0.000
REMARK INTER + INTRA:          -5.630
REMARK INTER:                  -5.630
REMARK INTRA:                   0.000
REMARK UNBOUND:                 0.000
REMARK SMILES O=c1ccc2cc(O)ccc2o1
REMARK SMILES IDX 9 1 10 2 11 3 5 4 4 5 3 6 2 7 1 8 12 9 6 10 7 11 8 12
REMARK H PARENT 8 13
REMARK Flexibility Score: inf
ROOT
ATOM      1  C   UNL     1      -7.221 -25.142 -21.505  1.00  0.00     0.050 A 
ATOM      2  C   UNL     1      -6.395 -24.325 -20.728  1.00  0.00     0.052 A 
ATOM      3  C   UNL     1      -6.866 -23.799 -19.520  1.00  0.00     0.138 A 
ATOM      4  C   UNL     1      -8.177 -24.096 -19.089  1.00  0.00     0.021 A 
ATOM      5  C   UNL     1      -8.621 -23.554 -17.879  1.00  0.00     0.019 A 
ATOM      6  C   UNL     1      -7.761 -22.745 -17.136  1.00  0.00     0.094 A 
ATOM      7  C   UNL     1      -6.474 -22.494 -17.625  1.00  0.00     0.336 A 
ATOM      8  O   UNL     1      -5.685 -21.765 -16.969  1.00  0.00    -0.246 OA
ATOM      9  O   UNL     1      -6.078 -23.020 -18.781  1.00  0.00    -0.423 OA
ATOM     10  C   UNL     1      -9.002 -24.916 -19.873  1.00  0.00     0.058 A 
ATOM     11  C   UNL     1      -8.523 -25.439 -21.083  1.00  0.00     0.116 A 
ENDROOT
BRANCH  11  12
ATOM     12  O   UNL     1      -9.330 -26.256 -21.872  1.00  0.00    -0.508 OA
ATOM     13  H   UNL     1      -9.537 -27.211 -21.606  1.00  0.00     0.293 HD
ENDBRANCH  11  12
TORSDOF 1
ENDMDL
MODEL 2
REMARK VINA RESULT:    -5.145      1.757      4.234
REMARK INTER + INTRA:          -5.295
REMARK INTER:                  -5.295
REMARK INTRA:                   0.000
REMARK UNBOUND:                 0.000
REMARK SMILES O=c1ccc2cc(O)ccc2o1
REMARK SMILES IDX 9 1 10 2 11 3 5 4 4 5 3 6 2 7 1 8 12 9 6 10 7 11 8 12
REMARK H PARENT 8 13
REMARK Flexibility Score: inf
ROOT
ATOM      1  C   UNL     1      -6.438 -22.118 -16.968  1.00  0.00     0.050 A 
ATOM      2  C   UNL     1      -6.063 -22.090 -18.315  1.00  0.00     0.052 A 
ATOM      3  C   UNL     1      -6.802 -22.806 -19.263  1.00  0.00     0.138 A 
ATOM      4  C   UNL     1      -7.927 -23.557 -18.854  1.00  0.00     0.021 A 
ATOM      5  C   UNL     1      -8.645 -24.263 -19.824  1.00  0.00     0.019 A 
ATOM      6  C   UNL     1      -8.236 -24.205 -21.156  1.00  0.00     0.094 A 
ATOM      7  C   UNL     1      -7.112 -23.441 -21.488  1.00  0.00     0.336 A 
ATOM      8  O   UNL     1      -6.726 -23.377 -22.684  1.00  0.00    -0.246 OA
ATOM      9  O   UNL     1      -6.445 -22.779 -20.545  1.00  0.00    -0.423 OA
ATOM     10  C   UNL     1      -8.298 -23.581 -17.502  1.00  0.00     0.058 A 
ATOM     11  C   UNL     1      -7.551 -22.861 -16.558  1.00  0.00     0.116 A 
ENDROOT
BRANCH  11  12
ATOM     12  O   UNL     1      -7.908 -22.876 -15.211  1.00  0.00    -0.508 OA
ATOM     13  H   UNL     1      -8.878 -22.868 -14.921  1.00  0.00     0.293 HD
ENDBRANCH  11  12
TORSDOF 1
ENDMDL
MODEL 3
REMARK VINA RESULT:    -5.126      1.021      2.236
REMARK INTER + INTRA:          -5.276
REMARK INTER:                  -5.276
REMARK INTRA:                   0.000
REMARK UNBOUND:                 0.000
REMARK SMILES O=c1ccc2cc(O)ccc2o1
REMARK SMILES IDX 9 1 10 2 11 3 5 4 4 5 3 6 2 7 1 8 12 9 6 10 7 11 8 12
REMARK H PARENT 8 13
REMARK Flexibility Score: inf
ROOT
ATOM      1  C   UNL     1      -9.383 -24.944 -20.001  1.00  0.00     0.050 A 
ATOM      2  C   UNL     1      -8.823 -23.991 -19.145  1.00  0.00     0.052 A 
ATOM      3  C   UNL     1      -7.494 -23.592 -19.315  1.00  0.00     0.138 A 
ATOM      4  C   UNL     1      -6.720 -24.153 -20.354  1.00  0.00     0.021 A 
ATOM      5  C   UNL     1      -5.393 -23.735 -20.500  1.00  0.00     0.019 A 
ATOM      6  C   UNL     1      -4.878 -22.781 -19.623  1.00  0.00     0.094 A 
ATOM      7  C   UNL     1      -5.703 -22.268 -18.616  1.00  0.00     0.336 A 
ATOM      8  O   UNL     1      -5.255 -21.407 -17.815  1.00  0.00    -0.246 OA
ATOM      9  O   UNL     1      -6.961 -22.684 -18.499  1.00  0.00    -0.423 OA
ATOM     10  C   UNL     1      -7.287 -25.109 -21.210  1.00  0.00     0.058 A 
ATOM     11  C   UNL     1      -8.620 -25.505 -21.033  1.00  0.00     0.116 A 
ENDROOT
BRANCH  11  12
ATOM     12  O   UNL     1      -9.197 -26.453 -21.875  1.00  0.00    -0.508 OA
ATOM     13  H   UNL     1      -9.696 -27.253 -21.508  1.00  0.00     0.293 HD
ENDBRANCH  11  12
TORSDOF 1
ENDMDL
MODEL 4
REMARK VINA RESULT:    -5.069      2.854      4.212
REMARK INTER + INTRA:          -5.217
REMARK INTER:                  -5.217
REMARK INTRA:                   0.000
REMARK UNBOUND:                 0.000
REMARK SMILES O=c1ccc2cc(O)ccc2o1
REMARK SMILES IDX 9 1 10 2 11 3 5 4 4 5 3 6 2 7 1 8 12 9 6 10 7 11 8 12
REMARK H PARENT 8 13
REMARK Flexibility Score: inf
ROOT
ATOM      1  C   UNL     1      -6.906 -22.882 -15.359  1.00  0.00     0.050 A 
ATOM      2  C   UNL     1      -6.207 -21.837 -15.972  1.00  0.00     0.052 A 
ATOM      3  C   UNL     1      -6.214 -21.713 -17.366  1.00  0.00     0.138 A 
ATOM      4  C   UNL     1      -6.929 -22.646 -18.150  1.00  0.00     0.021 A 
ATOM      5  C   UNL     1      -6.917 -22.497 -19.540  1.00  0.00     0.019 A 
ATOM      6  C   UNL     1      -6.207 -21.439 -20.108  1.00  0.00     0.094 A 
ATOM      7  C   UNL     1      -5.522 -20.553 -19.269  1.00  0.00     0.336 A 
ATOM      8  O   UNL     1      -4.875 -19.593 -19.763  1.00  0.00    -0.246 OA
ATOM      9  O   UNL     1      -5.549 -20.719 -17.949  1.00  0.00    -0.423 OA
ATOM     10  C   UNL     1      -7.628 -23.691 -17.529  1.00  0.00     0.058 A 
ATOM     11  C   UNL     1      -7.615 -23.809 -16.132  1.00  0.00     0.116 A 
ENDROOT
BRANCH  11  12
ATOM     12  O   UNL     1      -8.305 -24.843 -15.501  1.00  0.00    -0.508 OA
ATOM     13  H   UNL     1      -8.204 -25.805 -15.799  1.00  0.00     0.293 HD
ENDBRANCH  11  12
TORSDOF 1
ENDMDL
MODEL 5
REMARK VINA RESULT:    -5.022      1.354      4.849
REMARK INTER + INTRA:          -5.169
REMARK INTER:                  -5.169
REMARK INTRA:                   0.000
REMARK UNBOUND:                 0.000
REMARK SMILES O=c1ccc2cc(O)ccc2o1
REMARK SMILES IDX 9 1 10 2 11 3 5 4 4 5 3 6 2 7 1 8 12 9 6 10 7 11 8 12
REMARK H PARENT 8 13
REMARK Flexibility Score: inf
ROOT
ATOM      1  C   UNL     1      -6.831 -22.261 -16.438  1.00  0.00     0.050 A 
ATOM      2  C   UNL     1      -7.789 -23.116 -16.991  1.00  0.00     0.052 A 
ATOM      3  C   UNL     1      -7.743 -23.433 -18.352  1.00  0.00     0.138 A 
ATOM      4  C   UNL     1      -6.726 -22.886 -19.166  1.00  0.00     0.021 A 
ATOM      5  C   UNL     1      -6.707 -23.220 -20.524  1.00  0.00     0.019 A 
ATOM      6  C   UNL     1      -7.682 -24.078 -21.031  1.00  0.00     0.094 A 
ATOM      7  C   UNL     1      -8.659 -24.582 -20.166  1.00  0.00     0.336 A 
ATOM      8  O   UNL     1      -9.548 -25.358 -20.605  1.00  0.00    -0.246 OA
ATOM      9  O   UNL     1      -8.655 -24.247 -18.878  1.00  0.00    -0.423 OA
ATOM     10  C   UNL     1      -5.768 -22.028 -18.606  1.00  0.00     0.058 A 
ATOM     11  C   UNL     1      -5.821 -21.715 -17.241  1.00  0.00     0.116 A 
ENDROOT
BRANCH  11  12
ATOM     12  O   UNL     1      -4.876 -20.865 -16.671  1.00  0.00    -0.508 OA
ATOM     13  H   UNL     1      -5.029 -19.865 -16.615  1.00  0.00     0.293 HD
ENDBRANCH  11  12
TORSDOF 1
ENDMDL
MODEL 6
REMARK VINA RESULT:    -4.994      1.827      2.524
REMARK INTER + INTRA:          -5.140
REMARK INTER:                  -5.140
REMARK INTRA:                   0.000
REMARK UNBOUND:                 0.000
REMARK SMILES O=c1ccc2cc(O)ccc2o1
REMARK SMILES IDX 9 1 10 2 11 3 5 4 4 5 3 6 2 7 1 8 12 9 6 10 7 11 8 12
REMARK H PARENT 8 13
REMARK Flexibility Score: inf
ROOT
ATOM      1  C   UNL     1      -8.612 -24.070 -20.587  1.00  0.00     0.050 A 
ATOM      2  C   UNL     1      -8.737 -24.024 -19.195  1.00  0.00     0.052 A 
ATOM      3  C   UNL     1      -7.848 -23.254 -18.437  1.00  0.00     0.138 A 
ATOM      4  C   UNL     1      -6.825 -22.525 -19.083  1.00  0.00     0.021 A 
ATOM      5  C   UNL     1      -5.950 -21.766 -18.299  1.00  0.00     0.019 A 
ATOM      6  C   UNL     1      -6.114 -21.748 -16.914  1.00  0.00     0.094 A 
ATOM      7  C   UNL     1      -7.150 -22.495 -16.343  1.00  0.00     0.336 A 
ATOM      8  O   UNL     1      -7.313 -22.492 -15.095  1.00  0.00    -0.246 OA
ATOM      9  O   UNL     1      -7.968 -23.210 -17.112  1.00  0.00    -0.423 OA
ATOM     10  C   UNL     1      -6.705 -22.576 -20.479  1.00  0.00     0.058 A 
ATOM     11  C   UNL     1      -7.599 -23.350 -21.231  1.00  0.00     0.116 A 
ENDROOT
BRANCH  11  12
ATOM     12  O   UNL     1      -7.492 -23.410 -22.619  1.00  0.00    -0.508 OA
ATOM     13  H   UNL     1      -6.716 -23.878 -23.070  1.00  0.00     0.293 HD
ENDBRANCH  11  12
TORSDOF 1
ENDMDL
MODEL 7
REMARK VINA RESULT:    -4.784      1.888      2.156
REMARK INTER + INTRA:          -4.923
REMARK INTER:                  -4.923
REMARK INTRA:                   0.000
REMARK UNBOUND:                 0.000
REMARK SMILES O=c1ccc2cc(O)ccc2o1
REMARK SMILES IDX 9 1 10 2 11 3 5 4 4 5 3 6 2 7 1 8 12 9 6 10 7 11 8 12
REMARK H PARENT 8 13
REMARK Flexibility Score: inf
ROOT
ATOM      1  C   UNL     1      -6.340 -21.985 -21.385  1.00  0.00     0.050 A 
ATOM      2  C   UNL     1      -5.951 -21.795 -20.055  1.00  0.00     0.052 A 
ATOM      3  C   UNL     1      -6.706 -22.354 -19.018  1.00  0.00     0.138 A 
ATOM      4  C   UNL     1      -7.861 -23.109 -19.319  1.00  0.00     0.021 A 
ATOM      5  C   UNL     1      -8.596 -23.654 -18.262  1.00  0.00     0.019 A 
ATOM      6  C   UNL     1      -8.170 -23.439 -16.951  1.00  0.00     0.094 A 
ATOM      7  C   UNL     1      -7.016 -22.680 -16.728  1.00  0.00     0.336 A 
ATOM      8  O   UNL     1      -6.617 -22.476 -15.552  1.00  0.00    -0.246 OA
ATOM      9  O   UNL     1      -6.336 -22.172 -17.753  1.00  0.00    -0.423 OA
ATOM     10  C   UNL     1      -8.246 -23.296 -20.655  1.00  0.00     0.058 A 
ATOM     11  C   UNL     1      -7.484 -22.733 -21.689  1.00  0.00     0.116 A 
ENDROOT
BRANCH  11  12
ATOM     12  O   UNL     1      -7.854 -22.910 -23.020  1.00  0.00    -0.508 OA
ATOM     13  H   UNL     1      -8.819 -22.829 -23.317  1.00  0.00     0.293 HD
ENDBRANCH  11  12
TORSDOF 1
ENDMDL
MODEL 8
REMARK VINA RESULT:    -4.729      2.215      4.961
REMARK INTER + INTRA:          -4.868
REMARK INTER:                  -4.868
REMARK INTRA:                   0.000
REMARK UNBOUND:                 0.000
REMARK SMILES O=c1ccc2cc(O)ccc2o1
REMARK SMILES IDX 9 1 10 2 11 3 5 4 4 5 3 6 2 7 1 8 12 9 6 10 7 11 8 12
REMARK H PARENT 8 13
REMARK Flexibility Score: inf
ROOT
ATOM      1  C   UNL     1      -6.948 -23.204 -15.812  1.00  0.00     0.050 A 
ATOM      2  C   UNL     1      -7.735 -23.472 -16.936  1.00  0.00     0.052 A 
ATOM      3  C   UNL     1      -7.410 -22.899 -18.171  1.00  0.00     0.138 A 
ATOM      4  C   UNL     1      -6.285 -22.052 -18.277  1.00  0.00     0.021 A 
ATOM      5  C   UNL     1      -5.986 -21.493 -19.524  1.00  0.00     0.019 A 
ATOM      6  C   UNL     1      -6.799 -21.789 -20.618  1.00  0.00     0.094 A 
ATOM      7  C   UNL     1      -7.897 -22.638 -20.439  1.00  0.00     0.336 A 
ATOM      8  O   UNL     1      -8.642 -22.915 -21.414  1.00  0.00    -0.246 OA
ATOM      9  O   UNL     1      -8.160 -23.154 -19.241  1.00  0.00    -0.423 OA
ATOM     10  C   UNL     1      -5.500 -21.787 -17.145  1.00  0.00     0.058 A 
ATOM     11  C   UNL     1      -5.832 -22.364 -15.911  1.00  0.00     0.116 A 
ENDROOT
BRANCH  11  12
ATOM     12  O   UNL     1      -5.061 -22.110 -14.779  1.00  0.00    -0.508 OA
ATOM     13  H   UNL     1      -5.185 -22.640 -13.925  1.00  0.00     0.293 HD
ENDBRANCH  11  12
TORSDOF 1
ENDMDL
MODEL 9
REMARK VINA RESULT:    -4.471      2.457      4.375
REMARK INTER + INTRA:          -4.602
REMARK INTER:                  -4.602
REMARK INTRA:                   0.000
REMARK UNBOUND:                 0.000
REMARK SMILES O=c1ccc2cc(O)ccc2o1
REMARK SMILES IDX 9 1 10 2 11 3 5 4 4 5 3 6 2 7 1 8 12 9 6 10 7 11 8 12
REMARK H PARENT 8 13
REMARK Flexibility Score: inf
ROOT
ATOM      1  C   UNL     1      -8.989 -23.658 -18.572  1.00  0.00     0.050 A 
ATOM      2  C   UNL     1      -8.951 -23.575 -19.967  1.00  0.00     0.052 A 
ATOM      3  C   UNL     1      -7.811 -23.077 -20.608  1.00  0.00     0.138 A 
ATOM      4  C   UNL     1      -6.701 -22.659 -19.841  1.00  0.00     0.021 A 
ATOM      5  C   UNL     1      -5.577 -22.165 -20.510  1.00  0.00     0.019 A 
ATOM      6  C   UNL     1      -5.583 -22.102 -21.903  1.00  0.00     0.094 A 
ATOM      7  C   UNL     1      -6.718 -22.534 -22.597  1.00  0.00     0.336 A 
ATOM      8  O   UNL     1      -6.742 -22.484 -23.855  1.00  0.00    -0.246 OA
ATOM      9  O   UNL     1      -7.775 -22.999 -21.936  1.00  0.00    -0.423 OA
ATOM     10  C   UNL     1      -6.746 -22.744 -18.442  1.00  0.00     0.058 A 
ATOM     11  C   UNL     1      -7.892 -23.244 -17.807  1.00  0.00     0.116 A 
ENDROOT
BRANCH  11  12
ATOM     12  O   UNL     1      -7.950 -23.334 -16.418  1.00  0.00    -0.508 OA
ATOM     13  H   UNL     1      -7.281 -23.886 -15.895  1.00  0.00     0.293 HD
ENDBRANCH  11  12
TORSDOF 1
ENDMDL
