MODEL 1
REMARK VINA RESULT:    -5.584      0.000      0.000
REMARK INTER + INTRA:         -14.205
REMARK INTER:                 -12.112
REMARK INTRA:                  -2.093
REMARK UNBOUND:                -2.093
REMARK SMILES CCCCCCCCCCCCCCCCCCCCCC(=O)[O-]
REMARK SMILES IDX 12 1 11 2 10 3 9 4 8 5 7 6 6 7 5 8 4 9 3 10 2 11 1 12 13 13
REMARK SMILES IDX 14 14 15 15 16 16 17 17 18 18 19 19 20 20 21 21 22 22 23 23
REMARK SMILES IDX 24 24
REMARK H PARENT
REMARK Flexibility Score: inf
ROOT
ATOM      1  C   UNL     1      -8.563  27.686 -25.796  1.00  0.00     0.000 C 
ENDROOT
BRANCH   1   2
ATOM      2  C   UNL     1      -8.250  27.968 -24.319  1.00  0.00     0.000 C 
BRANCH   2   3
ATOM      3  C   UNL     1      -6.785  28.393 -24.140  1.00  0.00     0.000 C 
BRANCH   3   4
ATOM      4  C   UNL     1      -6.499  28.965 -22.743  1.00  0.00    -0.000 C 
BRANCH   4   5
ATOM      5  C   UNL     1      -4.999  28.970 -22.397  1.00  0.00    -0.000 C 
BRANCH   5   6
ATOM      6  C   UNL     1      -4.688  28.135 -21.137  1.00  0.00    -0.000 C 
BRANCH   6   7
ATOM      7  C   UNL     1      -5.923  27.442 -20.527  1.00  0.00    -0.000 C 
BRANCH   7   8
ATOM      8  C   UNL     1      -6.207  27.787 -19.055  1.00  0.00    -0.000 C 
BRANCH   8   9
ATOM      9  C   UNL     1      -5.674  29.172 -18.653  1.00  0.00    -0.000 C 
BRANCH   9  10
ATOM     10  C   UNL     1      -6.768  30.255 -18.641  1.00  0.00    -0.000 C 
BRANCH  10  11
ATOM     11  C   UNL     1      -6.668  31.291 -19.776  1.00  0.00    -0.003 C 
ATOM     12  C   UNL     1      -5.240  31.779 -20.016  1.00  0.00     0.004 C 
ENDBRANCH  10  11
ENDBRANCH   9  10
ENDBRANCH   8   9
ENDBRANCH   7   8
ENDBRANCH   6   7
ENDBRANCH   5   6
ENDBRANCH   4   5
ENDBRANCH   3   4
ENDBRANCH   2   3
ENDBRANCH   1   2
BRANCH   1  13
ATOM     13  C   UNL     1      -7.305  27.655 -26.680  1.00  0.00     0.000 C 
BRANCH  13  14
ATOM     14  C   UNL     1      -7.479  26.774 -27.930  1.00  0.00     0.000 C 
BRANCH  14  15
ATOM     15  C   UNL     1      -8.802  25.986 -27.926  1.00  0.00     0.000 C 
BRANCH  15  16
ATOM     16  C   UNL     1      -8.695  24.530 -27.434  1.00  0.00     0.000 C 
BRANCH  16  17
ATOM     17  C   UNL     1      -9.653  24.219 -26.275  1.00  0.00     0.000 C 
BRANCH  17  18
ATOM     18  C   UNL     1      -9.552  22.746 -25.861  1.00  0.00     0.000 C 
BRANCH  18  19
ATOM     19  C   UNL     1     -10.586  22.405 -24.781  1.00  0.00     0.000 C 
BRANCH  19  20
ATOM     20  C   UNL     1     -10.366  23.254 -23.521  1.00  0.00     0.006 C 
BRANCH  20  21
ATOM     21  C   UNL     1      -9.101  22.840 -22.757  1.00  0.00     0.053 C 
BRANCH  21  22
ATOM     22  C   UNL     1      -9.308  22.885 -21.275  1.00  0.00     0.041 C 
ATOM     23  O   UNL     1     -10.410  22.536 -20.778  1.00  0.00    -0.550 OA
ATOM     24  O   UNL     1      -8.276  23.295 -20.438  1.00  0.00    -0.550 OA
ENDBRANCH  21  22
ENDBRANCH  20  21
ENDBRANCH  19  20
ENDBRANCH  18  19
ENDBRANCH  17  18
ENDBRANCH  16  17
ENDBRANCH  15  16
ENDBRANCH  14  15
ENDBRANCH  13  14
ENDBRANCH   1  13
TORSDOF 20
ENDMDL
MODEL 2
REMARK VINA RESULT:    -5.191      1.197      1.782
REMARK INTER + INTRA:         -13.354
REMARK INTER:                 -11.789
REMARK INTRA:                  -1.565
REMARK UNBOUND:                -2.093
REMARK SMILES CCCCCCCCCCCCCCCCCCCCCC(=O)[O-]
REMARK SMILES IDX 12 1 11 2 10 3 9 4 8 5 7 6 6 7 5 8 4 9 3 10 2 11 1 12 13 13
REMARK SMILES IDX 14 14 15 15 16 16 17 17 18 18 19 19 20 20 21 21 22 22 23 23
REMARK SMILES IDX 24 24
REMARK H PARENT
REMARK Flexibility Score: inf
ROOT
ATOM      1  C   UNL     1      -8.208  27.709 -25.294  1.00  0.00     0.000 C 
ENDROOT
BRANCH   1   2
ATOM      2  C   UNL     1      -7.785  28.205 -23.903  1.00  0.00     0.000 C 
BRANCH   2   3
ATOM      3  C   UNL     1      -6.281  28.517 -23.866  1.00  0.00     0.000 C 
BRANCH   3   4
ATOM      4  C   UNL     1      -5.845  29.185 -22.552  1.00  0.00    -0.000 C 
BRANCH   4   5
ATOM      5  C   UNL     1      -6.076  28.288 -21.324  1.00  0.00    -0.000 C 
BRANCH   5   6
ATOM      6  C   UNL     1      -4.770  27.629 -20.829  1.00  0.00    -0.000 C 
BRANCH   6   7
ATOM      7  C   UNL     1      -3.510  28.486 -21.068  1.00  0.00    -0.000 C 
BRANCH   7   8
ATOM      8  C   UNL     1      -2.893  29.109 -19.804  1.00  0.00    -0.000 C 
BRANCH   8   9
ATOM      9  C   UNL     1      -2.739  30.635 -19.907  1.00  0.00    -0.000 C 
BRANCH   9  10
ATOM     10  C   UNL     1      -3.774  31.281 -20.847  1.00  0.00    -0.000 C 
BRANCH  10  11
ATOM     11  C   UNL     1      -4.238  32.689 -20.431  1.00  0.00    -0.003 C 
ATOM     12  C   UNL     1      -5.671  32.715 -19.902  1.00  0.00     0.004 C 
ENDBRANCH  10  11
ENDBRANCH   9  10
ENDBRANCH   8   9
ENDBRANCH   7   8
ENDBRANCH   6   7
ENDBRANCH   5   6
ENDBRANCH   4   5
ENDBRANCH   3   4
ENDBRANCH   2   3
ENDBRANCH   1   2
BRANCH   1  13
ATOM     13  C   UNL     1      -7.056  27.725 -26.312  1.00  0.00     0.000 C 
BRANCH  13  14
ATOM     14  C   UNL     1      -7.393  26.958 -27.603  1.00  0.00     0.000 C 
BRANCH  14  15
ATOM     15  C   UNL     1      -8.814  26.366 -27.592  1.00  0.00     0.000 C 
BRANCH  15  16
ATOM     16  C   UNL     1      -8.882  24.830 -27.499  1.00  0.00     0.000 C 
BRANCH  16  17
ATOM     17  C   UNL     1      -9.657  24.339 -26.267  1.00  0.00     0.000 C 
BRANCH  17  18
ATOM     18  C   UNL     1      -9.434  22.839 -26.041  1.00  0.00     0.000 C 
BRANCH  18  19
ATOM     19  C   UNL     1     -10.101  22.373 -24.741  1.00  0.00     0.000 C 
BRANCH  19  20
ATOM     20  C   UNL     1      -9.280  22.804 -23.517  1.00  0.00     0.006 C 
BRANCH  20  21
ATOM     21  C   UNL     1     -10.172  23.187 -22.328  1.00  0.00     0.053 C 
BRANCH  21  22
ATOM     22  C   UNL     1      -9.571  22.763 -21.024  1.00  0.00     0.041 C 
ATOM     23  O   UNL     1      -8.372  23.042 -20.759  1.00  0.00    -0.550 OA
ATOM     24  O   UNL     1     -10.339  22.076 -20.091  1.00  0.00    -0.550 OA
ENDBRANCH  21  22
ENDBRANCH  20  21
ENDBRANCH  19  20
ENDBRANCH  18  19
ENDBRANCH  17  18
ENDBRANCH  16  17
ENDBRANCH  15  16
ENDBRANCH  14  15
ENDBRANCH  13  14
ENDBRANCH   1  13
TORSDOF 20
ENDMDL
MODEL 3
REMARK VINA RESULT:    -5.178      4.612      8.851
REMARK INTER + INTRA:         -13.326
REMARK INTER:                 -10.815
REMARK INTRA:                  -2.511
REMARK UNBOUND:                -2.093
REMARK SMILES CCCCCCCCCCCCCCCCCCCCCC(=O)[O-]
REMARK SMILES IDX 12 1 11 2 10 3 9 4 8 5 7 6 6 7 5 8 4 9 3 10 2 11 1 12 13 13
REMARK SMILES IDX 14 14 15 15 16 16 17 17 18 18 19 19 20 20 21 21 22 22 23 23
REMARK SMILES IDX 24 24
REMARK H PARENT
REMARK Flexibility Score: inf
ROOT
ATOM      1  C   UNL     1      -3.643  26.922 -20.288  1.00  0.00     0.000 C 
ENDROOT
BRANCH   1   2
ATOM      2  C   UNL     1      -2.988  27.532 -19.039  1.00  0.00     0.000 C 
BRANCH   2   3
ATOM      3  C   UNL     1      -2.548  28.981 -19.303  1.00  0.00     0.000 C 
BRANCH   3   4
ATOM      4  C   UNL     1      -2.906  29.462 -20.717  1.00  0.00    -0.000 C 
BRANCH   4   5
ATOM      5  C   UNL     1      -3.880  30.654 -20.712  1.00  0.00    -0.000 C 
BRANCH   5   6
ATOM      6  C   UNL     1      -4.827  30.639 -21.930  1.00  0.00    -0.000 C 
BRANCH   6   7
ATOM      7  C   UNL     1      -5.037  29.238 -22.540  1.00  0.00    -0.000 C 
BRANCH   7   8
ATOM      8  C   UNL     1      -6.503  28.851 -22.801  1.00  0.00    -0.000 C 
BRANCH   8   9
ATOM      9  C   UNL     1      -6.759  28.436 -24.260  1.00  0.00    -0.000 C 
BRANCH   9  10
ATOM     10  C   UNL     1      -8.172  27.865 -24.481  1.00  0.00    -0.000 C 
BRANCH  10  11
ATOM     11  C   UNL     1      -8.531  27.575 -25.950  1.00  0.00    -0.003 C 
ATOM     12  C   UNL     1      -7.310  27.539 -26.869  1.00  0.00     0.004 C 
ENDBRANCH  10  11
ENDBRANCH   9  10
ENDBRANCH   8   9
ENDBRANCH   7   8
ENDBRANCH   6   7
ENDBRANCH   5   6
ENDBRANCH   4   5
ENDBRANCH   3   4
ENDBRANCH   2   3
ENDBRANCH   1   2
BRANCH   1  13
ATOM     13  C   UNL     1      -4.675  25.833 -19.952  1.00  0.00     0.000 C 
BRANCH  13  14
ATOM     14  C   UNL     1      -6.102  26.391 -19.808  1.00  0.00     0.000 C 
BRANCH  14  15
ATOM     15  C   UNL     1      -6.125  27.853 -19.324  1.00  0.00     0.000 C 
BRANCH  15  16
ATOM     16  C   UNL     1      -6.735  28.070 -17.927  1.00  0.00     0.000 C 
BRANCH  16  17
ATOM     17  C   UNL     1      -6.876  29.554 -17.560  1.00  0.00     0.000 C 
BRANCH  17  18
ATOM     18  C   UNL     1      -6.850  30.434 -18.815  1.00  0.00     0.000 C 
BRANCH  18  19
ATOM     19  C   UNL     1      -6.738  31.919 -18.445  1.00  0.00     0.000 C 
BRANCH  19  20
ATOM     20  C   UNL     1      -6.615  32.791 -19.703  1.00  0.00     0.006 C 
BRANCH  20  21
ATOM     21  C   UNL     1      -5.778  34.053 -19.452  1.00  0.00     0.053 C 
BRANCH  21  22
ATOM     22  C   UNL     1      -6.637  35.274 -19.331  1.00  0.00     0.041 C 
ATOM     23  O   UNL     1      -6.520  36.216 -20.157  1.00  0.00    -0.550 OA
ATOM     24  O   UNL     1      -7.584  35.363 -18.316  1.00  0.00    -0.550 OA
ENDBRANCH  21  22
ENDBRANCH  20  21
ENDBRANCH  19  20
ENDBRANCH  18  19
ENDBRANCH  17  18
ENDBRANCH  16  17
ENDBRANCH  15  16
ENDBRANCH  14  15
ENDBRANCH  13  14
ENDBRANCH   1  13
TORSDOF 20
ENDMDL
MODEL 4
REMARK VINA RESULT:    -5.049      1.096      2.340
REMARK INTER + INTRA:         -13.045
REMARK INTER:                 -11.537
REMARK INTRA:                  -1.508
REMARK UNBOUND:                -2.093
REMARK SMILES CCCCCCCCCCCCCCCCCCCCCC(=O)[O-]
REMARK SMILES IDX 12 1 11 2 10 3 9 4 8 5 7 6 6 7 5 8 4 9 3 10 2 11 1 12 13 13
REMARK SMILES IDX 14 14 15 15 16 16 17 17 18 18 19 19 20 20 21 21 22 22 23 23
REMARK SMILES IDX 24 24
REMARK H PARENT
REMARK Flexibility Score: inf
ROOT
ATOM      1  C   UNL     1      -7.633  28.321 -23.832  1.00  0.00     0.000 C 
ENDROOT
BRANCH   1   2
ATOM      2  C   UNL     1      -6.326  28.887 -23.255  1.00  0.00     0.000 C 
BRANCH   2   3
ATOM      3  C   UNL     1      -6.270  28.695 -21.731  1.00  0.00     0.000 C 
BRANCH   3   4
ATOM      4  C   UNL     1      -4.934  28.105 -21.256  1.00  0.00    -0.000 C 
BRANCH   4   5
ATOM      5  C   UNL     1      -4.237  28.983 -20.202  1.00  0.00    -0.000 C 
BRANCH   5   6
ATOM      6  C   UNL     1      -3.336  30.060 -20.843  1.00  0.00    -0.000 C 
BRANCH   6   7
ATOM      7  C   UNL     1      -4.101  31.311 -21.319  1.00  0.00    -0.000 C 
BRANCH   7   8
ATOM      8  C   UNL     1      -4.072  32.505 -20.348  1.00  0.00    -0.000 C 
BRANCH   8   9
ATOM      9  C   UNL     1      -5.257  33.464 -20.548  1.00  0.00    -0.000 C 
BRANCH   9  10
ATOM     10  C   UNL     1      -6.410  33.208 -19.560  1.00  0.00    -0.000 C 
BRANCH  10  11
ATOM     11  C   UNL     1      -7.048  31.810 -19.656  1.00  0.00    -0.003 C 
ATOM     12  C   UNL     1      -6.771  30.940 -18.430  1.00  0.00     0.004 C 
ENDBRANCH  10  11
ENDBRANCH   9  10
ENDBRANCH   8   9
ENDBRANCH   7   8
ENDBRANCH   6   7
ENDBRANCH   5   6
ENDBRANCH   4   5
ENDBRANCH   3   4
ENDBRANCH   2   3
ENDBRANCH   1   2
BRANCH   1  13
ATOM     13  C   UNL     1      -7.492  27.856 -25.290  1.00  0.00     0.000 C 
BRANCH  13  14
ATOM     14  C   UNL     1      -8.749  27.133 -25.807  1.00  0.00     0.000 C 
BRANCH  14  15
ATOM     15  C   UNL     1      -8.536  26.477 -27.184  1.00  0.00     0.000 C 
BRANCH  15  16
ATOM     16  C   UNL     1      -9.057  25.033 -27.308  1.00  0.00     0.000 C 
BRANCH  16  17
ATOM     17  C   UNL     1      -9.411  24.407 -25.951  1.00  0.00     0.000 C 
BRANCH  17  18
ATOM     18  C   UNL     1      -9.896  22.963 -26.124  1.00  0.00     0.000 C 
BRANCH  18  19
ATOM     19  C   UNL     1     -10.041  22.264 -24.766  1.00  0.00     0.000 C 
BRANCH  19  20
ATOM     20  C   UNL     1      -9.979  23.280 -23.616  1.00  0.00     0.006 C 
BRANCH  20  21
ATOM     21  C   UNL     1      -8.890  22.930 -22.593  1.00  0.00     0.053 C 
BRANCH  21  22
ATOM     22  C   UNL     1      -9.446  22.818 -21.207  1.00  0.00     0.041 C 
ATOM     23  O   UNL     1     -10.573  23.307 -20.935  1.00  0.00    -0.550 OA
ATOM     24  O   UNL     1      -8.728  22.155 -20.218  1.00  0.00    -0.550 OA
ENDBRANCH  21  22
ENDBRANCH  20  21
ENDBRANCH  19  20
ENDBRANCH  18  19
ENDBRANCH  17  18
ENDBRANCH  16  17
ENDBRANCH  15  16
ENDBRANCH  14  15
ENDBRANCH  13  14
ENDBRANCH   1  13
TORSDOF 20
ENDMDL
MODEL 5
REMARK VINA RESULT:    -4.971      1.793      8.170
REMARK INTER + INTRA:         -12.877
REMARK INTER:                 -10.805
REMARK INTRA:                  -2.072
REMARK UNBOUND:                -2.093
REMARK SMILES CCCCCCCCCCCCCCCCCCCCCC(=O)[O-]
REMARK SMILES IDX 12 1 11 2 10 3 9 4 8 5 7 6 6 7 5 8 4 9 3 10 2 11 1 12 13 13
REMARK SMILES IDX 14 14 15 15 16 16 17 17 18 18 19 19 20 20 21 21 22 22 23 23
REMARK SMILES IDX 24 24
REMARK H PARENT
REMARK Flexibility Score: inf
ROOT
ATOM      1  C   UNL     1      -5.593  28.909 -23.567  1.00  0.00     0.000 C 
ENDROOT
BRANCH   1   2
ATOM      2  C   UNL     1      -7.008  28.564 -23.078  1.00  0.00     0.000 C 
BRANCH   2   3
ATOM      3  C   UNL     1      -7.896  28.111 -24.247  1.00  0.00     0.000 C 
BRANCH   3   4
ATOM      4  C   UNL     1      -7.091  27.787 -25.515  1.00  0.00    -0.000 C 
BRANCH   4   5
ATOM      5  C   UNL     1      -7.974  27.676 -26.769  1.00  0.00    -0.000 C 
BRANCH   5   6
ATOM      6  C   UNL     1      -7.340  26.778 -27.852  1.00  0.00    -0.000 C 
BRANCH   6   7
ATOM      7  C   UNL     1      -8.088  25.448 -28.078  1.00  0.00    -0.000 C 
BRANCH   7   8
ATOM      8  C   UNL     1      -9.383  25.280 -27.265  1.00  0.00    -0.000 C 
BRANCH   8   9
ATOM      9  C   UNL     1      -9.208  24.353 -26.050  1.00  0.00    -0.000 C 
BRANCH   9  10
ATOM     10  C   UNL     1     -10.066  23.077 -26.141  1.00  0.00    -0.000 C 
BRANCH  10  11
ATOM     11  C   UNL     1     -10.082  22.215 -24.866  1.00  0.00    -0.003 C 
ATOM     12  C   UNL     1      -9.360  22.872 -23.690  1.00  0.00     0.004 C 
ENDBRANCH  10  11
ENDBRANCH   9  10
ENDBRANCH   8   9
ENDBRANCH   7   8
ENDBRANCH   6   7
ENDBRANCH   5   6
ENDBRANCH   4   5
ENDBRANCH   3   4
ENDBRANCH   2   3
ENDBRANCH   1   2
BRANCH   1  13
ATOM     13  C   UNL     1      -4.643  29.300 -22.423  1.00  0.00     0.000 C 
BRANCH  13  14
ATOM     14  C   UNL     1      -4.403  30.818 -22.342  1.00  0.00     0.000 C 
BRANCH  14  15
ATOM     15  C   UNL     1      -3.764  31.251 -21.010  1.00  0.00     0.000 C 
BRANCH  15  16
ATOM     16  C   UNL     1      -4.587  32.259 -20.187  1.00  0.00     0.000 C 
BRANCH  16  17
ATOM     17  C   UNL     1      -6.064  31.860 -20.056  1.00  0.00     0.000 C 
BRANCH  17  18
ATOM     18  C   UNL     1      -6.263  30.862 -18.909  1.00  0.00     0.000 C 
BRANCH  18  19
ATOM     19  C   UNL     1      -6.641  29.476 -19.445  1.00  0.00     0.000 C 
BRANCH  19  20
ATOM     20  C   UNL     1      -5.964  28.367 -18.626  1.00  0.00     0.006 C 
BRANCH  20  21
ATOM     21  C   UNL     1      -4.514  28.124 -19.067  1.00  0.00     0.053 C 
BRANCH  21  22
ATOM     22  C   UNL     1      -4.360  26.813 -19.772  1.00  0.00     0.041 C 
ATOM     23  O   UNL     1      -3.250  26.484 -20.264  1.00  0.00    -0.550 OA
ATOM     24  O   UNL     1      -5.440  25.942 -19.869  1.00  0.00    -0.550 OA
ENDBRANCH  21  22
ENDBRANCH  20  21
ENDBRANCH  19  20
ENDBRANCH  18  19
ENDBRANCH  17  18
ENDBRANCH  16  17
ENDBRANCH  15  16
ENDBRANCH  14  15
ENDBRANCH  13  14
ENDBRANCH   1  13
TORSDOF 20
ENDMDL
MODEL 6
REMARK VINA RESULT:    -4.954      3.086      8.077
REMARK INTER + INTRA:         -12.839
REMARK INTER:                 -11.047
REMARK INTRA:                  -1.791
REMARK UNBOUND:                -2.093
REMARK SMILES CCCCCCCCCCCCCCCCCCCCCC(=O)[O-]
REMARK SMILES IDX 12 1 11 2 10 3 9 4 8 5 7 6 6 7 5 8 4 9 3 10 2 11 1 12 13 13
REMARK SMILES IDX 14 14 15 15 16 16 17 17 18 18 19 19 20 20 21 21 22 22 23 23
REMARK SMILES IDX 24 24
REMARK H PARENT
REMARK Flexibility Score: inf
ROOT
ATOM      1  C   UNL     1      -7.045  28.140 -24.294  1.00  0.00     0.000 C 
ENDROOT
BRANCH   1   2
ATOM      2  C   UNL     1      -8.494  27.734 -24.608  1.00  0.00     0.000 C 
BRANCH   2   3
ATOM      3  C   UNL     1      -8.754  27.755 -26.122  1.00  0.00     0.000 C 
BRANCH   3   4
ATOM      4  C   UNL     1      -7.622  27.098 -26.928  1.00  0.00    -0.000 C 
BRANCH   4   5
ATOM      5  C   UNL     1      -8.132  26.018 -27.898  1.00  0.00    -0.000 C 
BRANCH   5   6
ATOM      6  C   UNL     1      -9.303  25.206 -27.304  1.00  0.00    -0.000 C 
BRANCH   6   7
ATOM      7  C   UNL     1      -8.858  23.967 -26.500  1.00  0.00    -0.000 C 
BRANCH   7   8
ATOM      8  C   UNL     1      -9.960  23.305 -25.655  1.00  0.00    -0.000 C 
BRANCH   8   9
ATOM      9  C   UNL     1     -10.012  23.845 -24.216  1.00  0.00    -0.000 C 
BRANCH   9  10
ATOM     10  C   UNL     1      -9.793  22.750 -23.156  1.00  0.00    -0.000 C 
BRANCH  10  11
ATOM     11  C   UNL     1      -9.950  23.218 -21.698  1.00  0.00    -0.003 C 
ATOM     12  C   UNL     1      -8.868  22.664 -20.771  1.00  0.00     0.004 C 
ENDBRANCH  10  11
ENDBRANCH   9  10
ENDBRANCH   8   9
ENDBRANCH   7   8
ENDBRANCH   6   7
ENDBRANCH   5   6
ENDBRANCH   4   5
ENDBRANCH   3   4
ENDBRANCH   2   3
ENDBRANCH   1   2
BRANCH   1  13
ATOM     13  C   UNL     1      -6.904  28.858 -22.942  1.00  0.00     0.000 C 
BRANCH  13  14
ATOM     14  C   UNL     1      -5.489  29.419 -22.712  1.00  0.00     0.000 C 
BRANCH  14  15
ATOM     15  C   UNL     1      -4.429  28.314 -22.550  1.00  0.00     0.000 C 
BRANCH  15  16
ATOM     16  C   UNL     1      -3.886  28.132 -21.120  1.00  0.00     0.000 C 
BRANCH  16  17
ATOM     17  C   UNL     1      -4.701  27.125 -20.295  1.00  0.00     0.000 C 
BRANCH  17  18
ATOM     18  C   UNL     1      -5.925  27.798 -19.662  1.00  0.00     0.000 C 
BRANCH  18  19
ATOM     19  C   UNL     1      -5.519  29.051 -18.876  1.00  0.00     0.000 C 
BRANCH  19  20
ATOM     20  C   UNL     1      -6.722  29.982 -18.666  1.00  0.00     0.006 C 
BRANCH  20  21
ATOM     21  C   UNL     1      -6.672  31.210 -19.586  1.00  0.00     0.053 C 
BRANCH  21  22
ATOM     22  C   UNL     1      -6.789  32.487 -18.812  1.00  0.00     0.041 C 
ATOM     23  O   UNL     1      -6.952  32.459 -17.565  1.00  0.00    -0.550 OA
ATOM     24  O   UNL     1      -6.699  33.710 -19.467  1.00  0.00    -0.550 OA
ENDBRANCH  21  22
ENDBRANCH  20  21
ENDBRANCH  19  20
ENDBRANCH  18  19
ENDBRANCH  17  18
ENDBRANCH  16  17
ENDBRANCH  15  16
ENDBRANCH  14  15
ENDBRANCH  13  14
ENDBRANCH   1  13
TORSDOF 20
ENDMDL
MODEL 7
REMARK VINA RESULT:    -4.893      3.763      8.803
REMARK INTER + INTRA:         -12.707
REMARK INTER:                 -10.903
REMARK INTRA:                  -1.804
REMARK UNBOUND:                -2.093
REMARK SMILES CCCCCCCCCCCCCCCCCCCCCC(=O)[O-]
REMARK SMILES IDX 12 1 11 2 10 3 9 4 8 5 7 6 6 7 5 8 4 9 3 10 2 11 1 12 13 13
REMARK SMILES IDX 14 14 15 15 16 16 17 17 18 18 19 19 20 20 21 21 22 22 23 23
REMARK SMILES IDX 24 24
REMARK H PARENT
REMARK Flexibility Score: inf
ROOT
ATOM      1  C   UNL     1      -7.099  28.155 -24.531  1.00  0.00     0.000 C 
ENDROOT
BRANCH   1   2
ATOM      2  C   UNL     1      -8.540  27.729 -24.852  1.00  0.00     0.000 C 
BRANCH   2   3
ATOM      3  C   UNL     1      -8.760  27.638 -26.370  1.00  0.00     0.000 C 
BRANCH   3   4
ATOM      4  C   UNL     1      -7.577  26.989 -27.104  1.00  0.00    -0.000 C 
BRANCH   4   5
ATOM      5  C   UNL     1      -7.954  25.661 -27.783  1.00  0.00    -0.000 C 
BRANCH   5   6
ATOM      6  C   UNL     1      -9.342  25.153 -27.341  1.00  0.00    -0.000 C 
BRANCH   6   7
ATOM      7  C   UNL     1      -9.290  23.901 -26.441  1.00  0.00    -0.000 C 
BRANCH   7   8
ATOM      8  C   UNL     1     -10.137  23.980 -25.160  1.00  0.00    -0.000 C 
BRANCH   8   9
ATOM      9  C   UNL     1     -10.024  22.716 -24.292  1.00  0.00    -0.000 C 
BRANCH   9  10
ATOM     10  C   UNL     1      -9.124  22.914 -23.058  1.00  0.00    -0.000 C 
BRANCH  10  11
ATOM     11  C   UNL     1      -9.867  22.943 -21.711  1.00  0.00    -0.003 C 
ATOM     12  C   UNL     1      -8.927  22.906 -20.507  1.00  0.00     0.004 C 
ENDBRANCH  10  11
ENDBRANCH   9  10
ENDBRANCH   8   9
ENDBRANCH   7   8
ENDBRANCH   6   7
ENDBRANCH   5   6
ENDBRANCH   4   5
ENDBRANCH   3   4
ENDBRANCH   2   3
ENDBRANCH   1   2
BRANCH   1  13
ATOM     13  C   UNL     1      -6.913  28.582 -23.066  1.00  0.00     0.000 C 
BRANCH  13  14
ATOM     14  C   UNL     1      -5.440  28.842 -22.706  1.00  0.00     0.000 C 
BRANCH  14  15
ATOM     15  C   UNL     1      -5.055  28.280 -21.324  1.00  0.00     0.000 C 
BRANCH  15  16
ATOM     16  C   UNL     1      -6.121  28.456 -20.227  1.00  0.00     0.000 C 
BRANCH  16  17
ATOM     17  C   UNL     1      -5.858  29.672 -19.327  1.00  0.00     0.000 C 
BRANCH  17  18
ATOM     18  C   UNL     1      -6.543  30.925 -19.884  1.00  0.00     0.000 C 
BRANCH  18  19
ATOM     19  C   UNL     1      -5.514  31.910 -20.453  1.00  0.00     0.000 C 
BRANCH  19  20
ATOM     20  C   UNL     1      -4.085  31.486 -20.083  1.00  0.00     0.006 C 
BRANCH  20  21
ATOM     21  C   UNL     1      -3.164  31.421 -21.309  1.00  0.00     0.053 C 
BRANCH  21  22
ATOM     22  C   UNL     1      -2.315  32.648 -21.431  1.00  0.00     0.041 C 
ATOM     23  O   UNL     1      -1.144  32.656 -20.971  1.00  0.00    -0.550 OA
ATOM     24  O   UNL     1      -2.809  33.779 -22.071  1.00  0.00    -0.550 OA
ENDBRANCH  21  22
ENDBRANCH  20  21
ENDBRANCH  19  20
ENDBRANCH  18  19
ENDBRANCH  17  18
ENDBRANCH  16  17
ENDBRANCH  15  16
ENDBRANCH  14  15
ENDBRANCH  13  14
ENDBRANCH   1  13
TORSDOF 20
ENDMDL
MODEL 8
REMARK VINA RESULT:    -4.847      6.326      8.905
REMARK INTER + INTRA:         -12.608
REMARK INTER:                  -9.808
REMARK INTRA:                  -2.799
REMARK UNBOUND:                -2.093
REMARK SMILES CCCCCCCCCCCCCCCCCCCCCC(=O)[O-]
REMARK SMILES IDX 12 1 11 2 10 3 9 4 8 5 7 6 6 7 5 8 4 9 3 10 2 11 1 12 13 13
REMARK SMILES IDX 14 14 15 15 16 16 17 17 18 18 19 19 20 20 21 21 22 22 23 23
REMARK SMILES IDX 24 24
REMARK H PARENT
REMARK Flexibility Score: inf
ROOT
ATOM      1  C   UNL     1      -2.580  29.326 -19.685  1.00  0.00     0.000 C 
ENDROOT
BRANCH   1   2
ATOM      2  C   UNL     1      -3.066  30.741 -20.036  1.00  0.00     0.000 C 
BRANCH   2   3
ATOM      3  C   UNL     1      -3.837  30.742 -21.365  1.00  0.00     0.000 C 
BRANCH   3   4
ATOM      4  C   UNL     1      -3.718  32.075 -22.119  1.00  0.00    -0.000 C 
BRANCH   4   5
ATOM      5  C   UNL     1      -2.596  32.973 -21.569  1.00  0.00    -0.000 C 
BRANCH   5   6
ATOM      6  C   UNL     1      -1.570  33.358 -22.655  1.00  0.00    -0.000 C 
BRANCH   6   7
ATOM      7  C   UNL     1      -0.192  33.764 -22.095  1.00  0.00    -0.000 C 
BRANCH   7   8
ATOM      8  C   UNL     1       0.967  32.819 -22.458  1.00  0.00    -0.000 C 
BRANCH   8   9
ATOM      9  C   UNL     1       1.679  32.247 -21.221  1.00  0.00    -0.000 C 
BRANCH   9  10
ATOM     10  C   UNL     1       0.711  31.920 -20.069  1.00  0.00    -0.000 C 
BRANCH  10  11
ATOM     11  C   UNL     1       1.102  32.516 -18.705  1.00  0.00    -0.003 C 
ATOM     12  C   UNL     1       2.139  33.633 -18.814  1.00  0.00     0.004 C 
ENDBRANCH  10  11
ENDBRANCH   9  10
ENDBRANCH   8   9
ENDBRANCH   7   8
ENDBRANCH   6   7
ENDBRANCH   5   6
ENDBRANCH   4   5
ENDBRANCH   3   4
ENDBRANCH   2   3
ENDBRANCH   1   2
BRANCH   1  13
ATOM     13  C   UNL     1      -3.093  28.257 -20.663  1.00  0.00     0.000 C 
BRANCH  13  14
ATOM     14  C   UNL     1      -3.370  26.908 -19.976  1.00  0.00     0.000 C 
BRANCH  14  15
ATOM     15  C   UNL     1      -4.835  26.456 -20.117  1.00  0.00     0.000 C 
BRANCH  15  16
ATOM     16  C   UNL     1      -5.860  27.597 -20.260  1.00  0.00     0.000 C 
BRANCH  16  17
ATOM     17  C   UNL     1      -6.189  28.275 -18.922  1.00  0.00     0.000 C 
BRANCH  17  18
ATOM     18  C   UNL     1      -6.613  29.733 -19.136  1.00  0.00     0.000 C 
BRANCH  18  19
ATOM     19  C   UNL     1      -7.012  30.391 -17.809  1.00  0.00     0.000 C 
BRANCH  19  20
ATOM     20  C   UNL     1      -6.882  31.919 -17.892  1.00  0.00     0.006 C 
BRANCH  20  21
ATOM     21  C   UNL     1      -6.531  32.394 -19.308  1.00  0.00     0.053 C 
BRANCH  21  22
ATOM     22  C   UNL     1      -6.191  33.852 -19.336  1.00  0.00     0.041 C 
ATOM     23  O   UNL     1      -4.990  34.221 -19.401  1.00  0.00    -0.550 OA
ATOM     24  O   UNL     1      -7.203  34.805 -19.311  1.00  0.00    -0.550 OA
ENDBRANCH  21  22
ENDBRANCH  20  21
ENDBRANCH  19  20
ENDBRANCH  18  19
ENDBRANCH  17  18
ENDBRANCH  16  17
ENDBRANCH  15  16
ENDBRANCH  14  15
ENDBRANCH  13  14
ENDBRANCH   1  13
TORSDOF 20
ENDMDL
MODEL 9
REMARK VINA RESULT:    -4.679      7.056     10.601
REMARK INTER + INTRA:         -12.244
REMARK INTER:                  -9.666
REMARK INTRA:                  -2.578
REMARK UNBOUND:                -2.093
REMARK SMILES CCCCCCCCCCCCCCCCCCCCCC(=O)[O-]
REMARK SMILES IDX 12 1 11 2 10 3 9 4 8 5 7 6 6 7 5 8 4 9 3 10 2 11 1 12 13 13
REMARK SMILES IDX 14 14 15 15 16 16 17 17 18 18 19 19 20 20 21 21 22 22 23 23
REMARK SMILES IDX 24 24
REMARK H PARENT
REMARK Flexibility Score: inf
ROOT
ATOM      1  C   UNL     1      -3.207  28.184 -20.604  1.00  0.00     0.000 C 
ENDROOT
BRANCH   1   2
ATOM      2  C   UNL     1      -3.369  26.858 -19.845  1.00  0.00     0.000 C 
BRANCH   2   3
ATOM      3  C   UNL     1      -4.743  26.229 -20.125  1.00  0.00     0.000 C 
BRANCH   3   4
ATOM      4  C   UNL     1      -5.882  27.260 -20.114  1.00  0.00    -0.000 C 
BRANCH   4   5
ATOM      5  C   UNL     1      -6.115  27.874 -18.722  1.00  0.00    -0.000 C 
BRANCH   5   6
ATOM      6  C   UNL     1      -6.391  29.391 -18.792  1.00  0.00    -0.000 C 
BRANCH   6   7
ATOM      7  C   UNL     1      -6.577  29.925 -20.227  1.00  0.00    -0.000 C 
BRANCH   7   8
ATOM      8  C   UNL     1      -6.690  31.455 -20.346  1.00  0.00    -0.000 C 
BRANCH   8   9
ATOM      9  C   UNL     1      -6.625  32.166 -18.984  1.00  0.00    -0.000 C 
BRANCH   9  10
ATOM     10  C   UNL     1      -6.249  33.654 -19.102  1.00  0.00    -0.000 C 
BRANCH  10  11
ATOM     11  C   UNL     1      -5.065  33.951 -20.040  1.00  0.00    -0.003 C 
ATOM     12  C   UNL     1      -3.972  34.789 -19.376  1.00  0.00     0.004 C 
ENDBRANCH  10  11
ENDBRANCH   9  10
ENDBRANCH   8   9
ENDBRANCH   7   8
ENDBRANCH   6   7
ENDBRANCH   5   6
ENDBRANCH   4   5
ENDBRANCH   3   4
ENDBRANCH   2   3
ENDBRANCH   1   2
BRANCH   1  13
ATOM     13  C   UNL     1      -2.709  29.330 -19.710  1.00  0.00     0.000 C 
BRANCH  13  14
ATOM     14  C   UNL     1      -2.959  30.718 -20.327  1.00  0.00     0.000 C 
BRANCH  14  15
ATOM     15  C   UNL     1      -1.858  31.734 -19.975  1.00  0.00     0.000 C 
BRANCH  15  16
ATOM     16  C   UNL     1      -1.399  32.632 -21.140  1.00  0.00     0.000 C 
BRANCH  16  17
ATOM     17  C   UNL     1      -0.047  33.310 -20.875  1.00  0.00     0.000 C 
BRANCH  17  18
ATOM     18  C   UNL     1       1.075  32.626 -21.665  1.00  0.00     0.000 C 
BRANCH  18  19
ATOM     19  C   UNL     1       2.237  32.232 -20.745  1.00  0.00     0.000 C 
BRANCH  19  20
ATOM     20  C   UNL     1       1.731  31.895 -19.335  1.00  0.00     0.006 C 
BRANCH  20  21
ATOM     21  C   UNL     1       2.758  32.251 -18.251  1.00  0.00     0.053 C 
BRANCH  21  22
ATOM     22  C   UNL     1       2.367  33.486 -17.500  1.00  0.00     0.041 C 
ATOM     23  O   UNL     1       1.827  34.449 -18.103  1.00  0.00    -0.550 OA
ATOM     24  O   UNL     1       2.580  33.565 -16.128  1.00  0.00    -0.550 OA
ENDBRANCH  21  22
ENDBRANCH  20  21
ENDBRANCH  19  20
ENDBRANCH  18  19
ENDBRANCH  17  18
ENDBRANCH  16  17
ENDBRANCH  15  16
ENDBRANCH  14  15
ENDBRANCH  13  14
ENDBRANCH   1  13
TORSDOF 20
ENDMDL
