MODEL 1
REMARK VINA RESULT:    -3.056      0.000      0.000
REMARK INTER + INTRA:          -3.023
REMARK INTER:                  -3.771
REMARK INTRA:                   0.748
REMARK UNBOUND:                 0.748
REMARK SMILES CC1=CC=CC(C)(C)CC1=O
REMARK SMILES IDX 1 1 2 2 3 3 10 4 11 5 9 6 4 8 5 9 6 10 7 11 8 12
REMARK H PARENT
REMARK Flexibility Score: 80.00
ROOT
ATOM      1  C   UNL     1      88.494  34.503  22.164  1.00  0.00     0.048 C 
ATOM      2  C   UNL     1      87.984  35.297  23.344  1.00  0.00    -0.008 C 
ATOM      3  C   UNL     1      88.556  36.497  23.585  1.00  0.00     0.007 C 
ENDROOT
BRANCH   2   4
ATOM      4  C   UNL     1      86.841  34.726  24.099  1.00  0.00     0.159 C 
ATOM      5  O   UNL     1      86.238  33.724  23.625  1.00  0.00    -0.295 OA
BRANCH   4   6
ATOM      6  C   UNL     1      86.364  35.268  25.411  1.00  0.00     0.091 CG0
ATOM      7  G   UNL     1      85.946  36.754  25.340  1.00  0.00     0.000 G0
ENDBRANCH   4   6
ENDBRANCH   2   4
BRANCH   3   8
ATOM      8  C   UNL     1      88.256  37.499  24.635  1.00  0.00    -0.003 C 
ATOM      9  C   UNL     1      87.155  37.633  25.385  1.00  0.00    -0.020 C 
BRANCH   9  10
ATOM     10  C   UNL     1      85.935  36.746  25.352  1.00  0.00    -0.010 CG0
ATOM     11  C   UNL     1      85.089  37.037  26.613  1.00  0.00     0.016 C 
ATOM     12  C   UNL     1      85.072  37.078  24.113  1.00  0.00     0.016 C 
ATOM     13  G   UNL     1      86.366  35.263  25.397  1.00  0.00     0.000 G0
ENDBRANCH   9  10
ENDBRANCH   3   8
TORSDOF 0
ENDMDL
MODEL 2
REMARK VINA RESULT:    -3.007      1.670      3.140
REMARK INTER + INTRA:          -2.961
REMARK INTER:                  -3.710
REMARK INTRA:                   0.748
REMARK UNBOUND:                 0.748
REMARK SMILES CC1=CC=CC(C)(C)CC1=O
REMARK SMILES IDX 1 1 2 2 3 3 10 4 11 5 9 6 4 8 5 9 6 10 7 11 8 12
REMARK H PARENT
REMARK Flexibility Score: 80.00
ROOT
ATOM      1  C   UNL     1      88.629  38.445  24.955  1.00  0.00     0.048 C 
ATOM      2  C   UNL     1      87.960  37.204  24.413  1.00  0.00    -0.008 C 
ATOM      3  C   UNL     1      88.707  36.371  23.656  1.00  0.00     0.007 C 
ENDROOT
BRANCH   2   4
ATOM      4  C   UNL     1      86.554  36.961  24.821  1.00  0.00     0.159 C 
ATOM      5  O   UNL     1      86.062  37.655  25.753  1.00  0.00    -0.295 OA
BRANCH   4   6
ATOM      6  C   UNL     1      85.671  35.938  24.175  1.00  0.00     0.091 CG0
ATOM      7  G   UNL     1      86.210  34.496  24.310  1.00  0.00     0.000 G0
ENDBRANCH   4   6
ENDBRANCH   2   4
BRANCH   3   8
ATOM      8  C   UNL     1      88.343  35.084  23.017  1.00  0.00    -0.003 C 
ATOM      9  C   UNL     1      87.311  34.272  23.280  1.00  0.00    -0.020 C 
BRANCH   9  10
ATOM     10  C   UNL     1      86.227  34.504  24.304  1.00  0.00    -0.010 CG0
ATOM     11  C   UNL     1      85.060  33.535  24.003  1.00  0.00     0.016 C 
ATOM     12  C   UNL     1      86.759  34.184  25.720  1.00  0.00     0.016 C 
ATOM     13  G   UNL     1      85.693  35.949  24.182  1.00  0.00     0.000 G0
ENDBRANCH   9  10
ENDBRANCH   3   8
TORSDOF 0
ENDMDL
MODEL 3
REMARK VINA RESULT:    -2.994      3.901      5.942
REMARK INTER + INTRA:          -2.946
REMARK INTER:                  -3.703
REMARK INTRA:                   0.757
REMARK UNBOUND:                 0.748
REMARK SMILES CC1=CC=CC(C)(C)CC1=O
REMARK SMILES IDX 1 1 2 2 3 3 10 4 11 5 9 6 4 8 5 9 6 10 7 11 8 12
REMARK H PARENT
REMARK Flexibility Score: 80.00
ROOT
ATOM      1  C   UNL     1      84.878  39.750  31.353  1.00  0.00     0.048 C 
ATOM      2  C   UNL     1      85.483  39.015  30.181  1.00  0.00    -0.008 C 
ATOM      3  C   UNL     1      86.793  39.219  29.923  1.00  0.00     0.007 C 
ENDROOT
BRANCH   2   4
ATOM      4  C   UNL     1      84.604  38.067  29.452  1.00  0.00     0.159 C 
ATOM      5  O   UNL     1      83.487  37.765  29.953  1.00  0.00    -0.295 OA
BRANCH   4   6
ATOM      6  C   UNL     1      84.965  37.451  28.135  1.00  0.00     0.091 CG0
ATOM      7  G   UNL     1      86.264  36.616  28.188  1.00  0.00     0.000 G0
ENDBRANCH   4   6
ENDBRANCH   2   4
BRANCH   3   8
ATOM      8  C   UNL     1      87.659  38.629  28.875  1.00  0.00    -0.003 C 
ATOM      9  C   UNL     1      87.466  37.523  28.144  1.00  0.00    -0.020 C 
BRANCH   9  10
ATOM     10  C   UNL     1      86.267  36.608  28.202  1.00  0.00    -0.010 CG0
ATOM     11  C   UNL     1      86.301  35.686  26.961  1.00  0.00     0.016 C 
ATOM     12  C   UNL     1      86.344  35.714  29.462  1.00  0.00     0.016 C 
ATOM     13  G   UNL     1      84.969  37.443  28.144  1.00  0.00     0.000 G0
ENDBRANCH   9  10
ENDBRANCH   3   8
TORSDOF 0
ENDMDL
MODEL 4
REMARK VINA RESULT:    -2.962      4.265      5.205
REMARK INTER + INTRA:          -2.907
REMARK INTER:                  -3.670
REMARK INTRA:                   0.764
REMARK UNBOUND:                 0.748
REMARK SMILES CC1=CC=CC(C)(C)CC1=O
REMARK SMILES IDX 1 1 2 2 3 3 10 4 11 5 9 6 4 8 5 9 6 10 7 11 8 12
REMARK H PARENT
REMARK Flexibility Score: 80.00
ROOT
ATOM      1  C   UNL     1      88.485  38.521  27.757  1.00  0.00     0.048 C 
ATOM      2  C   UNL     1      87.268  38.218  28.599  1.00  0.00    -0.008 C 
ATOM      3  C   UNL     1      86.856  39.166  29.469  1.00  0.00     0.007 C 
ENDROOT
BRANCH   2   4
ATOM      4  C   UNL     1      86.576  36.929  28.346  1.00  0.00     0.159 C 
ATOM      5  O   UNL     1      86.883  36.265  27.319  1.00  0.00    -0.295 OA
BRANCH   4   6
ATOM      6  C   UNL     1      85.533  36.358  29.257  1.00  0.00     0.091 CG0
ATOM      7  G   UNL     1      84.294  37.268  29.409  1.00  0.00     0.000 G0
ENDBRANCH   4   6
ENDBRANCH   2   4
BRANCH   3   8
ATOM      8  C   UNL     1      85.699  39.168  30.395  1.00  0.00    -0.003 C 
ATOM      9  C   UNL     1      84.604  38.396  30.381  1.00  0.00    -0.020 C 
BRANCH   9  10
ATOM     10  C   UNL     1      84.301  37.289  29.402  1.00  0.00    -0.010 CG0
ATOM     11  C   UNL     1      83.138  36.444  29.970  1.00  0.00     0.016 C 
ATOM     12  C   UNL     1      83.840  37.887  28.052  1.00  0.00     0.016 C 
ATOM     13  G   UNL     1      85.534  36.369  29.254  1.00  0.00     0.000 G0
ENDBRANCH   9  10
ENDBRANCH   3   8
TORSDOF 0
ENDMDL
MODEL 5
REMARK VINA RESULT:    -2.853      5.269      6.484
REMARK INTER + INTRA:          -2.772
REMARK INTER:                  -3.536
REMARK INTRA:                   0.764
REMARK UNBOUND:                 0.748
REMARK SMILES CC1=CC=CC(C)(C)CC1=O
REMARK SMILES IDX 1 1 2 2 3 3 10 4 11 5 9 6 4 8 5 9 6 10 7 11 8 12
REMARK H PARENT
REMARK Flexibility Score: 80.00
ROOT
ATOM      1  C   UNL     1      87.509  38.975  29.214  1.00  0.00     0.048 C 
ATOM      2  C   UNL     1      86.673  37.728  29.374  1.00  0.00    -0.008 C 
ATOM      3  C   UNL     1      87.116  36.598  28.782  1.00  0.00     0.007 C 
ENDROOT
BRANCH   2   4
ATOM      4  C   UNL     1      85.467  37.828  30.234  1.00  0.00     0.159 C 
ATOM      5  O   UNL     1      85.304  38.865  30.934  1.00  0.00    -0.295 OA
BRANCH   4   6
ATOM      6  C   UNL     1      84.416  36.764  30.312  1.00  0.00     0.091 CG0
ATOM      7  G   UNL     1      84.968  35.395  30.766  1.00  0.00     0.000 G0
ENDBRANCH   4   6
ENDBRANCH   2   4
BRANCH   3   8
ATOM      8  C   UNL     1      86.535  35.234  28.782  1.00  0.00    -0.003 C 
ATOM      9  C   UNL     1      85.635  34.699  29.618  1.00  0.00    -0.020 C 
BRANCH   9  10
ATOM     10  C   UNL     1      84.960  35.397  30.774  1.00  0.00    -0.010 CG0
ATOM     11  C   UNL     1      83.761  34.532  31.228  1.00  0.00     0.016 C 
ATOM     12  C   UNL     1      85.939  35.517  31.964  1.00  0.00     0.016 C 
ATOM     13  G   UNL     1      84.415  36.766  30.311  1.00  0.00     0.000 G0
ENDBRANCH   9  10
ENDBRANCH   3   8
TORSDOF 0
ENDMDL
MODEL 6
REMARK VINA RESULT:    -2.842      2.007      2.964
REMARK INTER + INTRA:          -2.759
REMARK INTER:                  -3.516
REMARK INTRA:                   0.758
REMARK UNBOUND:                 0.748
REMARK SMILES CC1=CC=CC(C)(C)CC1=O
REMARK SMILES IDX 1 1 2 2 3 3 10 4 11 5 9 6 4 8 5 9 6 10 7 11 8 12
REMARK H PARENT
REMARK Flexibility Score: 80.00
ROOT
ATOM      1  C   UNL     1      88.472  37.038  23.987  1.00  0.00     0.048 C 
ATOM      2  C   UNL     1      87.006  36.673  24.001  1.00  0.00    -0.008 C 
ATOM      3  C   UNL     1      86.140  37.583  24.497  1.00  0.00     0.007 C 
ENDROOT
BRANCH   2   4
ATOM      4  C   UNL     1      86.629  35.370  23.398  1.00  0.00     0.159 C 
ATOM      5  O   UNL     1      87.497  34.727  22.745  1.00  0.00    -0.295 OA
BRANCH   4   6
ATOM      6  C   UNL     1      85.267  34.761  23.531  1.00  0.00     0.091 CG0
ATOM      7  G   UNL     1      84.141  35.661  22.976  1.00  0.00     0.000 G0
ENDBRANCH   4   6
ENDBRANCH   2   4
BRANCH   3   8
ATOM      8  C   UNL     1      84.664  37.523  24.616  1.00  0.00    -0.003 C 
ATOM      9  C   UNL     1      83.796  36.728  23.976  1.00  0.00    -0.020 C 
BRANCH   9  10
ATOM     10  C   UNL     1      84.136  35.654  22.973  1.00  0.00    -0.010 CG0
ATOM     11  C   UNL     1      82.887  34.766  22.769  1.00  0.00     0.016 C 
ATOM     12  C   UNL     1      84.491  36.295  21.611  1.00  0.00     0.016 C 
ATOM     13  G   UNL     1      85.272  34.763  23.525  1.00  0.00     0.000 G0
ENDBRANCH   9  10
ENDBRANCH   3   8
TORSDOF 0
ENDMDL
MODEL 7
REMARK VINA RESULT:    -2.670      6.197      7.321
REMARK INTER + INTRA:          -2.547
REMARK INTER:                  -3.302
REMARK INTRA:                   0.755
REMARK UNBOUND:                 0.748
REMARK SMILES CC1=CC=CC(C)(C)CC1=O
REMARK SMILES IDX 1 1 2 2 3 3 10 4 11 5 9 6 4 8 5 9 6 10 7 11 8 12
REMARK H PARENT
REMARK Flexibility Score: 80.00
ROOT
ATOM      1  C   UNL     1      89.385  33.258  32.030  1.00  0.00     0.048 C 
ATOM      2  C   UNL     1      87.961  33.761  32.019  1.00  0.00    -0.008 C 
ATOM      3  C   UNL     1      87.530  34.442  33.102  1.00  0.00     0.007 C 
ENDROOT
BRANCH   2   4
ATOM      4  C   UNL     1      87.173  33.530  30.782  1.00  0.00     0.159 C 
ATOM      5  O   UNL     1      87.770  33.128  29.746  1.00  0.00    -0.295 OA
BRANCH   4   6
ATOM      6  C   UNL     1      85.693  33.739  30.695  1.00  0.00     0.091 CG0
ATOM      7  G   UNL     1      85.261  35.187  31.015  1.00  0.00     0.000 G0
ENDBRANCH   4   6
ENDBRANCH   2   4
BRANCH   3   8
ATOM      8  C   UNL     1      86.214  35.070  33.368  1.00  0.00    -0.003 C 
ATOM      9  C   UNL     1      85.247  35.404  32.504  1.00  0.00    -0.020 C 
BRANCH   9  10
ATOM     10  C   UNL     1      85.263  35.181  31.011  1.00  0.00    -0.010 CG0
ATOM     11  C   UNL     1      83.825  35.369  30.477  1.00  0.00     0.016 C 
ATOM     12  C   UNL     1      86.167  36.234  30.328  1.00  0.00     0.016 C 
ATOM     13  G   UNL     1      85.703  33.732  30.704  1.00  0.00     0.000 G0
ENDBRANCH   9  10
ENDBRANCH   3   8
TORSDOF 0
ENDMDL
MODEL 8
REMARK VINA RESULT:    -2.642      5.100      5.649
REMARK INTER + INTRA:          -2.512
REMARK INTER:                  -3.262
REMARK INTRA:                   0.750
REMARK UNBOUND:                 0.748
REMARK SMILES CC1=CC=CC(C)(C)CC1=O
REMARK SMILES IDX 1 1 2 2 3 3 10 4 11 5 9 6 4 8 5 9 6 10 7 11 8 12
REMARK H PARENT
REMARK Flexibility Score: 80.00
ROOT
ATOM      1  C   UNL     1      84.132  36.376  19.886  1.00  0.00     0.048 C 
ATOM      2  C   UNL     1      83.652  37.491  20.784  1.00  0.00    -0.008 C 
ATOM      3  C   UNL     1      84.061  38.746  20.497  1.00  0.00     0.007 C 
ENDROOT
BRANCH   2   4
ATOM      4  C   UNL     1      82.707  37.125  21.869  1.00  0.00     0.159 C 
ATOM      5  O   UNL     1      82.203  35.969  21.872  1.00  0.00    -0.295 OA
BRANCH   4   6
ATOM      6  C   UNL     1      82.321  38.056  22.977  1.00  0.00     0.091 CG0
ATOM      7  G   UNL     1      81.657  39.358  22.477  1.00  0.00     0.000 G0
ENDBRANCH   4   6
ENDBRANCH   2   4
BRANCH   3   8
ATOM      8  C   UNL     1      83.740  40.028  21.168  1.00  0.00    -0.003 C 
ATOM      9  C   UNL     1      82.730  40.316  21.999  1.00  0.00    -0.020 C 
BRANCH   9  10
ATOM     10  C   UNL     1      81.665  39.362  22.481  1.00  0.00    -0.010 CG0
ATOM     11  C   UNL     1      80.943  40.009  23.685  1.00  0.00     0.016 C 
ATOM     12  C   UNL     1      80.618  39.130  21.366  1.00  0.00     0.016 C 
ATOM     13  G   UNL     1      82.320  38.049  22.964  1.00  0.00     0.000 G0
ENDBRANCH   9  10
ENDBRANCH   3   8
TORSDOF 0
ENDMDL
MODEL 9
REMARK VINA RESULT:    -2.621      2.418      3.308
REMARK INTER + INTRA:          -2.486
REMARK INTER:                  -3.240
REMARK INTRA:                   0.754
REMARK UNBOUND:                 0.748
REMARK SMILES CC1=CC=CC(C)(C)CC1=O
REMARK SMILES IDX 1 1 2 2 3 3 10 4 11 5 9 6 4 8 5 9 6 10 7 11 8 12
REMARK H PARENT
REMARK Flexibility Score: 80.00
ROOT
ATOM      1  C   UNL     1      89.022  38.495  25.979  1.00  0.00     0.048 C 
ATOM      2  C   UNL     1      87.666  37.867  25.763  1.00  0.00    -0.008 C 
ATOM      3  C   UNL     1      87.251  37.697  24.489  1.00  0.00     0.007 C 
ENDROOT
BRANCH   2   4
ATOM      4  C   UNL     1      86.930  37.417  26.971  1.00  0.00     0.159 C 
ATOM      5  O   UNL     1      87.537  37.385  28.077  1.00  0.00    -0.295 OA
BRANCH   4   6
ATOM      6  C   UNL     1      85.490  37.005  26.956  1.00  0.00     0.091 CG0
ATOM      7  G   UNL     1      85.210  35.803  26.026  1.00  0.00     0.000 G0
ENDBRANCH   4   6
ENDBRANCH   2   4
BRANCH   3   8
ATOM      8  C   UNL     1      86.000  37.095  23.969  1.00  0.00    -0.003 C 
ATOM      9  C   UNL     1      85.132  36.284  24.588  1.00  0.00    -0.020 C 
BRANCH   9  10
ATOM     10  C   UNL     1      85.216  35.804  26.016  1.00  0.00    -0.010 CG0
ATOM     11  C   UNL     1      83.846  35.201  26.406  1.00  0.00     0.016 C 
ATOM     12  C   UNL     1      86.279  34.688  26.138  1.00  0.00     0.016 C 
ATOM     13  G   UNL     1      85.498  36.999  26.954  1.00  0.00     0.000 G0
ENDBRANCH   9  10
ENDBRANCH   3   8
TORSDOF 0
ENDMDL
