MODEL 1
REMARK VINA RESULT:    -4.012      0.000      0.000
REMARK INTER + INTRA:          -6.836
REMARK INTER:                  -6.124
REMARK INTRA:                  -0.712
REMARK UNBOUND:                -0.712
REMARK SMILES CCCCCCCCCCC(=O)[O-]
REMARK SMILES IDX 7 1 8 2 9 3 10 4 11 5 12 6 13 7 6 8 5 9 4 10 3 11 2 12 1 13
REMARK H PARENT
REMARK Flexibility Score: inf
ROOT
ATOM      1  C   UNL     1      -9.640  -5.484  -4.896  1.00  0.00     0.000 C 
ENDROOT
BRANCH   1   2
ATOM      2  C   UNL     1     -10.819  -5.041  -4.016  1.00  0.00     0.000 C 
BRANCH   2   3
ATOM      3  C   UNL     1     -10.747  -3.551  -3.635  1.00  0.00     0.006 C 
BRANCH   3   4
ATOM      4  C   UNL     1     -10.421  -3.349  -2.149  1.00  0.00     0.053 C 
BRANCH   4   5
ATOM      5  C   UNL     1      -8.959  -3.514  -1.874  1.00  0.00     0.041 C 
ATOM      6  O   UNL     1      -8.497  -4.641  -1.556  1.00  0.00    -0.550 OA
ATOM      7  O   UNL     1      -8.111  -2.414  -1.933  1.00  0.00    -0.550 OA
ENDBRANCH   4   5
ENDBRANCH   3   4
ENDBRANCH   2   3
ENDBRANCH   1   2
BRANCH   1   8
ATOM      8  C   UNL     1      -9.973  -6.716  -5.752  1.00  0.00     0.000 C 
BRANCH   8   9
ATOM      9  C   UNL     1     -10.801  -6.322  -6.981  1.00  0.00    -0.000 C 
BRANCH   9  10
ATOM     10  C   UNL     1     -10.271  -5.029  -7.613  1.00  0.00    -0.000 C 
BRANCH  10  11
ATOM     11  C   UNL     1      -9.620  -5.309  -8.975  1.00  0.00    -0.000 C 
BRANCH  11  12
ATOM     12  C   UNL     1      -8.176  -4.792  -9.057  1.00  0.00    -0.003 C 
ATOM     13  C   UNL     1      -7.228  -5.537  -8.118  1.00  0.00     0.004 C 
ENDBRANCH  11  12
ENDBRANCH  10  11
ENDBRANCH   9  10
ENDBRANCH   8   9
ENDBRANCH   1   8
TORSDOF 9
ENDMDL
MODEL 2
REMARK VINA RESULT:    -3.977      1.497      2.101
REMARK INTER + INTRA:          -6.781
REMARK INTER:                  -6.186
REMARK INTRA:                  -0.594
REMARK UNBOUND:                -0.712
REMARK SMILES CCCCCCCCCCC(=O)[O-]
REMARK SMILES IDX 7 1 8 2 9 3 10 4 11 5 12 6 13 7 6 8 5 9 4 10 3 11 2 12 1 13
REMARK H PARENT
REMARK Flexibility Score: inf
ROOT
ATOM      1  C   UNL     1     -11.030  -4.561  -5.770  1.00  0.00     0.000 C 
ENDROOT
BRANCH   1   2
ATOM      2  C   UNL     1     -10.773  -3.661  -4.551  1.00  0.00     0.000 C 
BRANCH   2   3
ATOM      3  C   UNL     1     -10.973  -4.401  -3.216  1.00  0.00     0.006 C 
BRANCH   3   4
ATOM      4  C   UNL     1     -10.487  -3.574  -2.018  1.00  0.00     0.053 C 
BRANCH   4   5
ATOM      5  C   UNL     1      -9.001  -3.661  -1.849  1.00  0.00     0.041 C 
ATOM      6  O   UNL     1      -8.466  -4.745  -1.501  1.00  0.00    -0.550 OA
ATOM      7  O   UNL     1      -8.212  -2.534  -2.042  1.00  0.00    -0.550 OA
ENDBRANCH   4   5
ENDBRANCH   3   4
ENDBRANCH   2   3
ENDBRANCH   1   2
BRANCH   1   8
ATOM      8  C   UNL     1     -10.477  -5.981  -5.583  1.00  0.00     0.000 C 
BRANCH   8   9
ATOM      9  C   UNL     1      -9.997  -6.563  -6.918  1.00  0.00    -0.000 C 
BRANCH   9  10
ATOM     10  C   UNL     1      -8.469  -6.686  -6.949  1.00  0.00    -0.000 C 
BRANCH  10  11
ATOM     11  C   UNL     1      -7.926  -7.161  -5.593  1.00  0.00    -0.000 C 
BRANCH  11  12
ATOM     12  C   UNL     1      -6.493  -6.677  -5.328  1.00  0.00    -0.003 C 
ATOM     13  C   UNL     1      -6.015  -5.654  -6.358  1.00  0.00     0.004 C 
ENDBRANCH  11  12
ENDBRANCH  10  11
ENDBRANCH   9  10
ENDBRANCH   8   9
ENDBRANCH   1   8
TORSDOF 9
ENDMDL
MODEL 3
REMARK VINA RESULT:    -3.966      2.342      5.571
REMARK INTER + INTRA:          -6.765
REMARK INTER:                  -6.027
REMARK INTRA:                  -0.738
REMARK UNBOUND:                -0.712
REMARK SMILES CCCCCCCCCCC(=O)[O-]
REMARK SMILES IDX 7 1 8 2 9 3 10 4 11 5 12 6 13 7 6 8 5 9 4 10 3 11 2 12 1 13
REMARK H PARENT
REMARK Flexibility Score: inf
ROOT
ATOM      1  C   UNL     1     -10.874  -4.358  -6.376  1.00  0.00     0.000 C 
ENDROOT
BRANCH   1   2
ATOM      2  C   UNL     1     -10.356  -5.194  -7.557  1.00  0.00     0.000 C 
BRANCH   2   3
ATOM      3  C   UNL     1      -9.665  -6.492  -7.105  1.00  0.00     0.006 C 
BRANCH   3   4
ATOM      4  C   UNL     1      -8.135  -6.380  -7.152  1.00  0.00     0.053 C 
BRANCH   4   5
ATOM      5  C   UNL     1      -7.508  -6.785  -5.853  1.00  0.00     0.041 C 
ATOM      6  O   UNL     1      -6.285  -6.573  -5.647  1.00  0.00    -0.550 OA
ATOM      7  O   UNL     1      -8.269  -7.430  -4.885  1.00  0.00    -0.550 OA
ENDBRANCH   4   5
ENDBRANCH   3   4
ENDBRANCH   2   3
ENDBRANCH   1   2
BRANCH   1   8
ATOM      8  C   UNL     1     -11.030  -5.184  -5.091  1.00  0.00     0.000 C 
BRANCH   8   9
ATOM      9  C   UNL     1     -10.818  -4.310  -3.849  1.00  0.00    -0.000 C 
BRANCH   9  10
ATOM     10  C   UNL     1      -9.363  -4.378  -3.368  1.00  0.00    -0.000 C 
BRANCH  10  11
ATOM     11  C   UNL     1      -9.218  -3.772  -1.964  1.00  0.00    -0.000 C 
BRANCH  11  12
ATOM     12  C   UNL     1     -10.547  -3.238  -1.411  1.00  0.00    -0.003 C 
ATOM     13  C   UNL     1     -10.919  -3.860  -0.066  1.00  0.00     0.004 C 
ENDBRANCH  11  12
ENDBRANCH  10  11
ENDBRANCH   9  10
ENDBRANCH   8   9
ENDBRANCH   1   8
TORSDOF 9
ENDMDL
MODEL 4
REMARK VINA RESULT:    -3.823      3.198      6.156
REMARK INTER + INTRA:          -6.546
REMARK INTER:                  -6.047
REMARK INTRA:                  -0.499
REMARK UNBOUND:                -0.712
REMARK SMILES CCCCCCCCCCC(=O)[O-]
REMARK SMILES IDX 7 1 8 2 9 3 10 4 11 5 12 6 13 7 6 8 5 9 4 10 3 11 2 12 1 13
REMARK H PARENT
REMARK Flexibility Score: inf
ROOT
ATOM      1  C   UNL     1     -10.054  -5.711  -5.990  1.00  0.00     0.000 C 
ENDROOT
BRANCH   1   2
ATOM      2  C   UNL     1     -10.721  -4.682  -6.916  1.00  0.00     0.000 C 
BRANCH   2   3
ATOM      3  C   UNL     1      -9.998  -4.544  -8.267  1.00  0.00     0.006 C 
BRANCH   3   4
ATOM      4  C   UNL     1      -8.971  -5.663  -8.491  1.00  0.00     0.053 C 
BRANCH   4   5
ATOM      5  C   UNL     1      -7.655  -5.123  -8.960  1.00  0.00     0.041 C 
ATOM      6  O   UNL     1      -6.580  -5.577  -8.489  1.00  0.00    -0.550 OA
ATOM      7  O   UNL     1      -7.618  -4.094  -9.894  1.00  0.00    -0.550 OA
ENDBRANCH   4   5
ENDBRANCH   3   4
ENDBRANCH   2   3
ENDBRANCH   1   2
BRANCH   1   8
ATOM      8  C   UNL     1     -10.775  -5.847  -4.641  1.00  0.00     0.000 C 
BRANCH   8   9
ATOM      9  C   UNL     1     -10.672  -4.549  -3.831  1.00  0.00    -0.000 C 
BRANCH   9  10
ATOM     10  C   UNL     1      -9.250  -4.346  -3.293  1.00  0.00    -0.000 C 
BRANCH  10  11
ATOM     11  C   UNL     1      -9.277  -3.740  -1.882  1.00  0.00    -0.000 C 
BRANCH  11  12
ATOM     12  C   UNL     1     -10.697  -3.378  -1.421  1.00  0.00    -0.003 C 
ATOM     13  C   UNL     1     -10.990  -3.839   0.007  1.00  0.00     0.004 C 
ENDBRANCH  11  12
ENDBRANCH  10  11
ENDBRANCH   9  10
ENDBRANCH   8   9
ENDBRANCH   1   8
TORSDOF 9
ENDMDL
MODEL 5
REMARK VINA RESULT:    -3.690      2.718      5.697
REMARK INTER + INTRA:          -6.343
REMARK INTER:                  -5.696
REMARK INTRA:                  -0.647
REMARK UNBOUND:                -0.712
REMARK SMILES CCCCCCCCCCC(=O)[O-]
REMARK SMILES IDX 7 1 8 2 9 3 10 4 11 5 12 6 13 7 6 8 5 9 4 10 3 11 2 12 1 13
REMARK H PARENT
REMARK Flexibility Score: inf
ROOT
ATOM      1  C   UNL     1     -10.493  -5.017  -6.038  1.00  0.00     0.000 C 
ENDROOT
BRANCH   1   2
ATOM      2  C   UNL     1     -10.353  -6.452  -5.505  1.00  0.00     0.000 C 
BRANCH   2   3
ATOM      3  C   UNL     1      -9.039  -7.121  -5.943  1.00  0.00     0.006 C 
BRANCH   3   4
ATOM      4  C   UNL     1      -7.806  -6.392  -5.392  1.00  0.00     0.053 C 
BRANCH   4   5
ATOM      5  C   UNL     1      -6.878  -5.964  -6.487  1.00  0.00     0.041 C 
ATOM      6  O   UNL     1      -5.718  -5.561  -6.213  1.00  0.00    -0.550 OA
ATOM      7  O   UNL     1      -7.309  -5.976  -7.808  1.00  0.00    -0.550 OA
ENDBRANCH   4   5
ENDBRANCH   3   4
ENDBRANCH   2   3
ENDBRANCH   1   2
BRANCH   1   8
ATOM      8  C   UNL     1     -11.072  -4.052  -4.993  1.00  0.00     0.000 C 
BRANCH   8   9
ATOM      9  C   UNL     1     -10.753  -4.528  -3.571  1.00  0.00    -0.000 C 
BRANCH   9  10
ATOM     10  C   UNL     1      -9.338  -4.110  -3.153  1.00  0.00    -0.000 C 
BRANCH  10  11
ATOM     11  C   UNL     1      -9.294  -3.729  -1.665  1.00  0.00    -0.000 C 
BRANCH  11  12
ATOM     12  C   UNL     1     -10.636  -3.187  -1.154  1.00  0.00    -0.003 C 
ATOM     13  C   UNL     1     -11.124  -3.909   0.102  1.00  0.00     0.004 C 
ENDBRANCH  11  12
ENDBRANCH  10  11
ENDBRANCH   9  10
ENDBRANCH   8   9
ENDBRANCH   1   8
TORSDOF 9
ENDMDL
MODEL 6
REMARK VINA RESULT:    -3.190      3.167      5.840
REMARK INTER + INTRA:          -5.580
REMARK INTER:                  -4.894
REMARK INTRA:                  -0.686
REMARK UNBOUND:                -0.712
REMARK SMILES CCCCCCCCCCC(=O)[O-]
REMARK SMILES IDX 7 1 8 2 9 3 10 4 11 5 12 6 13 7 6 8 5 9 4 10 3 11 2 12 1 13
REMARK H PARENT
REMARK Flexibility Score: inf
ROOT
ATOM      1  C   UNL     1      -8.739  -6.843  -5.580  1.00  0.00     0.000 C 
ENDROOT
BRANCH   1   2
ATOM      2  C   UNL     1      -7.900  -6.146  -6.662  1.00  0.00     0.000 C 
BRANCH   2   3
ATOM      3  C   UNL     1      -8.477  -6.340  -8.076  1.00  0.00     0.006 C 
BRANCH   3   4
ATOM      4  C   UNL     1      -8.706  -5.004  -8.796  1.00  0.00     0.053 C 
BRANCH   4   5
ATOM      5  C   UNL     1     -10.163  -4.690  -8.934  1.00  0.00     0.041 C 
ATOM      6  O   UNL     1     -10.594  -3.542  -8.650  1.00  0.00    -0.550 OA
ATOM      7  O   UNL     1     -11.052  -5.676  -9.344  1.00  0.00    -0.550 OA
ENDBRANCH   4   5
ENDBRANCH   3   4
ENDBRANCH   2   3
ENDBRANCH   1   2
BRANCH   1   8
ATOM      8  C   UNL     1     -10.241  -6.553  -5.719  1.00  0.00     0.000 C 
BRANCH   8   9
ATOM      9  C   UNL     1     -10.561  -5.110  -5.314  1.00  0.00    -0.000 C 
BRANCH   9  10
ATOM     10  C   UNL     1     -11.055  -5.039  -3.864  1.00  0.00    -0.000 C 
BRANCH  10  11
ATOM     11  C   UNL     1     -10.944  -3.610  -3.313  1.00  0.00    -0.000 C 
BRANCH  11  12
ATOM     12  C   UNL     1     -10.368  -3.569  -1.890  1.00  0.00    -0.003 C 
ATOM     13  C   UNL     1      -8.894  -3.969  -1.838  1.00  0.00     0.004 C 
ENDBRANCH  11  12
ENDBRANCH  10  11
ENDBRANCH   9  10
ENDBRANCH   8   9
ENDBRANCH   1   8
TORSDOF 9
ENDMDL
MODEL 7
REMARK VINA RESULT:    -3.065     17.965     19.459
REMARK INTER + INTRA:          -5.390
REMARK INTER:                  -5.030
REMARK INTRA:                  -0.360
REMARK UNBOUND:                -0.712
REMARK SMILES CCCCCCCCCCC(=O)[O-]
REMARK SMILES IDX 7 1 8 2 9 3 10 4 11 5 12 6 13 7 6 8 5 9 4 10 3 11 2 12 1 13
REMARK H PARENT
REMARK Flexibility Score: inf
ROOT
ATOM      1  C   UNL     1      -5.118   7.550   7.852  1.00  0.00     0.000 C 
ENDROOT
BRANCH   1   2
ATOM      2  C   UNL     1      -4.042   7.933   8.880  1.00  0.00     0.000 C 
BRANCH   2   3
ATOM      3  C   UNL     1      -2.869   6.938   8.908  1.00  0.00     0.006 C 
BRANCH   3   4
ATOM      4  C   UNL     1      -1.793   7.340   9.926  1.00  0.00     0.053 C 
BRANCH   4   5
ATOM      5  C   UNL     1      -0.480   6.678   9.638  1.00  0.00     0.041 C 
ATOM      6  O   UNL     1       0.476   7.346   9.165  1.00  0.00    -0.550 OA
ATOM      7  O   UNL     1      -0.326   5.315   9.859  1.00  0.00    -0.550 OA
ENDBRANCH   4   5
ENDBRANCH   3   4
ENDBRANCH   2   3
ENDBRANCH   1   2
BRANCH   1   8
ATOM      8  C   UNL     1      -6.543   7.688   8.408  1.00  0.00     0.000 C 
BRANCH   8   9
ATOM      9  C   UNL     1      -7.484   6.663   7.765  1.00  0.00    -0.000 C 
BRANCH   9  10
ATOM     10  C   UNL     1      -8.952   7.064   7.958  1.00  0.00    -0.000 C 
BRANCH  10  11
ATOM     11  C   UNL     1      -9.065   8.500   8.492  1.00  0.00    -0.000 C 
BRANCH  11  12
ATOM     12  C   UNL     1      -9.933   9.396   7.598  1.00  0.00    -0.003 C 
ATOM     13  C   UNL     1     -10.893   8.599   6.715  1.00  0.00     0.004 C 
ENDBRANCH  11  12
ENDBRANCH  10  11
ENDBRANCH   9  10
ENDBRANCH   8   9
ENDBRANCH   1   8
TORSDOF 9
ENDMDL
MODEL 8
REMARK VINA RESULT:    -2.948      2.664      4.955
REMARK INTER + INTRA:          -5.211
REMARK INTER:                  -4.298
REMARK INTRA:                  -0.913
REMARK UNBOUND:                -0.712
REMARK SMILES CCCCCCCCCCC(=O)[O-]
REMARK SMILES IDX 7 1 8 2 9 3 10 4 11 5 12 6 13 7 6 8 5 9 4 10 3 11 2 12 1 13
REMARK H PARENT
REMARK Flexibility Score: inf
ROOT
ATOM      1  C   UNL     1      -9.101  -4.881  -8.815  1.00  0.00     0.000 C 
ENDROOT
BRANCH   1   2
ATOM      2  C   UNL     1      -7.822  -5.537  -9.359  1.00  0.00     0.000 C 
BRANCH   2   3
ATOM      3  C   UNL     1      -6.675  -5.542  -8.333  1.00  0.00     0.006 C 
BRANCH   3   4
ATOM      4  C   UNL     1      -7.190  -5.612  -6.889  1.00  0.00     0.053 C 
BRANCH   4   5
ATOM      5  C   UNL     1      -6.228  -6.323  -5.990  1.00  0.00     0.041 C 
ATOM      6  O   UNL     1      -5.043  -5.912  -5.877  1.00  0.00    -0.550 OA
ATOM      7  O   UNL     1      -6.629  -7.462  -5.302  1.00  0.00    -0.550 OA
ENDBRANCH   4   5
ENDBRANCH   3   4
ENDBRANCH   2   3
ENDBRANCH   1   2
BRANCH   1   8
ATOM      8  C   UNL     1     -10.339  -5.774  -8.979  1.00  0.00     0.000 C 
BRANCH   8   9
ATOM      9  C   UNL     1     -10.341  -6.904  -7.944  1.00  0.00    -0.000 C 
BRANCH   9  10
ATOM     10  C   UNL     1     -11.124  -6.502  -6.687  1.00  0.00    -0.000 C 
BRANCH  10  11
ATOM     11  C   UNL     1     -10.268  -6.680  -5.425  1.00  0.00    -0.000 C 
BRANCH  11  12
ATOM     12  C   UNL     1      -9.991  -5.351  -4.707  1.00  0.00    -0.003 C 
ATOM     13  C   UNL     1     -11.124  -4.340  -4.878  1.00  0.00     0.004 C 
ENDBRANCH  11  12
ENDBRANCH  10  11
ENDBRANCH   9  10
ENDBRANCH   8   9
ENDBRANCH   1   8
TORSDOF 9
ENDMDL
