MODEL 1
REMARK VINA RESULT:    -3.016      0.000      0.000
REMARK INTER + INTRA:          -3.441
REMARK INTER:                  -3.369
REMARK INTRA:                  -0.072
REMARK UNBOUND:                -0.072
REMARK SMILES CCCC(=O)[O-]
REMARK SMILES IDX 3 1 4 2 5 3 6 4 2 5 1 6
REMARK H PARENT
REMARK Flexibility Score: inf
ROOT
ATOM      1  C   UNL     1      11.878 -36.070 -25.426  1.00  0.00     0.052 C 
ENDROOT
BRANCH   1   2
ATOM      2  C   UNL     1      10.570 -36.269 -26.123  1.00  0.00     0.041 C 
ATOM      3  O   UNL     1       9.567 -36.679 -25.483  1.00  0.00    -0.550 OA
ATOM      4  O   UNL     1      10.471 -36.047 -27.492  1.00  0.00    -0.550 OA
ENDBRANCH   1   2
BRANCH   1   5
ATOM      5  C   UNL     1      12.375 -34.635 -25.616  1.00  0.00     0.003 C 
ATOM      6  C   UNL     1      11.402 -33.630 -25.005  1.00  0.00     0.004 C 
ENDBRANCH   1   5
TORSDOF 2
ENDMDL
MODEL 2
REMARK VINA RESULT:    -2.954      1.784      2.207
REMARK INTER + INTRA:          -3.372
REMARK INTER:                  -3.352
REMARK INTRA:                  -0.020
REMARK UNBOUND:                -0.072
REMARK SMILES CCCC(=O)[O-]
REMARK SMILES IDX 3 1 4 2 5 3 6 4 2 5 1 6
REMARK H PARENT
REMARK Flexibility Score: inf
ROOT
ATOM      1  C   UNL     1      11.232 -36.210 -25.708  1.00  0.00     0.052 C 
ENDROOT
BRANCH   1   2
ATOM      2  C   UNL     1      11.501 -37.449 -24.914  1.00  0.00     0.041 C 
ATOM      3  O   UNL     1      12.647 -37.660 -24.438  1.00  0.00    -0.550 OA
ATOM      4  O   UNL     1      10.498 -38.395 -24.741  1.00  0.00    -0.550 OA
ENDBRANCH   1   2
BRANCH   1   5
ATOM      5  C   UNL     1      12.257 -35.124 -25.370  1.00  0.00     0.003 C 
ATOM      6  C   UNL     1      11.567 -33.814 -24.997  1.00  0.00     0.004 C 
ENDBRANCH   1   5
TORSDOF 2
ENDMDL
MODEL 3
REMARK VINA RESULT:    -2.924      2.255      3.159
REMARK INTER + INTRA:          -3.338
REMARK INTER:                  -3.293
REMARK INTRA:                  -0.045
REMARK UNBOUND:                -0.072
REMARK SMILES CCCC(=O)[O-]
REMARK SMILES IDX 3 1 4 2 5 3 6 4 2 5 1 6
REMARK H PARENT
REMARK Flexibility Score: inf
ROOT
ATOM      1  C   UNL     1      11.124 -35.646 -26.438  1.00  0.00     0.052 C 
ENDROOT
BRANCH   1   2
ATOM      2  C   UNL     1      11.853 -34.764 -25.475  1.00  0.00     0.041 C 
ATOM      3  O   UNL     1      12.988 -35.097 -25.046  1.00  0.00    -0.550 OA
ATOM      4  O   UNL     1      11.257 -33.596 -25.013  1.00  0.00    -0.550 OA
ENDBRANCH   1   2
BRANCH   1   5
ATOM      5  C   UNL     1      10.040 -36.449 -25.713  1.00  0.00     0.003 C 
ATOM      6  C   UNL     1      10.593 -37.773 -25.191  1.00  0.00     0.004 C 
ENDBRANCH   1   5
TORSDOF 2
ENDMDL
MODEL 4
REMARK VINA RESULT:    -2.899      9.915     10.630
REMARK INTER + INTRA:          -3.310
REMARK INTER:                  -3.302
REMARK INTRA:                  -0.007
REMARK UNBOUND:                -0.072
REMARK SMILES CCCC(=O)[O-]
REMARK SMILES IDX 3 1 4 2 5 3 6 4 2 5 1 6
REMARK H PARENT
REMARK Flexibility Score: inf
ROOT
ATOM      1  C   UNL     1       6.624 -29.578 -17.793  1.00  0.00     0.052 C 
ENDROOT
BRANCH   1   2
ATOM      2  C   UNL     1       6.717 -31.069 -17.726  1.00  0.00     0.041 C 
ATOM      3  O   UNL     1       6.447 -31.673 -16.656  1.00  0.00    -0.550 OA
ATOM      4  O   UNL     1       7.150 -31.789 -18.834  1.00  0.00    -0.550 OA
ENDBRANCH   1   2
BRANCH   1   5
ATOM      5  C   UNL     1       7.856 -28.935 -17.148  1.00  0.00     0.003 C 
ATOM      6  C   UNL     1       8.261 -27.661 -17.886  1.00  0.00     0.004 C 
ENDBRANCH   1   5
TORSDOF 2
ENDMDL
MODEL 5
REMARK VINA RESULT:    -2.838      1.961      3.135
REMARK INTER + INTRA:          -3.242
REMARK INTER:                  -3.178
REMARK INTRA:                  -0.063
REMARK UNBOUND:                -0.072
REMARK SMILES CCCC(=O)[O-]
REMARK SMILES IDX 3 1 4 2 5 3 6 4 2 5 1 6
REMARK H PARENT
REMARK Flexibility Score: inf
ROOT
ATOM      1  C   UNL     1      10.413 -35.301 -25.744  1.00  0.00     0.052 C 
ENDROOT
BRANCH   1   2
ATOM      2  C   UNL     1      11.887 -35.501 -25.589  1.00  0.00     0.041 C 
ATOM      3  O   UNL     1      12.695 -34.696 -26.121  1.00  0.00    -0.550 OA
ATOM      4  O   UNL     1      12.369 -36.606 -24.898  1.00  0.00    -0.550 OA
ENDBRANCH   1   2
BRANCH   1   5
ATOM      5  C   UNL     1       9.800 -36.441 -26.562  1.00  0.00     0.003 C 
ATOM      6  C   UNL     1      10.152 -36.309 -28.041  1.00  0.00     0.004 C 
ENDBRANCH   1   5
TORSDOF 2
ENDMDL
MODEL 6
REMARK VINA RESULT:    -2.834     10.291     11.342
REMARK INTER + INTRA:          -3.238
REMARK INTER:                  -3.223
REMARK INTRA:                  -0.015
REMARK UNBOUND:                -0.072
REMARK SMILES CCCC(=O)[O-]
REMARK SMILES IDX 3 1 4 2 5 3 6 4 2 5 1 6
REMARK H PARENT
REMARK Flexibility Score: inf
ROOT
ATOM      1  C   UNL     1       6.604 -29.476 -17.736  1.00  0.00     0.052 C 
ENDROOT
BRANCH   1   2
ATOM      2  C   UNL     1       7.721 -28.753 -17.053  1.00  0.00     0.041 C 
ATOM      3  O   UNL     1       7.813 -28.770 -15.799  1.00  0.00    -0.550 OA
ATOM      4  O   UNL     1       8.633 -28.017 -17.802  1.00  0.00    -0.550 OA
ENDBRANCH   1   2
BRANCH   1   5
ATOM      5  C   UNL     1       6.716 -30.984 -17.496  1.00  0.00     0.003 C 
ATOM      6  C   UNL     1       6.924 -31.736 -18.809  1.00  0.00     0.004 C 
ENDBRANCH   1   5
TORSDOF 2
ENDMDL
MODEL 7
REMARK VINA RESULT:    -2.826     10.106     10.663
REMARK INTER + INTRA:          -3.228
REMARK INTER:                  -3.214
REMARK INTRA:                  -0.014
REMARK UNBOUND:                -0.072
REMARK SMILES CCCC(=O)[O-]
REMARK SMILES IDX 3 1 4 2 5 3 6 4 2 5 1 6
REMARK H PARENT
REMARK Flexibility Score: inf
ROOT
ATOM      1  C   UNL     1       7.149 -30.214 -17.882  1.00  0.00     0.052 C 
ENDROOT
BRANCH   1   2
ATOM      2  C   UNL     1       5.860 -30.829 -18.325  1.00  0.00     0.041 C 
ATOM      3  O   UNL     1       5.806 -32.054 -18.606  1.00  0.00    -0.550 OA
ATOM      4  O   UNL     1       4.727 -30.037 -18.475  1.00  0.00    -0.550 OA
ENDBRANCH   1   2
BRANCH   1   5
ATOM      5  C   UNL     1       6.958 -28.724 -17.583  1.00  0.00     0.003 C 
ATOM      6  C   UNL     1       8.251 -27.946 -17.811  1.00  0.00     0.004 C 
ENDBRANCH   1   5
TORSDOF 2
ENDMDL
MODEL 8
REMARK VINA RESULT:    -2.786     16.007     17.089
REMARK INTER + INTRA:          -3.183
REMARK INTER:                  -3.145
REMARK INTRA:                  -0.038
REMARK UNBOUND:                -0.072
REMARK SMILES CCCC(=O)[O-]
REMARK SMILES IDX 3 1 4 2 5 3 6 4 2 5 1 6
REMARK H PARENT
REMARK Flexibility Score: inf
ROOT
ATOM      1  C   UNL     1      -0.623 -44.578 -17.350  1.00  0.00     0.052 C 
ENDROOT
BRANCH   1   2
ATOM      2  C   UNL     1      -0.483 -43.234 -17.990  1.00  0.00     0.041 C 
ATOM      3  O   UNL     1      -1.506 -42.556 -18.268  1.00  0.00    -0.550 OA
ATOM      4  O   UNL     1       0.776 -42.751 -18.326  1.00  0.00    -0.550 OA
ENDBRANCH   1   2
BRANCH   1   5
ATOM      5  C   UNL     1      -2.089 -44.862 -17.013  1.00  0.00     0.003 C 
ATOM      6  C   UNL     1      -2.635 -46.011 -17.857  1.00  0.00     0.004 C 
ENDBRANCH   1   5
TORSDOF 2
ENDMDL
MODEL 9
REMARK VINA RESULT:    -2.772     11.080     11.901
REMARK INTER + INTRA:          -3.168
REMARK INTER:                  -3.095
REMARK INTRA:                  -0.072
REMARK UNBOUND:                -0.072
REMARK SMILES CCCC(=O)[O-]
REMARK SMILES IDX 3 1 4 2 5 3 6 4 2 5 1 6
REMARK H PARENT
REMARK Flexibility Score: inf
ROOT
ATOM      1  C   UNL     1       7.199 -29.857 -17.832  1.00  0.00     0.052 C 
ENDROOT
BRANCH   1   2
ATOM      2  C   UNL     1       7.866 -28.722 -17.123  1.00  0.00     0.041 C 
ATOM      3  O   UNL     1       8.512 -27.860 -17.774  1.00  0.00    -0.550 OA
ATOM      4  O   UNL     1       7.816 -28.643 -15.736  1.00  0.00    -0.550 OA
ENDBRANCH   1   2
BRANCH   1   5
ATOM      5  C   UNL     1       5.707 -29.901 -17.489  1.00  0.00     0.003 C 
ATOM      6  C   UNL     1       4.989 -28.651 -17.993  1.00  0.00     0.004 C 
ENDBRANCH   1   5
TORSDOF 2
ENDMDL
