MODEL 1
REMARK VINA RESULT:    -4.427      0.000      0.000
REMARK INTER + INTRA:          -8.721
REMARK INTER:                  -7.791
REMARK INTRA:                  -0.930
REMARK UNBOUND:                -0.930
REMARK SMILES CCCCCCCCCCCCCCC(=O)[O-]
REMARK SMILES IDX 9 1 10 2 11 3 12 4 13 5 14 6 15 7 16 8 17 9 8 10 7 11 6 12
REMARK SMILES IDX 5 13 4 14 3 15 2 16 1 17
REMARK H PARENT
REMARK Flexibility Score: inf
ROOT
ATOM      1  C   UNL     1      30.763  -6.826 -16.120  1.00  0.00     0.000 C 
ENDROOT
BRANCH   1   2
ATOM      2  C   UNL     1      31.383  -5.475 -15.730  1.00  0.00     0.000 C 
BRANCH   2   3
ATOM      3  C   UNL     1      32.263  -4.927 -16.860  1.00  0.00     0.000 C 
BRANCH   3   4
ATOM      4  C   UNL     1      33.689  -5.493 -16.769  1.00  0.00     0.000 C 
BRANCH   4   5
ATOM      5  C   UNL     1      34.452  -5.387 -18.100  1.00  0.00     0.006 C 
BRANCH   5   6
ATOM      6  C   UNL     1      35.908  -5.857 -17.985  1.00  0.00     0.053 C 
BRANCH   6   7
ATOM      7  C   UNL     1      36.726  -4.844 -17.248  1.00  0.00     0.041 C 
ATOM      8  O   UNL     1      37.309  -5.158 -16.177  1.00  0.00    -0.550 OA
ATOM      9  O   UNL     1      36.886  -3.567 -17.770  1.00  0.00    -0.550 OA
ENDBRANCH   6   7
ENDBRANCH   5   6
ENDBRANCH   4   5
ENDBRANCH   3   4
ENDBRANCH   2   3
ENDBRANCH   1   2
BRANCH   1  10
ATOM     10  C   UNL     1      29.467  -7.128 -15.353  1.00  0.00     0.000 C 
BRANCH  10  11
ATOM     11  C   UNL     1      29.666  -8.168 -14.240  1.00  0.00    -0.000 C 
BRANCH  11  12
ATOM     12  C   UNL     1      29.390  -7.558 -12.861  1.00  0.00    -0.000 C 
BRANCH  12  13
ATOM     13  C   UNL     1      29.071  -6.060 -12.976  1.00  0.00    -0.000 C 
BRANCH  13  14
ATOM     14  C   UNL     1      30.201  -5.167 -12.442  1.00  0.00    -0.000 C 
BRANCH  14  15
ATOM     15  C   UNL     1      31.500  -5.950 -12.182  1.00  0.00    -0.000 C 
BRANCH  15  16
ATOM     16  C   UNL     1      32.176  -5.546 -10.862  1.00  0.00    -0.003 C 
ATOM     17  C   UNL     1      32.987  -6.682 -10.238  1.00  0.00     0.004 C 
ENDBRANCH  15  16
ENDBRANCH  14  15
ENDBRANCH  13  14
ENDBRANCH  12  13
ENDBRANCH  11  12
ENDBRANCH  10  11
ENDBRANCH   1  10
TORSDOF 13
ENDMDL
MODEL 2
REMARK VINA RESULT:    -4.306      2.713      6.296
REMARK INTER + INTRA:          -8.508
REMARK INTER:                  -7.395
REMARK INTRA:                  -1.113
REMARK UNBOUND:                -0.930
REMARK SMILES CCCCCCCCCCCCCCC(=O)[O-]
REMARK SMILES IDX 9 1 10 2 11 3 12 4 13 5 14 6 15 7 16 8 17 9 8 10 7 11 6 12
REMARK SMILES IDX 5 13 4 14 3 15 2 16 1 17
REMARK H PARENT
REMARK Flexibility Score: inf
ROOT
ATOM      1  C   UNL     1      29.606  -7.123 -15.431  1.00  0.00     0.000 C 
ENDROOT
BRANCH   1   2
ATOM      2  C   UNL     1      29.627  -8.164 -14.302  1.00  0.00     0.000 C 
BRANCH   2   3
ATOM      3  C   UNL     1      29.393  -7.502 -12.939  1.00  0.00     0.000 C 
BRANCH   3   4
ATOM      4  C   UNL     1      29.180  -5.988 -13.092  1.00  0.00     0.000 C 
BRANCH   4   5
ATOM      5  C   UNL     1      30.335  -5.165 -12.499  1.00  0.00     0.006 C 
BRANCH   5   6
ATOM      6  C   UNL     1      31.685  -5.888 -12.593  1.00  0.00     0.053 C 
BRANCH   6   7
ATOM      7  C   UNL     1      32.262  -6.094 -11.228  1.00  0.00     0.041 C 
ATOM      8  O   UNL     1      33.125  -6.990 -11.033  1.00  0.00    -0.550 OA
ATOM      9  O   UNL     1      31.884  -5.263 -10.181  1.00  0.00    -0.550 OA
ENDBRANCH   6   7
ENDBRANCH   5   6
ENDBRANCH   4   5
ENDBRANCH   3   4
ENDBRANCH   2   3
ENDBRANCH   1   2
BRANCH   1  10
ATOM     10  C   UNL     1      30.971  -6.966 -16.118  1.00  0.00     0.000 C 
BRANCH  10  11
ATOM     11  C   UNL     1      31.477  -5.515 -16.106  1.00  0.00    -0.000 C 
BRANCH  11  12
ATOM     12  C   UNL     1      33.005  -5.465 -16.234  1.00  0.00    -0.000 C 
BRANCH  12  13
ATOM     13  C   UNL     1      33.424  -4.966 -17.624  1.00  0.00    -0.000 C 
BRANCH  13  14
ATOM     14  C   UNL     1      34.846  -5.406 -18.010  1.00  0.00    -0.000 C 
BRANCH  14  15
ATOM     15  C   UNL     1      35.911  -4.364 -17.625  1.00  0.00    -0.000 C 
BRANCH  15  16
ATOM     16  C   UNL     1      37.137  -5.000 -16.950  1.00  0.00    -0.003 C 
ATOM     17  C   UNL     1      36.925  -6.472 -16.599  1.00  0.00     0.004 C 
ENDBRANCH  15  16
ENDBRANCH  14  15
ENDBRANCH  13  14
ENDBRANCH  12  13
ENDBRANCH  11  12
ENDBRANCH  10  11
ENDBRANCH   1  10
TORSDOF 13
ENDMDL
MODEL 3
REMARK VINA RESULT:    -4.204      2.919      6.470
REMARK INTER + INTRA:          -8.328
REMARK INTER:                  -7.547
REMARK INTRA:                  -0.781
REMARK UNBOUND:                -0.930
REMARK SMILES CCCCCCCCCCCCCCC(=O)[O-]
REMARK SMILES IDX 9 1 10 2 11 3 12 4 13 5 14 6 15 7 16 8 17 9 8 10 7 11 6 12
REMARK SMILES IDX 5 13 4 14 3 15 2 16 1 17
REMARK H PARENT
REMARK Flexibility Score: inf
ROOT
ATOM      1  C   UNL     1      29.677  -5.886 -15.003  1.00  0.00     0.000 C 
ENDROOT
BRANCH   1   2
ATOM      2  C   UNL     1      29.785  -7.396 -15.264  1.00  0.00     0.000 C 
BRANCH   2   3
ATOM      3  C   UNL     1      29.747  -8.185 -13.950  1.00  0.00     0.000 C 
BRANCH   3   4
ATOM      4  C   UNL     1      29.951  -7.255 -12.744  1.00  0.00     0.000 C 
BRANCH   4   5
ATOM      5  C   UNL     1      31.436  -7.036 -12.411  1.00  0.00     0.006 C 
BRANCH   5   6
ATOM      6  C   UNL     1      31.683  -5.732 -11.641  1.00  0.00     0.053 C 
BRANCH   6   7
ATOM      7  C   UNL     1      32.477  -6.000 -10.402  1.00  0.00     0.041 C 
ATOM      8  O   UNL     1      32.291  -5.307  -9.367  1.00  0.00    -0.550 OA
ATOM      9  O   UNL     1      33.387  -7.049 -10.373  1.00  0.00    -0.550 OA
ENDBRANCH   6   7
ENDBRANCH   5   6
ENDBRANCH   4   5
ENDBRANCH   3   4
ENDBRANCH   2   3
ENDBRANCH   1   2
BRANCH   1  10
ATOM     10  C   UNL     1      30.966  -5.129 -15.357  1.00  0.00     0.000 C 
BRANCH  10  11
ATOM     11  C   UNL     1      31.765  -5.812 -16.478  1.00  0.00    -0.000 C 
BRANCH  11  12
ATOM     12  C   UNL     1      33.224  -5.338 -16.480  1.00  0.00    -0.000 C 
BRANCH  12  13
ATOM     13  C   UNL     1      33.797  -5.329 -17.906  1.00  0.00    -0.000 C 
BRANCH  13  14
ATOM     14  C   UNL     1      35.313  -5.574 -17.939  1.00  0.00    -0.000 C 
BRANCH  14  15
ATOM     15  C   UNL     1      36.099  -4.527 -17.129  1.00  0.00    -0.000 C 
BRANCH  15  16
ATOM     16  C   UNL     1      37.186  -5.161 -16.248  1.00  0.00    -0.003 C 
ATOM     17  C   UNL     1      37.653  -6.521 -16.767  1.00  0.00     0.004 C 
ENDBRANCH  15  16
ENDBRANCH  14  15
ENDBRANCH  13  14
ENDBRANCH  12  13
ENDBRANCH  11  12
ENDBRANCH  10  11
ENDBRANCH   1  10
TORSDOF 13
ENDMDL
MODEL 4
REMARK VINA RESULT:    -4.186      2.865      6.840
REMARK INTER + INTRA:          -8.297
REMARK INTER:                  -7.697
REMARK INTRA:                  -0.600
REMARK UNBOUND:                -0.930
REMARK SMILES CCCCCCCCCCCCCCC(=O)[O-]
REMARK SMILES IDX 9 1 10 2 11 3 12 4 13 5 14 6 15 7 16 8 17 9 8 10 7 11 6 12
REMARK SMILES IDX 5 13 4 14 3 15 2 16 1 17
REMARK H PARENT
REMARK Flexibility Score: inf
ROOT
ATOM      1  C   UNL     1      31.252  -5.340 -15.313  1.00  0.00     0.000 C 
ENDROOT
BRANCH   1   2
ATOM      2  C   UNL     1      29.876  -6.019 -15.228  1.00  0.00     0.000 C 
BRANCH   2   3
ATOM      3  C   UNL     1      30.016  -7.546 -15.228  1.00  0.00     0.000 C 
BRANCH   3   4
ATOM      4  C   UNL     1      29.684  -8.129 -13.846  1.00  0.00     0.000 C 
BRANCH   4   5
ATOM      5  C   UNL     1      30.049  -7.173 -12.698  1.00  0.00     0.006 C 
BRANCH   5   6
ATOM      6  C   UNL     1      31.536  -7.237 -12.326  1.00  0.00     0.053 C 
BRANCH   6   7
ATOM      7  C   UNL     1      31.911  -6.067 -11.473  1.00  0.00     0.041 C 
ATOM      8  O   UNL     1      31.389  -4.939 -11.678  1.00  0.00    -0.550 OA
ATOM      9  O   UNL     1      32.799  -6.231 -10.418  1.00  0.00    -0.550 OA
ENDBRANCH   6   7
ENDBRANCH   5   6
ENDBRANCH   4   5
ENDBRANCH   3   4
ENDBRANCH   2   3
ENDBRANCH   1   2
BRANCH   1  10
ATOM     10  C   UNL     1      31.910  -5.503 -16.691  1.00  0.00     0.000 C 
BRANCH  10  11
ATOM     11  C   UNL     1      33.432  -5.297 -16.650  1.00  0.00    -0.000 C 
BRANCH  11  12
ATOM     12  C   UNL     1      34.048  -5.463 -18.044  1.00  0.00    -0.000 C 
BRANCH  12  13
ATOM     13  C   UNL     1      35.413  -6.162 -17.963  1.00  0.00    -0.000 C 
BRANCH  13  14
ATOM     14  C   UNL     1      36.181  -5.820 -16.676  1.00  0.00    -0.000 C 
BRANCH  14  15
ATOM     15  C   UNL     1      37.233  -4.718 -16.890  1.00  0.00    -0.000 C 
BRANCH  15  16
ATOM     16  C   UNL     1      36.691  -3.541 -17.717  1.00  0.00    -0.003 C 
ATOM     17  C   UNL     1      37.565  -3.215 -18.928  1.00  0.00     0.004 C 
ENDBRANCH  15  16
ENDBRANCH  14  15
ENDBRANCH  13  14
ENDBRANCH  12  13
ENDBRANCH  11  12
ENDBRANCH  10  11
ENDBRANCH   1  10
TORSDOF 13
ENDMDL
MODEL 5
REMARK VINA RESULT:    -4.099      2.898      6.607
REMARK INTER + INTRA:          -8.144
REMARK INTER:                  -7.268
REMARK INTRA:                  -0.877
REMARK UNBOUND:                -0.930
REMARK SMILES CCCCCCCCCCCCCCC(=O)[O-]
REMARK SMILES IDX 9 1 10 2 11 3 12 4 13 5 14 6 15 7 16 8 17 9 8 10 7 11 6 12
REMARK SMILES IDX 5 13 4 14 3 15 2 16 1 17
REMARK H PARENT
REMARK Flexibility Score: inf
ROOT
ATOM      1  C   UNL     1      30.753  -5.012 -15.369  1.00  0.00     0.000 C 
ENDROOT
BRANCH   1   2
ATOM      2  C   UNL     1      29.582  -5.854 -14.838  1.00  0.00     0.000 C 
BRANCH   2   3
ATOM      3  C   UNL     1      29.792  -7.342 -15.143  1.00  0.00     0.000 C 
BRANCH   3   4
ATOM      4  C   UNL     1      29.793  -8.174 -13.851  1.00  0.00     0.000 C 
BRANCH   4   5
ATOM      5  C   UNL     1      30.100  -7.328 -12.604  1.00  0.00     0.006 C 
BRANCH   5   6
ATOM      6  C   UNL     1      31.604  -7.205 -12.329  1.00  0.00     0.053 C 
BRANCH   6   7
ATOM      7  C   UNL     1      31.879  -6.022 -11.456  1.00  0.00     0.041 C 
ATOM      8  O   UNL     1      31.268  -4.937 -11.647  1.00  0.00    -0.550 OA
ATOM      9  O   UNL     1      32.774  -6.130 -10.400  1.00  0.00    -0.550 OA
ENDBRANCH   6   7
ENDBRANCH   5   6
ENDBRANCH   4   5
ENDBRANCH   3   4
ENDBRANCH   2   3
ENDBRANCH   1   2
BRANCH   1  10
ATOM     10  C   UNL     1      31.861  -5.869 -16.000  1.00  0.00     0.000 C 
BRANCH  10  11
ATOM     11  C   UNL     1      32.685  -5.098 -17.043  1.00  0.00    -0.000 C 
BRANCH  11  12
ATOM     12  C   UNL     1      34.170  -5.471 -16.955  1.00  0.00    -0.000 C 
BRANCH  12  13
ATOM     13  C   UNL     1      34.750  -5.751 -18.349  1.00  0.00    -0.000 C 
BRANCH  13  14
ATOM     14  C   UNL     1      36.236  -5.376 -18.462  1.00  0.00    -0.000 C 
BRANCH  14  15
ATOM     15  C   UNL     1      36.697  -4.441 -17.330  1.00  0.00    -0.000 C 
BRANCH  15  16
ATOM     16  C   UNL     1      37.506  -5.178 -16.251  1.00  0.00    -0.003 C 
ATOM     17  C   UNL     1      37.836  -6.620 -16.638  1.00  0.00     0.004 C 
ENDBRANCH  15  16
ENDBRANCH  14  15
ENDBRANCH  13  14
ENDBRANCH  12  13
ENDBRANCH  11  12
ENDBRANCH  10  11
ENDBRANCH   1  10
TORSDOF 13
ENDMDL
MODEL 6
REMARK VINA RESULT:    -4.092      0.850      1.567
REMARK INTER + INTRA:          -8.131
REMARK INTER:                  -7.300
REMARK INTRA:                  -0.831
REMARK UNBOUND:                -0.930
REMARK SMILES CCCCCCCCCCCCCCC(=O)[O-]
REMARK SMILES IDX 9 1 10 2 11 3 12 4 13 5 14 6 15 7 16 8 17 9 8 10 7 11 6 12
REMARK SMILES IDX 5 13 4 14 3 15 2 16 1 17
REMARK H PARENT
REMARK Flexibility Score: inf
ROOT
ATOM      1  C   UNL     1      31.288  -5.441 -15.760  1.00  0.00     0.000 C 
ENDROOT
BRANCH   1   2
ATOM      2  C   UNL     1      32.259  -4.912 -16.827  1.00  0.00     0.000 C 
BRANCH   2   3
ATOM      3  C   UNL     1      33.642  -5.556 -16.679  1.00  0.00     0.000 C 
BRANCH   3   4
ATOM      4  C   UNL     1      34.435  -5.464 -17.991  1.00  0.00     0.000 C 
BRANCH   4   5
ATOM      5  C   UNL     1      35.670  -4.555 -17.873  1.00  0.00     0.006 C 
BRANCH   5   6
ATOM      6  C   UNL     1      36.988  -5.328 -18.014  1.00  0.00     0.053 C 
BRANCH   6   7
ATOM      7  C   UNL     1      37.443  -5.828 -16.679  1.00  0.00     0.041 C 
ATOM      8  O   UNL     1      38.207  -6.826 -16.603  1.00  0.00    -0.550 OA
ATOM      9  O   UNL     1      37.064  -5.162 -15.521  1.00  0.00    -0.550 OA
ENDBRANCH   6   7
ENDBRANCH   5   6
ENDBRANCH   4   5
ENDBRANCH   3   4
ENDBRANCH   2   3
ENDBRANCH   1   2
BRANCH   1  10
ATOM     10  C   UNL     1      30.740  -6.836 -16.096  1.00  0.00     0.000 C 
BRANCH  10  11
ATOM     11  C   UNL     1      29.449  -7.166 -15.331  1.00  0.00    -0.000 C 
BRANCH  11  12
ATOM     12  C   UNL     1      29.721  -8.161 -14.196  1.00  0.00    -0.000 C 
BRANCH  12  13
ATOM     13  C   UNL     1      29.372  -7.548 -12.832  1.00  0.00    -0.000 C 
BRANCH  13  14
ATOM     14  C   UNL     1      29.258  -6.017 -12.879  1.00  0.00    -0.000 C 
BRANCH  14  15
ATOM     15  C   UNL     1      30.552  -5.313 -12.434  1.00  0.00    -0.000 C 
BRANCH  15  16
ATOM     16  C   UNL     1      31.705  -6.301 -12.191  1.00  0.00    -0.003 C 
ATOM     17  C   UNL     1      32.389  -6.094 -10.840  1.00  0.00     0.004 C 
ENDBRANCH  15  16
ENDBRANCH  14  15
ENDBRANCH  13  14
ENDBRANCH  12  13
ENDBRANCH  11  12
ENDBRANCH  10  11
ENDBRANCH   1  10
TORSDOF 13
ENDMDL
MODEL 7
REMARK VINA RESULT:    -3.776      3.290      6.785
REMARK INTER + INTRA:          -7.576
REMARK INTER:                  -7.136
REMARK INTRA:                  -0.440
REMARK UNBOUND:                -0.930
REMARK SMILES CCCCCCCCCCCCCCC(=O)[O-]
REMARK SMILES IDX 9 1 10 2 11 3 12 4 13 5 14 6 15 7 16 8 17 9 8 10 7 11 6 12
REMARK SMILES IDX 5 13 4 14 3 15 2 16 1 17
REMARK H PARENT
REMARK Flexibility Score: inf
ROOT
ATOM      1  C   UNL     1      30.402  -4.865 -14.863  1.00  0.00     0.000 C 
ENDROOT
BRANCH   1   2
ATOM      2  C   UNL     1      30.029  -5.200 -13.411  1.00  0.00     0.000 C 
BRANCH   2   3
ATOM      3  C   UNL     1      28.971  -6.309 -13.357  1.00  0.00     0.000 C 
BRANCH   3   4
ATOM      4  C   UNL     1      29.612  -7.665 -13.025  1.00  0.00     0.000 C 
BRANCH   4   5
ATOM      5  C   UNL     1      29.840  -8.532 -14.274  1.00  0.00     0.006 C 
BRANCH   5   6
ATOM      6  C   UNL     1      29.220  -7.923 -15.538  1.00  0.00     0.053 C 
BRANCH   6   7
ATOM      7  C   UNL     1      29.371  -8.859 -16.695  1.00  0.00     0.041 C 
ATOM      8  O   UNL     1      28.447  -8.972 -17.544  1.00  0.00    -0.550 OA
ATOM      9  O   UNL     1      30.551  -9.570 -16.865  1.00  0.00    -0.550 OA
ENDBRANCH   6   7
ENDBRANCH   5   6
ENDBRANCH   4   5
ENDBRANCH   3   4
ENDBRANCH   2   3
ENDBRANCH   1   2
BRANCH   1  10
ATOM     10  C   UNL     1      31.609  -5.672 -15.366  1.00  0.00     0.000 C 
BRANCH  10  11
ATOM     11  C   UNL     1      32.241  -5.067 -16.629  1.00  0.00    -0.000 C 
BRANCH  11  12
ATOM     12  C   UNL     1      33.634  -5.656 -16.883  1.00  0.00    -0.000 C 
BRANCH  12  13
ATOM     13  C   UNL     1      34.259  -5.062 -18.154  1.00  0.00    -0.000 C 
BRANCH  13  14
ATOM     14  C   UNL     1      35.741  -5.433 -18.319  1.00  0.00    -0.000 C 
BRANCH  14  15
ATOM     15  C   UNL     1      36.681  -4.434 -17.622  1.00  0.00    -0.000 C 
BRANCH  15  16
ATOM     16  C   UNL     1      37.490  -5.082 -16.487  1.00  0.00    -0.003 C 
ATOM     17  C   UNL     1      37.527  -6.607 -16.580  1.00  0.00     0.004 C 
ENDBRANCH  15  16
ENDBRANCH  14  15
ENDBRANCH  13  14
ENDBRANCH  12  13
ENDBRANCH  11  12
ENDBRANCH  10  11
ENDBRANCH   1  10
TORSDOF 13
ENDMDL
MODEL 8
REMARK VINA RESULT:    -3.730      1.357      3.164
REMARK INTER + INTRA:          -7.495
REMARK INTER:                  -6.702
REMARK INTRA:                  -0.792
REMARK UNBOUND:                -0.930
REMARK SMILES CCCCCCCCCCCCCCC(=O)[O-]
REMARK SMILES IDX 9 1 10 2 11 3 12 4 13 5 14 6 15 7 16 8 17 9 8 10 7 11 6 12
REMARK SMILES IDX 5 13 4 14 3 15 2 16 1 17
REMARK H PARENT
REMARK Flexibility Score: inf
ROOT
ATOM      1  C   UNL     1      31.417  -5.661 -15.403  1.00  0.00     0.000 C 
ENDROOT
BRANCH   1   2
ATOM      2  C   UNL     1      32.141  -5.023 -16.598  1.00  0.00     0.000 C 
BRANCH   2   3
ATOM      3  C   UNL     1      33.533  -5.637 -16.791  1.00  0.00     0.000 C 
BRANCH   3   4
ATOM      4  C   UNL     1      34.263  -4.984 -17.974  1.00  0.00     0.000 C 
BRANCH   4   5
ATOM      5  C   UNL     1      35.534  -5.750 -18.379  1.00  0.00     0.006 C 
BRANCH   5   6
ATOM      6  C   UNL     1      36.819  -5.037 -17.938  1.00  0.00     0.053 C 
BRANCH   6   7
ATOM      7  C   UNL     1      37.257  -5.535 -16.598  1.00  0.00     0.041 C 
ATOM      8  O   UNL     1      36.840  -4.980 -15.547  1.00  0.00    -0.550 OA
ATOM      9  O   UNL     1      38.088  -6.645 -16.505  1.00  0.00    -0.550 OA
ENDBRANCH   6   7
ENDBRANCH   5   6
ENDBRANCH   4   5
ENDBRANCH   3   4
ENDBRANCH   2   3
ENDBRANCH   1   2
BRANCH   1  10
ATOM     10  C   UNL     1      30.335  -4.748 -14.808  1.00  0.00     0.000 C 
BRANCH  10  11
ATOM     11  C   UNL     1      30.072  -5.031 -13.321  1.00  0.00    -0.000 C 
BRANCH  11  12
ATOM     12  C   UNL     1      31.192  -5.887 -12.718  1.00  0.00    -0.000 C 
BRANCH  12  13
ATOM     13  C   UNL     1      30.706  -7.318 -12.446  1.00  0.00    -0.000 C 
BRANCH  13  14
ATOM     14  C   UNL     1      29.445  -7.681 -13.246  1.00  0.00    -0.000 C 
BRANCH  14  15
ATOM     15  C   UNL     1      29.693  -8.817 -14.255  1.00  0.00    -0.000 C 
BRANCH  15  16
ATOM     16  C   UNL     1      29.570  -8.346 -15.713  1.00  0.00    -0.003 C 
ATOM     17  C   UNL     1      30.325  -9.245 -16.692  1.00  0.00     0.004 C 
ENDBRANCH  15  16
ENDBRANCH  14  15
ENDBRANCH  13  14
ENDBRANCH  12  13
ENDBRANCH  11  12
ENDBRANCH  10  11
ENDBRANCH   1  10
TORSDOF 13
ENDMDL
MODEL 9
REMARK VINA RESULT:    -3.293      1.742      3.801
REMARK INTER + INTRA:          -6.725
REMARK INTER:                  -5.924
REMARK INTRA:                  -0.801
REMARK UNBOUND:                -0.930
REMARK SMILES CCCCCCCCCCCCCCC(=O)[O-]
REMARK SMILES IDX 9 1 10 2 11 3 12 4 13 5 14 6 15 7 16 8 17 9 8 10 7 11 6 12
REMARK SMILES IDX 5 13 4 14 3 15 2 16 1 17
REMARK H PARENT
REMARK Flexibility Score: inf
ROOT
ATOM      1  C   UNL     1      31.461  -5.866 -15.324  1.00  0.00     0.000 C 
ENDROOT
BRANCH   1   2
ATOM      2  C   UNL     1      32.101  -5.091 -16.486  1.00  0.00     0.000 C 
BRANCH   2   3
ATOM      3  C   UNL     1      33.568  -5.493 -16.673  1.00  0.00     0.000 C 
BRANCH   3   4
ATOM      4  C   UNL     1      34.064  -5.127 -18.081  1.00  0.00     0.000 C 
BRANCH   4   5
ATOM      5  C   UNL     1      35.384  -5.827 -18.443  1.00  0.00     0.006 C 
BRANCH   5   6
ATOM      6  C   UNL     1      36.617  -5.022 -18.011  1.00  0.00     0.053 C 
BRANCH   6   7
ATOM      7  C   UNL     1      37.213  -5.607 -16.771  1.00  0.00     0.041 C 
ATOM      8  O   UNL     1      38.049  -6.546 -16.850  1.00  0.00    -0.550 OA
ATOM      9  O   UNL     1      36.884  -5.084 -15.527  1.00  0.00    -0.550 OA
ENDBRANCH   6   7
ENDBRANCH   5   6
ENDBRANCH   4   5
ENDBRANCH   3   4
ENDBRANCH   2   3
ENDBRANCH   1   2
BRANCH   1  10
ATOM     10  C   UNL     1      30.320  -5.090 -14.649  1.00  0.00     0.000 C 
BRANCH  10  11
ATOM     11  C   UNL     1      29.798  -5.786 -13.383  1.00  0.00    -0.000 C 
BRANCH  11  12
ATOM     12  C   UNL     1      30.220  -7.260 -13.353  1.00  0.00    -0.000 C 
BRANCH  12  13
ATOM     13  C   UNL     1      29.293  -8.116 -14.230  1.00  0.00    -0.000 C 
BRANCH  13  14
ATOM     14  C   UNL     1      30.036  -9.255 -14.945  1.00  0.00    -0.000 C 
BRANCH  14  15
ATOM     15  C   UNL     1      30.033  -9.093 -16.475  1.00  0.00    -0.000 C 
BRANCH  15  16
ATOM     16  C   UNL     1      28.705  -8.528 -17.004  1.00  0.00    -0.003 C 
ATOM     17  C   UNL     1      28.215  -9.244 -18.263  1.00  0.00     0.004 C 
ENDBRANCH  15  16
ENDBRANCH  14  15
ENDBRANCH  13  14
ENDBRANCH  12  13
ENDBRANCH  11  12
ENDBRANCH  10  11
ENDBRANCH   1  10
TORSDOF 13
ENDMDL
