MODEL 1
REMARK VINA RESULT:    -4.232      0.000      0.000
REMARK INTER + INTRA:          -4.658
REMARK INTER:                  -4.480
REMARK INTRA:                  -0.178
REMARK UNBOUND:                -0.178
REMARK SMILES CC1=CCC(C(C)C)=CC1
REMARK SMILES IDX 1 1 2 2 3 3 4 4 5 5 9 6 10 7 6 8 7 9 8 10
REMARK H PARENT
REMARK Flexibility Score: inf
ROOT
ATOM      1  C   UNL     1     140.871 145.053 133.252  1.00  0.00     0.039 C 
ATOM      2  C   UNL     1     142.135 144.304 133.572  1.00  0.00    -0.073 C 
ATOM      3  C   UNL     1     142.400 143.943 134.842  1.00  0.00    -0.023 C 
ATOM      4  C   UNL     1     143.683 143.227 135.185  1.00  0.00     0.058 C 
ATOM      5  C   UNL     1     144.133 142.325 134.048  1.00  0.00    -0.068 C 
ATOM      6  C   UNL     1     143.861 142.692 132.776  1.00  0.00    -0.023 C 
ATOM      7  C   UNL     1     143.132 143.979 132.479  1.00  0.00     0.057 C 
ENDROOT
BRANCH   5   8
ATOM      8  C   UNL     1     144.856 141.017 134.327  1.00  0.00     0.009 C 
ATOM      9  C   UNL     1     144.508 139.968 133.265  1.00  0.00     0.012 C 
ATOM     10  C   UNL     1     144.544 140.499 135.736  1.00  0.00     0.012 C 
ENDBRANCH   5   8
TORSDOF 1
ENDMDL
MODEL 2
REMARK VINA RESULT:    -4.232      5.395      6.937
REMARK INTER + INTRA:          -4.657
REMARK INTER:                  -4.483
REMARK INTRA:                  -0.174
REMARK UNBOUND:                -0.178
REMARK SMILES CC1=CCC(C(C)C)=CC1
REMARK SMILES IDX 1 1 2 2 3 3 4 4 5 5 9 6 10 7 6 8 7 9 8 10
REMARK H PARENT
REMARK Flexibility Score: inf
ROOT
ATOM      1  C   UNL     1     141.201 137.190 133.239  1.00  0.00     0.039 C 
ATOM      2  C   UNL     1     139.964 137.963 133.601  1.00  0.00    -0.073 C 
ATOM      3  C   UNL     1     139.727 138.291 134.885  1.00  0.00    -0.023 C 
ATOM      4  C   UNL     1     138.469 139.031 135.269  1.00  0.00     0.058 C 
ATOM      5  C   UNL     1     138.030 139.981 134.167  1.00  0.00    -0.068 C 
ATOM      6  C   UNL     1     138.274 139.648 132.881  1.00  0.00    -0.023 C 
ATOM      7  C   UNL     1     138.962 138.351 132.533  1.00  0.00     0.057 C 
ENDROOT
BRANCH   5   8
ATOM      8  C   UNL     1     137.348 141.300 134.498  1.00  0.00     0.009 C 
ATOM      9  C   UNL     1     138.001 142.455 133.731  1.00  0.00     0.012 C 
ATOM     10  C   UNL     1     137.355 141.566 136.008  1.00  0.00     0.012 C 
ENDBRANCH   5   8
TORSDOF 1
ENDMDL
MODEL 3
REMARK VINA RESULT:    -4.225      3.079      4.867
REMARK INTER + INTRA:          -4.650
REMARK INTER:                  -4.477
REMARK INTRA:                  -0.173
REMARK UNBOUND:                -0.178
REMARK SMILES CC1=CCC(C(C)C)=CC1
REMARK SMILES IDX 1 1 2 2 3 3 4 4 5 5 9 6 10 7 6 8 7 9 8 10
REMARK H PARENT
REMARK Flexibility Score: inf
ROOT
ATOM      1  C   UNL     1     137.191 140.960 133.228  1.00  0.00     0.039 C 
ATOM      2  C   UNL     1     137.946 142.199 133.621  1.00  0.00    -0.073 C 
ATOM      3  C   UNL     1     138.262 142.414 134.912  1.00  0.00    -0.023 C 
ATOM      4  C   UNL     1     138.985 143.672 135.327  1.00  0.00     0.058 C 
ATOM      5  C   UNL     1     139.936 144.145 134.241  1.00  0.00    -0.068 C 
ATOM      6  C   UNL     1     139.615 143.924 132.948  1.00  0.00    -0.023 C 
ATOM      7  C   UNL     1     138.329 143.228 132.577  1.00  0.00     0.057 C 
ENDROOT
BRANCH   5   8
ATOM      8  C   UNL     1     141.244 144.836 134.596  1.00  0.00     0.009 C 
ATOM      9  C   UNL     1     142.421 144.170 133.874  1.00  0.00     0.012 C 
ATOM     10  C   UNL     1     141.469 144.858 136.112  1.00  0.00     0.012 C 
ENDBRANCH   5   8
TORSDOF 1
ENDMDL
MODEL 4
REMARK VINA RESULT:    -4.223      3.083      4.834
REMARK INTER + INTRA:          -4.648
REMARK INTER:                  -4.471
REMARK INTRA:                  -0.177
REMARK UNBOUND:                -0.178
REMARK SMILES CC1=CCC(C(C)C)=CC1
REMARK SMILES IDX 1 1 2 2 3 3 4 4 5 5 9 6 10 7 6 8 7 9 8 10
REMARK H PARENT
REMARK Flexibility Score: inf
ROOT
ATOM      1  C   UNL     1     144.931 141.476 133.183  1.00  0.00     0.039 C 
ATOM      2  C   UNL     1     144.246 140.181 133.515  1.00  0.00    -0.073 C 
ATOM      3  C   UNL     1     143.883 139.918 134.785  1.00  0.00    -0.023 C 
ATOM      4  C   UNL     1     143.230 138.605 135.141  1.00  0.00     0.058 C 
ATOM      5  C   UNL     1     142.368 138.090 134.000  1.00  0.00    -0.068 C 
ATOM      6  C   UNL     1     142.736 138.360 132.729  1.00  0.00    -0.023 C 
ATOM      7  C   UNL     1     143.987 139.150 132.435  1.00  0.00     0.057 C 
ENDROOT
BRANCH   5   8
ATOM      8  C   UNL     1     141.095 137.305 134.277  1.00  0.00     0.009 C 
ATOM      9  C   UNL     1     140.008 137.656 133.255  1.00  0.00     0.012 C 
ATOM     10  C   UNL     1     140.600 137.533 135.709  1.00  0.00     0.012 C 
ENDBRANCH   5   8
TORSDOF 1
ENDMDL
MODEL 5
REMARK VINA RESULT:    -4.142      5.573      6.193
REMARK INTER + INTRA:          -4.562
REMARK INTER:                  -4.415
REMARK INTRA:                  -0.147
REMARK UNBOUND:                -0.178
REMARK SMILES CC1=CCC(C(C)C)=CC1
REMARK SMILES IDX 1 1 2 2 3 3 4 4 5 5 9 6 10 7 6 8 7 9 8 10
REMARK H PARENT
REMARK Flexibility Score: inf
ROOT
ATOM      1  C   UNL     1     137.257 138.724 131.456  1.00  0.00     0.039 C 
ATOM      2  C   UNL     1     138.344 138.736 132.494  1.00  0.00    -0.073 C 
ATOM      3  C   UNL     1     138.130 139.326 133.686  1.00  0.00    -0.023 C 
ATOM      4  C   UNL     1     139.226 139.381 134.722  1.00  0.00     0.058 C 
ATOM      5  C   UNL     1     140.116 138.152 134.651  1.00  0.00    -0.068 C 
ATOM      6  C   UNL     1     140.323 137.563 133.453  1.00  0.00    -0.023 C 
ATOM      7  C   UNL     1     139.694 138.116 132.198  1.00  0.00     0.057 C 
ENDROOT
BRANCH   5   8
ATOM      8  C   UNL     1     140.747 137.571 135.907  1.00  0.00     0.009 C 
ATOM      9  C   UNL     1     139.751 137.590 137.073  1.00  0.00     0.012 C 
ATOM     10  C   UNL     1     142.038 138.310 136.274  1.00  0.00     0.012 C 
ENDBRANCH   5   8
TORSDOF 1
ENDMDL
MODEL 6
REMARK VINA RESULT:    -4.106      0.901      4.551
REMARK INTER + INTRA:          -4.524
REMARK INTER:                  -4.345
REMARK INTRA:                  -0.179
REMARK UNBOUND:                -0.178
REMARK SMILES CC1=CCC(C(C)C)=CC1
REMARK SMILES IDX 1 1 2 2 3 3 4 4 5 5 9 6 10 7 6 8 7 9 8 10
REMARK H PARENT
REMARK Flexibility Score: inf
ROOT
ATOM      1  C   UNL     1     145.073 140.913 133.646  1.00  0.00     0.039 C 
ATOM      2  C   UNL     1     144.212 142.142 133.555  1.00  0.00    -0.073 C 
ATOM      3  C   UNL     1     143.816 142.599 132.352  1.00  0.00    -0.023 C 
ATOM      4  C   UNL     1     142.985 143.853 132.242  1.00  0.00     0.058 C 
ATOM      5  C   UNL     1     142.057 144.006 133.437  1.00  0.00    -0.068 C 
ATOM      6  C   UNL     1     142.459 143.542 134.640  1.00  0.00    -0.023 C 
ATOM      7  C   UNL     1     143.809 142.891 134.809  1.00  0.00     0.057 C 
ENDROOT
BRANCH   5   8
ATOM      8  C   UNL     1     140.687 144.647 133.283  1.00  0.00     0.009 C 
ATOM      9  C   UNL     1     139.713 144.102 134.334  1.00  0.00     0.012 C 
ATOM     10  C   UNL     1     140.136 144.452 131.866  1.00  0.00     0.012 C 
ENDBRANCH   5   8
TORSDOF 1
ENDMDL
MODEL 7
REMARK VINA RESULT:    -4.102      3.919      5.427
REMARK INTER + INTRA:          -4.519
REMARK INTER:                  -4.341
REMARK INTRA:                  -0.178
REMARK UNBOUND:                -0.178
REMARK SMILES CC1=CCC(C(C)C)=CC1
REMARK SMILES IDX 1 1 2 2 3 3 4 4 5 5 9 6 10 7 6 8 7 9 8 10
REMARK H PARENT
REMARK Flexibility Score: inf
ROOT
ATOM      1  C   UNL     1     141.348 145.077 133.624  1.00  0.00     0.039 C 
ATOM      2  C   UNL     1     140.114 144.219 133.621  1.00  0.00    -0.073 C 
ATOM      3  C   UNL     1     139.598 143.788 132.454  1.00  0.00    -0.023 C 
ATOM      4  C   UNL     1     138.337 142.959 132.432  1.00  0.00     0.058 C 
ATOM      5  C   UNL     1     138.238 142.071 133.661  1.00  0.00    -0.068 C 
ATOM      6  C   UNL     1     138.761 142.509 134.828  1.00  0.00    -0.023 C 
ATOM      7  C   UNL     1     139.425 143.860 134.921  1.00  0.00     0.057 C 
ENDROOT
BRANCH   5   8
ATOM      8  C   UNL     1     137.585 140.700 133.584  1.00  0.00     0.009 C 
ATOM      9  C   UNL     1     138.236 139.733 134.579  1.00  0.00     0.012 C 
ATOM     10  C   UNL     1     137.635 140.140 132.158  1.00  0.00     0.012 C 
ENDBRANCH   5   8
TORSDOF 1
ENDMDL
MODEL 8
REMARK VINA RESULT:    -4.098      5.005      5.774
REMARK INTER + INTRA:          -4.515
REMARK INTER:                  -4.337
REMARK INTRA:                  -0.178
REMARK UNBOUND:                -0.178
REMARK SMILES CC1=CCC(C(C)C)=CC1
REMARK SMILES IDX 1 1 2 2 3 3 4 4 5 5 9 6 10 7 6 8 7 9 8 10
REMARK H PARENT
REMARK Flexibility Score: inf
ROOT
ATOM      1  C   UNL     1     137.124 141.327 133.626  1.00  0.00     0.039 C 
ATOM      2  C   UNL     1     137.989 140.097 133.621  1.00  0.00    -0.073 C 
ATOM      3  C   UNL     1     138.410 139.576 132.453  1.00  0.00    -0.023 C 
ATOM      4  C   UNL     1     139.245 138.319 132.430  1.00  0.00     0.058 C 
ATOM      5  C   UNL     1     140.148 138.234 133.649  1.00  0.00    -0.068 C 
ATOM      6  C   UNL     1     139.721 138.763 134.817  1.00  0.00    -0.023 C 
ATOM      7  C   UNL     1     138.367 139.419 134.922  1.00  0.00     0.057 C 
ENDROOT
BRANCH   5   8
ATOM      8  C   UNL     1     141.522 137.589 133.560  1.00  0.00     0.009 C 
ATOM      9  C   UNL     1     142.498 138.255 134.537  1.00  0.00     0.012 C 
ATOM     10  C   UNL     1     142.064 137.630 132.127  1.00  0.00     0.012 C 
ENDBRANCH   5   8
TORSDOF 1
ENDMDL
MODEL 9
REMARK VINA RESULT:    -4.078      2.248      4.898
REMARK INTER + INTRA:          -4.494
REMARK INTER:                  -4.317
REMARK INTRA:                  -0.178
REMARK UNBOUND:                -0.178
REMARK SMILES CC1=CCC(C(C)C)=CC1
REMARK SMILES IDX 1 1 2 2 3 3 4 4 5 5 9 6 10 7 6 8 7 9 8 10
REMARK H PARENT
REMARK Flexibility Score: inf
ROOT
ATOM      1  C   UNL     1     140.968 137.172 133.590  1.00  0.00     0.039 C 
ATOM      2  C   UNL     1     142.192 138.045 133.568  1.00  0.00    -0.073 C 
ATOM      3  C   UNL     1     142.664 138.513 132.396  1.00  0.00    -0.023 C 
ATOM      4  C   UNL     1     143.914 139.357 132.354  1.00  0.00     0.058 C 
ATOM      5  C   UNL     1     144.043 140.214 133.602  1.00  0.00    -0.068 C 
ATOM      6  C   UNL     1     143.565 139.740 134.773  1.00  0.00    -0.023 C 
ATOM      7  C   UNL     1     142.920 138.379 134.853  1.00  0.00     0.057 C 
ENDROOT
BRANCH   5   8
ATOM      8  C   UNL     1     144.677 141.595 133.538  1.00  0.00     0.009 C 
ATOM      9  C   UNL     1     143.973 142.560 134.499  1.00  0.00     0.012 C 
ATOM     10  C   UNL     1     144.675 142.143 132.107  1.00  0.00     0.012 C 
ENDBRANCH   5   8
TORSDOF 1
ENDMDL
