MODEL 1
REMARK VINA RESULT:    -5.057      0.000      0.000
REMARK INTER + INTRA:          -5.536
REMARK INTER:                  -5.501
REMARK INTRA:                  -0.035
REMARK UNBOUND:                -0.035
REMARK SMILES O=C([O-])c1ccc(O)cc1
REMARK SMILES IDX 7 1 6 2 9 3 5 4 10 5 4 6 8 7 2 9 1 10 3 11
REMARK H PARENT 8 8
REMARK Flexibility Score: inf
ROOT
ATOM      1  C   UNL     1     -32.857  10.712 -38.827  1.00  0.00     0.115 A 
ATOM      2  C   UNL     1     -32.284   9.901 -37.838  1.00  0.00     0.047 A 
ATOM      3  C   UNL     1     -33.482  11.908 -38.465  1.00  0.00     0.047 A 
ATOM      4  C   UNL     1     -32.340  10.285 -36.495  1.00  0.00     0.014 A 
ATOM      5  C   UNL     1     -33.538  12.297 -37.123  1.00  0.00     0.014 A 
ATOM      6  C   UNL     1     -32.967  11.488 -36.123  1.00  0.00    -0.003 A 
ENDROOT
BRANCH   1   7
ATOM      7  O   UNL     1     -32.808  10.339 -40.168  1.00  0.00    -0.508 OA
ATOM      8  H   UNL     1     -32.772   9.365 -40.446  1.00  0.00     0.293 HD
ENDBRANCH   1   7
BRANCH   6   9
ATOM      9  C   UNL     1     -33.023  11.893 -34.701  1.00  0.00     0.071 C 
ATOM     10  O   UNL     1     -33.854  12.756 -34.314  1.00  0.00    -0.545 OA
ATOM     11  O   UNL     1     -32.159  11.325 -33.772  1.00  0.00    -0.545 OA
ENDBRANCH   6   9
TORSDOF 2
ENDMDL
MODEL 2
REMARK VINA RESULT:    -5.045      0.076      1.533
REMARK INTER + INTRA:          -5.522
REMARK INTER:                  -5.487
REMARK INTRA:                  -0.035
REMARK UNBOUND:                -0.035
REMARK SMILES O=C([O-])c1ccc(O)cc1
REMARK SMILES IDX 7 1 6 2 9 3 5 4 10 5 4 6 8 7 2 9 1 10 3 11
REMARK H PARENT 8 8
REMARK Flexibility Score: inf
ROOT
ATOM      1  C   UNL     1     -32.858  10.739 -38.870  1.00  0.00     0.115 A 
ATOM      2  C   UNL     1     -33.522  11.914 -38.492  1.00  0.00     0.047 A 
ATOM      3  C   UNL     1     -32.271   9.931 -37.894  1.00  0.00     0.047 A 
ATOM      4  C   UNL     1     -33.596  12.277 -37.143  1.00  0.00     0.014 A 
ATOM      5  C   UNL     1     -32.342  10.290 -36.543  1.00  0.00     0.014 A 
ATOM      6  C   UNL     1     -33.007  11.468 -36.155  1.00  0.00    -0.003 A 
ENDROOT
BRANCH   1   7
ATOM      7  O   UNL     1     -32.778  10.368 -40.210  1.00  0.00    -0.508 OA
ATOM      8  H   UNL     1     -32.883   9.403 -40.500  1.00  0.00     0.293 HD
ENDBRANCH   1   7
BRANCH   6   9
ATOM      9  C   UNL     1     -33.087  11.853 -34.729  1.00  0.00     0.071 C 
ATOM     10  O   UNL     1     -33.977  12.650 -34.329  1.00  0.00    -0.545 OA
ATOM     11  O   UNL     1     -32.180  11.341 -33.808  1.00  0.00    -0.545 OA
ENDBRANCH   6   9
TORSDOF 2
ENDMDL
MODEL 3
REMARK VINA RESULT:    -4.957      1.305      4.257
REMARK INTER + INTRA:          -5.426
REMARK INTER:                  -5.391
REMARK INTRA:                  -0.036
REMARK UNBOUND:                -0.035
REMARK SMILES O=C([O-])c1ccc(O)cc1
REMARK SMILES IDX 7 1 6 2 9 3 5 4 10 5 4 6 8 7 2 9 1 10 3 11
REMARK H PARENT 8 8
REMARK Flexibility Score: inf
ROOT
ATOM      1  C   UNL     1     -32.846  10.610 -34.929  1.00  0.00     0.115 A 
ATOM      2  C   UNL     1     -33.149  11.930 -35.290  1.00  0.00     0.047 A 
ATOM      3  C   UNL     1     -32.869   9.605 -35.899  1.00  0.00     0.047 A 
ATOM      4  C   UNL     1     -33.474  12.240 -36.614  1.00  0.00     0.014 A 
ATOM      5  C   UNL     1     -33.192   9.911 -37.225  1.00  0.00     0.014 A 
ATOM      6  C   UNL     1     -33.498  11.233 -37.596  1.00  0.00    -0.003 A 
ENDROOT
BRANCH   1   7
ATOM      7  O   UNL     1     -32.522  10.290 -33.613  1.00  0.00    -0.508 OA
ATOM      8  H   UNL     1     -33.142  10.519 -32.844  1.00  0.00     0.293 HD
ENDBRANCH   1   7
BRANCH   6   9
ATOM      9  C   UNL     1     -33.841  11.564 -38.997  1.00  0.00     0.071 C 
ATOM     10  O   UNL     1     -34.301  12.699 -39.293  1.00  0.00    -0.545 OA
ATOM     11  O   UNL     1     -33.659  10.627 -40.007  1.00  0.00    -0.545 OA
ENDBRANCH   6   9
TORSDOF 2
ENDMDL
MODEL 4
REMARK VINA RESULT:    -4.925      1.286      4.118
REMARK INTER + INTRA:          -5.391
REMARK INTER:                  -5.356
REMARK INTRA:                  -0.036
REMARK UNBOUND:                -0.035
REMARK SMILES O=C([O-])c1ccc(O)cc1
REMARK SMILES IDX 7 1 6 2 9 3 5 4 10 5 4 6 8 7 2 9 1 10 3 11
REMARK H PARENT 8 8
REMARK Flexibility Score: inf
ROOT
ATOM      1  C   UNL     1     -32.805  10.646 -34.960  1.00  0.00     0.115 A 
ATOM      2  C   UNL     1     -32.695   9.656 -35.946  1.00  0.00     0.047 A 
ATOM      3  C   UNL     1     -33.244  11.925 -35.310  1.00  0.00     0.047 A 
ATOM      4  C   UNL     1     -33.022   9.948 -37.274  1.00  0.00     0.014 A 
ATOM      5  C   UNL     1     -33.573  12.221 -36.637  1.00  0.00     0.014 A 
ATOM      6  C   UNL     1     -33.465  11.233 -37.633  1.00  0.00    -0.003 A 
ENDROOT
BRANCH   1   7
ATOM      7  O   UNL     1     -32.482  10.367 -33.635  1.00  0.00    -0.508 OA
ATOM      8  H   UNL     1     -31.840  10.952 -33.112  1.00  0.00     0.293 HD
ENDBRANCH   1   7
BRANCH   6   9
ATOM      9  C   UNL     1     -33.811  11.539 -39.039  1.00  0.00     0.071 C 
ATOM     10  O   UNL     1     -33.634  10.680 -39.944  1.00  0.00    -0.545 OA
ATOM     11  O   UNL     1     -34.338  12.779 -39.382  1.00  0.00    -0.545 OA
ENDBRANCH   6   9
TORSDOF 2
ENDMDL
MODEL 5
REMARK VINA RESULT:    -4.888      1.373      4.262
REMARK INTER + INTRA:          -5.351
REMARK INTER:                  -5.324
REMARK INTRA:                  -0.027
REMARK UNBOUND:                -0.035
REMARK SMILES O=C([O-])c1ccc(O)cc1
REMARK SMILES IDX 7 1 6 2 9 3 5 4 10 5 4 6 8 7 2 9 1 10 3 11
REMARK H PARENT 8 8
REMARK Flexibility Score: inf
ROOT
ATOM      1  C   UNL     1     -34.010  11.586 -35.121  1.00  0.00     0.115 A 
ATOM      2  C   UNL     1     -34.204  10.211 -35.308  1.00  0.00     0.047 A 
ATOM      3  C   UNL     1     -33.288  12.318 -36.067  1.00  0.00     0.047 A 
ATOM      4  C   UNL     1     -33.676   9.573 -36.434  1.00  0.00     0.014 A 
ATOM      5  C   UNL     1     -32.759  11.684 -37.196  1.00  0.00     0.014 A 
ATOM      6  C   UNL     1     -32.948  10.303 -37.391  1.00  0.00    -0.003 A 
ENDROOT
BRANCH   1   7
ATOM      7  O   UNL     1     -34.530  12.232 -34.002  1.00  0.00    -0.508 OA
ATOM      8  H   UNL     1     -35.526  12.387 -33.896  1.00  0.00     0.293 HD
ENDBRANCH   1   7
BRANCH   6   9
ATOM      9  C   UNL     1     -32.392   9.626 -38.583  1.00  0.00     0.071 C 
ATOM     10  O   UNL     1     -31.386   8.875 -38.482  1.00  0.00    -0.545 OA
ATOM     11  O   UNL     1     -32.973   9.808 -39.833  1.00  0.00    -0.545 OA
ENDBRANCH   6   9
TORSDOF 2
ENDMDL
MODEL 6
REMARK VINA RESULT:    -4.710      2.084      2.604
REMARK INTER + INTRA:          -5.158
REMARK INTER:                  -5.130
REMARK INTRA:                  -0.027
REMARK UNBOUND:                -0.035
REMARK SMILES O=C([O-])c1ccc(O)cc1
REMARK SMILES IDX 7 1 6 2 9 3 5 4 10 5 4 6 8 7 2 9 1 10 3 11
REMARK H PARENT 8 8
REMARK Flexibility Score: inf
ROOT
ATOM      1  C   UNL     1     -34.168  12.199 -39.003  1.00  0.00     0.115 A 
ATOM      2  C   UNL     1     -34.212  10.818 -39.232  1.00  0.00     0.047 A 
ATOM      3  C   UNL     1     -33.722  12.683 -37.771  1.00  0.00     0.047 A 
ATOM      4  C   UNL     1     -33.813   9.926 -38.231  1.00  0.00     0.014 A 
ATOM      5  C   UNL     1     -33.321  11.795 -36.767  1.00  0.00     0.014 A 
ATOM      6  C   UNL     1     -33.362  10.406 -36.988  1.00  0.00    -0.003 A 
ENDROOT
BRANCH   1   7
ATOM      7  O   UNL     1     -34.565  13.096 -39.992  1.00  0.00    -0.508 OA
ATOM      8  H   UNL     1     -35.490  13.509 -39.992  1.00  0.00     0.293 HD
ENDBRANCH   1   7
BRANCH   6   9
ATOM      9  C   UNL     1     -32.939   9.461 -35.931  1.00  0.00     0.071 C 
ATOM     10  O   UNL     1     -31.825   8.877 -36.004  1.00  0.00    -0.545 OA
ATOM     11  O   UNL     1     -33.764   9.205 -34.843  1.00  0.00    -0.545 OA
ENDBRANCH   6   9
TORSDOF 2
ENDMDL
MODEL 7
REMARK VINA RESULT:    -4.701      1.582      4.507
REMARK INTER + INTRA:          -5.148
REMARK INTER:                  -5.118
REMARK INTRA:                  -0.030
REMARK UNBOUND:                -0.035
REMARK SMILES O=C([O-])c1ccc(O)cc1
REMARK SMILES IDX 7 1 6 2 9 3 5 4 10 5 4 6 8 7 2 9 1 10 3 11
REMARK H PARENT 8 8
REMARK Flexibility Score: inf
ROOT
ATOM      1  C   UNL     1     -32.811  12.172 -33.886  1.00  0.00     0.115 A 
ATOM      2  C   UNL     1     -33.520  12.587 -35.021  1.00  0.00     0.047 A 
ATOM      3  C   UNL     1     -32.078  10.983 -33.925  1.00  0.00     0.047 A 
ATOM      4  C   UNL     1     -33.497  11.816 -36.186  1.00  0.00     0.014 A 
ATOM      5  C   UNL     1     -32.051  10.208 -35.089  1.00  0.00     0.014 A 
ATOM      6  C   UNL     1     -32.761  10.617 -36.233  1.00  0.00    -0.003 A 
ENDROOT
BRANCH   1   7
ATOM      7  O   UNL     1     -32.828  12.932 -32.719  1.00  0.00    -0.508 OA
ATOM      8  H   UNL     1     -33.659  13.001 -32.144  1.00  0.00     0.293 HD
ENDBRANCH   1   7
BRANCH   6   9
ATOM      9  C   UNL     1     -32.737   9.803 -37.468  1.00  0.00     0.071 C 
ATOM     10  O   UNL     1     -33.811   9.455 -38.027  1.00  0.00    -0.545 OA
ATOM     11  O   UNL     1     -31.528   9.411 -38.030  1.00  0.00    -0.545 OA
ENDBRANCH   6   9
TORSDOF 2
ENDMDL
MODEL 8
REMARK VINA RESULT:    -4.660      2.263      2.758
REMARK INTER + INTRA:          -5.104
REMARK INTER:                  -5.077
REMARK INTRA:                  -0.027
REMARK UNBOUND:                -0.035
REMARK SMILES O=C([O-])c1ccc(O)cc1
REMARK SMILES IDX 7 1 6 2 9 3 5 4 10 5 4 6 8 7 2 9 1 10 3 11
REMARK H PARENT 8 8
REMARK Flexibility Score: inf
ROOT
ATOM      1  C   UNL     1     -33.159  10.501 -36.014  1.00  0.00     0.115 A 
ATOM      2  C   UNL     1     -32.244  10.040 -35.058  1.00  0.00     0.047 A 
ATOM      3  C   UNL     1     -33.727  11.769 -35.873  1.00  0.00     0.047 A 
ATOM      4  C   UNL     1     -31.902  10.844 -33.967  1.00  0.00     0.014 A 
ATOM      5  C   UNL     1     -33.388  12.578 -34.783  1.00  0.00     0.014 A 
ATOM      6  C   UNL     1     -32.470  12.122 -33.818  1.00  0.00    -0.003 A 
ENDROOT
BRANCH   1   7
ATOM      7  O   UNL     1     -33.507   9.707 -37.104  1.00  0.00    -0.508 OA
ATOM      8  H   UNL     1     -33.202   9.935 -38.044  1.00  0.00     0.293 HD
ENDBRANCH   1   7
BRANCH   6   9
ATOM      9  C   UNL     1     -32.106  12.972 -32.663  1.00  0.00     0.071 C 
ATOM     10  O   UNL     1     -31.208  13.849 -32.771  1.00  0.00    -0.545 OA
ATOM     11  O   UNL     1     -32.750  12.815 -31.441  1.00  0.00    -0.545 OA
ENDBRANCH   6   9
TORSDOF 2
ENDMDL
