MODEL 1
REMARK VINA RESULT:    -4.712      0.000      0.000
REMARK INTER + INTRA:          -5.478
REMARK INTER:                  -5.401
REMARK INTRA:                  -0.077
REMARK UNBOUND:                -0.077
REMARK SMILES COc1cc(C(=O)[O-])ccc1O
REMARK SMILES IDX 5 1 9 2 4 3 10 4 3 5 11 6 6 7 7 8 8 9 2 10 1 11 12 12
REMARK H PARENT 12 13
REMARK Flexibility Score: inf
ROOT
ATOM      1  C   UNL     1     118.354 119.408 108.233  1.00  0.00     0.001 A 
ATOM      2  C   UNL     1     118.866 120.690 107.977  1.00  0.00     0.014 A 
ATOM      3  C   UNL     1     118.120 119.019 109.564  1.00  0.00     0.060 A 
ATOM      4  C   UNL     1     119.138 121.566 109.029  1.00  0.00     0.051 A 
ATOM      5  C   UNL     1     118.393 119.899 110.631  1.00  0.00     0.161 A 
ATOM      6  C   UNL     1     118.906 121.179 110.352  1.00  0.00     0.157 A 
ENDROOT
BRANCH   1   7
ATOM      7  C   UNL     1     118.063 118.478 107.119  1.00  0.00     0.072 C 
ATOM      8  O   UNL     1     117.531 118.897 106.057  1.00  0.00    -0.545 OA
ATOM      9  O   UNL     1     118.374 117.126 107.230  1.00  0.00    -0.545 OA
ENDBRANCH   1   7
BRANCH   5  10
ATOM     10  O   UNL     1     118.169 119.537 111.969  1.00  0.00    -0.493 OA
ATOM     11  C   UNL     1     117.670 118.274 112.393  1.00  0.00     0.278 C 
ENDBRANCH   5  10
BRANCH   6  12
ATOM     12  O   UNL     1     119.190 122.081 111.377  1.00  0.00    -0.504 OA
ATOM     13  H   UNL     1     119.996 121.974 111.981  1.00  0.00     0.293 HD
ENDBRANCH   6  12
TORSDOF 3
ENDMDL
MODEL 2
REMARK VINA RESULT:    -4.706      1.513      4.217
REMARK INTER + INTRA:          -5.471
REMARK INTER:                  -5.374
REMARK INTRA:                  -0.097
REMARK UNBOUND:                -0.077
REMARK SMILES COc1cc(C(=O)[O-])ccc1O
REMARK SMILES IDX 5 1 9 2 4 3 10 4 3 5 11 6 6 7 7 8 8 9 2 10 1 11 12 12
REMARK H PARENT 12 13
REMARK Flexibility Score: inf
ROOT
ATOM      1  C   UNL     1     119.136 120.313 110.647  1.00  0.00     0.001 A 
ATOM      2  C   UNL     1     119.482 121.375 109.797  1.00  0.00     0.014 A 
ATOM      3  C   UNL     1     118.328 119.275 110.149  1.00  0.00     0.060 A 
ATOM      4  C   UNL     1     119.030 121.401 108.477  1.00  0.00     0.051 A 
ATOM      5  C   UNL     1     117.867 119.296 108.817  1.00  0.00     0.161 A 
ATOM      6  C   UNL     1     118.226 120.371 107.982  1.00  0.00     0.157 A 
ENDROOT
BRANCH   1   7
ATOM      7  C   UNL     1     119.614 120.282 112.047  1.00  0.00     0.072 C 
ATOM      8  O   UNL     1     118.795 120.263 113.004  1.00  0.00    -0.545 OA
ATOM      9  O   UNL     1     120.977 120.273 112.327  1.00  0.00    -0.545 OA
ENDBRANCH   1   7
BRANCH   5  10
ATOM     10  O   UNL     1     117.059 118.274 108.293  1.00  0.00    -0.493 OA
ATOM     11  C   UNL     1     117.548 117.044 107.770  1.00  0.00     0.278 C 
ENDBRANCH   5  10
BRANCH   6  12
ATOM     12  O   UNL     1     117.793 120.431 106.658  1.00  0.00    -0.504 OA
ATOM     13  H   UNL     1     118.434 120.361 105.877  1.00  0.00     0.293 HD
ENDBRANCH   6  12
TORSDOF 3
ENDMDL
MODEL 3
REMARK VINA RESULT:    -4.594      2.338      3.688
REMARK INTER + INTRA:          -5.343
REMARK INTER:                  -5.244
REMARK INTRA:                  -0.099
REMARK UNBOUND:                -0.077
REMARK SMILES COc1cc(C(=O)[O-])ccc1O
REMARK SMILES IDX 5 1 9 2 4 3 10 4 3 5 11 6 6 7 7 8 8 9 2 10 1 11 12 12
REMARK H PARENT 12 13
REMARK Flexibility Score: inf
ROOT
ATOM      1  C   UNL     1     116.564 118.589 109.602  1.00  0.00     0.001 A 
ATOM      2  C   UNL     1     117.145 117.926 108.509  1.00  0.00     0.014 A 
ATOM      3  C   UNL     1     117.003 119.885 109.926  1.00  0.00     0.060 A 
ATOM      4  C   UNL     1     118.144 118.545 107.756  1.00  0.00     0.051 A 
ATOM      5  C   UNL     1     118.012 120.515 109.170  1.00  0.00     0.161 A 
ATOM      6  C   UNL     1     118.580 119.832 108.079  1.00  0.00     0.157 A 
ENDROOT
BRANCH   1   7
ATOM      7  C   UNL     1     115.505 117.936 110.402  1.00  0.00     0.072 C 
ATOM      8  O   UNL     1     114.634 118.626 110.996  1.00  0.00    -0.545 OA
ATOM      9  O   UNL     1     115.455 116.550 110.509  1.00  0.00    -0.545 OA
ENDBRANCH   1   7
BRANCH   5  10
ATOM     10  O   UNL     1     118.470 121.808 109.471  1.00  0.00    -0.493 OA
ATOM     11  C   UNL     1     119.491 122.105 110.417  1.00  0.00     0.278 C 
ENDBRANCH   5  10
BRANCH   6  12
ATOM     12  O   UNL     1     119.580 120.418 107.303  1.00  0.00    -0.504 OA
ATOM     13  H   UNL     1     120.170 119.876 106.683  1.00  0.00     0.293 HD
ENDBRANCH   6  12
TORSDOF 3
ENDMDL
MODEL 4
REMARK VINA RESULT:    -4.588      2.081      4.550
REMARK INTER + INTRA:          -5.336
REMARK INTER:                  -5.240
REMARK INTRA:                  -0.095
REMARK UNBOUND:                -0.077
REMARK SMILES COc1cc(C(=O)[O-])ccc1O
REMARK SMILES IDX 5 1 9 2 4 3 10 4 3 5 11 6 6 7 7 8 8 9 2 10 1 11 12 12
REMARK H PARENT 12 13
REMARK Flexibility Score: inf
ROOT
ATOM      1  C   UNL     1     119.573 121.089 111.634  1.00  0.00     0.001 A 
ATOM      2  C   UNL     1     119.721 122.125 110.698  1.00  0.00     0.014 A 
ATOM      3  C   UNL     1     118.740 120.000 111.321  1.00  0.00     0.060 A 
ATOM      4  C   UNL     1     119.051 122.075 109.476  1.00  0.00     0.051 A 
ATOM      5  C   UNL     1     118.060 119.944 110.087  1.00  0.00     0.161 A 
ATOM      6  C   UNL     1     118.223 120.993 109.164  1.00  0.00     0.157 A 
ENDROOT
BRANCH   1   7
ATOM      7  C   UNL     1     120.282 121.139 112.932  1.00  0.00     0.072 C 
ATOM      8  O   UNL     1     121.184 120.301 113.201  1.00  0.00    -0.545 OA
ATOM      9  O   UNL     1     119.964 122.112 113.873  1.00  0.00    -0.545 OA
ENDBRANCH   1   7
BRANCH   5  10
ATOM     10  O   UNL     1     117.222 118.869 109.748  1.00  0.00    -0.493 OA
ATOM     11  C   UNL     1     117.678 117.571 109.386  1.00  0.00     0.278 C 
ENDBRANCH   5  10
BRANCH   6  12
ATOM     12  O   UNL     1     117.570 120.978 107.932  1.00  0.00    -0.504 OA
ATOM     13  H   UNL     1     116.730 120.435 107.774  1.00  0.00     0.293 HD
ENDBRANCH   6  12
TORSDOF 3
ENDMDL
MODEL 5
REMARK VINA RESULT:    -4.411      1.092      1.511
REMARK INTER + INTRA:          -5.132
REMARK INTER:                  -5.055
REMARK INTRA:                  -0.077
REMARK UNBOUND:                -0.077
REMARK SMILES COc1cc(C(=O)[O-])ccc1O
REMARK SMILES IDX 5 1 9 2 4 3 10 4 3 5 11 6 6 7 7 8 8 9 2 10 1 11 12 12
REMARK H PARENT 12 13
REMARK Flexibility Score: inf
ROOT
ATOM      1  C   UNL     1     117.922 118.402 108.215  1.00  0.00     0.001 A 
ATOM      2  C   UNL     1     118.000 119.592 107.474  1.00  0.00     0.014 A 
ATOM      3  C   UNL     1     117.996 118.464 109.617  1.00  0.00     0.060 A 
ATOM      4  C   UNL     1     118.151 120.819 108.121  1.00  0.00     0.051 A 
ATOM      5  C   UNL     1     118.149 119.700 110.277  1.00  0.00     0.161 A 
ATOM      6  C   UNL     1     118.226 120.881 109.515  1.00  0.00     0.157 A 
ENDROOT
BRANCH   1   7
ATOM      7  C   UNL     1     117.761 117.099 107.531  1.00  0.00     0.072 C 
ATOM      8  O   UNL     1     118.373 116.078 107.946  1.00  0.00    -0.545 OA
ATOM      9  O   UNL     1     116.932 116.982 106.421  1.00  0.00    -0.545 OA
ENDBRANCH   1   7
BRANCH   5  10
ATOM     10  O   UNL     1     118.226 119.793 111.676  1.00  0.00    -0.493 OA
ATOM     11  C   UNL     1     117.920 118.732 112.575  1.00  0.00     0.278 C 
ENDBRANCH   5  10
BRANCH   6  12
ATOM     12  O   UNL     1     118.376 122.125 110.127  1.00  0.00    -0.504 OA
ATOM     13  H   UNL     1     119.154 122.739 109.917  1.00  0.00     0.293 HD
ENDBRANCH   6  12
TORSDOF 3
ENDMDL
MODEL 6
REMARK VINA RESULT:    -4.386      2.831      5.724
REMARK INTER + INTRA:          -5.104
REMARK INTER:                  -5.007
REMARK INTRA:                  -0.097
REMARK UNBOUND:                -0.077
REMARK SMILES COc1cc(C(=O)[O-])ccc1O
REMARK SMILES IDX 5 1 9 2 4 3 10 4 3 5 11 6 6 7 7 8 8 9 2 10 1 11 12 12
REMARK H PARENT 12 13
REMARK Flexibility Score: inf
ROOT
ATOM      1  C   UNL     1     118.659 119.986 114.275  1.00  0.00     0.001 A 
ATOM      2  C   UNL     1     119.797 120.806 114.336  1.00  0.00     0.014 A 
ATOM      3  C   UNL     1     118.218 119.522 113.022  1.00  0.00     0.060 A 
ATOM      4  C   UNL     1     120.480 121.156 113.171  1.00  0.00     0.051 A 
ATOM      5  C   UNL     1     118.904 119.872 111.842  1.00  0.00     0.161 A 
ATOM      6  C   UNL     1     120.042 120.695 111.927  1.00  0.00     0.157 A 
ENDROOT
BRANCH   1   7
ATOM      7  C   UNL     1     117.932 119.612 115.509  1.00  0.00     0.072 C 
ATOM      8  O   UNL     1     118.557 119.189 116.517  1.00  0.00    -0.545 OA
ATOM      9  O   UNL     1     116.547 119.724 115.573  1.00  0.00    -0.545 OA
ENDBRANCH   1   7
BRANCH   5  10
ATOM     10  O   UNL     1     118.487 119.423 110.578  1.00  0.00    -0.493 OA
ATOM     11  C   UNL     1     117.497 120.062 109.780  1.00  0.00     0.278 C 
ENDBRANCH   5  10
BRANCH   6  12
ATOM     12  O   UNL     1     120.751 121.066 110.784  1.00  0.00    -0.504 OA
ATOM     13  H   UNL     1     121.595 120.588 110.494  1.00  0.00     0.293 HD
ENDBRANCH   6  12
TORSDOF 3
ENDMDL
MODEL 7
REMARK VINA RESULT:    -4.382      1.521      4.117
REMARK INTER + INTRA:          -5.099
REMARK INTER:                  -5.001
REMARK INTRA:                  -0.098
REMARK UNBOUND:                -0.077
REMARK SMILES COc1cc(C(=O)[O-])ccc1O
REMARK SMILES IDX 5 1 9 2 4 3 10 4 3 5 11 6 6 7 7 8 8 9 2 10 1 11 12 12
REMARK H PARENT 12 13
REMARK Flexibility Score: inf
ROOT
ATOM      1  C   UNL     1     118.088 118.895 110.762  1.00  0.00     0.001 A 
ATOM      2  C   UNL     1     118.885 120.044 110.884  1.00  0.00     0.014 A 
ATOM      3  C   UNL     1     117.741 118.437 109.478  1.00  0.00     0.060 A 
ATOM      4  C   UNL     1     119.326 120.722 109.747  1.00  0.00     0.051 A 
ATOM      5  C   UNL     1     118.184 119.117 108.326  1.00  0.00     0.161 A 
ATOM      6  C   UNL     1     118.982 120.267 108.471  1.00  0.00     0.157 A 
ENDROOT
BRANCH   1   7
ATOM      7  C   UNL     1     117.618 118.173 111.965  1.00  0.00     0.072 C 
ATOM      8  O   UNL     1     117.740 118.688 113.109  1.00  0.00    -0.545 OA
ATOM      9  O   UNL     1     117.033 116.916 111.851  1.00  0.00    -0.545 OA
ENDBRANCH   1   7
BRANCH   5  10
ATOM     10  O   UNL     1     117.854 118.683 107.032  1.00  0.00    -0.493 OA
ATOM     11  C   UNL     1     118.278 117.451 106.460  1.00  0.00     0.278 C 
ENDBRANCH   5  10
BRANCH   6  12
ATOM     12  O   UNL     1     119.442 120.971 107.359  1.00  0.00    -0.504 OA
ATOM     13  H   UNL     1     120.426 121.151 107.203  1.00  0.00     0.293 HD
ENDBRANCH   6  12
TORSDOF 3
ENDMDL
MODEL 8
REMARK VINA RESULT:    -4.262     14.427     15.727
REMARK INTER + INTRA:          -4.962
REMARK INTER:                  -4.876
REMARK INTRA:                  -0.086
REMARK UNBOUND:                -0.077
REMARK SMILES COc1cc(C(=O)[O-])ccc1O
REMARK SMILES IDX 5 1 9 2 4 3 10 4 3 5 11 6 6 7 7 8 8 9 2 10 1 11 12 12
REMARK H PARENT 12 13
REMARK Flexibility Score: inf
ROOT
ATOM      1  C   UNL     1     118.557 119.800 124.252  1.00  0.00     0.001 A 
ATOM      2  C   UNL     1     119.870 119.459 123.888  1.00  0.00     0.014 A 
ATOM      3  C   UNL     1     117.796 118.883 124.999  1.00  0.00     0.060 A 
ATOM      4  C   UNL     1     120.410 118.229 124.262  1.00  0.00     0.051 A 
ATOM      5  C   UNL     1     118.336 117.639 125.379  1.00  0.00     0.161 A 
ATOM      6  C   UNL     1     119.654 117.318 125.004  1.00  0.00     0.157 A 
ENDROOT
BRANCH   1   7
ATOM      7  C   UNL     1     117.981 121.105 123.857  1.00  0.00     0.072 C 
ATOM      8  O   UNL     1     118.068 122.101 124.623  1.00  0.00    -0.545 OA
ATOM      9  O   UNL     1     117.335 121.249 122.633  1.00  0.00    -0.545 OA
ENDBRANCH   1   7
BRANCH   5  10
ATOM     10  O   UNL     1     117.599 116.704 126.125  1.00  0.00    -0.493 OA
ATOM     11  C   UNL     1     116.757 115.705 125.562  1.00  0.00     0.278 C 
ENDBRANCH   5  10
BRANCH   6  12
ATOM     12  O   UNL     1     120.228 116.097 125.359  1.00  0.00    -0.504 OA
ATOM     13  H   UNL     1     119.784 115.461 126.010  1.00  0.00     0.293 HD
ENDBRANCH   6  12
TORSDOF 3
ENDMDL
MODEL 9
REMARK VINA RESULT:    -4.237     16.451     17.558
REMARK INTER + INTRA:          -4.933
REMARK INTER:                  -4.912
REMARK INTRA:                  -0.021
REMARK UNBOUND:                -0.077
REMARK SMILES COc1cc(C(=O)[O-])ccc1O
REMARK SMILES IDX 5 1 9 2 4 3 10 4 3 5 11 6 6 7 7 8 8 9 2 10 1 11 12 12
REMARK H PARENT 12 13
REMARK Flexibility Score: inf
ROOT
ATOM      1  C   UNL     1     115.407 102.825 110.661  1.00  0.00     0.001 A 
ATOM      2  C   UNL     1     116.462 101.991 110.259  1.00  0.00     0.014 A 
ATOM      3  C   UNL     1     114.741 103.599 109.694  1.00  0.00     0.060 A 
ATOM      4  C   UNL     1     116.844 101.930 108.918  1.00  0.00     0.051 A 
ATOM      5  C   UNL     1     115.123 103.543 108.338  1.00  0.00     0.161 A 
ATOM      6  C   UNL     1     116.182 102.700 107.957  1.00  0.00     0.157 A 
ENDROOT
BRANCH   1   7
ATOM      7  C   UNL     1     114.999 102.891 112.082  1.00  0.00     0.072 C 
ATOM      8  O   UNL     1     115.324 101.976 112.885  1.00  0.00    -0.545 OA
ATOM      9  O   UNL     1     114.252 103.966 112.552  1.00  0.00    -0.545 OA
ENDBRANCH   1   7
BRANCH   5  10
ATOM     10  O   UNL     1     114.476 104.305 107.351  1.00  0.00    -0.493 OA
ATOM     11  C   UNL     1     113.510 103.793 106.439  1.00  0.00     0.278 C 
ENDBRANCH   5  10
BRANCH   6  12
ATOM     12  O   UNL     1     116.592 102.613 106.627  1.00  0.00    -0.504 OA
ATOM     13  H   UNL     1     117.448 102.145 106.355  1.00  0.00     0.293 HD
ENDBRANCH   6  12
TORSDOF 3
ENDMDL
