MODEL 1
REMARK VINA RESULT:    -6.102      0.000      0.000
REMARK INTER + INTRA:          -7.130
REMARK INTER:                  -6.993
REMARK INTRA:                  -0.136
REMARK UNBOUND:                -0.136
REMARK SMILES O=C([O-])C=Cc1ccc(O)cc1
REMARK SMILES IDX 6 1 7 2 12 3 8 4 11 5 9 6 5 7 4 8 2 9 1 10 3 11 10 12
REMARK H PARENT 10 13
REMARK Flexibility Score: inf
ROOT
ATOM      1  C   UNL     1      80.581   1.426   0.024  1.00  0.00    -0.025 A 
ATOM      2  C   UNL     1      79.857   0.291  -0.382  1.00  0.00     0.012 A 
ATOM      3  C   UNL     1      79.875   2.600   0.356  1.00  0.00     0.012 A 
ATOM      4  C   UNL     1      78.460   0.320  -0.434  1.00  0.00     0.047 A 
ATOM      5  C   UNL     1      78.478   2.624   0.302  1.00  0.00     0.047 A 
ATOM      6  C   UNL     1      77.767   1.484  -0.091  1.00  0.00     0.115 A 
ENDROOT
BRANCH   1   7
ATOM      7  C   UNL     1      82.063   1.348   0.054  1.00  0.00     0.010 C 
ATOM      8  C   UNL     1      82.865   2.114  -0.701  1.00  0.00     0.025 C 
BRANCH   8   9
ATOM      9  C   UNL     1      84.332   2.016  -0.637  1.00  0.00     0.064 C 
ATOM     10  O   UNL     1      85.040   2.130  -1.673  1.00  0.00    -0.545 OA
ATOM     11  O   UNL     1      84.949   1.798   0.589  1.00  0.00    -0.545 OA
ENDBRANCH   8   9
ENDBRANCH   1   7
BRANCH   6  12
ATOM     12  O   UNL     1      76.375   1.498  -0.146  1.00  0.00    -0.508 OA
ATOM     13  H   UNL     1      75.875   2.174  -0.712  1.00  0.00     0.293 HD
ENDBRANCH   6  12
TORSDOF 3
ENDMDL
MODEL 2
REMARK VINA RESULT:    -6.066      0.131      1.403
REMARK INTER + INTRA:          -7.089
REMARK INTER:                  -6.949
REMARK INTRA:                  -0.139
REMARK UNBOUND:                -0.136
REMARK SMILES O=C([O-])C=Cc1ccc(O)cc1
REMARK SMILES IDX 6 1 7 2 12 3 8 4 11 5 9 6 5 7 4 8 2 9 1 10 3 11 10 12
REMARK H PARENT 10 13
REMARK Flexibility Score: inf
ROOT
ATOM      1  C   UNL     1      80.678   1.352  -0.013  1.00  0.00    -0.025 A 
ATOM      2  C   UNL     1      80.029   2.550   0.332  1.00  0.00     0.012 A 
ATOM      3  C   UNL     1      79.896   0.233  -0.367  1.00  0.00     0.012 A 
ATOM      4  C   UNL     1      78.635   2.638   0.302  1.00  0.00     0.047 A 
ATOM      5  C   UNL     1      78.501   0.326  -0.395  1.00  0.00     0.047 A 
ATOM      6  C   UNL     1      77.867   1.529  -0.063  1.00  0.00     0.115 A 
ENDROOT
BRANCH   1   7
ATOM      7  C   UNL     1      82.161   1.306   0.043  1.00  0.00     0.010 C 
ATOM      8  C   UNL     1      82.960   2.050  -0.736  1.00  0.00     0.025 C 
BRANCH   8   9
ATOM      9  C   UNL     1      84.428   1.986  -0.643  1.00  0.00     0.064 C 
ATOM     10  O   UNL     1      85.156   2.227  -1.643  1.00  0.00    -0.545 OA
ATOM     11  O   UNL     1      85.021   1.657   0.568  1.00  0.00    -0.545 OA
ENDBRANCH   8   9
ENDBRANCH   1   7
BRANCH   6  12
ATOM     12  O   UNL     1      76.478   1.631  -0.089  1.00  0.00    -0.508 OA
ATOM     13  H   UNL     1      75.971   2.144   0.623  1.00  0.00     0.293 HD
ENDBRANCH   6  12
TORSDOF 3
ENDMDL
MODEL 3
REMARK VINA RESULT:    -5.641      9.447     10.905
REMARK INTER + INTRA:          -6.602
REMARK INTER:                  -6.464
REMARK INTRA:                  -0.138
REMARK UNBOUND:                -0.136
REMARK SMILES O=C([O-])C=Cc1ccc(O)cc1
REMARK SMILES IDX 6 1 7 2 12 3 8 4 11 5 9 6 5 7 4 8 2 9 1 10 3 11 10 12
REMARK H PARENT 10 13
REMARK Flexibility Score: inf
ROOT
ATOM      1  C   UNL     1      71.014   0.400  -2.091  1.00  0.00    -0.025 A 
ATOM      2  C   UNL     1      70.314   1.558  -2.473  1.00  0.00     0.012 A 
ATOM      3  C   UNL     1      70.979  -0.726  -2.939  1.00  0.00     0.012 A 
ATOM      4  C   UNL     1      69.616   1.600  -3.684  1.00  0.00     0.047 A 
ATOM      5  C   UNL     1      70.279  -0.679  -4.149  1.00  0.00     0.047 A 
ATOM      6  C   UNL     1      69.598   0.484  -4.526  1.00  0.00     0.115 A 
ENDROOT
BRANCH   1   7
ATOM      7  C   UNL     1      71.732   0.401  -0.792  1.00  0.00     0.010 C 
ATOM      8  C   UNL     1      71.123   0.277   0.396  1.00  0.00     0.025 C 
BRANCH   8   9
ATOM      9  C   UNL     1      71.870   0.271   1.665  1.00  0.00     0.064 C 
ATOM     10  O   UNL     1      72.923   0.949   1.805  1.00  0.00    -0.545 OA
ATOM     11  O   UNL     1      71.405  -0.493   2.727  1.00  0.00    -0.545 OA
ENDBRANCH   8   9
ENDBRANCH   1   7
BRANCH   6  12
ATOM     12  O   UNL     1      68.898   0.541  -5.729  1.00  0.00    -0.508 OA
ATOM     13  H   UNL     1      69.365   0.751  -6.603  1.00  0.00     0.293 HD
ENDBRANCH   6  12
TORSDOF 3
ENDMDL
MODEL 4
REMARK VINA RESULT:    -5.465      7.656     10.429
REMARK INTER + INTRA:          -6.401
REMARK INTER:                  -6.254
REMARK INTRA:                  -0.146
REMARK UNBOUND:                -0.136
REMARK SMILES O=C([O-])C=Cc1ccc(O)cc1
REMARK SMILES IDX 6 1 7 2 12 3 8 4 11 5 9 6 5 7 4 8 2 9 1 10 3 11 10 12
REMARK H PARENT 10 13
REMARK Flexibility Score: inf
ROOT
ATOM      1  C   UNL     1      70.913   0.278  -2.634  1.00  0.00    -0.025 A 
ATOM      2  C   UNL     1      70.283   1.484  -2.987  1.00  0.00     0.012 A 
ATOM      3  C   UNL     1      70.632  -0.882  -3.385  1.00  0.00     0.012 A 
ATOM      4  C   UNL     1      69.412   1.538  -4.078  1.00  0.00     0.047 A 
ATOM      5  C   UNL     1      69.759  -0.822  -4.476  1.00  0.00     0.047 A 
ATOM      6  C   UNL     1      69.149   0.387  -4.827  1.00  0.00     0.115 A 
ENDROOT
BRANCH   1   7
ATOM      7  C   UNL     1      71.823   0.269  -1.461  1.00  0.00     0.010 C 
ATOM      8  C   UNL     1      72.617   1.297  -1.126  1.00  0.00     0.025 C 
BRANCH   8   9
ATOM      9  C   UNL     1      73.499   1.256   0.052  1.00  0.00     0.064 C 
ATOM     10  O   UNL     1      74.717   1.567  -0.033  1.00  0.00    -0.545 OA
ATOM     11  O   UNL     1      72.978   0.871   1.281  1.00  0.00    -0.545 OA
ENDBRANCH   8   9
ENDBRANCH   1   7
BRANCH   6  12
ATOM     12  O   UNL     1      68.279   0.456  -5.913  1.00  0.00    -0.508 OA
ATOM     13  H   UNL     1      67.274   0.484  -5.785  1.00  0.00     0.293 HD
ENDBRANCH   6  12
TORSDOF 3
ENDMDL
MODEL 5
REMARK VINA RESULT:    -5.385      1.722      2.501
REMARK INTER + INTRA:          -6.308
REMARK INTER:                  -6.172
REMARK INTRA:                  -0.136
REMARK UNBOUND:                -0.136
REMARK SMILES O=C([O-])C=Cc1ccc(O)cc1
REMARK SMILES IDX 6 1 7 2 12 3 8 4 11 5 9 6 5 7 4 8 2 9 1 10 3 11 10 12
REMARK H PARENT 10 13
REMARK Flexibility Score: inf
ROOT
ATOM      1  C   UNL     1      82.453   2.398  -0.665  1.00  0.00    -0.025 A 
ATOM      2  C   UNL     1      81.635   1.386  -0.133  1.00  0.00     0.012 A 
ATOM      3  C   UNL     1      81.941   3.709  -0.754  1.00  0.00     0.012 A 
ATOM      4  C   UNL     1      80.346   1.678   0.321  1.00  0.00     0.047 A 
ATOM      5  C   UNL     1      80.650   3.996  -0.300  1.00  0.00     0.047 A 
ATOM      6  C   UNL     1      79.851   2.983   0.242  1.00  0.00     0.115 A 
ENDROOT
BRANCH   1   7
ATOM      7  C   UNL     1      83.811   2.035  -1.142  1.00  0.00     0.010 C 
ATOM      8  C   UNL     1      84.863   1.852  -0.329  1.00  0.00     0.025 C 
BRANCH   8   9
ATOM      9  C   UNL     1      86.193   1.482  -0.839  1.00  0.00     0.064 C 
ATOM     10  O   UNL     1      86.972   0.756  -0.164  1.00  0.00    -0.545 OA
ATOM     11  O   UNL     1      86.598   1.938  -2.087  1.00  0.00    -0.545 OA
ENDBRANCH   8   9
ENDBRANCH   1   7
BRANCH   6  12
ATOM     12  O   UNL     1      78.564   3.260   0.698  1.00  0.00    -0.508 OA
ATOM     13  H   UNL     1      78.377   4.046   1.309  1.00  0.00     0.293 HD
ENDBRANCH   6  12
TORSDOF 3
ENDMDL
MODEL 6
REMARK VINA RESULT:    -5.358      1.219      2.132
REMARK INTER + INTRA:          -6.278
REMARK INTER:                  -6.143
REMARK INTRA:                  -0.135
REMARK UNBOUND:                -0.136
REMARK SMILES O=C([O-])C=Cc1ccc(O)cc1
REMARK SMILES IDX 6 1 7 2 12 3 8 4 11 5 9 6 5 7 4 8 2 9 1 10 3 11 10 12
REMARK H PARENT 10 13
REMARK Flexibility Score: inf
ROOT
ATOM      1  C   UNL     1      81.550   1.518  -0.049  1.00  0.00    -0.025 A 
ATOM      2  C   UNL     1      80.827   2.706   0.157  1.00  0.00     0.012 A 
ATOM      3  C   UNL     1      80.841   0.309  -0.207  1.00  0.00     0.012 A 
ATOM      4  C   UNL     1      79.429   2.693   0.181  1.00  0.00     0.047 A 
ATOM      5  C   UNL     1      79.442   0.301  -0.182  1.00  0.00     0.047 A 
ATOM      6  C   UNL     1      78.733   1.493   0.009  1.00  0.00     0.115 A 
ENDROOT
BRANCH   1   7
ATOM      7  C   UNL     1      83.033   1.582  -0.057  1.00  0.00     0.010 C 
ATOM      8  C   UNL     1      83.800   1.215   0.980  1.00  0.00     0.025 C 
BRANCH   8   9
ATOM      9  C   UNL     1      85.270   1.282   0.932  1.00  0.00     0.064 C 
ATOM     10  O   UNL     1      85.982   0.424   1.519  1.00  0.00    -0.545 OA
ATOM     11  O   UNL     1      85.883   2.308   0.225  1.00  0.00    -0.545 OA
ENDBRANCH   8   9
ENDBRANCH   1   7
BRANCH   6  12
ATOM     12  O   UNL     1      77.340   1.495   0.035  1.00  0.00    -0.508 OA
ATOM     13  H   UNL     1      76.818   0.758   0.494  1.00  0.00     0.293 HD
ENDBRANCH   6  12
TORSDOF 3
ENDMDL
MODEL 7
REMARK VINA RESULT:    -5.328      1.340      5.929
REMARK INTER + INTRA:          -6.243
REMARK INTER:                  -6.106
REMARK INTRA:                  -0.137
REMARK UNBOUND:                -0.136
REMARK SMILES O=C([O-])C=Cc1ccc(O)cc1
REMARK SMILES IDX 6 1 7 2 12 3 8 4 11 5 9 6 5 7 4 8 2 9 1 10 3 11 10 12
REMARK H PARENT 10 13
REMARK Flexibility Score: inf
ROOT
ATOM      1  C   UNL     1      82.394   1.696   0.011  1.00  0.00    -0.025 A 
ATOM      2  C   UNL     1      83.096   2.270  -1.064  1.00  0.00     0.012 A 
ATOM      3  C   UNL     1      83.126   1.156   1.088  1.00  0.00     0.012 A 
ATOM      4  C   UNL     1      84.492   2.326  -1.054  1.00  0.00     0.047 A 
ATOM      5  C   UNL     1      84.523   1.213   1.094  1.00  0.00     0.047 A 
ATOM      6  C   UNL     1      85.210   1.800   0.025  1.00  0.00     0.115 A 
ENDROOT
BRANCH   1   7
ATOM      7  C   UNL     1      80.912   1.652  -0.052  1.00  0.00     0.010 C 
ATOM      8  C   UNL     1      80.205   0.520  -0.181  1.00  0.00     0.025 C 
BRANCH   8   9
ATOM      9  C   UNL     1      78.733   0.515  -0.228  1.00  0.00     0.064 C 
ATOM     10  O   UNL     1      78.091  -0.547  -0.446  1.00  0.00    -0.545 OA
ATOM     11  O   UNL     1      78.040   1.701  -0.027  1.00  0.00    -0.545 OA
ENDBRANCH   8   9
ENDBRANCH   1   7
BRANCH   6  12
ATOM     12  O   UNL     1      86.601   1.863   0.022  1.00  0.00    -0.508 OA
ATOM     13  H   UNL     1      87.169   1.026   0.072  1.00  0.00     0.293 HD
ENDBRANCH   6  12
TORSDOF 3
ENDMDL
MODEL 8
REMARK VINA RESULT:    -5.036      8.140     11.577
REMARK INTER + INTRA:          -5.908
REMARK INTER:                  -5.774
REMARK INTRA:                  -0.134
REMARK UNBOUND:                -0.136
REMARK SMILES O=C([O-])C=Cc1ccc(O)cc1
REMARK SMILES IDX 6 1 7 2 12 3 8 4 11 5 9 6 5 7 4 8 2 9 1 10 3 11 10 12
REMARK H PARENT 10 13
REMARK Flexibility Score: inf
ROOT
ATOM      1  C   UNL     1      70.955   1.341  -2.266  1.00  0.00    -0.025 A 
ATOM      2  C   UNL     1      72.144   2.074  -2.425  1.00  0.00     0.012 A 
ATOM      3  C   UNL     1      70.814   0.510  -1.136  1.00  0.00     0.012 A 
ATOM      4  C   UNL     1      73.159   2.000  -1.467  1.00  0.00     0.047 A 
ATOM      5  C   UNL     1      71.833   0.438  -0.180  1.00  0.00     0.047 A 
ATOM      6  C   UNL     1      73.006   1.184  -0.341  1.00  0.00     0.115 A 
ENDROOT
BRANCH   1   7
ATOM      7  C   UNL     1      69.911   1.447  -3.316  1.00  0.00     0.010 C 
ATOM      8  C   UNL     1      69.699   0.511  -4.253  1.00  0.00     0.025 C 
BRANCH   8   9
ATOM      9  C   UNL     1      68.645   0.645  -5.273  1.00  0.00     0.064 C 
ATOM     10  O   UNL     1      68.780   1.427  -6.252  1.00  0.00    -0.545 OA
ATOM     11  O   UNL     1      67.482  -0.105  -5.155  1.00  0.00    -0.545 OA
ENDBRANCH   8   9
ENDBRANCH   1   7
BRANCH   6  12
ATOM     12  O   UNL     1      74.026   1.120   0.605  1.00  0.00    -0.508 OA
ATOM     13  H   UNL     1      73.912   1.511   1.533  1.00  0.00     0.293 HD
ENDBRANCH   6  12
TORSDOF 3
ENDMDL
MODEL 9
REMARK VINA RESULT:    -5.008      8.423     10.677
REMARK INTER + INTRA:          -5.876
REMARK INTER:                  -5.737
REMARK INTRA:                  -0.139
REMARK UNBOUND:                -0.136
REMARK SMILES O=C([O-])C=Cc1ccc(O)cc1
REMARK SMILES IDX 6 1 7 2 12 3 8 4 11 5 9 6 5 7 4 8 2 9 1 10 3 11 10 12
REMARK H PARENT 10 13
REMARK Flexibility Score: inf
ROOT
ATOM      1  C   UNL     1      70.956   0.173  -3.003  1.00  0.00    -0.025 A 
ATOM      2  C   UNL     1      71.275  -1.196  -2.972  1.00  0.00     0.012 A 
ATOM      3  C   UNL     1      69.919   0.611  -3.851  1.00  0.00     0.012 A 
ATOM      4  C   UNL     1      70.558  -2.110  -3.751  1.00  0.00     0.047 A 
ATOM      5  C   UNL     1      69.206  -0.307  -4.628  1.00  0.00     0.047 A 
ATOM      6  C   UNL     1      69.521  -1.670  -4.578  1.00  0.00     0.115 A 
ENDROOT
BRANCH   1   7
ATOM      7  C   UNL     1      71.752   1.106  -2.166  1.00  0.00     0.010 C 
ATOM      8  C   UNL     1      71.857   1.005  -0.832  1.00  0.00     0.025 C 
BRANCH   8   9
ATOM      9  C   UNL     1      72.665   1.942  -0.036  1.00  0.00     0.064 C 
ATOM     10  O   UNL     1      73.918   1.999  -0.166  1.00  0.00    -0.545 OA
ATOM     11  O   UNL     1      72.037   2.782   0.875  1.00  0.00    -0.545 OA
ENDBRANCH   8   9
ENDBRANCH   1   7
BRANCH   6  12
ATOM     12  O   UNL     1      68.816  -2.592  -5.348  1.00  0.00    -0.508 OA
ATOM     13  H   UNL     1      68.201  -2.296  -6.097  1.00  0.00     0.293 HD
ENDBRANCH   6  12
TORSDOF 3
ENDMDL
