MODEL 1
REMARK VINA RESULT:    -4.522      0.000      0.000
REMARK INTER + INTRA:         -12.287
REMARK INTER:                  -9.809
REMARK INTRA:                  -2.477
REMARK UNBOUND:                -2.477
REMARK SMILES CCCCCCCCCCCCCCCCCCCCCC(=O)[O-]
REMARK SMILES IDX 12 1 11 2 10 3 9 4 8 5 7 6 6 7 5 8 4 9 3 10 2 11 1 12 13 13
REMARK SMILES IDX 14 14 15 15 16 16 17 17 18 18 19 19 20 20 21 21 22 22 23 23
REMARK SMILES IDX 24 24
REMARK H PARENT
REMARK Flexibility Score: inf
ROOT
ATOM      1  C   UNL     1      15.971  43.221  19.229  1.00  0.00     0.000 C 
ENDROOT
BRANCH   1   2
ATOM      2  C   UNL     1      15.753  44.154  20.431  1.00  0.00     0.000 C 
BRANCH   2   3
ATOM      3  C   UNL     1      15.061  45.475  20.047  1.00  0.00     0.000 C 
BRANCH   3   4
ATOM      4  C   UNL     1      15.896  46.418  19.162  1.00  0.00    -0.000 C 
BRANCH   4   5
ATOM      5  C   UNL     1      15.271  46.651  17.777  1.00  0.00    -0.000 C 
BRANCH   5   6
ATOM      6  C   UNL     1      13.988  45.828  17.605  1.00  0.00    -0.000 C 
BRANCH   6   7
ATOM      7  C   UNL     1      12.763  46.746  17.471  1.00  0.00    -0.000 C 
BRANCH   7   8
ATOM      8  C   UNL     1      11.738  46.542  18.597  1.00  0.00    -0.000 C 
BRANCH   8   9
ATOM      9  C   UNL     1      11.468  45.055  18.890  1.00  0.00    -0.000 C 
BRANCH   9  10
ATOM     10  C   UNL     1      10.312  44.841  19.884  1.00  0.00    -0.000 C 
BRANCH  10  11
ATOM     11  C   UNL     1       9.437  43.605  19.609  1.00  0.00    -0.003 C 
ATOM     12  C   UNL     1       9.553  42.535  20.694  1.00  0.00     0.004 C 
ENDBRANCH  10  11
ENDBRANCH   9  10
ENDBRANCH   8   9
ENDBRANCH   7   8
ENDBRANCH   6   7
ENDBRANCH   5   6
ENDBRANCH   4   5
ENDBRANCH   3   4
ENDBRANCH   2   3
ENDBRANCH   1   2
BRANCH   1  13
ATOM     13  C   UNL     1      17.454  43.084  18.849  1.00  0.00     0.000 C 
BRANCH  13  14
ATOM     14  C   UNL     1      18.061  41.743  19.292  1.00  0.00     0.000 C 
BRANCH  14  15
ATOM     15  C   UNL     1      19.262  41.967  20.219  1.00  0.00     0.000 C 
BRANCH  15  16
ATOM     16  C   UNL     1      18.803  42.402  21.620  1.00  0.00     0.000 C 
BRANCH  16  17
ATOM     17  C   UNL     1      19.194  43.853  21.958  1.00  0.00     0.000 C 
BRANCH  17  18
ATOM     18  C   UNL     1      20.179  44.514  20.977  1.00  0.00     0.000 C 
BRANCH  18  19
ATOM     19  C   UNL     1      19.569  45.710  20.225  1.00  0.00     0.000 C 
BRANCH  19  20
ATOM     20  C   UNL     1      19.888  47.058  20.896  1.00  0.00     0.006 C 
BRANCH  20  21
ATOM     21  C   UNL     1      18.765  48.103  20.786  1.00  0.00     0.053 C 
BRANCH  21  22
ATOM     22  C   UNL     1      18.926  49.208  21.785  1.00  0.00     0.041 C 
ATOM     23  O   UNL     1      20.075  49.568  22.152  1.00  0.00    -0.550 OA
ATOM     24  O   UNL     1      17.806  49.854  22.295  1.00  0.00    -0.550 OA
ENDBRANCH  21  22
ENDBRANCH  20  21
ENDBRANCH  19  20
ENDBRANCH  18  19
ENDBRANCH  17  18
ENDBRANCH  16  17
ENDBRANCH  15  16
ENDBRANCH  14  15
ENDBRANCH  13  14
ENDBRANCH   1  13
TORSDOF 20
ENDMDL
MODEL 2
REMARK VINA RESULT:    -4.348      1.380      2.168
REMARK INTER + INTRA:         -11.909
REMARK INTER:                  -9.249
REMARK INTRA:                  -2.661
REMARK UNBOUND:                -2.477
REMARK SMILES CCCCCCCCCCCCCCCCCCCCCC(=O)[O-]
REMARK SMILES IDX 12 1 11 2 10 3 9 4 8 5 7 6 6 7 5 8 4 9 3 10 2 11 1 12 13 13
REMARK SMILES IDX 14 14 15 15 16 16 17 17 18 18 19 19 20 20 21 21 22 22 23 23
REMARK SMILES IDX 24 24
REMARK H PARENT
REMARK Flexibility Score: inf
ROOT
ATOM      1  C   UNL     1      16.968  41.507  20.146  1.00  0.00     0.000 C 
ENDROOT
BRANCH   1   2
ATOM      2  C   UNL     1      15.687  42.336  19.956  1.00  0.00     0.000 C 
BRANCH   2   3
ATOM      3  C   UNL     1      15.952  43.706  19.304  1.00  0.00     0.000 C 
BRANCH   3   4
ATOM      4  C   UNL     1      15.772  44.919  20.234  1.00  0.00    -0.000 C 
BRANCH   4   5
ATOM      5  C   UNL     1      15.618  46.244  19.471  1.00  0.00    -0.000 C 
BRANCH   5   6
ATOM      6  C   UNL     1      15.472  45.997  17.963  1.00  0.00    -0.000 C 
BRANCH   6   7
ATOM      7  C   UNL     1      14.725  47.159  17.289  1.00  0.00    -0.000 C 
BRANCH   7   8
ATOM      8  C   UNL     1      13.424  46.712  16.604  1.00  0.00    -0.000 C 
BRANCH   8   9
ATOM      9  C   UNL     1      12.692  45.606  17.384  1.00  0.00    -0.000 C 
BRANCH   9  10
ATOM     10  C   UNL     1      11.924  46.143  18.606  1.00  0.00    -0.000 C 
BRANCH  10  11
ATOM     11  C   UNL     1      11.815  45.164  19.789  1.00  0.00    -0.003 C 
ATOM     12  C   UNL     1      12.239  43.741  19.430  1.00  0.00     0.004 C 
ENDBRANCH  10  11
ENDBRANCH   9  10
ENDBRANCH   8   9
ENDBRANCH   7   8
ENDBRANCH   6   7
ENDBRANCH   5   6
ENDBRANCH   4   5
ENDBRANCH   3   4
ENDBRANCH   2   3
ENDBRANCH   1   2
BRANCH   1  13
ATOM     13  C   UNL     1      17.372  41.374  21.624  1.00  0.00     0.000 C 
BRANCH  13  14
ATOM     14  C   UNL     1      18.450  42.386  22.041  1.00  0.00     0.000 C 
BRANCH  14  15
ATOM     15  C   UNL     1      19.798  42.047  21.393  1.00  0.00     0.000 C 
BRANCH  15  16
ATOM     16  C   UNL     1      20.447  43.299  20.782  1.00  0.00     0.000 C 
BRANCH  16  17
ATOM     17  C   UNL     1      19.417  44.334  20.293  1.00  0.00     0.000 C 
BRANCH  17  18
ATOM     18  C   UNL     1      20.004  45.686  19.847  1.00  0.00     0.000 C 
BRANCH  18  19
ATOM     19  C   UNL     1      20.413  46.583  21.028  1.00  0.00     0.000 C 
BRANCH  19  20
ATOM     20  C   UNL     1      20.226  48.082  20.729  1.00  0.00     0.006 C 
BRANCH  20  21
ATOM     21  C   UNL     1      19.319  48.820  21.726  1.00  0.00     0.053 C 
BRANCH  21  22
ATOM     22  C   UNL     1      19.617  50.287  21.779  1.00  0.00     0.041 C 
ATOM     23  O   UNL     1      18.741  51.125  21.436  1.00  0.00    -0.550 OA
ATOM     24  O   UNL     1      20.857  50.730  22.224  1.00  0.00    -0.550 OA
ENDBRANCH  21  22
ENDBRANCH  20  21
ENDBRANCH  19  20
ENDBRANCH  18  19
ENDBRANCH  17  18
ENDBRANCH  16  17
ENDBRANCH  15  16
ENDBRANCH  14  15
ENDBRANCH  13  14
ENDBRANCH   1  13
TORSDOF 20
ENDMDL
MODEL 3
REMARK VINA RESULT:    -4.212      3.004      7.523
REMARK INTER + INTRA:         -11.613
REMARK INTER:                  -9.000
REMARK INTRA:                  -2.613
REMARK UNBOUND:                -2.477
REMARK SMILES CCCCCCCCCCCCCCCCCCCCCC(=O)[O-]
REMARK SMILES IDX 12 1 11 2 10 3 9 4 8 5 7 6 6 7 5 8 4 9 3 10 2 11 1 12 13 13
REMARK SMILES IDX 14 14 15 15 16 16 17 17 18 18 19 19 20 20 21 21 22 22 23 23
REMARK SMILES IDX 24 24
REMARK H PARENT
REMARK Flexibility Score: inf
ROOT
ATOM      1  C   UNL     1      19.636  40.291  20.860  1.00  0.00     0.000 C 
ENDROOT
BRANCH   1   2
ATOM      2  C   UNL     1      18.392  40.403  21.758  1.00  0.00     0.000 C 
BRANCH   2   3
ATOM      3  C   UNL     1      18.540  41.472  22.856  1.00  0.00     0.000 C 
BRANCH   3   4
ATOM      4  C   UNL     1      19.862  41.422  23.644  1.00  0.00    -0.000 C 
BRANCH   4   5
ATOM      5  C   UNL     1      20.535  42.797  23.774  1.00  0.00    -0.000 C 
BRANCH   5   6
ATOM      6  C   UNL     1      21.518  43.041  22.622  1.00  0.00    -0.000 C 
BRANCH   6   7
ATOM      7  C   UNL     1      21.233  44.386  21.935  1.00  0.00    -0.000 C 
BRANCH   7   8
ATOM      8  C   UNL     1      20.230  44.263  20.777  1.00  0.00    -0.000 C 
BRANCH   8   9
ATOM      9  C   UNL     1      19.417  45.551  20.559  1.00  0.00    -0.000 C 
BRANCH   9  10
ATOM     10  C   UNL     1      20.280  46.824  20.635  1.00  0.00    -0.000 C 
BRANCH  10  11
ATOM     11  C   UNL     1      19.499  48.125  20.895  1.00  0.00    -0.003 C 
ATOM     12  C   UNL     1      18.027  47.886  21.226  1.00  0.00     0.004 C 
ENDBRANCH  10  11
ENDBRANCH   9  10
ENDBRANCH   8   9
ENDBRANCH   7   8
ENDBRANCH   6   7
ENDBRANCH   5   6
ENDBRANCH   4   5
ENDBRANCH   3   4
ENDBRANCH   2   3
ENDBRANCH   1   2
BRANCH   1  13
ATOM     13  C   UNL     1      19.447  40.981  19.499  1.00  0.00     0.000 C 
BRANCH  13  14
ATOM     14  C   UNL     1      17.968  41.147  19.115  1.00  0.00     0.000 C 
BRANCH  14  15
ATOM     15  C   UNL     1      17.599  42.631  18.991  1.00  0.00     0.000 C 
BRANCH  15  16
ATOM     16  C   UNL     1      16.406  42.980  19.895  1.00  0.00     0.000 C 
BRANCH  16  17
ATOM     17  C   UNL     1      15.688  44.275  19.471  1.00  0.00     0.000 C 
BRANCH  17  18
ATOM     18  C   UNL     1      15.536  45.334  20.578  1.00  0.00     0.000 C 
BRANCH  18  19
ATOM     19  C   UNL     1      14.124  45.943  20.638  1.00  0.00     0.000 C 
BRANCH  19  20
ATOM     20  C   UNL     1      13.353  45.788  19.315  1.00  0.00     0.006 C 
BRANCH  20  21
ATOM     21  C   UNL     1      12.078  44.936  19.418  1.00  0.00     0.053 C 
BRANCH  21  22
ATOM     22  C   UNL     1      10.847  45.779  19.551  1.00  0.00     0.041 C 
ATOM     23  O   UNL     1      10.921  47.030  19.430  1.00  0.00    -0.550 OA
ATOM     24  O   UNL     1       9.616  45.181  19.788  1.00  0.00    -0.550 OA
ENDBRANCH  21  22
ENDBRANCH  20  21
ENDBRANCH  19  20
ENDBRANCH  18  19
ENDBRANCH  17  18
ENDBRANCH  16  17
ENDBRANCH  15  16
ENDBRANCH  14  15
ENDBRANCH  13  14
ENDBRANCH   1  13
TORSDOF 20
ENDMDL
MODEL 4
REMARK VINA RESULT:    -4.194      3.127      4.812
REMARK INTER + INTRA:         -11.574
REMARK INTER:                  -9.299
REMARK INTRA:                  -2.275
REMARK UNBOUND:                -2.477
REMARK SMILES CCCCCCCCCCCCCCCCCCCCCC(=O)[O-]
REMARK SMILES IDX 12 1 11 2 10 3 9 4 8 5 7 6 6 7 5 8 4 9 3 10 2 11 1 12 13 13
REMARK SMILES IDX 14 14 15 15 16 16 17 17 18 18 19 19 20 20 21 21 22 22 23 23
REMARK SMILES IDX 24 24
REMARK H PARENT
REMARK Flexibility Score: inf
ROOT
ATOM      1  C   UNL     1      16.805  46.730  21.110  1.00  0.00     0.000 C 
ENDROOT
BRANCH   1   2
ATOM      2  C   UNL     1      16.571  46.564  19.599  1.00  0.00     0.000 C 
BRANCH   2   3
ATOM      3  C   UNL     1      16.079  45.155  19.221  1.00  0.00     0.000 C 
BRANCH   3   4
ATOM      4  C   UNL     1      14.632  44.834  19.634  1.00  0.00    -0.000 C 
BRANCH   4   5
ATOM      5  C   UNL     1      13.696  46.049  19.538  1.00  0.00    -0.000 C 
BRANCH   5   6
ATOM      6  C   UNL     1      13.242  46.282  18.091  1.00  0.00    -0.000 C 
BRANCH   6   7
ATOM      7  C   UNL     1      11.730  46.546  18.029  1.00  0.00    -0.000 C 
BRANCH   7   8
ATOM      8  C   UNL     1      11.079  46.613  19.420  1.00  0.00    -0.000 C 
BRANCH   8   9
ATOM      9  C   UNL     1      10.035  45.504  19.639  1.00  0.00    -0.000 C 
BRANCH   9  10
ATOM     10  C   UNL     1      10.638  44.228  20.254  1.00  0.00    -0.000 C 
BRANCH  10  11
ATOM     11  C   UNL     1       9.843  42.937  19.986  1.00  0.00    -0.003 C 
ATOM     12  C   UNL     1       8.424  43.201  19.485  1.00  0.00     0.004 C 
ENDBRANCH  10  11
ENDBRANCH   9  10
ENDBRANCH   8   9
ENDBRANCH   7   8
ENDBRANCH   6   7
ENDBRANCH   5   6
ENDBRANCH   4   5
ENDBRANCH   3   4
ENDBRANCH   2   3
ENDBRANCH   1   2
BRANCH   1  13
ATOM     13  C   UNL     1      17.835  47.825  21.432  1.00  0.00     0.000 C 
BRANCH  13  14
ATOM     14  C   UNL     1      18.873  48.014  20.314  1.00  0.00     0.000 C 
BRANCH  14  15
ATOM     15  C   UNL     1      20.186  47.302  20.662  1.00  0.00     0.000 C 
BRANCH  15  16
ATOM     16  C   UNL     1      20.217  45.883  20.073  1.00  0.00     0.000 C 
BRANCH  16  17
ATOM     17  C   UNL     1      20.221  44.783  21.151  1.00  0.00     0.000 C 
BRANCH  17  18
ATOM     18  C   UNL     1      19.462  43.495  20.779  1.00  0.00     0.000 C 
BRANCH  18  19
ATOM     19  C   UNL     1      18.386  43.113  21.810  1.00  0.00     0.000 C 
BRANCH  19  20
ATOM     20  C   UNL     1      17.196  42.367  21.179  1.00  0.00     0.006 C 
BRANCH  20  21
ATOM     21  C   UNL     1      17.397  40.849  21.045  1.00  0.00     0.053 C 
BRANCH  21  22
ATOM     22  C   UNL     1      17.533  40.424  19.615  1.00  0.00     0.041 C 
ATOM     23  O   UNL     1      16.980  39.366  19.213  1.00  0.00    -0.550 OA
ATOM     24  O   UNL     1      18.254  41.206  18.721  1.00  0.00    -0.550 OA
ENDBRANCH  21  22
ENDBRANCH  20  21
ENDBRANCH  19  20
ENDBRANCH  18  19
ENDBRANCH  17  18
ENDBRANCH  16  17
ENDBRANCH  15  16
ENDBRANCH  14  15
ENDBRANCH  13  14
ENDBRANCH   1  13
TORSDOF 20
ENDMDL
MODEL 5
REMARK VINA RESULT:    -4.167      1.745      3.030
REMARK INTER + INTRA:         -11.517
REMARK INTER:                  -8.748
REMARK INTRA:                  -2.769
REMARK UNBOUND:                -2.477
REMARK SMILES CCCCCCCCCCCCCCCCCCCCCC(=O)[O-]
REMARK SMILES IDX 12 1 11 2 10 3 9 4 8 5 7 6 6 7 5 8 4 9 3 10 2 11 1 12 13 13
REMARK SMILES IDX 14 14 15 15 16 16 17 17 18 18 19 19 20 20 21 21 22 22 23 23
REMARK SMILES IDX 24 24
REMARK H PARENT
REMARK Flexibility Score: inf
ROOT
ATOM      1  C   UNL     1      16.723  41.176  20.286  1.00  0.00     0.000 C 
ENDROOT
BRANCH   1   2
ATOM      2  C   UNL     1      16.281  42.620  20.581  1.00  0.00     0.000 C 
BRANCH   2   3
ATOM      3  C   UNL     1      16.217  43.496  19.316  1.00  0.00     0.000 C 
BRANCH   3   4
ATOM      4  C   UNL     1      14.836  44.102  19.008  1.00  0.00    -0.000 C 
BRANCH   4   5
ATOM      5  C   UNL     1      13.687  43.099  19.190  1.00  0.00    -0.000 C 
BRANCH   5   6
ATOM      6  C   UNL     1      12.369  43.821  19.501  1.00  0.00    -0.000 C 
BRANCH   6   7
ATOM      7  C   UNL     1      12.631  45.265  19.954  1.00  0.00    -0.000 C 
BRANCH   7   8
ATOM      8  C   UNL     1      11.545  46.245  19.480  1.00  0.00    -0.000 C 
BRANCH   8   9
ATOM      9  C   UNL     1      11.725  46.663  18.010  1.00  0.00    -0.000 C 
BRANCH   9  10
ATOM     10  C   UNL     1      13.170  47.082  17.680  1.00  0.00    -0.000 C 
BRANCH  10  11
ATOM     11  C   UNL     1      13.745  46.475  16.388  1.00  0.00    -0.003 C 
ATOM     12  C   UNL     1      13.019  45.205  15.948  1.00  0.00     0.004 C 
ENDBRANCH  10  11
ENDBRANCH   9  10
ENDBRANCH   8   9
ENDBRANCH   7   8
ENDBRANCH   6   7
ENDBRANCH   5   6
ENDBRANCH   4   5
ENDBRANCH   3   4
ENDBRANCH   2   3
ENDBRANCH   1   2
BRANCH   1  13
ATOM     13  C   UNL     1      18.243  41.050  20.100  1.00  0.00     0.000 C 
BRANCH  13  14
ATOM     14  C   UNL     1      19.040  41.831  21.157  1.00  0.00     0.000 C 
BRANCH  14  15
ATOM     15  C   UNL     1      20.374  42.324  20.582  1.00  0.00     0.000 C 
BRANCH  15  16
ATOM     16  C   UNL     1      20.611  43.802  20.929  1.00  0.00     0.000 C 
BRANCH  16  17
ATOM     17  C   UNL     1      19.335  44.522  21.403  1.00  0.00     0.000 C 
BRANCH  17  18
ATOM     18  C   UNL     1      18.810  45.621  20.460  1.00  0.00     0.000 C 
BRANCH  18  19
ATOM     19  C   UNL     1      17.699  46.477  21.092  1.00  0.00     0.000 C 
BRANCH  19  20
ATOM     20  C   UNL     1      17.908  47.985  20.863  1.00  0.00     0.006 C 
BRANCH  20  21
ATOM     21  C   UNL     1      19.330  48.482  21.166  1.00  0.00     0.053 C 
BRANCH  21  22
ATOM     22  C   UNL     1      19.898  49.286  20.036  1.00  0.00     0.041 C 
ATOM     23  O   UNL     1      19.282  49.361  18.941  1.00  0.00    -0.550 OA
ATOM     24  O   UNL     1      21.097  49.967  20.200  1.00  0.00    -0.550 OA
ENDBRANCH  21  22
ENDBRANCH  20  21
ENDBRANCH  19  20
ENDBRANCH  18  19
ENDBRANCH  17  18
ENDBRANCH  16  17
ENDBRANCH  15  16
ENDBRANCH  14  15
ENDBRANCH  13  14
ENDBRANCH   1  13
TORSDOF 20
ENDMDL
MODEL 6
REMARK VINA RESULT:    -4.165      3.203      6.934
REMARK INTER + INTRA:         -11.513
REMARK INTER:                  -8.426
REMARK INTRA:                  -3.087
REMARK UNBOUND:                -2.477
REMARK SMILES CCCCCCCCCCCCCCCCCCCCCC(=O)[O-]
REMARK SMILES IDX 12 1 11 2 10 3 9 4 8 5 7 6 6 7 5 8 4 9 3 10 2 11 1 12 13 13
REMARK SMILES IDX 14 14 15 15 16 16 17 17 18 18 19 19 20 20 21 21 22 22 23 23
REMARK SMILES IDX 24 24
REMARK H PARENT
REMARK Flexibility Score: inf
ROOT
ATOM      1  C   UNL     1      21.411  43.280  21.985  1.00  0.00     0.000 C 
ENDROOT
BRANCH   1   2
ATOM      2  C   UNL     1      20.795  42.761  23.295  1.00  0.00     0.000 C 
BRANCH   2   3
ATOM      3  C   UNL     1      19.262  42.635  23.228  1.00  0.00     0.000 C 
BRANCH   3   4
ATOM      4  C   UNL     1      18.737  41.508  22.320  1.00  0.00    -0.000 C 
BRANCH   4   5
ATOM      5  C   UNL     1      17.628  41.973  21.365  1.00  0.00    -0.000 C 
BRANCH   5   6
ATOM      6  C   UNL     1      18.164  42.139  19.937  1.00  0.00    -0.000 C 
BRANCH   6   7
ATOM      7  C   UNL     1      19.431  41.297  19.727  1.00  0.00    -0.000 C 
BRANCH   7   8
ATOM      8  C   UNL     1      19.228  40.153  18.721  1.00  0.00    -0.000 C 
BRANCH   8   9
ATOM      9  C   UNL     1      19.186  38.770  19.396  1.00  0.00    -0.000 C 
BRANCH   9  10
ATOM     10  C   UNL     1      17.839  38.480  20.083  1.00  0.00    -0.000 C 
BRANCH  10  11
ATOM     11  C   UNL     1      16.594  38.778  19.228  1.00  0.00    -0.003 C 
ATOM     12  C   UNL     1      15.398  39.247  20.054  1.00  0.00     0.004 C 
ENDBRANCH  10  11
ENDBRANCH   9  10
ENDBRANCH   8   9
ENDBRANCH   7   8
ENDBRANCH   6   7
ENDBRANCH   5   6
ENDBRANCH   4   5
ENDBRANCH   3   4
ENDBRANCH   2   3
ENDBRANCH   1   2
BRANCH   1  13
ATOM     13  C   UNL     1      21.111  44.768  21.739  1.00  0.00     0.000 C 
BRANCH  13  14
ATOM     14  C   UNL     1      20.168  44.997  20.548  1.00  0.00     0.000 C 
BRANCH  14  15
ATOM     15  C   UNL     1      19.957  46.496  20.299  1.00  0.00     0.000 C 
BRANCH  15  16
ATOM     16  C   UNL     1      18.523  46.918  20.656  1.00  0.00     0.000 C 
BRANCH  16  17
ATOM     17  C   UNL     1      17.592  45.721  20.925  1.00  0.00     0.000 C 
BRANCH  17  18
ATOM     18  C   UNL     1      16.477  45.509  19.884  1.00  0.00     0.000 C 
BRANCH  18  19
ATOM     19  C   UNL     1      15.327  44.629  20.404  1.00  0.00     0.000 C 
BRANCH  19  20
ATOM     20  C   UNL     1      14.185  45.451  21.029  1.00  0.00     0.006 C 
BRANCH  20  21
ATOM     21  C   UNL     1      13.319  46.211  20.010  1.00  0.00     0.053 C 
BRANCH  21  22
ATOM     22  C   UNL     1      11.971  45.582  19.838  1.00  0.00     0.041 C 
ATOM     23  O   UNL     1      10.964  46.299  19.599  1.00  0.00    -0.550 OA
ATOM     24  O   UNL     1      11.831  44.203  19.921  1.00  0.00    -0.550 OA
ENDBRANCH  21  22
ENDBRANCH  20  21
ENDBRANCH  19  20
ENDBRANCH  18  19
ENDBRANCH  17  18
ENDBRANCH  16  17
ENDBRANCH  15  16
ENDBRANCH  14  15
ENDBRANCH  13  14
ENDBRANCH   1  13
TORSDOF 20
ENDMDL
MODEL 7
REMARK VINA RESULT:    -4.093      2.956      6.557
REMARK INTER + INTRA:         -11.356
REMARK INTER:                  -7.542
REMARK INTRA:                  -3.814
REMARK UNBOUND:                -2.477
REMARK SMILES CCCCCCCCCCCCCCCCCCCCCC(=O)[O-]
REMARK SMILES IDX 12 1 11 2 10 3 9 4 8 5 7 6 6 7 5 8 4 9 3 10 2 11 1 12 13 13
REMARK SMILES IDX 14 14 15 15 16 16 17 17 18 18 19 19 20 20 21 21 22 22 23 23
REMARK SMILES IDX 24 24
REMARK H PARENT
REMARK Flexibility Score: inf
ROOT
ATOM      1  C   UNL     1      21.860  42.725  22.524  1.00  0.00     0.000 C 
ENDROOT
BRANCH   1   2
ATOM      2  C   UNL     1      21.456  42.404  23.973  1.00  0.00     0.000 C 
BRANCH   2   3
ATOM      3  C   UNL     1      19.949  42.591  24.229  1.00  0.00     0.000 C 
BRANCH   3   4
ATOM      4  C   UNL     1      19.112  41.300  24.186  1.00  0.00    -0.000 C 
BRANCH   4   5
ATOM      5  C   UNL     1      18.428  41.073  22.829  1.00  0.00    -0.000 C 
BRANCH   5   6
ATOM      6  C   UNL     1      19.012  39.848  22.115  1.00  0.00    -0.000 C 
BRANCH   6   7
ATOM      7  C   UNL     1      19.659  40.249  20.780  1.00  0.00    -0.000 C 
BRANCH   7   8
ATOM      8  C   UNL     1      19.638  39.115  19.743  1.00  0.00    -0.000 C 
BRANCH   8   9
ATOM      9  C   UNL     1      18.548  39.310  18.674  1.00  0.00    -0.000 C 
BRANCH   9  10
ATOM     10  C   UNL     1      17.291  38.461  18.939  1.00  0.00    -0.000 C 
BRANCH  10  11
ATOM     11  C   UNL     1      16.121  39.218  19.593  1.00  0.00    -0.003 C 
ATOM     12  C   UNL     1      15.744  38.667  20.967  1.00  0.00     0.004 C 
ENDBRANCH  10  11
ENDBRANCH   9  10
ENDBRANCH   8   9
ENDBRANCH   7   8
ENDBRANCH   6   7
ENDBRANCH   5   6
ENDBRANCH   4   5
ENDBRANCH   3   4
ENDBRANCH   2   3
ENDBRANCH   1   2
BRANCH   1  13
ATOM     13  C   UNL     1      21.196  44.006  21.995  1.00  0.00     0.000 C 
BRANCH  13  14
ATOM     14  C   UNL     1      20.584  43.827  20.597  1.00  0.00     0.000 C 
BRANCH  14  15
ATOM     15  C   UNL     1      19.055  43.938  20.651  1.00  0.00     0.000 C 
BRANCH  15  16
ATOM     16  C   UNL     1      18.415  43.367  19.376  1.00  0.00     0.000 C 
BRANCH  16  17
ATOM     17  C   UNL     1      17.067  42.670  19.638  1.00  0.00     0.000 C 
BRANCH  17  18
ATOM     18  C   UNL     1      16.209  43.298  20.753  1.00  0.00     0.000 C 
BRANCH  18  19
ATOM     19  C   UNL     1      15.020  44.111  20.211  1.00  0.00     0.000 C 
BRANCH  19  20
ATOM     20  C   UNL     1      15.175  45.623  20.455  1.00  0.00     0.006 C 
BRANCH  20  21
ATOM     21  C   UNL     1      16.177  46.319  19.520  1.00  0.00     0.053 C 
BRANCH  21  22
ATOM     22  C   UNL     1      17.212  47.091  20.280  1.00  0.00     0.041 C 
ATOM     23  O   UNL     1      17.863  48.007  19.711  1.00  0.00    -0.550 OA
ATOM     24  O   UNL     1      17.442  46.814  21.621  1.00  0.00    -0.550 OA
ENDBRANCH  21  22
ENDBRANCH  20  21
ENDBRANCH  19  20
ENDBRANCH  18  19
ENDBRANCH  17  18
ENDBRANCH  16  17
ENDBRANCH  15  16
ENDBRANCH  14  15
ENDBRANCH  13  14
ENDBRANCH   1  13
TORSDOF 20
ENDMDL
MODEL 8
REMARK VINA RESULT:    -4.078      5.795      8.139
REMARK INTER + INTRA:         -11.322
REMARK INTER:                  -9.550
REMARK INTRA:                  -1.772
REMARK UNBOUND:                -2.477
REMARK SMILES CCCCCCCCCCCCCCCCCCCCCC(=O)[O-]
REMARK SMILES IDX 12 1 11 2 10 3 9 4 8 5 7 6 6 7 5 8 4 9 3 10 2 11 1 12 13 13
REMARK SMILES IDX 14 14 15 15 16 16 17 17 18 18 19 19 20 20 21 21 22 22 23 23
REMARK SMILES IDX 24 24
REMARK H PARENT
REMARK Flexibility Score: inf
ROOT
ATOM      1  C   UNL     1      18.884  40.582  25.701  1.00  0.00     0.000 C 
ENDROOT
BRANCH   1   2
ATOM      2  C   UNL     1      19.136  39.365  26.607  1.00  0.00     0.000 C 
BRANCH   2   3
ATOM      3  C   UNL     1      18.906  39.670  28.099  1.00  0.00     0.000 C 
BRANCH   3   4
ATOM      4  C   UNL     1      17.541  40.296  28.436  1.00  0.00    -0.000 C 
BRANCH   4   5
ATOM      5  C   UNL     1      16.848  39.619  29.629  1.00  0.00    -0.000 C 
BRANCH   5   6
ATOM      6  C   UNL     1      15.599  40.401  30.057  1.00  0.00    -0.000 C 
BRANCH   6   7
ATOM      7  C   UNL     1      15.457  41.694  29.240  1.00  0.00    -0.000 C 
BRANCH   7   8
ATOM      8  C   UNL     1      14.083  41.825  28.564  1.00  0.00    -0.000 C 
BRANCH   8   9
ATOM      9  C   UNL     1      13.206  40.575  28.760  1.00  0.00    -0.000 C 
BRANCH   9  10
ATOM     10  C   UNL     1      12.986  39.788  27.454  1.00  0.00    -0.000 C 
BRANCH  10  11
ATOM     11  C   UNL     1      14.160  38.886  27.033  1.00  0.00    -0.003 C 
ATOM     12  C   UNL     1      14.234  37.587  27.832  1.00  0.00     0.004 C 
ENDBRANCH  10  11
ENDBRANCH   9  10
ENDBRANCH   8   9
ENDBRANCH   7   8
ENDBRANCH   6   7
ENDBRANCH   5   6
ENDBRANCH   4   5
ENDBRANCH   3   4
ENDBRANCH   2   3
ENDBRANCH   1   2
BRANCH   1  13
ATOM     13  C   UNL     1      19.959  41.669  25.859  1.00  0.00     0.000 C 
BRANCH  13  14
ATOM     14  C   UNL     1      20.462  42.210  24.512  1.00  0.00     0.000 C 
BRANCH  14  15
ATOM     15  C   UNL     1      19.319  42.861  23.723  1.00  0.00     0.000 C 
BRANCH  15  16
ATOM     16  C   UNL     1      19.160  42.208  22.341  1.00  0.00     0.000 C 
BRANCH  16  17
ATOM     17  C   UNL     1      18.285  43.034  21.381  1.00  0.00     0.000 C 
BRANCH  17  18
ATOM     18  C   UNL     1      18.599  44.541  21.338  1.00  0.00     0.000 C 
BRANCH  18  19
ATOM     19  C   UNL     1      19.762  44.886  20.392  1.00  0.00     0.000 C 
BRANCH  19  20
ATOM     20  C   UNL     1      20.254  46.336  20.559  1.00  0.00     0.006 C 
BRANCH  20  21
ATOM     21  C   UNL     1      19.144  47.350  20.877  1.00  0.00     0.053 C 
BRANCH  21  22
ATOM     22  C   UNL     1      19.319  48.631  20.120  1.00  0.00     0.041 C 
ATOM     23  O   UNL     1      18.673  48.832  19.058  1.00  0.00    -0.550 OA
ATOM     24  O   UNL     1      20.180  49.610  20.599  1.00  0.00    -0.550 OA
ENDBRANCH  21  22
ENDBRANCH  20  21
ENDBRANCH  19  20
ENDBRANCH  18  19
ENDBRANCH  17  18
ENDBRANCH  16  17
ENDBRANCH  15  16
ENDBRANCH  14  15
ENDBRANCH  13  14
ENDBRANCH   1  13
TORSDOF 20
ENDMDL
MODEL 9
REMARK VINA RESULT:    -4.033      3.332      7.340
REMARK INTER + INTRA:         -11.225
REMARK INTER:                  -9.022
REMARK INTRA:                  -2.203
REMARK UNBOUND:                -2.477
REMARK SMILES CCCCCCCCCCCCCCCCCCCCCC(=O)[O-]
REMARK SMILES IDX 12 1 11 2 10 3 9 4 8 5 7 6 6 7 5 8 4 9 3 10 2 11 1 12 13 13
REMARK SMILES IDX 14 14 15 15 16 16 17 17 18 18 19 19 20 20 21 21 22 22 23 23
REMARK SMILES IDX 24 24
REMARK H PARENT
REMARK Flexibility Score: inf
ROOT
ATOM      1  C   UNL     1      19.605  41.066  22.919  1.00  0.00     0.000 C 
ENDROOT
BRANCH   1   2
ATOM      2  C   UNL     1      19.547  42.575  23.207  1.00  0.00     0.000 C 
BRANCH   2   3
ATOM      3  C   UNL     1      20.870  43.296  22.889  1.00  0.00     0.000 C 
BRANCH   3   4
ATOM      4  C   UNL     1      21.175  43.474  21.391  1.00  0.00    -0.000 C 
BRANCH   4   5
ATOM      5  C   UNL     1      20.099  44.283  20.650  1.00  0.00    -0.000 C 
BRANCH   5   6
ATOM      6  C   UNL     1      20.186  45.772  21.006  1.00  0.00    -0.000 C 
BRANCH   6   7
ATOM      7  C   UNL     1      19.155  46.586  20.208  1.00  0.00    -0.000 C 
BRANCH   7   8
ATOM      8  C   UNL     1      18.460  47.664  21.056  1.00  0.00    -0.000 C 
BRANCH   8   9
ATOM      9  C   UNL     1      19.056  49.066  20.838  1.00  0.00    -0.000 C 
BRANCH   9  10
ATOM     10  C   UNL     1      19.661  49.665  22.120  1.00  0.00    -0.000 C 
BRANCH  10  11
ATOM     11  C   UNL     1      20.762  50.716  21.891  1.00  0.00    -0.003 C 
ATOM     12  C   UNL     1      21.188  50.829  20.429  1.00  0.00     0.004 C 
ENDBRANCH  10  11
ENDBRANCH   9  10
ENDBRANCH   8   9
ENDBRANCH   7   8
ENDBRANCH   6   7
ENDBRANCH   5   6
ENDBRANCH   4   5
ENDBRANCH   3   4
ENDBRANCH   2   3
ENDBRANCH   1   2
BRANCH   1  13
ATOM     13  C   UNL     1      18.643  40.641  21.797  1.00  0.00     0.000 C 
BRANCH  13  14
ATOM     14  C   UNL     1      17.472  41.618  21.614  1.00  0.00     0.000 C 
BRANCH  14  15
ATOM     15  C   UNL     1      16.886  41.511  20.201  1.00  0.00     0.000 C 
BRANCH  15  16
ATOM     16  C   UNL     1      17.688  42.364  19.205  1.00  0.00     0.000 C 
BRANCH  16  17
ATOM     17  C   UNL     1      16.929  43.622  18.743  1.00  0.00     0.000 C 
BRANCH  17  18
ATOM     18  C   UNL     1      15.621  43.916  19.500  1.00  0.00     0.000 C 
BRANCH  18  19
ATOM     19  C   UNL     1      15.544  45.359  20.030  1.00  0.00     0.000 C 
BRANCH  19  20
ATOM     20  C   UNL     1      14.340  46.135  19.467  1.00  0.00     0.006 C 
BRANCH  20  21
ATOM     21  C   UNL     1      14.441  46.465  17.969  1.00  0.00     0.053 C 
BRANCH  21  22
ATOM     22  C   UNL     1      13.139  46.262  17.258  1.00  0.00     0.041 C 
ATOM     23  O   UNL     1      13.084  45.535  16.232  1.00  0.00    -0.550 OA
ATOM     24  O   UNL     1      11.981  46.859  17.742  1.00  0.00    -0.550 OA
ENDBRANCH  21  22
ENDBRANCH  20  21
ENDBRANCH  19  20
ENDBRANCH  18  19
ENDBRANCH  17  18
ENDBRANCH  16  17
ENDBRANCH  15  16
ENDBRANCH  14  15
ENDBRANCH  13  14
ENDBRANCH   1  13
TORSDOF 20
ENDMDL
