MODEL 1
REMARK VINA RESULT:    -3.755      0.000      0.000
REMARK INTER + INTRA:          -4.450
REMARK INTER:                  -4.414
REMARK INTRA:                  -0.036
REMARK UNBOUND:                -0.036
REMARK SMILES O=C([O-])CCC(=O)[O-]
REMARK SMILES IDX 4 1 2 2 1 3 3 4 5 5 6 6 7 7 8 8
REMARK H PARENT
REMARK Flexibility Score: inf
ROOT
ATOM      1  C   UNL     1      16.118  68.654  33.682  1.00  0.00     0.059 C 
ENDROOT
BRANCH   1   2
ATOM      2  C   UNL     1      15.214  68.188  32.584  1.00  0.00     0.042 C 
ATOM      3  O   UNL     1      14.887  66.974  32.504  1.00  0.00    -0.550 OA
ATOM      4  O   UNL     1      14.772  69.085  31.620  1.00  0.00    -0.550 OA
ENDBRANCH   1   2
BRANCH   1   5
ATOM      5  C   UNL     1      16.898  69.894  33.243  1.00  0.00     0.059 C 
BRANCH   5   6
ATOM      6  C   UNL     1      17.443  70.618  34.433  1.00  0.00     0.042 C 
ATOM      7  O   UNL     1      17.997  69.978  35.365  1.00  0.00    -0.550 OA
ATOM      8  O   UNL     1      17.386  72.004  34.489  1.00  0.00    -0.550 OA
ENDBRANCH   5   6
ENDBRANCH   1   5
TORSDOF 3
ENDMDL
MODEL 2
REMARK VINA RESULT:    -3.733      0.157      4.394
REMARK INTER + INTRA:          -4.424
REMARK INTER:                  -4.386
REMARK INTRA:                  -0.038
REMARK UNBOUND:                -0.036
REMARK SMILES O=C([O-])CCC(=O)[O-]
REMARK SMILES IDX 4 1 2 2 1 3 3 4 5 5 6 6 7 7 8 8
REMARK H PARENT
REMARK Flexibility Score: inf
ROOT
ATOM      1  C   UNL     1      17.041  69.799  33.284  1.00  0.00     0.059 C 
ENDROOT
BRANCH   1   2
ATOM      2  C   UNL     1      17.511  70.547  34.492  1.00  0.00     0.042 C 
ATOM      3  O   UNL     1      17.446  71.804  34.523  1.00  0.00    -0.550 OA
ATOM      4  O   UNL     1      18.067  69.859  35.562  1.00  0.00    -0.550 OA
ENDBRANCH   1   2
BRANCH   1   5
ATOM      5  C   UNL     1      16.106  68.659  33.691  1.00  0.00     0.059 C 
BRANCH   5   6
ATOM      6  C   UNL     1      15.213  68.282  32.551  1.00  0.00     0.042 C 
ATOM      7  O   UNL     1      14.849  69.153  31.717  1.00  0.00    -0.550 OA
ATOM      8  O   UNL     1      14.822  66.961  32.381  1.00  0.00    -0.550 OA
ENDBRANCH   5   6
ENDBRANCH   1   5
TORSDOF 3
ENDMDL
MODEL 3
REMARK VINA RESULT:    -3.698      0.716      1.801
REMARK INTER + INTRA:          -4.382
REMARK INTER:                  -4.343
REMARK INTRA:                  -0.039
REMARK UNBOUND:                -0.036
REMARK SMILES O=C([O-])CCC(=O)[O-]
REMARK SMILES IDX 4 1 2 2 1 3 3 4 5 5 6 6 7 7 8 8
REMARK H PARENT
REMARK Flexibility Score: inf
ROOT
ATOM      1  C   UNL     1      16.334  69.638  32.692  1.00  0.00     0.059 C 
ENDROOT
BRANCH   1   2
ATOM      2  C   UNL     1      15.221  68.806  32.135  1.00  0.00     0.042 C 
ATOM      3  O   UNL     1      14.455  69.280  31.256  1.00  0.00    -0.550 OA
ATOM      4  O   UNL     1      15.000  67.525  32.624  1.00  0.00    -0.550 OA
ENDBRANCH   1   2
BRANCH   1   5
ATOM      5  C   UNL     1      16.800  69.078  34.036  1.00  0.00     0.059 C 
BRANCH   5   6
ATOM      6  C   UNL     1      17.643  70.082  34.758  1.00  0.00     0.042 C 
ATOM      7  O   UNL     1      17.491  71.312  34.538  1.00  0.00    -0.550 OA
ATOM      8  O   UNL     1      18.561  69.661  35.711  1.00  0.00    -0.550 OA
ENDBRANCH   5   6
ENDBRANCH   1   5
TORSDOF 3
ENDMDL
MODEL 4
REMARK VINA RESULT:    -3.652      8.985      9.634
REMARK INTER + INTRA:          -4.328
REMARK INTER:                  -4.234
REMARK INTRA:                  -0.094
REMARK UNBOUND:                -0.036
REMARK SMILES O=C([O-])CCC(=O)[O-]
REMARK SMILES IDX 4 1 2 2 1 3 3 4 5 5 6 6 7 7 8 8
REMARK H PARENT
REMARK Flexibility Score: inf
ROOT
ATOM      1  C   UNL     1      23.189  74.092  28.386  1.00  0.00     0.059 C 
ENDROOT
BRANCH   1   2
ATOM      2  C   UNL     1      23.194  72.627  28.078  1.00  0.00     0.042 C 
ATOM      3  O   UNL     1      24.263  71.967  28.157  1.00  0.00    -0.550 OA
ATOM      4  O   UNL     1      22.029  72.002  27.654  1.00  0.00    -0.550 OA
ENDBRANCH   1   2
BRANCH   1   5
ATOM      5  C   UNL     1      24.487  74.496  29.086  1.00  0.00     0.059 C 
BRANCH   5   6
ATOM      6  C   UNL     1      24.221  74.859  30.513  1.00  0.00     0.042 C 
ATOM      7  O   UNL     1      23.490  74.124  31.229  1.00  0.00    -0.550 OA
ATOM      8  O   UNL     1      24.821  75.981  31.068  1.00  0.00    -0.550 OA
ENDBRANCH   5   6
ENDBRANCH   1   5
TORSDOF 3
ENDMDL
MODEL 5
REMARK VINA RESULT:    -3.641      9.355     10.705
REMARK INTER + INTRA:          -4.316
REMARK INTER:                  -4.277
REMARK INTRA:                  -0.039
REMARK UNBOUND:                -0.036
REMARK SMILES O=C([O-])CCC(=O)[O-]
REMARK SMILES IDX 4 1 2 2 1 3 3 4 5 5 6 6 7 7 8 8
REMARK H PARENT
REMARK Flexibility Score: inf
ROOT
ATOM      1  C   UNL     1      23.754  74.245  30.136  1.00  0.00     0.059 C 
ENDROOT
BRANCH   1   2
ATOM      2  C   UNL     1      24.587  75.349  30.707  1.00  0.00     0.042 C 
ATOM      3  O   UNL     1      25.643  75.712  30.125  1.00  0.00    -0.550 OA
ATOM      4  O   UNL     1      24.225  75.941  31.910  1.00  0.00    -0.550 OA
ENDBRANCH   1   2
BRANCH   1   5
ATOM      5  C   UNL     1      24.014  74.099  28.636  1.00  0.00     0.059 C 
BRANCH   5   6
ATOM      6  C   UNL     1      23.615  72.736  28.165  1.00  0.00     0.042 C 
ATOM      7  O   UNL     1      24.464  71.806  28.125  1.00  0.00    -0.550 OA
ATOM      8  O   UNL     1      22.295  72.479  27.820  1.00  0.00    -0.550 OA
ENDBRANCH   5   6
ENDBRANCH   1   5
TORSDOF 3
ENDMDL
MODEL 6
REMARK VINA RESULT:    -3.585      9.443     10.203
REMARK INTER + INTRA:          -4.249
REMARK INTER:                  -4.149
REMARK INTRA:                  -0.100
REMARK UNBOUND:                -0.036
REMARK SMILES O=C([O-])CCC(=O)[O-]
REMARK SMILES IDX 4 1 2 2 1 3 3 4 5 5 6 6 7 7 8 8
REMARK H PARENT
REMARK Flexibility Score: inf
ROOT
ATOM      1  C   UNL     1      23.445  72.880  28.191  1.00  0.00     0.059 C 
ENDROOT
BRANCH   1   2
ATOM      2  C   UNL     1      24.607  71.990  27.881  1.00  0.00     0.042 C 
ATOM      3  O   UNL     1      24.548  70.757  28.134  1.00  0.00    -0.550 OA
ATOM      4  O   UNL     1      25.776  72.529  27.359  1.00  0.00    -0.550 OA
ENDBRANCH   1   2
BRANCH   1   5
ATOM      5  C   UNL     1      23.917  74.317  28.415  1.00  0.00     0.059 C 
BRANCH   5   6
ATOM      6  C   UNL     1      24.101  74.586  29.875  1.00  0.00     0.042 C 
ATOM      7  O   UNL     1      23.421  73.955  30.727  1.00  0.00    -0.550 OA
ATOM      8  O   UNL     1      25.059  75.498  30.298  1.00  0.00    -0.550 OA
ENDBRANCH   5   6
ENDBRANCH   1   5
TORSDOF 3
ENDMDL
MODEL 7
REMARK VINA RESULT:    -3.557      9.208     10.319
REMARK INTER + INTRA:          -4.217
REMARK INTER:                  -4.182
REMARK INTRA:                  -0.035
REMARK UNBOUND:                -0.036
REMARK SMILES O=C([O-])CCC(=O)[O-]
REMARK SMILES IDX 4 1 2 2 1 3 3 4 5 5 6 6 7 7 8 8
REMARK H PARENT
REMARK Flexibility Score: inf
ROOT
ATOM      1  C   UNL     1      23.476  72.346  28.052  1.00  0.00     0.059 C 
ENDROOT
BRANCH   1   2
ATOM      2  C   UNL     1      23.827  73.545  28.875  1.00  0.00     0.042 C 
ATOM      3  O   UNL     1      23.150  73.832  29.898  1.00  0.00    -0.550 OA
ATOM      4  O   UNL     1      24.869  74.375  28.485  1.00  0.00    -0.550 OA
ENDBRANCH   1   2
BRANCH   1   5
ATOM      5  C   UNL     1      24.639  71.353  28.030  1.00  0.00     0.059 C 
BRANCH   5   6
ATOM      6  C   UNL     1      24.152  69.983  27.680  1.00  0.00     0.042 C 
ATOM      7  O   UNL     1      24.960  69.105  27.277  1.00  0.00    -0.550 OA
ATOM      8  O   UNL     1      22.812  69.658  27.848  1.00  0.00    -0.550 OA
ENDBRANCH   5   6
ENDBRANCH   1   5
TORSDOF 3
ENDMDL
MODEL 8
REMARK VINA RESULT:    -3.557      0.977      1.434
REMARK INTER + INTRA:          -4.217
REMARK INTER:                  -4.098
REMARK INTRA:                  -0.119
REMARK UNBOUND:                -0.036
REMARK SMILES O=C([O-])CCC(=O)[O-]
REMARK SMILES IDX 4 1 2 2 1 3 3 4 5 5 6 6 7 7 8 8
REMARK H PARENT
REMARK Flexibility Score: inf
ROOT
ATOM      1  C   UNL     1      15.605  69.041  33.223  1.00  0.00     0.059 C 
ENDROOT
BRANCH   1   2
ATOM      2  C   UNL     1      15.505  67.549  33.295  1.00  0.00     0.042 C 
ATOM      3  O   UNL     1      14.905  66.910  32.390  1.00  0.00    -0.550 OA
ATOM      4  O   UNL     1      16.030  66.869  34.386  1.00  0.00    -0.550 OA
ENDBRANCH   1   2
BRANCH   1   5
ATOM      5  C   UNL     1      17.070  69.477  33.169  1.00  0.00     0.059 C 
BRANCH   5   6
ATOM      6  C   UNL     1      17.438  70.230  34.408  1.00  0.00     0.042 C 
ATOM      7  O   UNL     1      17.875  69.616  35.417  1.00  0.00    -0.550 OA
ATOM      8  O   UNL     1      17.347  71.616  34.432  1.00  0.00    -0.550 OA
ENDBRANCH   5   6
ENDBRANCH   1   5
TORSDOF 3
ENDMDL
MODEL 9
REMARK VINA RESULT:    -3.479      9.800     10.478
REMARK INTER + INTRA:          -4.125
REMARK INTER:                  -4.087
REMARK INTRA:                  -0.039
REMARK UNBOUND:                -0.036
REMARK SMILES O=C([O-])CCC(=O)[O-]
REMARK SMILES IDX 4 1 2 2 1 3 3 4 5 5 6 6 7 7 8 8
REMARK H PARENT
REMARK Flexibility Score: inf
ROOT
ATOM      1  C   UNL     1      24.332  71.177  28.093  1.00  0.00     0.059 C 
ENDROOT
BRANCH   1   2
ATOM      2  C   UNL     1      25.209  70.290  27.265  1.00  0.00     0.042 C 
ATOM      3  O   UNL     1      26.125  70.785  26.557  1.00  0.00    -0.550 OA
ATOM      4  O   UNL     1      24.982  68.920  27.237  1.00  0.00    -0.550 OA
ENDBRANCH   1   2
BRANCH   1   5
ATOM      5  C   UNL     1      24.719  72.643  27.898  1.00  0.00     0.059 C 
BRANCH   5   6
ATOM      6  C   UNL     1      23.675  73.542  28.482  1.00  0.00     0.042 C 
ATOM      7  O   UNL     1      24.011  74.583  29.106  1.00  0.00    -0.550 OA
ATOM      8  O   UNL     1      22.329  73.258  28.293  1.00  0.00    -0.550 OA
ENDBRANCH   5   6
ENDBRANCH   1   5
TORSDOF 3
ENDMDL
