MODEL 1
REMARK VINA RESULT:    -3.504      0.000      0.000
REMARK INTER + INTRA:          -6.122
REMARK INTER:                  -5.347
REMARK INTRA:                  -0.775
REMARK UNBOUND:                -0.775
REMARK SMILES CCCCCCCCCCC(=O)[O-]
REMARK SMILES IDX 7 1 8 2 9 3 10 4 11 5 12 6 13 7 6 8 5 9 4 10 3 11 2 12 1 13
REMARK H PARENT
REMARK Flexibility Score: inf
ROOT
ATOM      1  C   UNL     1     -45.356 -35.937  13.505  1.00  0.00     0.000 C 
ENDROOT
BRANCH   1   2
ATOM      2  C   UNL     1     -44.604 -37.168  12.969  1.00  0.00     0.000 C 
BRANCH   2   3
ATOM      3  C   UNL     1     -44.591 -38.334  13.969  1.00  0.00     0.006 C 
BRANCH   3   4
ATOM      4  C   UNL     1     -43.825 -38.002  15.257  1.00  0.00     0.053 C 
BRANCH   4   5
ATOM      5  C   UNL     1     -44.731 -38.105  16.444  1.00  0.00     0.041 C 
ATOM      6  O   UNL     1     -45.959 -38.329  16.287  1.00  0.00    -0.550 OA
ATOM      7  O   UNL     1     -44.226 -37.902  17.722  1.00  0.00    -0.550 OA
ENDBRANCH   4   5
ENDBRANCH   3   4
ENDBRANCH   2   3
ENDBRANCH   1   2
BRANCH   1   8
ATOM      8  C   UNL     1     -45.567 -34.859  12.429  1.00  0.00     0.000 C 
BRANCH   8   9
ATOM      9  C   UNL     1     -45.705 -33.448  13.027  1.00  0.00    -0.000 C 
BRANCH   9  10
ATOM     10  C   UNL     1     -45.923 -33.470  14.548  1.00  0.00    -0.000 C 
BRANCH  10  11
ATOM     11  C   UNL     1     -45.230 -32.302  15.265  1.00  0.00    -0.000 C 
BRANCH  11  12
ATOM     12  C   UNL     1     -44.337 -32.810  16.403  1.00  0.00    -0.003 C 
ATOM     13  C   UNL     1     -44.586 -34.290  16.682  1.00  0.00     0.004 C 
ENDBRANCH  11  12
ENDBRANCH  10  11
ENDBRANCH   9  10
ENDBRANCH   8   9
ENDBRANCH   1   8
TORSDOF 9
ENDMDL
MODEL 2
REMARK VINA RESULT:    -3.386      1.908      3.792
REMARK INTER + INTRA:          -5.943
REMARK INTER:                  -5.248
REMARK INTRA:                  -0.695
REMARK UNBOUND:                -0.775
REMARK SMILES CCCCCCCCCCC(=O)[O-]
REMARK SMILES IDX 7 1 8 2 9 3 10 4 11 5 12 6 13 7 6 8 5 9 4 10 3 11 2 12 1 13
REMARK H PARENT
REMARK Flexibility Score: inf
ROOT
ATOM      1  C   UNL     1     -44.484 -37.415  15.626  1.00  0.00     0.000 C 
ENDROOT
BRANCH   1   2
ATOM      2  C   UNL     1     -44.743 -38.277  16.876  1.00  0.00     0.000 C 
BRANCH   2   3
ATOM      3  C   UNL     1     -46.033 -37.878  17.609  1.00  0.00     0.006 C 
BRANCH   3   4
ATOM      4  C   UNL     1     -45.798 -37.564  19.093  1.00  0.00     0.053 C 
BRANCH   4   5
ATOM      5  C   UNL     1     -44.763 -36.493  19.242  1.00  0.00     0.041 C 
ATOM      6  O   UNL     1     -44.986 -35.331  18.811  1.00  0.00    -0.550 OA
ATOM      7  O   UNL     1     -43.533 -36.791  19.813  1.00  0.00    -0.550 OA
ENDBRANCH   4   5
ENDBRANCH   3   4
ENDBRANCH   2   3
ENDBRANCH   1   2
BRANCH   1   8
ATOM      8  C   UNL     1     -43.892 -38.227  14.462  1.00  0.00     0.000 C 
BRANCH   8   9
ATOM      9  C   UNL     1     -44.577 -37.919  13.120  1.00  0.00    -0.000 C 
BRANCH   9  10
ATOM     10  C   UNL     1     -45.557 -36.739  13.214  1.00  0.00    -0.000 C 
BRANCH  10  11
ATOM     11  C   UNL     1     -45.188 -35.583  12.271  1.00  0.00    -0.000 C 
BRANCH  11  12
ATOM     12  C   UNL     1     -45.737 -34.251  12.796  1.00  0.00    -0.003 C 
ATOM     13  C   UNL     1     -45.744 -34.221  14.323  1.00  0.00     0.004 C 
ENDBRANCH  11  12
ENDBRANCH  10  11
ENDBRANCH   9  10
ENDBRANCH   8   9
ENDBRANCH   1   8
TORSDOF 9
ENDMDL
MODEL 3
REMARK VINA RESULT:    -3.370      2.103      4.435
REMARK INTER + INTRA:          -5.918
REMARK INTER:                  -5.077
REMARK INTRA:                  -0.841
REMARK UNBOUND:                -0.775
REMARK SMILES CCCCCCCCCCC(=O)[O-]
REMARK SMILES IDX 7 1 8 2 9 3 10 4 11 5 12 6 13 7 6 8 5 9 4 10 3 11 2 12 1 13
REMARK H PARENT
REMARK Flexibility Score: inf
ROOT
ATOM      1  C   UNL     1     -45.351 -37.608  16.399  1.00  0.00     0.000 C 
ENDROOT
BRANCH   1   2
ATOM      2  C   UNL     1     -45.473 -36.082  16.555  1.00  0.00     0.000 C 
BRANCH   2   3
ATOM      3  C   UNL     1     -44.833 -35.569  17.855  1.00  0.00     0.006 C 
BRANCH   3   4
ATOM      4  C   UNL     1     -45.580 -36.042  19.110  1.00  0.00     0.053 C 
BRANCH   4   5
ATOM      5  C   UNL     1     -44.656 -36.795  20.015  1.00  0.00     0.041 C 
ATOM      6  O   UNL     1     -45.037 -37.141  21.164  1.00  0.00    -0.550 OA
ATOM      7  O   UNL     1     -43.357 -37.071  19.608  1.00  0.00    -0.550 OA
ENDBRANCH   4   5
ENDBRANCH   3   4
ENDBRANCH   2   3
ENDBRANCH   1   2
BRANCH   1   8
ATOM      8  C   UNL     1     -44.068 -38.025  15.661  1.00  0.00     0.000 C 
BRANCH   8   9
ATOM      9  C   UNL     1     -44.239 -38.019  14.132  1.00  0.00    -0.000 C 
BRANCH   9  10
ATOM     10  C   UNL     1     -45.711 -38.116  13.702  1.00  0.00    -0.000 C 
BRANCH  10  11
ATOM     11  C   UNL     1     -46.084 -37.088  12.623  1.00  0.00    -0.000 C 
BRANCH  11  12
ATOM     12  C   UNL     1     -45.042 -35.965  12.553  1.00  0.00    -0.003 C 
ATOM     13  C   UNL     1     -45.622 -34.642  13.045  1.00  0.00     0.004 C 
ENDBRANCH  11  12
ENDBRANCH  10  11
ENDBRANCH   9  10
ENDBRANCH   8   9
ENDBRANCH   1   8
TORSDOF 9
ENDMDL
MODEL 4
REMARK VINA RESULT:    -3.332     11.095     13.554
REMARK INTER + INTRA:          -5.860
REMARK INTER:                  -4.736
REMARK INTRA:                  -1.124
REMARK UNBOUND:                -0.775
REMARK SMILES CCCCCCCCCCC(=O)[O-]
REMARK SMILES IDX 7 1 8 2 9 3 10 4 11 5 12 6 13 7 6 8 5 9 4 10 3 11 2 12 1 13
REMARK H PARENT
REMARK Flexibility Score: inf
ROOT
ATOM      1  C   UNL     1     -39.982 -32.751  28.775  1.00  0.00     0.000 C 
ENDROOT
BRANCH   1   2
ATOM      2  C   UNL     1     -41.128 -32.106  27.975  1.00  0.00     0.000 C 
BRANCH   2   3
ATOM      3  C   UNL     1     -41.555 -32.956  26.768  1.00  0.00     0.006 C 
BRANCH   3   4
ATOM      4  C   UNL     1     -41.923 -32.105  25.544  1.00  0.00     0.053 C 
BRANCH   4   5
ATOM      5  C   UNL     1     -43.148 -32.649  24.879  1.00  0.00     0.041 C 
ATOM      6  O   UNL     1     -44.052 -33.196  25.565  1.00  0.00    -0.550 OA
ATOM      7  O   UNL     1     -43.270 -32.596  23.497  1.00  0.00    -0.550 OA
ENDBRANCH   4   5
ENDBRANCH   3   4
ENDBRANCH   2   3
ENDBRANCH   1   2
BRANCH   1   8
ATOM      8  C   UNL     1     -38.709 -31.888  28.783  1.00  0.00     0.000 C 
BRANCH   8   9
ATOM      9  C   UNL     1     -37.626 -32.427  27.832  1.00  0.00    -0.000 C 
BRANCH   9  10
ATOM     10  C   UNL     1     -37.782 -33.929  27.551  1.00  0.00    -0.000 C 
BRANCH  10  11
ATOM     11  C   UNL     1     -38.017 -34.235  26.064  1.00  0.00    -0.000 C 
BRANCH  11  12
ATOM     12  C   UNL     1     -37.860 -32.969  25.213  1.00  0.00    -0.003 C 
ATOM     13  C   UNL     1     -38.684 -33.059  23.932  1.00  0.00     0.004 C 
ENDBRANCH  11  12
ENDBRANCH  10  11
ENDBRANCH   9  10
ENDBRANCH   8   9
ENDBRANCH   1   8
TORSDOF 9
ENDMDL
MODEL 5
REMARK VINA RESULT:    -3.294      1.721      3.511
REMARK INTER + INTRA:          -5.802
REMARK INTER:                  -4.892
REMARK INTRA:                  -0.910
REMARK UNBOUND:                -0.775
REMARK SMILES CCCCCCCCCCC(=O)[O-]
REMARK SMILES IDX 7 1 8 2 9 3 10 4 11 5 12 6 13 7 6 8 5 9 4 10 3 11 2 12 1 13
REMARK H PARENT
REMARK Flexibility Score: inf
ROOT
ATOM      1  C   UNL     1     -44.251 -37.566  15.443  1.00  0.00     0.000 C 
ENDROOT
BRANCH   1   2
ATOM      2  C   UNL     1     -45.605 -37.705  16.162  1.00  0.00     0.000 C 
BRANCH   2   3
ATOM      3  C   UNL     1     -46.036 -36.407  16.863  1.00  0.00     0.006 C 
BRANCH   3   4
ATOM      4  C   UNL     1     -44.938 -35.826  17.764  1.00  0.00     0.053 C 
BRANCH   4   5
ATOM      5  C   UNL     1     -44.796 -36.646  19.008  1.00  0.00     0.041 C 
ATOM      6  O   UNL     1     -43.687 -37.165  19.301  1.00  0.00    -0.550 OA
ATOM      7  O   UNL     1     -45.900 -36.878  19.817  1.00  0.00    -0.550 OA
ENDBRANCH   4   5
ENDBRANCH   3   4
ENDBRANCH   2   3
ENDBRANCH   1   2
BRANCH   1   8
ATOM      8  C   UNL     1     -44.281 -38.133  14.014  1.00  0.00     0.000 C 
BRANCH   8   9
ATOM      9  C   UNL     1     -45.339 -37.449  13.130  1.00  0.00    -0.000 C 
BRANCH   9  10
ATOM     10  C   UNL     1     -44.797 -36.198  12.421  1.00  0.00    -0.000 C 
BRANCH  10  11
ATOM     11  C   UNL     1     -45.780 -35.018  12.462  1.00  0.00    -0.000 C 
BRANCH  11  12
ATOM     12  C   UNL     1     -45.776 -34.350  13.841  1.00  0.00    -0.003 C 
ATOM     13  C   UNL     1     -45.387 -32.877  13.740  1.00  0.00     0.004 C 
ENDBRANCH  11  12
ENDBRANCH  10  11
ENDBRANCH   9  10
ENDBRANCH   8   9
ENDBRANCH   1   8
TORSDOF 9
ENDMDL
MODEL 6
REMARK VINA RESULT:    -3.235      2.090      3.867
REMARK INTER + INTRA:          -5.712
REMARK INTER:                  -4.710
REMARK INTRA:                  -1.002
REMARK UNBOUND:                -0.775
REMARK SMILES CCCCCCCCCCC(=O)[O-]
REMARK SMILES IDX 7 1 8 2 9 3 10 4 11 5 12 6 13 7 6 8 5 9 4 10 3 11 2 12 1 13
REMARK H PARENT
REMARK Flexibility Score: inf
ROOT
ATOM      1  C   UNL     1     -44.799 -37.329  18.024  1.00  0.00     0.000 C 
ENDROOT
BRANCH   1   2
ATOM      2  C   UNL     1     -45.300 -38.414  17.054  1.00  0.00     0.000 C 
BRANCH   2   3
ATOM      3  C   UNL     1     -45.534 -37.873  15.635  1.00  0.00     0.006 C 
BRANCH   3   4
ATOM      4  C   UNL     1     -44.259 -37.875  14.781  1.00  0.00     0.053 C 
BRANCH   4   5
ATOM      5  C   UNL     1     -44.604 -37.842  13.326  1.00  0.00     0.041 C 
ATOM      6  O   UNL     1     -44.281 -36.851  12.620  1.00  0.00    -0.550 OA
ATOM      7  O   UNL     1     -45.327 -38.884  12.759  1.00  0.00    -0.550 OA
ENDBRANCH   4   5
ENDBRANCH   3   4
ENDBRANCH   2   3
ENDBRANCH   1   2
BRANCH   1   8
ATOM      8  C   UNL     1     -45.943 -36.471  18.591  1.00  0.00     0.000 C 
BRANCH   8   9
ATOM      9  C   UNL     1     -45.960 -35.049  18.003  1.00  0.00    -0.000 C 
BRANCH   9  10
ATOM     10  C   UNL     1     -44.629 -34.671  17.334  1.00  0.00    -0.000 C 
BRANCH  10  11
ATOM     11  C   UNL     1     -44.765 -33.482  16.370  1.00  0.00    -0.000 C 
BRANCH  11  12
ATOM     12  C   UNL     1     -46.101 -33.536  15.619  1.00  0.00    -0.003 C 
ATOM     13  C   UNL     1     -45.958 -34.274  14.291  1.00  0.00     0.004 C 
ENDBRANCH  11  12
ENDBRANCH  10  11
ENDBRANCH   9  10
ENDBRANCH   8   9
ENDBRANCH   1   8
TORSDOF 9
ENDMDL
MODEL 7
REMARK VINA RESULT:    -3.204      1.291      3.535
REMARK INTER + INTRA:          -5.665
REMARK INTER:                  -4.780
REMARK INTRA:                  -0.885
REMARK UNBOUND:                -0.775
REMARK SMILES CCCCCCCCCCC(=O)[O-]
REMARK SMILES IDX 7 1 8 2 9 3 10 4 11 5 12 6 13 7 6 8 5 9 4 10 3 11 2 12 1 13
REMARK H PARENT
REMARK Flexibility Score: inf
ROOT
ATOM      1  C   UNL     1     -44.949 -32.951  16.570  1.00  0.00     0.000 C 
ENDROOT
BRANCH   1   2
ATOM      2  C   UNL     1     -44.438 -34.403  16.596  1.00  0.00     0.000 C 
BRANCH   2   3
ATOM      3  C   UNL     1     -45.570 -35.423  16.793  1.00  0.00     0.006 C 
BRANCH   3   4
ATOM      4  C   UNL     1     -45.623 -35.982  18.222  1.00  0.00     0.053 C 
BRANCH   4   5
ATOM      5  C   UNL     1     -44.560 -37.017  18.417  1.00  0.00     0.041 C 
ATOM      6  O   UNL     1     -44.383 -37.915  17.553  1.00  0.00    -0.550 OA
ATOM      7  O   UNL     1     -43.799 -37.020  19.579  1.00  0.00    -0.550 OA
ENDBRANCH   4   5
ENDBRANCH   3   4
ENDBRANCH   2   3
ENDBRANCH   1   2
BRANCH   1   8
ATOM      8  C   UNL     1     -44.790 -32.295  15.188  1.00  0.00     0.000 C 
BRANCH   8   9
ATOM      9  C   UNL     1     -45.910 -32.698  14.212  1.00  0.00    -0.000 C 
BRANCH   9  10
ATOM     10  C   UNL     1     -45.391 -33.535  13.032  1.00  0.00    -0.000 C 
BRANCH  10  11
ATOM     11  C   UNL     1     -45.895 -34.985  13.064  1.00  0.00    -0.000 C 
BRANCH  11  12
ATOM     12  C   UNL     1     -44.844 -35.943  12.490  1.00  0.00    -0.003 C 
ATOM     13  C   UNL     1     -44.598 -37.121  13.428  1.00  0.00     0.004 C 
ENDBRANCH  11  12
ENDBRANCH  10  11
ENDBRANCH   9  10
ENDBRANCH   8   9
ENDBRANCH   1   8
TORSDOF 9
ENDMDL
MODEL 8
REMARK VINA RESULT:    -3.179     11.636     13.889
REMARK INTER + INTRA:          -5.627
REMARK INTER:                  -4.633
REMARK INTRA:                  -0.995
REMARK UNBOUND:                -0.775
REMARK SMILES CCCCCCCCCCC(=O)[O-]
REMARK SMILES IDX 7 1 8 2 9 3 10 4 11 5 12 6 13 7 6 8 5 9 4 10 3 11 2 12 1 13
REMARK H PARENT
REMARK Flexibility Score: inf
ROOT
ATOM      1  C   UNL     1     -39.245 -31.895  28.649  1.00  0.00     0.000 C 
ENDROOT
BRANCH   1   2
ATOM      2  C   UNL     1     -40.372 -32.941  28.588  1.00  0.00     0.000 C 
BRANCH   2   3
ATOM      3  C   UNL     1     -41.490 -32.548  27.610  1.00  0.00     0.006 C 
BRANCH   3   4
ATOM      4  C   UNL     1     -42.501 -33.679  27.379  1.00  0.00     0.053 C 
BRANCH   4   5
ATOM      5  C   UNL     1     -43.896 -33.185  27.601  1.00  0.00     0.041 C 
ATOM      6  O   UNL     1     -44.877 -33.832  27.149  1.00  0.00    -0.550 OA
ATOM      7  O   UNL     1     -44.111 -31.984  28.265  1.00  0.00    -0.550 OA
ENDBRANCH   4   5
ENDBRANCH   3   4
ENDBRANCH   2   3
ENDBRANCH   1   2
BRANCH   1   8
ATOM      8  C   UNL     1     -37.989 -32.334  27.878  1.00  0.00     0.000 C 
BRANCH   8   9
ATOM      9  C   UNL     1     -37.913 -33.860  27.695  1.00  0.00    -0.000 C 
BRANCH   9  10
ATOM     10  C   UNL     1     -37.962 -34.280  26.218  1.00  0.00    -0.000 C 
BRANCH  10  11
ATOM     11  C   UNL     1     -37.687 -33.113  25.258  1.00  0.00    -0.000 C 
BRANCH  11  12
ATOM     12  C   UNL     1     -38.688 -33.112  24.096  1.00  0.00    -0.003 C 
ATOM     13  C   UNL     1     -39.866 -32.185  24.382  1.00  0.00     0.004 C 
ENDBRANCH  11  12
ENDBRANCH  10  11
ENDBRANCH   9  10
ENDBRANCH   8   9
ENDBRANCH   1   8
TORSDOF 9
ENDMDL
MODEL 9
REMARK VINA RESULT:    -3.132      2.950      4.834
REMARK INTER + INTRA:          -5.556
REMARK INTER:                  -4.844
REMARK INTRA:                  -0.711
REMARK UNBOUND:                -0.775
REMARK SMILES CCCCCCCCCCC(=O)[O-]
REMARK SMILES IDX 7 1 8 2 9 3 10 4 11 5 12 6 13 7 6 8 5 9 4 10 3 11 2 12 1 13
REMARK H PARENT
REMARK Flexibility Score: inf
ROOT
ATOM      1  C   UNL     1     -44.625 -36.841  12.776  1.00  0.00     0.000 C 
ENDROOT
BRANCH   1   2
ATOM      2  C   UNL     1     -45.444 -35.545  12.641  1.00  0.00     0.000 C 
BRANCH   2   3
ATOM      3  C   UNL     1     -45.579 -34.791  13.974  1.00  0.00     0.006 C 
BRANCH   3   4
ATOM      4  C   UNL     1     -46.108 -33.362  13.795  1.00  0.00     0.053 C 
BRANCH   4   5
ATOM      5  C   UNL     1     -45.039 -32.365  14.116  1.00  0.00     0.041 C 
ATOM      6  O   UNL     1     -44.313 -31.897  13.201  1.00  0.00    -0.550 OA
ATOM      7  O   UNL     1     -44.811 -31.991  15.435  1.00  0.00    -0.550 OA
ENDBRANCH   4   5
ENDBRANCH   3   4
ENDBRANCH   2   3
ENDBRANCH   1   2
BRANCH   1   8
ATOM      8  C   UNL     1     -45.126 -37.739  13.920  1.00  0.00     0.000 C 
BRANCH   8   9
ATOM      9  C   UNL     1     -44.050 -37.987  14.991  1.00  0.00    -0.000 C 
BRANCH   9  10
ATOM     10  C   UNL     1     -44.650 -38.252  16.381  1.00  0.00    -0.000 C 
BRANCH  10  11
ATOM     11  C   UNL     1     -45.932 -37.446  16.638  1.00  0.00    -0.000 C 
BRANCH  11  12
ATOM     12  C   UNL     1     -45.753 -36.497  17.829  1.00  0.00    -0.003 C 
ATOM     13  C   UNL     1     -44.595 -36.941  18.719  1.00  0.00     0.004 C 
ENDBRANCH  11  12
ENDBRANCH  10  11
ENDBRANCH   9  10
ENDBRANCH   8   9
ENDBRANCH   1   8
TORSDOF 9
ENDMDL
