MODEL 1
REMARK VINA RESULT:    -4.045      0.000      0.000
REMARK INTER + INTRA:          -6.885
REMARK INTER:                  -6.173
REMARK INTRA:                  -0.711
REMARK UNBOUND:                -0.711
REMARK SMILES CCCCCCCCCC=CC(=O)[O-]
REMARK SMILES IDX 7 1 8 2 9 3 10 4 11 5 12 6 13 7 14 8 6 9 5 10 4 11 3 12 2 13
REMARK SMILES IDX 1 14
REMARK H PARENT
REMARK Flexibility Score: inf
ROOT
ATOM      1  C   UNL     1      -1.494  32.451  33.960  1.00  0.00     0.000 C 
ENDROOT
BRANCH   1   2
ATOM      2  C   UNL     1      -1.719  33.948  34.236  1.00  0.00     0.004 C 
BRANCH   2   3
ATOM      3  C   UNL     1      -1.836  34.244  35.740  1.00  0.00     0.027 C 
BRANCH   3   4
ATOM      4  C   UNL     1      -1.061  35.471  36.144  1.00  0.00    -0.025 C 
ATOM      5  C   UNL     1      -0.705  35.806  37.395  1.00  0.00     0.020 C 
BRANCH   5   6
ATOM      6  C   UNL     1      -0.951  35.018  38.621  1.00  0.00     0.064 C 
ATOM      7  O   UNL     1      -1.978  35.261  39.305  1.00  0.00    -0.545 OA
ATOM      8  O   UNL     1      -0.069  34.040  39.062  1.00  0.00    -0.545 OA
ENDBRANCH   5   6
ENDBRANCH   3   4
ENDBRANCH   2   3
ENDBRANCH   1   2
BRANCH   1   9
ATOM      9  C   UNL     1      -1.509  31.603  35.242  1.00  0.00     0.000 C 
BRANCH   9  10
ATOM     10  C   UNL     1      -1.061  30.153  34.996  1.00  0.00     0.000 C 
BRANCH  10  11
ATOM     11  C   UNL     1       0.468  30.011  34.931  1.00  0.00    -0.000 C 
BRANCH  11  12
ATOM     12  C   UNL     1       0.985  29.797  33.500  1.00  0.00    -0.000 C 
BRANCH  12  13
ATOM     13  C   UNL     1       0.167  28.722  32.777  1.00  0.00    -0.003 C 
ATOM     14  C   UNL     1      -0.466  29.273  31.502  1.00  0.00     0.004 C 
ENDBRANCH  12  13
ENDBRANCH  11  12
ENDBRANCH  10  11
ENDBRANCH   9  10
ENDBRANCH   1   9
TORSDOF 9
ENDMDL
MODEL 2
REMARK VINA RESULT:    -4.037      0.999      2.118
REMARK INTER + INTRA:          -6.872
REMARK INTER:                  -6.183
REMARK INTRA:                  -0.688
REMARK UNBOUND:                -0.711
REMARK SMILES CCCCCCCCCC=CC(=O)[O-]
REMARK SMILES IDX 7 1 8 2 9 3 10 4 11 5 12 6 13 7 14 8 6 9 5 10 4 11 3 12 2 13
REMARK SMILES IDX 1 14
REMARK H PARENT
REMARK Flexibility Score: inf
ROOT
ATOM      1  C   UNL     1      -1.412  33.022  33.836  1.00  0.00     0.000 C 
ENDROOT
BRANCH   1   2
ATOM      2  C   UNL     1      -1.435  34.481  34.325  1.00  0.00     0.004 C 
BRANCH   2   3
ATOM      3  C   UNL     1      -1.712  34.577  35.835  1.00  0.00     0.027 C 
BRANCH   3   4
ATOM      4  C   UNL     1      -0.988  35.731  36.477  1.00  0.00    -0.025 C 
ATOM      5  C   UNL     1      -0.717  35.865  37.785  1.00  0.00     0.020 C 
BRANCH   5   6
ATOM      6  C   UNL     1      -1.023  34.889  38.852  1.00  0.00     0.064 C 
ATOM      7  O   UNL     1      -0.135  34.067  39.197  1.00  0.00    -0.545 OA
ATOM      8  O   UNL     1      -2.267  34.826  39.464  1.00  0.00    -0.545 OA
ENDBRANCH   5   6
ENDBRANCH   3   4
ENDBRANCH   2   3
ENDBRANCH   1   2
BRANCH   1   9
ATOM      9  C   UNL     1      -0.987  32.897  32.363  1.00  0.00     0.000 C 
BRANCH   9  10
ATOM     10  C   UNL     1       0.078  31.810  32.147  1.00  0.00     0.000 C 
BRANCH  10  11
ATOM     11  C   UNL     1      -0.515  30.393  32.150  1.00  0.00    -0.000 C 
BRANCH  11  12
ATOM     12  C   UNL     1       0.378  29.376  32.877  1.00  0.00    -0.000 C 
BRANCH  12  13
ATOM     13  C   UNL     1       0.905  29.953  34.195  1.00  0.00    -0.003 C 
ATOM     14  C   UNL     1      -0.145  29.860  35.298  1.00  0.00     0.004 C 
ENDBRANCH  12  13
ENDBRANCH  11  12
ENDBRANCH  10  11
ENDBRANCH   9  10
ENDBRANCH   1   9
TORSDOF 9
ENDMDL
MODEL 3
REMARK VINA RESULT:    -4.031      3.329      6.679
REMARK INTER + INTRA:          -6.864
REMARK INTER:                  -5.996
REMARK INTRA:                  -0.868
REMARK UNBOUND:                -0.711
REMARK SMILES CCCCCCCCCC=CC(=O)[O-]
REMARK SMILES IDX 7 1 8 2 9 3 10 4 11 5 12 6 13 7 14 8 6 9 5 10 4 11 3 12 2 13
REMARK SMILES IDX 1 14
REMARK H PARENT
REMARK Flexibility Score: inf
ROOT
ATOM      1  C   UNL     1      -2.421  32.453  35.752  1.00  0.00     0.000 C 
ENDROOT
BRANCH   1   2
ATOM      2  C   UNL     1      -1.464  31.417  36.368  1.00  0.00     0.004 C 
BRANCH   2   3
ATOM      3  C   UNL     1      -1.137  30.281  35.386  1.00  0.00     0.027 C 
BRANCH   3   4
ATOM      4  C   UNL     1       0.339  30.172  35.108  1.00  0.00    -0.025 C 
ATOM      5  C   UNL     1       0.900  29.805  33.944  1.00  0.00     0.020 C 
BRANCH   5   6
ATOM      6  C   UNL     1       0.191  29.487  32.687  1.00  0.00     0.064 C 
ATOM      7  O   UNL     1       0.201  28.301  32.266  1.00  0.00    -0.545 OA
ATOM      8  O   UNL     1      -0.457  30.458  31.936  1.00  0.00    -0.545 OA
ENDBRANCH   5   6
ENDBRANCH   3   4
ENDBRANCH   2   3
ENDBRANCH   1   2
BRANCH   1   9
ATOM      9  C   UNL     1      -1.714  33.771  35.393  1.00  0.00     0.000 C 
BRANCH   9  10
ATOM     10  C   UNL     1      -2.103  34.924  36.333  1.00  0.00     0.000 C 
BRANCH  10  11
ATOM     11  C   UNL     1      -0.890  35.534  37.053  1.00  0.00    -0.000 C 
BRANCH  11  12
ATOM     12  C   UNL     1      -0.951  35.353  38.577  1.00  0.00    -0.000 C 
BRANCH  12  13
ATOM     13  C   UNL     1      -0.342  34.011  38.995  1.00  0.00    -0.003 C 
ATOM     14  C   UNL     1      -1.364  33.142  39.722  1.00  0.00     0.004 C 
ENDBRANCH  12  13
ENDBRANCH  11  12
ENDBRANCH  10  11
ENDBRANCH   9  10
ENDBRANCH   1   9
TORSDOF 9
ENDMDL
MODEL 4
REMARK VINA RESULT:    -3.992      3.415      6.581
REMARK INTER + INTRA:          -6.803
REMARK INTER:                  -5.933
REMARK INTRA:                  -0.871
REMARK UNBOUND:                -0.711
REMARK SMILES CCCCCCCCCC=CC(=O)[O-]
REMARK SMILES IDX 7 1 8 2 9 3 10 4 11 5 12 6 13 7 14 8 6 9 5 10 4 11 3 12 2 13
REMARK SMILES IDX 1 14
REMARK H PARENT
REMARK Flexibility Score: inf
ROOT
ATOM      1  C   UNL     1      -2.480  31.406  37.195  1.00  0.00     0.000 C 
ENDROOT
BRANCH   1   2
ATOM      2  C   UNL     1      -1.508  31.541  36.010  1.00  0.00     0.004 C 
BRANCH   2   3
ATOM      3  C   UNL     1      -1.057  30.171  35.477  1.00  0.00     0.027 C 
BRANCH   3   4
ATOM      4  C   UNL     1       0.415  30.137  35.161  1.00  0.00    -0.025 C 
ATOM      5  C   UNL     1       0.964  29.812  33.979  1.00  0.00     0.020 C 
BRANCH   5   6
ATOM      6  C   UNL     1       0.240  29.475  32.735  1.00  0.00     0.064 C 
ATOM      7  O   UNL     1       0.248  28.284  32.329  1.00  0.00    -0.545 OA
ATOM      8  O   UNL     1      -0.423  30.435  31.981  1.00  0.00    -0.545 OA
ENDBRANCH   5   6
ENDBRANCH   3   4
ENDBRANCH   2   3
ENDBRANCH   1   2
BRANCH   1   9
ATOM      9  C   UNL     1      -2.388  32.588  38.174  1.00  0.00     0.000 C 
BRANCH   9  10
ATOM     10  C   UNL     1      -0.980  32.752  38.770  1.00  0.00     0.000 C 
BRANCH  10  11
ATOM     11  C   UNL     1      -0.644  34.216  39.098  1.00  0.00    -0.000 C 
BRANCH  11  12
ATOM     12  C   UNL     1      -1.509  35.214  38.313  1.00  0.00    -0.000 C 
BRANCH  12  13
ATOM     13  C   UNL     1      -0.715  35.842  37.163  1.00  0.00    -0.003 C 
ATOM     14  C   UNL     1      -1.225  35.356  35.809  1.00  0.00     0.004 C 
ENDBRANCH  12  13
ENDBRANCH  11  12
ENDBRANCH  10  11
ENDBRANCH   9  10
ENDBRANCH   1   9
TORSDOF 9
ENDMDL
MODEL 5
REMARK VINA RESULT:    -3.973      1.681      2.142
REMARK INTER + INTRA:          -6.774
REMARK INTER:                  -6.034
REMARK INTRA:                  -0.740
REMARK UNBOUND:                -0.711
REMARK SMILES CCCCCCCCCC=CC(=O)[O-]
REMARK SMILES IDX 7 1 8 2 9 3 10 4 11 5 12 6 13 7 14 8 6 9 5 10 4 11 3 12 2 13
REMARK SMILES IDX 1 14
REMARK H PARENT
REMARK Flexibility Score: inf
ROOT
ATOM      1  C   UNL     1      -2.131  30.404  36.199  1.00  0.00     0.000 C 
ENDROOT
BRANCH   1   2
ATOM      2  C   UNL     1      -1.622  31.853  36.301  1.00  0.00     0.004 C 
BRANCH   2   3
ATOM      3  C   UNL     1      -2.153  32.562  37.558  1.00  0.00     0.027 C 
BRANCH   3   4
ATOM      4  C   UNL     1      -1.088  32.739  38.608  1.00  0.00    -0.025 C 
ATOM      5  C   UNL     1      -0.660  33.908  39.112  1.00  0.00     0.020 C 
BRANCH   5   6
ATOM      6  C   UNL     1      -1.180  35.252  38.782  1.00  0.00     0.064 C 
ATOM      7  O   UNL     1      -2.209  35.668  39.373  1.00  0.00    -0.545 OA
ATOM      8  O   UNL     1      -0.590  36.058  37.817  1.00  0.00    -0.545 OA
ENDBRANCH   5   6
ENDBRANCH   3   4
ENDBRANCH   2   3
ENDBRANCH   1   2
BRANCH   1   9
ATOM      9  C   UNL     1      -1.225  29.518  35.328  1.00  0.00     0.000 C 
BRANCH   9  10
ATOM     10  C   UNL     1       0.228  30.022  35.285  1.00  0.00     0.000 C 
BRANCH  10  11
ATOM     11  C   UNL     1       0.852  29.906  33.886  1.00  0.00    -0.000 C 
BRANCH  11  12
ATOM     12  C   UNL     1       0.007  30.590  32.800  1.00  0.00    -0.000 C 
BRANCH  12  13
ATOM     13  C   UNL     1      -0.543  29.562  31.805  1.00  0.00    -0.003 C 
ATOM     14  C   UNL     1       0.159  28.216  31.956  1.00  0.00     0.004 C 
ENDBRANCH  12  13
ENDBRANCH  11  12
ENDBRANCH  10  11
ENDBRANCH   9  10
ENDBRANCH   1   9
TORSDOF 9
ENDMDL
MODEL 6
REMARK VINA RESULT:    -3.950      1.495      2.205
REMARK INTER + INTRA:          -6.740
REMARK INTER:                  -5.693
REMARK INTRA:                  -1.046
REMARK UNBOUND:                -0.711
REMARK SMILES CCCCCCCCCC=CC(=O)[O-]
REMARK SMILES IDX 7 1 8 2 9 3 10 4 11 5 12 6 13 7 14 8 6 9 5 10 4 11 3 12 2 13
REMARK SMILES IDX 1 14
REMARK H PARENT
REMARK Flexibility Score: inf
ROOT
ATOM      1  C   UNL     1      -1.936  30.245  35.538  1.00  0.00     0.000 C 
ENDROOT
BRANCH   1   2
ATOM      2  C   UNL     1      -1.595  31.709  35.211  1.00  0.00     0.004 C 
BRANCH   2   3
ATOM      3  C   UNL     1      -1.957  32.657  36.366  1.00  0.00     0.027 C 
BRANCH   3   4
ATOM      4  C   UNL     1      -2.127  31.928  37.673  1.00  0.00    -0.025 C 
ATOM      5  C   UNL     1      -1.851  32.416  38.893  1.00  0.00     0.020 C 
BRANCH   5   6
ATOM      6  C   UNL     1      -1.380  33.781  39.209  1.00  0.00     0.064 C 
ATOM      7  O   UNL     1      -2.216  34.641  39.589  1.00  0.00    -0.545 OA
ATOM      8  O   UNL     1      -0.050  34.157  39.069  1.00  0.00    -0.545 OA
ENDBRANCH   5   6
ENDBRANCH   3   4
ENDBRANCH   2   3
ENDBRANCH   1   2
BRANCH   1   9
ATOM      9  C   UNL     1      -0.753  29.293  35.297  1.00  0.00     0.000 C 
BRANCH   9  10
ATOM     10  C   UNL     1       0.526  30.036  34.875  1.00  0.00     0.000 C 
BRANCH  10  11
ATOM     11  C   UNL     1       0.925  29.744  33.420  1.00  0.00    -0.000 C 
BRANCH  11  12
ATOM     12  C   UNL     1       0.098  28.612  32.793  1.00  0.00    -0.000 C 
BRANCH  12  13
ATOM     13  C   UNL     1      -0.524  29.058  31.465  1.00  0.00    -0.003 C 
ATOM     14  C   UNL     1      -1.344  30.333  31.640  1.00  0.00     0.004 C 
ENDBRANCH  12  13
ENDBRANCH  11  12
ENDBRANCH  10  11
ENDBRANCH   9  10
ENDBRANCH   1   9
TORSDOF 9
ENDMDL
MODEL 7
REMARK VINA RESULT:    -3.946      5.037      7.051
REMARK INTER + INTRA:          -6.733
REMARK INTER:                  -5.447
REMARK INTRA:                  -1.286
REMARK UNBOUND:                -0.711
REMARK SMILES CCCCCCCCCC=CC(=O)[O-]
REMARK SMILES IDX 7 1 8 2 9 3 10 4 11 5 12 6 13 7 14 8 6 9 5 10 4 11 3 12 2 13
REMARK SMILES IDX 1 14
REMARK H PARENT
REMARK Flexibility Score: inf
ROOT
ATOM      1  C   UNL     1      -2.159  27.523  33.100  1.00  0.00     0.000 C 
ENDROOT
BRANCH   1   2
ATOM      2  C   UNL     1      -1.508  26.773  34.276  1.00  0.00     0.004 C 
BRANCH   2   3
ATOM      3  C   UNL     1      -2.411  26.763  35.521  1.00  0.00     0.027 C 
BRANCH   3   4
ATOM      4  C   UNL     1      -1.661  27.133  36.774  1.00  0.00    -0.025 C 
ATOM      5  C   UNL     1      -1.130  26.275  37.661  1.00  0.00     0.020 C 
BRANCH   5   6
ATOM      6  C   UNL     1      -1.123  24.800  37.563  1.00  0.00     0.064 C 
ATOM      7  O   UNL     1      -2.130  24.159  37.964  1.00  0.00    -0.545 OA
ATOM      8  O   UNL     1      -0.032  24.094  37.075  1.00  0.00    -0.545 OA
ENDBRANCH   5   6
ENDBRANCH   3   4
ENDBRANCH   2   3
ENDBRANCH   1   2
BRANCH   1   9
ATOM      9  C   UNL     1      -1.232  27.624  31.877  1.00  0.00     0.000 C 
BRANCH   9  10
ATOM     10  C   UNL     1       0.146  28.210  32.228  1.00  0.00     0.000 C 
BRANCH  10  11
ATOM     11  C   UNL     1       0.060  29.660  32.731  1.00  0.00    -0.000 C 
BRANCH  11  12
ATOM     12  C   UNL     1       0.983  29.929  33.929  1.00  0.00    -0.000 C 
BRANCH  12  13
ATOM     13  C   UNL     1       0.188  29.958  35.239  1.00  0.00    -0.003 C 
ATOM     14  C   UNL     1      -1.197  30.564  35.031  1.00  0.00     0.004 C 
ENDBRANCH  12  13
ENDBRANCH  11  12
ENDBRANCH  10  11
ENDBRANCH   9  10
ENDBRANCH   1   9
TORSDOF 9
ENDMDL
MODEL 8
REMARK VINA RESULT:    -3.919      5.737      7.451
REMARK INTER + INTRA:          -6.693
REMARK INTER:                  -5.435
REMARK INTRA:                  -1.258
REMARK UNBOUND:                -0.711
REMARK SMILES CCCCCCCCCC=CC(=O)[O-]
REMARK SMILES IDX 7 1 8 2 9 3 10 4 11 5 12 6 13 7 14 8 6 9 5 10 4 11 3 12 2 13
REMARK SMILES IDX 1 14
REMARK H PARENT
REMARK Flexibility Score: inf
ROOT
ATOM      1  C   UNL     1      -1.340  29.132  35.113  1.00  0.00     0.000 C 
ENDROOT
BRANCH   1   2
ATOM      2  C   UNL     1      -1.516  28.075  36.218  1.00  0.00     0.004 C 
BRANCH   2   3
ATOM      3  C   UNL     1      -1.727  26.666  35.638  1.00  0.00     0.027 C 
BRANCH   3   4
ATOM      4  C   UNL     1      -2.149  26.700  34.193  1.00  0.00    -0.025 C 
ATOM      5  C   UNL     1      -2.665  25.674  33.496  1.00  0.00     0.020 C 
BRANCH   5   6
ATOM      6  C   UNL     1      -2.974  24.324  34.013  1.00  0.00     0.064 C 
ATOM      7  O   UNL     1      -4.096  24.119  34.546  1.00  0.00    -0.545 OA
ATOM      8  O   UNL     1      -2.057  23.283  33.963  1.00  0.00    -0.545 OA
ENDBRANCH   5   6
ENDBRANCH   3   4
ENDBRANCH   2   3
ENDBRANCH   1   2
BRANCH   1   9
ATOM      9  C   UNL     1      -0.008  29.891  35.226  1.00  0.00     0.000 C 
BRANCH   9  10
ATOM     10  C   UNL     1       0.819  29.826  33.931  1.00  0.00     0.000 C 
BRANCH  10  11
ATOM     11  C   UNL     1      -0.032  29.463  32.704  1.00  0.00    -0.000 C 
BRANCH  11  12
ATOM     12  C   UNL     1       0.385  28.130  32.065  1.00  0.00    -0.000 C 
BRANCH  12  13
ATOM     13  C   UNL     1      -0.462  27.828  30.825  1.00  0.00    -0.003 C 
ATOM     14  C   UNL     1      -1.872  28.395  30.966  1.00  0.00     0.004 C 
ENDBRANCH  12  13
ENDBRANCH  11  12
ENDBRANCH  10  11
ENDBRANCH   9  10
ENDBRANCH   1   9
TORSDOF 9
ENDMDL
MODEL 9
REMARK VINA RESULT:    -3.914      3.768      4.759
REMARK INTER + INTRA:          -6.685
REMARK INTER:                  -5.398
REMARK INTRA:                  -1.288
REMARK UNBOUND:                -0.711
REMARK SMILES CCCCCCCCCC=CC(=O)[O-]
REMARK SMILES IDX 7 1 8 2 9 3 10 4 11 5 12 6 13 7 14 8 6 9 5 10 4 11 3 12 2 13
REMARK SMILES IDX 1 14
REMARK H PARENT
REMARK Flexibility Score: inf
ROOT
ATOM      1  C   UNL     1      -1.989  31.724  34.165  1.00  0.00     0.000 C 
ENDROOT
BRANCH   1   2
ATOM      2  C   UNL     1      -1.514  33.187  34.208  1.00  0.00     0.004 C 
BRANCH   2   3
ATOM      3  C   UNL     1      -1.130  33.709  32.813  1.00  0.00     0.027 C 
BRANCH   3   4
ATOM      4  C   UNL     1      -0.156  32.800  32.110  1.00  0.00    -0.025 C 
ATOM      5  C   UNL     1       0.750  33.171  31.191  1.00  0.00     0.020 C 
BRANCH   5   6
ATOM      6  C   UNL     1       1.015  34.547  30.721  1.00  0.00     0.064 C 
ATOM      7  O   UNL     1       1.559  35.364  31.508  1.00  0.00    -0.545 OA
ATOM      8  O   UNL     1       0.654  34.979  29.452  1.00  0.00    -0.545 OA
ENDBRANCH   5   6
ENDBRANCH   3   4
ENDBRANCH   2   3
ENDBRANCH   1   2
BRANCH   1   9
ATOM      9  C   UNL     1      -1.649  30.953  35.451  1.00  0.00     0.000 C 
BRANCH   9  10
ATOM     10  C   UNL     1      -0.777  29.714  35.183  1.00  0.00     0.000 C 
BRANCH  10  11
ATOM     11  C   UNL     1       0.663  30.079  34.791  1.00  0.00    -0.000 C 
BRANCH  11  12
ATOM     12  C   UNL     1       1.013  29.661  33.355  1.00  0.00    -0.000 C 
BRANCH  12  13
ATOM     13  C   UNL     1      -0.019  28.671  32.806  1.00  0.00    -0.003 C 
ATOM     14  C   UNL     1      -0.585  29.146  31.470  1.00  0.00     0.004 C 
ENDBRANCH  12  13
ENDBRANCH  11  12
ENDBRANCH  10  11
ENDBRANCH   9  10
ENDBRANCH   1   9
TORSDOF 9
ENDMDL
