MODEL 1
REMARK VINA RESULT:    -3.686      0.000      0.000
REMARK INTER + INTRA:          -8.179
REMARK INTER:                  -6.918
REMARK INTRA:                  -1.261
REMARK UNBOUND:                -1.261
REMARK SMILES O=C([O-])CCCCCCCCCCCCCCC(=O)[O-]
REMARK SMILES IDX 10 1 9 2 8 3 7 4 6 5 5 6 4 7 2 8 1 9 3 10 11 11 12 12 13 13
REMARK SMILES IDX 14 14 15 15 16 16 17 17 18 18 19 19 20 20
REMARK H PARENT
REMARK Flexibility Score: inf
ROOT
ATOM      1  C   UNL     1      11.448  21.082  19.876  1.00  0.00     0.000 C 
ENDROOT
BRANCH   1   2
ATOM      2  C   UNL     1      10.629  20.855  21.157  1.00  0.00     0.000 C 
BRANCH   2   3
ATOM      3  C   UNL     1       9.279  21.588  21.138  1.00  0.00     0.000 C 
BRANCH   3   4
ATOM      4  C   UNL     1       8.822  21.931  22.561  1.00  0.00     0.000 C 
BRANCH   4   5
ATOM      5  C   UNL     1       7.305  22.152  22.614  1.00  0.00     0.000 C 
BRANCH   5   6
ATOM      6  C   UNL     1       6.559  20.817  22.741  1.00  0.00     0.006 C 
BRANCH   6   7
ATOM      7  C   UNL     1       5.666  20.802  23.985  1.00  0.00     0.053 C 
BRANCH   7   8
ATOM      8  C   UNL     1       5.046  19.454  24.167  1.00  0.00     0.041 C 
ATOM      9  O   UNL     1       3.810  19.293  23.979  1.00  0.00    -0.550 OA
ATOM     10  O   UNL     1       5.823  18.383  24.590  1.00  0.00    -0.550 OA
ENDBRANCH   7   8
ENDBRANCH   6   7
ENDBRANCH   5   6
ENDBRANCH   4   5
ENDBRANCH   3   4
ENDBRANCH   2   3
ENDBRANCH   1   2
BRANCH   1  11
ATOM     11  C   UNL     1      11.760  22.570  19.631  1.00  0.00     0.000 C 
BRANCH  11  12
ATOM     12  C   UNL     1      12.827  22.774  18.543  1.00  0.00     0.000 C 
BRANCH  12  13
ATOM     13  C   UNL     1      12.229  22.766  17.124  1.00  0.00     0.000 C 
BRANCH  13  14
ATOM     14  C   UNL     1      12.795  21.637  16.244  1.00  0.00     0.000 C 
BRANCH  14  15
ATOM     15  C   UNL     1      11.806  20.499  15.919  1.00  0.00     0.000 C 
BRANCH  15  16
ATOM     16  C   UNL     1      10.352  20.753  16.356  1.00  0.00     0.006 C 
BRANCH  16  17
ATOM     17  C   UNL     1       9.733  19.553  17.084  1.00  0.00     0.053 C 
BRANCH  17  18
ATOM     18  C   UNL     1       8.318  19.850  17.470  1.00  0.00     0.041 C 
ATOM     19  O   UNL     1       7.893  19.535  18.612  1.00  0.00    -0.550 OA
ATOM     20  O   UNL     1       7.454  20.430  16.551  1.00  0.00    -0.550 OA
ENDBRANCH  17  18
ENDBRANCH  16  17
ENDBRANCH  15  16
ENDBRANCH  14  15
ENDBRANCH  13  14
ENDBRANCH  12  13
ENDBRANCH  11  12
ENDBRANCH   1  11
TORSDOF 15
ENDMDL
MODEL 2
REMARK VINA RESULT:    -3.648      1.341      6.042
REMARK INTER + INTRA:          -8.108
REMARK INTER:                  -6.503
REMARK INTRA:                  -1.606
REMARK UNBOUND:                -1.261
REMARK SMILES O=C([O-])CCCCCCCCCCCCCCC(=O)[O-]
REMARK SMILES IDX 10 1 9 2 8 3 7 4 6 5 5 6 4 7 2 8 1 9 3 10 11 11 12 12 13 13
REMARK SMILES IDX 14 14 15 15 16 16 17 17 18 18 19 19 20 20
REMARK H PARENT
REMARK Flexibility Score: inf
ROOT
ATOM      1  C   UNL     1      12.985  22.660  18.388  1.00  0.00     0.000 C 
ENDROOT
BRANCH   1   2
ATOM      2  C   UNL     1      12.515  22.718  16.926  1.00  0.00     0.000 C 
BRANCH   2   3
ATOM      3  C   UNL     1      12.691  21.380  16.192  1.00  0.00     0.000 C 
BRANCH   3   4
ATOM      4  C   UNL     1      11.335  20.705  15.951  1.00  0.00     0.000 C 
BRANCH   4   5
ATOM      5  C   UNL     1      10.183  21.700  16.143  1.00  0.00     0.000 C 
BRANCH   5   6
ATOM      6  C   UNL     1       8.857  20.967  16.385  1.00  0.00     0.006 C 
BRANCH   6   7
ATOM      7  C   UNL     1       9.080  19.458  16.524  1.00  0.00     0.053 C 
BRANCH   7   8
ATOM      8  C   UNL     1       8.802  19.015  17.925  1.00  0.00     0.041 C 
ATOM      9  O   UNL     1       7.762  19.406  18.519  1.00  0.00    -0.550 OA
ATOM     10  O   UNL     1       9.714  18.207  18.592  1.00  0.00    -0.550 OA
ENDBRANCH   7   8
ENDBRANCH   6   7
ENDBRANCH   5   6
ENDBRANCH   4   5
ENDBRANCH   3   4
ENDBRANCH   2   3
ENDBRANCH   1   2
BRANCH   1  11
ATOM     11  C   UNL     1      11.813  22.558  19.382  1.00  0.00     0.000 C 
BRANCH  11  12
ATOM     12  C   UNL     1      11.423  21.102  19.683  1.00  0.00     0.000 C 
BRANCH  12  13
ATOM     13  C   UNL     1      10.675  20.957  21.020  1.00  0.00     0.000 C 
BRANCH  13  14
ATOM     14  C   UNL     1       9.254  21.546  20.976  1.00  0.00     0.000 C 
BRANCH  14  15
ATOM     15  C   UNL     1       8.653  21.915  22.348  1.00  0.00     0.000 C 
BRANCH  15  16
ATOM     16  C   UNL     1       7.247  21.351  22.618  1.00  0.00     0.006 C 
BRANCH  16  17
ATOM     17  C   UNL     1       6.449  21.104  21.332  1.00  0.00     0.053 C 
BRANCH  17  18
ATOM     18  C   UNL     1       4.983  21.045  21.631  1.00  0.00     0.041 C 
ATOM     19  O   UNL     1       4.196  21.877  21.109  1.00  0.00    -0.550 OA
ATOM     20  O   UNL     1       4.494  20.102  22.526  1.00  0.00    -0.550 OA
ENDBRANCH  17  18
ENDBRANCH  16  17
ENDBRANCH  15  16
ENDBRANCH  14  15
ENDBRANCH  13  14
ENDBRANCH  12  13
ENDBRANCH  11  12
ENDBRANCH   1  11
TORSDOF 15
ENDMDL
MODEL 3
REMARK VINA RESULT:    -3.644     19.120     21.270
REMARK INTER + INTRA:          -8.101
REMARK INTER:                  -5.575
REMARK INTRA:                  -2.526
REMARK UNBOUND:                -1.261
REMARK SMILES O=C([O-])CCCCCCCCCCCCCCC(=O)[O-]
REMARK SMILES IDX 10 1 9 2 8 3 7 4 6 5 5 6 4 7 2 8 1 9 3 10 11 11 12 12 13 13
REMARK SMILES IDX 14 14 15 15 16 16 17 17 18 18 19 19 20 20
REMARK H PARENT
REMARK Flexibility Score: inf
ROOT
ATOM      1  C   UNL     1       8.032   6.569  35.519  1.00  0.00     0.000 C 
ENDROOT
BRANCH   1   2
ATOM      2  C   UNL     1       8.709   7.093  34.243  1.00  0.00     0.000 C 
BRANCH   2   3
ATOM      3  C   UNL     1      10.026   6.367  33.926  1.00  0.00     0.000 C 
BRANCH   3   4
ATOM      4  C   UNL     1      10.380   5.368  35.035  1.00  0.00     0.000 C 
BRANCH   4   5
ATOM      5  C   UNL     1      10.815   4.021  34.443  1.00  0.00     0.000 C 
BRANCH   5   6
ATOM      6  C   UNL     1      11.740   4.223  33.236  1.00  0.00     0.006 C 
BRANCH   6   7
ATOM      7  C   UNL     1      11.291   3.366  32.049  1.00  0.00     0.053 C 
BRANCH   7   8
ATOM      8  C   UNL     1      11.335   4.161  30.784  1.00  0.00     0.041 C 
ATOM      9  O   UNL     1      10.485   5.067  30.574  1.00  0.00    -0.550 OA
ATOM     10  O   UNL     1      12.285   3.869  29.813  1.00  0.00    -0.550 OA
ENDBRANCH   7   8
ENDBRANCH   6   7
ENDBRANCH   5   6
ENDBRANCH   4   5
ENDBRANCH   3   4
ENDBRANCH   2   3
ENDBRANCH   1   2
BRANCH   1  11
ATOM     11  C   UNL     1       6.538   6.260  35.310  1.00  0.00     0.000 C 
BRANCH  11  12
ATOM     12  C   UNL     1       6.163   4.840  35.764  1.00  0.00     0.000 C 
BRANCH  12  13
ATOM     13  C   UNL     1       7.115   3.771  35.199  1.00  0.00     0.000 C 
BRANCH  13  14
ATOM     14  C   UNL     1       6.700   3.279  33.801  1.00  0.00     0.000 C 
BRANCH  14  15
ATOM     15  C   UNL     1       7.586   3.776  32.640  1.00  0.00     0.000 C 
BRANCH  15  16
ATOM     16  C   UNL     1       7.004   4.948  31.830  1.00  0.00     0.006 C 
BRANCH  16  17
ATOM     17  C   UNL     1       6.001   4.493  30.763  1.00  0.00     0.053 C 
BRANCH  17  18
ATOM     18  C   UNL     1       6.580   4.667  29.394  1.00  0.00     0.041 C 
ATOM     19  O   UNL     1       6.017   5.421  28.559  1.00  0.00    -0.550 OA
ATOM     20  O   UNL     1       7.715   3.956  29.024  1.00  0.00    -0.550 OA
ENDBRANCH  17  18
ENDBRANCH  16  17
ENDBRANCH  15  16
ENDBRANCH  14  15
ENDBRANCH  13  14
ENDBRANCH  12  13
ENDBRANCH  11  12
ENDBRANCH   1  11
TORSDOF 15
ENDMDL
MODEL 4
REMARK VINA RESULT:    -3.635      1.438      6.709
REMARK INTER + INTRA:          -8.084
REMARK INTER:                  -6.197
REMARK INTRA:                  -1.887
REMARK UNBOUND:                -1.261
REMARK SMILES O=C([O-])CCCCCCCCCCCCCCC(=O)[O-]
REMARK SMILES IDX 10 1 9 2 8 3 7 4 6 5 5 6 4 7 2 8 1 9 3 10 11 11 12 12 13 13
REMARK SMILES IDX 14 14 15 15 16 16 17 17 18 18 19 19 20 20
REMARK H PARENT
REMARK Flexibility Score: inf
ROOT
ATOM      1  C   UNL     1      11.832  21.640  19.871  1.00  0.00     0.000 C 
ENDROOT
BRANCH   1   2
ATOM      2  C   UNL     1      12.336  23.043  19.499  1.00  0.00     0.000 C 
BRANCH   2   3
ATOM      3  C   UNL     1      13.183  23.051  18.216  1.00  0.00     0.000 C 
BRANCH   3   4
ATOM      4  C   UNL     1      12.333  22.673  16.997  1.00  0.00     0.000 C 
BRANCH   4   5
ATOM      5  C   UNL     1      12.919  21.454  16.274  1.00  0.00     0.000 C 
BRANCH   5   6
ATOM      6  C   UNL     1      11.815  20.465  15.877  1.00  0.00     0.006 C 
BRANCH   6   7
ATOM      7  C   UNL     1      10.447  20.940  16.375  1.00  0.00     0.053 C 
BRANCH   7   8
ATOM      8  C   UNL     1       9.706  19.813  17.022  1.00  0.00     0.041 C 
ATOM      9  O   UNL     1       8.477  19.651  16.798  1.00  0.00    -0.550 OA
ATOM     10  O   UNL     1      10.362  18.969  17.909  1.00  0.00    -0.550 OA
ENDBRANCH   7   8
ENDBRANCH   6   7
ENDBRANCH   5   6
ENDBRANCH   4   5
ENDBRANCH   3   4
ENDBRANCH   2   3
ENDBRANCH   1   2
BRANCH   1  11
ATOM     11  C   UNL     1      10.335  21.626  20.230  1.00  0.00     0.000 C 
BRANCH  11  12
ATOM     12  C   UNL     1       9.545  22.723  19.499  1.00  0.00     0.000 C 
BRANCH  12  13
ATOM     13  C   UNL     1       8.048  22.388  19.378  1.00  0.00     0.000 C 
BRANCH  13  14
ATOM     14  C   UNL     1       7.686  21.033  20.013  1.00  0.00     0.000 C 
BRANCH  14  15
ATOM     15  C   UNL     1       6.432  21.044  20.912  1.00  0.00     0.000 C 
BRANCH  15  16
ATOM     16  C   UNL     1       6.708  21.203  22.418  1.00  0.00     0.006 C 
BRANCH  16  17
ATOM     17  C   UNL     1       5.791  20.333  23.286  1.00  0.00     0.053 C 
BRANCH  17  18
ATOM     18  C   UNL     1       4.357  20.676  23.036  1.00  0.00     0.041 C 
ATOM     19  O   UNL     1       3.911  21.809  23.355  1.00  0.00    -0.550 OA
ATOM     20  O   UNL     1       3.498  19.727  22.496  1.00  0.00    -0.550 OA
ENDBRANCH  17  18
ENDBRANCH  16  17
ENDBRANCH  15  16
ENDBRANCH  14  15
ENDBRANCH  13  14
ENDBRANCH  12  13
ENDBRANCH  11  12
ENDBRANCH   1  11
TORSDOF 15
ENDMDL
MODEL 5
REMARK VINA RESULT:    -3.631      1.823      2.171
REMARK INTER + INTRA:          -8.076
REMARK INTER:                  -6.089
REMARK INTRA:                  -1.987
REMARK UNBOUND:                -1.261
REMARK SMILES O=C([O-])CCCCCCCCCCCCCCC(=O)[O-]
REMARK SMILES IDX 10 1 9 2 8 3 7 4 6 5 5 6 4 7 2 8 1 9 3 10 11 11 12 12 13 13
REMARK SMILES IDX 14 14 15 15 16 16 17 17 18 18 19 19 20 20
REMARK H PARENT
REMARK Flexibility Score: inf
ROOT
ATOM      1  C   UNL     1      11.500  21.009  20.428  1.00  0.00     0.000 C 
ENDROOT
BRANCH   1   2
ATOM      2  C   UNL     1       9.967  20.923  20.372  1.00  0.00     0.000 C 
BRANCH   2   3
ATOM      3  C   UNL     1       9.304  22.281  20.093  1.00  0.00     0.000 C 
BRANCH   3   4
ATOM      4  C   UNL     1       7.940  22.096  19.417  1.00  0.00     0.000 C 
BRANCH   4   5
ATOM      5  C   UNL     1       7.235  20.836  19.936  1.00  0.00     0.000 C 
BRANCH   5   6
ATOM      6  C   UNL     1       6.002  21.201  20.772  1.00  0.00     0.006 C 
BRANCH   6   7
ATOM      7  C   UNL     1       6.195  20.806  22.239  1.00  0.00     0.053 C 
BRANCH   7   8
ATOM      8  C   UNL     1       6.133  22.015  23.118  1.00  0.00     0.041 C 
ATOM      9  O   UNL     1       6.713  22.016  24.237  1.00  0.00    -0.550 OA
ATOM     10  O   UNL     1       5.396  23.124  22.724  1.00  0.00    -0.550 OA
ENDBRANCH   7   8
ENDBRANCH   6   7
ENDBRANCH   5   6
ENDBRANCH   4   5
ENDBRANCH   3   4
ENDBRANCH   2   3
ENDBRANCH   1   2
BRANCH   1  11
ATOM     11  C   UNL     1      12.015  22.456  20.323  1.00  0.00     0.000 C 
BRANCH  11  12
ATOM     12  C   UNL     1      12.941  22.664  19.114  1.00  0.00     0.000 C 
BRANCH  12  13
ATOM     13  C   UNL     1      12.172  22.684  17.781  1.00  0.00     0.000 C 
BRANCH  13  14
ATOM     14  C   UNL     1      12.837  21.820  16.694  1.00  0.00     0.000 C 
BRANCH  14  15
ATOM     15  C   UNL     1      11.909  20.791  16.015  1.00  0.00     0.000 C 
BRANCH  15  16
ATOM     16  C   UNL     1      11.016  19.983  16.974  1.00  0.00     0.006 C 
BRANCH  16  17
ATOM     17  C   UNL     1       9.523  20.122  16.654  1.00  0.00     0.053 C 
BRANCH  17  18
ATOM     18  C   UNL     1       8.795  18.861  17.001  1.00  0.00     0.041 C 
ATOM     19  O   UNL     1       9.003  18.293  18.105  1.00  0.00    -0.550 OA
ATOM     20  O   UNL     1       7.925  18.285  16.084  1.00  0.00    -0.550 OA
ENDBRANCH  17  18
ENDBRANCH  16  17
ENDBRANCH  15  16
ENDBRANCH  14  15
ENDBRANCH  13  14
ENDBRANCH  12  13
ENDBRANCH  11  12
ENDBRANCH   1  11
TORSDOF 15
ENDMDL
MODEL 6
REMARK VINA RESULT:    -3.622      9.033     11.213
REMARK INTER + INTRA:          -8.060
REMARK INTER:                  -6.839
REMARK INTRA:                  -1.221
REMARK UNBOUND:                -1.261
REMARK SMILES O=C([O-])CCCCCCCCCCCCCCC(=O)[O-]
REMARK SMILES IDX 10 1 9 2 8 3 7 4 6 5 5 6 4 7 2 8 1 9 3 10 11 11 12 12 13 13
REMARK SMILES IDX 14 14 15 15 16 16 17 17 18 18 19 19 20 20
REMARK H PARENT
REMARK Flexibility Score: inf
ROOT
ATOM      1  C   UNL     1      -0.018  14.127  22.471  1.00  0.00     0.000 C 
ENDROOT
BRANCH   1   2
ATOM      2  C   UNL     1       0.866  15.384  22.457  1.00  0.00     0.000 C 
BRANCH   2   3
ATOM      3  C   UNL     1       2.092  15.259  23.375  1.00  0.00     0.000 C 
BRANCH   3   4
ATOM      4  C   UNL     1       1.817  15.892  24.744  1.00  0.00     0.000 C 
BRANCH   4   5
ATOM      5  C   UNL     1       1.727  14.821  25.838  1.00  0.00     0.000 C 
BRANCH   5   6
ATOM      6  C   UNL     1       2.529  13.571  25.452  1.00  0.00     0.006 C 
BRANCH   6   7
ATOM      7  C   UNL     1       1.764  12.294  25.811  1.00  0.00     0.053 C 
BRANCH   7   8
ATOM      8  C   UNL     1       2.577  11.085  25.475  1.00  0.00     0.041 C 
ATOM      9  O   UNL     1       2.569  10.621  24.304  1.00  0.00    -0.550 OA
ATOM     10  O   UNL     1       3.309  10.443  26.466  1.00  0.00    -0.550 OA
ENDBRANCH   7   8
ENDBRANCH   6   7
ENDBRANCH   5   6
ENDBRANCH   4   5
ENDBRANCH   3   4
ENDBRANCH   2   3
ENDBRANCH   1   2
BRANCH   1  11
ATOM     11  C   UNL     1       0.702  12.891  21.901  1.00  0.00     0.000 C 
BRANCH  11  12
ATOM     12  C   UNL     1      -0.012  12.312  20.669  1.00  0.00     0.000 C 
BRANCH  12  13
ATOM     13  C   UNL     1       0.601  12.808  19.347  1.00  0.00     0.000 C 
BRANCH  13  14
ATOM     14  C   UNL     1       0.186  11.951  18.138  1.00  0.00     0.000 C 
BRANCH  14  15
ATOM     15  C   UNL     1       0.913  12.282  16.818  1.00  0.00     0.000 C 
BRANCH  15  16
ATOM     16  C   UNL     1       2.138  13.202  16.960  1.00  0.00     0.006 C 
BRANCH  16  17
ATOM     17  C   UNL     1       1.922  14.582  16.326  1.00  0.00     0.053 C 
BRANCH  17  18
ATOM     18  C   UNL     1       2.775  15.607  17.005  1.00  0.00     0.041 C 
ATOM     19  O   UNL     1       3.655  16.230  16.356  1.00  0.00    -0.550 OA
ATOM     20  O   UNL     1       2.632  15.838  18.368  1.00  0.00    -0.550 OA
ENDBRANCH  17  18
ENDBRANCH  16  17
ENDBRANCH  15  16
ENDBRANCH  14  15
ENDBRANCH  13  14
ENDBRANCH  12  13
ENDBRANCH  11  12
ENDBRANCH   1  11
TORSDOF 15
ENDMDL
MODEL 7
REMARK VINA RESULT:    -3.616      2.340      6.246
REMARK INTER + INTRA:          -8.048
REMARK INTER:                  -5.787
REMARK INTRA:                  -2.260
REMARK UNBOUND:                -1.261
REMARK SMILES O=C([O-])CCCCCCCCCCCCCCC(=O)[O-]
REMARK SMILES IDX 10 1 9 2 8 3 7 4 6 5 5 6 4 7 2 8 1 9 3 10 11 11 12 12 13 13
REMARK SMILES IDX 14 14 15 15 16 16 17 17 18 18 19 19 20 20
REMARK H PARENT
REMARK Flexibility Score: inf
ROOT
ATOM      1  C   UNL     1       9.267  18.973  17.402  1.00  0.00     0.000 C 
ENDROOT
BRANCH   1   2
ATOM      2  C   UNL     1      10.563  19.714  17.042  1.00  0.00     0.000 C 
BRANCH   2   3
ATOM      3  C   UNL     1      10.310  21.006  16.248  1.00  0.00     0.000 C 
BRANCH   3   4
ATOM      4  C   UNL     1      10.881  22.222  16.986  1.00  0.00     0.000 C 
BRANCH   4   5
ATOM      5  C   UNL     1      12.359  22.010  17.336  1.00  0.00     0.000 C 
BRANCH   5   6
ATOM      6  C   UNL     1      12.644  22.410  18.789  1.00  0.00     0.006 C 
BRANCH   6   7
ATOM      7  C   UNL     1      11.367  22.363  19.633  1.00  0.00     0.053 C 
BRANCH   7   8
ATOM      8  C   UNL     1      11.477  21.310  20.690  1.00  0.00     0.041 C 
ATOM      9  O   UNL     1      11.977  21.589  21.813  1.00  0.00    -0.550 OA
ATOM     10  O   UNL     1      11.072  20.009  20.420  1.00  0.00    -0.550 OA
ENDBRANCH   7   8
ENDBRANCH   6   7
ENDBRANCH   5   6
ENDBRANCH   4   5
ENDBRANCH   3   4
ENDBRANCH   2   3
ENDBRANCH   1   2
BRANCH   1  11
ATOM     11  C   UNL     1       8.409  18.646  16.166  1.00  0.00     0.000 C 
BRANCH  11  12
ATOM     12  C   UNL     1       7.053  19.371  16.183  1.00  0.00     0.000 C 
BRANCH  12  13
ATOM     13  C   UNL     1       6.654  19.838  17.594  1.00  0.00     0.000 C 
BRANCH  13  14
ATOM     14  C   UNL     1       6.488  21.365  17.693  1.00  0.00     0.000 C 
BRANCH  14  15
ATOM     15  C   UNL     1       7.499  22.078  18.615  1.00  0.00     0.000 C 
BRANCH  15  16
ATOM     16  C   UNL     1       7.823  21.337  19.925  1.00  0.00     0.006 C 
BRANCH  16  17
ATOM     17  C   UNL     1       6.691  21.429  20.955  1.00  0.00     0.053 C 
BRANCH  17  18
ATOM     18  C   UNL     1       7.247  21.402  22.344  1.00  0.00     0.041 C 
ATOM     19  O   UNL     1       8.492  21.424  22.530  1.00  0.00    -0.550 OA
ATOM     20  O   UNL     1       6.391  21.302  23.434  1.00  0.00    -0.550 OA
ENDBRANCH  17  18
ENDBRANCH  16  17
ENDBRANCH  15  16
ENDBRANCH  14  15
ENDBRANCH  13  14
ENDBRANCH  12  13
ENDBRANCH  11  12
ENDBRANCH   1  11
TORSDOF 15
ENDMDL
MODEL 8
REMARK VINA RESULT:    -3.615      2.496      5.863
REMARK INTER + INTRA:          -8.047
REMARK INTER:                  -6.217
REMARK INTRA:                  -1.830
REMARK UNBOUND:                -1.261
REMARK SMILES O=C([O-])CCCCCCCCCCCCCCC(=O)[O-]
REMARK SMILES IDX 10 1 9 2 8 3 7 4 6 5 5 6 4 7 2 8 1 9 3 10 11 11 12 12 13 13
REMARK SMILES IDX 14 14 15 15 16 16 17 17 18 18 19 19 20 20
REMARK H PARENT
REMARK Flexibility Score: inf
ROOT
ATOM      1  C   UNL     1      12.021  21.690  20.012  1.00  0.00     0.000 C 
ENDROOT
BRANCH   1   2
ATOM      2  C   UNL     1      12.538  23.087  19.631  1.00  0.00     0.000 C 
BRANCH   2   3
ATOM      3  C   UNL     1      13.174  23.125  18.233  1.00  0.00     0.000 C 
BRANCH   3   4
ATOM      4  C   UNL     1      12.160  22.713  17.159  1.00  0.00     0.000 C 
BRANCH   4   5
ATOM      5  C   UNL     1      12.668  21.509  16.355  1.00  0.00     0.000 C 
BRANCH   5   6
ATOM      6  C   UNL     1      11.522  20.542  16.030  1.00  0.00     0.006 C 
BRANCH   6   7
ATOM      7  C   UNL     1      10.389  20.668  17.052  1.00  0.00     0.053 C 
BRANCH   7   8
ATOM      8  C   UNL     1       9.962  19.317  17.530  1.00  0.00     0.041 C 
ATOM      9  O   UNL     1       9.072  18.677  16.911  1.00  0.00    -0.550 OA
ATOM     10  O   UNL     1      10.515  18.784  18.688  1.00  0.00    -0.550 OA
ENDBRANCH   7   8
ENDBRANCH   6   7
ENDBRANCH   5   6
ENDBRANCH   4   5
ENDBRANCH   3   4
ENDBRANCH   2   3
ENDBRANCH   1   2
BRANCH   1  11
ATOM     11  C   UNL     1      11.422  21.648  21.429  1.00  0.00     0.000 C 
BRANCH  11  12
ATOM     12  C   UNL     1      10.065  20.927  21.472  1.00  0.00     0.000 C 
BRANCH  12  13
ATOM     13  C   UNL     1       9.004  21.715  22.261  1.00  0.00     0.000 C 
BRANCH  13  14
ATOM     14  C   UNL     1       7.897  22.291  21.361  1.00  0.00     0.000 C 
BRANCH  14  15
ATOM     15  C   UNL     1       8.281  22.466  19.877  1.00  0.00     0.000 C 
BRANCH  15  16
ATOM     16  C   UNL     1       7.293  21.851  18.870  1.00  0.00     0.006 C 
BRANCH  16  17
ATOM     17  C   UNL     1       6.931  20.398  19.204  1.00  0.00     0.053 C 
BRANCH  17  18
ATOM     18  C   UNL     1       5.715  19.975  18.442  1.00  0.00     0.041 C 
ATOM     19  O   UNL     1       4.576  20.049  18.973  1.00  0.00    -0.550 OA
ATOM     20  O   UNL     1       5.844  19.451  17.162  1.00  0.00    -0.550 OA
ENDBRANCH  17  18
ENDBRANCH  16  17
ENDBRANCH  15  16
ENDBRANCH  14  15
ENDBRANCH  13  14
ENDBRANCH  12  13
ENDBRANCH  11  12
ENDBRANCH   1  11
TORSDOF 15
ENDMDL
MODEL 9
REMARK VINA RESULT:    -3.557      2.617      3.058
REMARK INTER + INTRA:          -7.938
REMARK INTER:                  -5.835
REMARK INTRA:                  -2.103
REMARK UNBOUND:                -1.261
REMARK SMILES O=C([O-])CCCCCCCCCCCCCCC(=O)[O-]
REMARK SMILES IDX 10 1 9 2 8 3 7 4 6 5 5 6 4 7 2 8 1 9 3 10 11 11 12 12 13 13
REMARK SMILES IDX 14 14 15 15 16 16 17 17 18 18 19 19 20 20
REMARK H PARENT
REMARK Flexibility Score: inf
ROOT
ATOM      1  C   UNL     1      11.109  20.962  20.309  1.00  0.00     0.000 C 
ENDROOT
BRANCH   1   2
ATOM      2  C   UNL     1      10.154  21.387  21.435  1.00  0.00     0.000 C 
BRANCH   2   3
ATOM      3  C   UNL     1       8.701  21.536  20.959  1.00  0.00     0.000 C 
BRANCH   3   4
ATOM      4  C   UNL     1       8.648  21.913  19.473  1.00  0.00     0.000 C 
BRANCH   4   5
ATOM      5  C   UNL     1       7.237  21.715  18.905  1.00  0.00     0.000 C 
BRANCH   5   6
ATOM      6  C   UNL     1       6.599  20.432  19.451  1.00  0.00     0.006 C 
BRANCH   6   7
ATOM      7  C   UNL     1       5.727  19.756  18.390  1.00  0.00     0.053 C 
BRANCH   7   8
ATOM      8  C   UNL     1       4.279  19.891  18.739  1.00  0.00     0.041 C 
ATOM      9  O   UNL     1       3.613  18.880  19.086  1.00  0.00    -0.550 OA
ATOM     10  O   UNL     1       3.651  21.127  18.635  1.00  0.00    -0.550 OA
ENDBRANCH   7   8
ENDBRANCH   6   7
ENDBRANCH   5   6
ENDBRANCH   4   5
ENDBRANCH   3   4
ENDBRANCH   2   3
ENDBRANCH   1   2
BRANCH   1  11
ATOM     11  C   UNL     1      12.219  21.998  20.053  1.00  0.00     0.000 C 
BRANCH  11  12
ATOM     12  C   UNL     1      11.966  22.829  18.785  1.00  0.00     0.000 C 
BRANCH  12  13
ATOM     13  C   UNL     1      12.995  22.541  17.678  1.00  0.00     0.000 C 
BRANCH  13  14
ATOM     14  C   UNL     1      12.361  21.920  16.420  1.00  0.00     0.000 C 
BRANCH  14  15
ATOM     15  C   UNL     1      10.850  22.182  16.250  1.00  0.00     0.000 C 
BRANCH  15  16
ATOM     16  C   UNL     1       9.984  20.921  16.075  1.00  0.00     0.006 C 
BRANCH  16  17
ATOM     17  C   UNL     1      10.420  19.770  16.990  1.00  0.00     0.053 C 
BRANCH  17  18
ATOM     18  C   UNL     1       9.266  18.857  17.266  1.00  0.00     0.041 C 
ATOM     19  O   UNL     1       9.151  18.303  18.391  1.00  0.00    -0.550 OA
ATOM     20  O   UNL     1       8.345  18.579  16.265  1.00  0.00    -0.550 OA
ENDBRANCH  17  18
ENDBRANCH  16  17
ENDBRANCH  15  16
ENDBRANCH  14  15
ENDBRANCH  13  14
ENDBRANCH  12  13
ENDBRANCH  11  12
ENDBRANCH   1  11
TORSDOF 15
ENDMDL
