MODEL 1
REMARK VINA RESULT:    -3.837      0.000      0.000
REMARK INTER + INTRA:          -6.015
REMARK INTER:                  -5.407
REMARK INTRA:                  -0.607
REMARK UNBOUND:                -0.607
REMARK SMILES C=CCCCCCCC(=O)[O-]
REMARK SMILES IDX 6 1 7 2 8 3 9 4 10 5 11 6 5 7 4 8 3 9 2 10 1 11
REMARK H PARENT
REMARK Flexibility Score: inf
ROOT
ATOM      1  C   UNL     1      35.665  10.275   4.381  1.00  0.00     0.000 C 
ENDROOT
BRANCH   1   2
ATOM      2  C   UNL     1      34.655  11.302   3.855  1.00  0.00     0.006 C 
BRANCH   2   3
ATOM      3  C   UNL     1      34.589  11.275   2.325  1.00  0.00     0.053 C 
BRANCH   3   4
ATOM      4  C   UNL     1      33.457  10.416   1.864  1.00  0.00     0.041 C 
ATOM      5  O   UNL     1      33.677   9.414   1.134  1.00  0.00    -0.550 OA
ATOM      6  O   UNL     1      32.160  10.691   2.280  1.00  0.00    -0.550 OA
ENDBRANCH   3   4
ENDBRANCH   2   3
ENDBRANCH   1   2
BRANCH   1   7
ATOM      7  C   UNL     1      35.048   9.419   5.498  1.00  0.00     0.000 C 
BRANCH   7   8
ATOM      8  C   UNL     1      34.746   7.978   5.047  1.00  0.00     0.004 C 
BRANCH   8   9
ATOM      9  C   UNL     1      35.388   7.591   3.706  1.00  0.00     0.027 C 
BRANCH   9  10
ATOM     10  C   UNL     1      36.486   6.577   3.885  1.00  0.00    -0.035 C 
ATOM     11  C   UNL     1      37.773   6.933   3.942  1.00  0.00     0.004 C 
ENDBRANCH   9  10
ENDBRANCH   8   9
ENDBRANCH   7   8
ENDBRANCH   1   7
TORSDOF 7
ENDMDL
MODEL 2
REMARK VINA RESULT:    -3.784      2.701      4.640
REMARK INTER + INTRA:          -5.940
REMARK INTER:                  -5.203
REMARK INTRA:                  -0.737
REMARK UNBOUND:                -0.607
REMARK SMILES C=CCCCCCCC(=O)[O-]
REMARK SMILES IDX 6 1 7 2 8 3 9 4 10 5 11 6 5 7 4 8 3 9 2 10 1 11
REMARK H PARENT
REMARK Flexibility Score: inf
ROOT
ATOM      1  C   UNL     1      35.094   9.238   5.593  1.00  0.00     0.000 C 
ENDROOT
BRANCH   1   2
ATOM      2  C   UNL     1      34.591   8.063   4.744  1.00  0.00     0.006 C 
BRANCH   2   3
ATOM      3  C   UNL     1      35.558   7.761   3.595  1.00  0.00     0.053 C 
BRANCH   3   4
ATOM      4  C   UNL     1      36.577   6.753   4.019  1.00  0.00     0.041 C 
ATOM      5  O   UNL     1      36.236   5.761   4.716  1.00  0.00    -0.550 OA
ATOM      6  O   UNL     1      37.896   6.879   3.602  1.00  0.00    -0.550 OA
ENDBRANCH   3   4
ENDBRANCH   2   3
ENDBRANCH   1   2
BRANCH   1   7
ATOM      7  C   UNL     1      35.544  10.406   4.703  1.00  0.00     0.000 C 
BRANCH   7   8
ATOM      8  C   UNL     1      34.603  11.621   4.793  1.00  0.00     0.004 C 
BRANCH   8   9
ATOM      9  C   UNL     1      33.795  11.887   3.512  1.00  0.00     0.027 C 
BRANCH   9  10
ATOM     10  C   UNL     1      34.319  11.092   2.347  1.00  0.00    -0.035 C 
ATOM     11  C   UNL     1      33.534  10.270   1.644  1.00  0.00     0.004 C 
ENDBRANCH   9  10
ENDBRANCH   8   9
ENDBRANCH   7   8
ENDBRANCH   1   7
TORSDOF 7
ENDMDL
MODEL 3
REMARK VINA RESULT:    -3.770     12.990     14.772
REMARK INTER + INTRA:          -5.921
REMARK INTER:                  -5.338
REMARK INTRA:                  -0.583
REMARK UNBOUND:                -0.607
REMARK SMILES C=CCCCCCCC(=O)[O-]
REMARK SMILES IDX 6 1 7 2 8 3 9 4 10 5 11 6 5 7 4 8 3 9 2 10 1 11
REMARK H PARENT
REMARK Flexibility Score: inf
ROOT
ATOM      1  C   UNL     1      42.546   3.525  -8.031  1.00  0.00     0.000 C 
ENDROOT
BRANCH   1   2
ATOM      2  C   UNL     1      43.396   2.376  -7.473  1.00  0.00     0.006 C 
BRANCH   2   3
ATOM      3  C   UNL     1      43.407   2.393  -5.942  1.00  0.00     0.053 C 
BRANCH   3   4
ATOM      4  C   UNL     1      42.556   1.291  -5.399  1.00  0.00     0.041 C 
ATOM      5  O   UNL     1      41.518   1.557  -4.739  1.00  0.00    -0.550 OA
ATOM      6  O   UNL     1      42.880  -0.034  -5.665  1.00  0.00    -0.550 OA
ENDBRANCH   3   4
ENDBRANCH   2   3
ENDBRANCH   1   2
BRANCH   1   7
ATOM      7  C   UNL     1      41.574   3.017  -9.107  1.00  0.00     0.000 C 
BRANCH   7   8
ATOM      8  C   UNL     1      40.191   2.653  -8.537  1.00  0.00     0.004 C 
BRANCH   8   9
ATOM      9  C   UNL     1      39.863   3.332  -7.198  1.00  0.00     0.027 C 
BRANCH   9  10
ATOM     10  C   UNL     1      38.834   4.419  -7.361  1.00  0.00    -0.035 C 
ATOM     11  C   UNL     1      39.160   5.639  -7.797  1.00  0.00     0.004 C 
ENDBRANCH   9  10
ENDBRANCH   8   9
ENDBRANCH   7   8
ENDBRANCH   1   7
TORSDOF 7
ENDMDL
MODEL 4
REMARK VINA RESULT:    -3.739      2.658      4.426
REMARK INTER + INTRA:          -5.876
REMARK INTER:                  -5.265
REMARK INTRA:                  -0.611
REMARK UNBOUND:                -0.607
REMARK SMILES C=CCCCCCCC(=O)[O-]
REMARK SMILES IDX 6 1 7 2 8 3 9 4 10 5 11 6 5 7 4 8 3 9 2 10 1 11
REMARK H PARENT
REMARK Flexibility Score: inf
ROOT
ATOM      1  C   UNL     1      35.021   9.966   6.017  1.00  0.00     0.000 C 
ENDROOT
BRANCH   1   2
ATOM      2  C   UNL     1      35.386   8.540   5.584  1.00  0.00     0.006 C 
BRANCH   2   3
ATOM      3  C   UNL     1      34.329   7.965   4.636  1.00  0.00     0.053 C 
BRANCH   3   4
ATOM      4  C   UNL     1      33.650   6.789   5.261  1.00  0.00     0.041 C 
ATOM      5  O   UNL     1      34.304   5.749   5.532  1.00  0.00    -0.550 OA
ATOM      6  O   UNL     1      32.302   6.859   5.590  1.00  0.00    -0.550 OA
ENDBRANCH   3   4
ENDBRANCH   2   3
ENDBRANCH   1   2
BRANCH   1   7
ATOM      7  C   UNL     1      35.345  10.978   4.908  1.00  0.00     0.000 C 
BRANCH   7   8
ATOM      8  C   UNL     1      34.230  12.020   4.706  1.00  0.00     0.004 C 
BRANCH   8   9
ATOM      9  C   UNL     1      33.553  11.958   3.328  1.00  0.00     0.027 C 
BRANCH   9  10
ATOM     10  C   UNL     1      34.348  11.131   2.352  1.00  0.00    -0.035 C 
ATOM     11  C   UNL     1      33.791  10.140   1.650  1.00  0.00     0.004 C 
ENDBRANCH   9  10
ENDBRANCH   8   9
ENDBRANCH   7   8
ENDBRANCH   1   7
TORSDOF 7
ENDMDL
MODEL 5
REMARK VINA RESULT:    -3.722     13.913     15.045
REMARK INTER + INTRA:          -5.853
REMARK INTER:                  -5.199
REMARK INTRA:                  -0.653
REMARK UNBOUND:                -0.607
REMARK SMILES C=CCCCCCCC(=O)[O-]
REMARK SMILES IDX 6 1 7 2 8 3 9 4 10 5 11 6 5 7 4 8 3 9 2 10 1 11
REMARK H PARENT
REMARK Flexibility Score: inf
ROOT
ATOM      1  C   UNL     1      41.649   4.057  -8.526  1.00  0.00     0.000 C 
ENDROOT
BRANCH   1   2
ATOM      2  C   UNL     1      40.995   2.727  -8.920  1.00  0.00     0.006 C 
BRANCH   2   3
ATOM      3  C   UNL     1      39.719   2.480  -8.108  1.00  0.00     0.053 C 
BRANCH   3   4
ATOM      4  C   UNL     1      38.757   1.641  -8.887  1.00  0.00     0.041 C 
ATOM      5  O   UNL     1      37.776   2.175  -9.468  1.00  0.00    -0.550 OA
ATOM      6  O   UNL     1      38.971   0.274  -9.014  1.00  0.00    -0.550 OA
ENDBRANCH   3   4
ENDBRANCH   2   3
ENDBRANCH   1   2
BRANCH   1   7
ATOM      7  C   UNL     1      43.079   3.835  -8.011  1.00  0.00     0.000 C 
BRANCH   7   8
ATOM      8  C   UNL     1      43.578   2.396  -8.237  1.00  0.00     0.004 C 
BRANCH   8   9
ATOM      9  C   UNL     1      43.949   1.649  -6.947  1.00  0.00     0.027 C 
BRANCH   9  10
ATOM     10  C   UNL     1      43.240   2.220  -5.748  1.00  0.00    -0.035 C 
ATOM     11  C   UNL     1      42.108   1.687  -5.278  1.00  0.00     0.004 C 
ENDBRANCH   9  10
ENDBRANCH   8   9
ENDBRANCH   7   8
ENDBRANCH   1   7
TORSDOF 7
ENDMDL
MODEL 6
REMARK VINA RESULT:    -3.681     13.442     14.611
REMARK INTER + INTRA:          -5.795
REMARK INTER:                  -5.078
REMARK INTRA:                  -0.717
REMARK UNBOUND:                -0.607
REMARK SMILES C=CCCCCCCC(=O)[O-]
REMARK SMILES IDX 6 1 7 2 8 3 9 4 10 5 11 6 5 7 4 8 3 9 2 10 1 11
REMARK H PARENT
REMARK Flexibility Score: inf
ROOT
ATOM      1  C   UNL     1      41.558   4.043  -8.616  1.00  0.00     0.000 C 
ENDROOT
BRANCH   1   2
ATOM      2  C   UNL     1      40.930   2.693  -8.989  1.00  0.00     0.006 C 
BRANCH   2   3
ATOM      3  C   UNL     1      39.758   2.357  -8.062  1.00  0.00     0.053 C 
BRANCH   3   4
ATOM      4  C   UNL     1      38.521   3.073  -8.500  1.00  0.00     0.041 C 
ATOM      5  O   UNL     1      37.832   2.624  -9.454  1.00  0.00    -0.550 OA
ATOM      6  O   UNL     1      38.099   4.210  -7.823  1.00  0.00    -0.550 OA
ENDBRANCH   3   4
ENDBRANCH   2   3
ENDBRANCH   1   2
BRANCH   1   7
ATOM      7  C   UNL     1      42.970   3.852  -8.043  1.00  0.00     0.000 C 
BRANCH   7   8
ATOM      8  C   UNL     1      43.520   2.432  -8.272  1.00  0.00     0.004 C 
BRANCH   8   9
ATOM      9  C   UNL     1      43.886   1.683  -6.981  1.00  0.00     0.027 C 
BRANCH   9  10
ATOM     10  C   UNL     1      43.180   2.259  -5.783  1.00  0.00    -0.035 C 
ATOM     11  C   UNL     1      42.096   1.681  -5.257  1.00  0.00     0.004 C 
ENDBRANCH   9  10
ENDBRANCH   8   9
ENDBRANCH   7   8
ENDBRANCH   1   7
TORSDOF 7
ENDMDL
MODEL 7
REMARK VINA RESULT:    -3.586      1.106      1.785
REMARK INTER + INTRA:          -5.661
REMARK INTER:                  -4.878
REMARK INTRA:                  -0.783
REMARK UNBOUND:                -0.607
REMARK SMILES C=CCCCCCCC(=O)[O-]
REMARK SMILES IDX 6 1 7 2 8 3 9 4 10 5 11 6 5 7 4 8 3 9 2 10 1 11
REMARK H PARENT
REMARK Flexibility Score: inf
ROOT
ATOM      1  C   UNL     1      35.215  11.384   5.110  1.00  0.00     0.000 C 
ENDROOT
BRANCH   1   2
ATOM      2  C   UNL     1      34.078  11.758   4.150  1.00  0.00     0.006 C 
BRANCH   2   3
ATOM      3  C   UNL     1      34.450  11.425   2.702  1.00  0.00     0.053 C 
BRANCH   3   4
ATOM      4  C   UNL     1      33.406  10.555   2.079  1.00  0.00     0.041 C 
ATOM      5  O   UNL     1      33.738   9.613   1.314  1.00  0.00    -0.550 OA
ATOM      6  O   UNL     1      32.065  10.754   2.383  1.00  0.00    -0.550 OA
ENDBRANCH   3   4
ENDBRANCH   2   3
ENDBRANCH   1   2
BRANCH   1   7
ATOM      7  C   UNL     1      36.284  10.543   4.396  1.00  0.00     0.000 C 
BRANCH   7   8
ATOM      8  C   UNL     1      36.327   9.087   4.893  1.00  0.00     0.004 C 
BRANCH   8   9
ATOM      9  C   UNL     1      35.620   8.085   3.966  1.00  0.00     0.027 C 
BRANCH   9  10
ATOM     10  C   UNL     1      34.336   7.578   4.568  1.00  0.00    -0.035 C 
ATOM     11  C   UNL     1      34.086   7.670   5.877  1.00  0.00     0.004 C 
ENDBRANCH   9  10
ENDBRANCH   8   9
ENDBRANCH   7   8
ENDBRANCH   1   7
TORSDOF 7
ENDMDL
MODEL 8
REMARK VINA RESULT:    -3.586     12.750     13.948
REMARK INTER + INTRA:          -5.661
REMARK INTER:                  -5.174
REMARK INTRA:                  -0.487
REMARK UNBOUND:                -0.607
REMARK SMILES C=CCCCCCCC(=O)[O-]
REMARK SMILES IDX 6 1 7 2 8 3 9 4 10 5 11 6 5 7 4 8 3 9 2 10 1 11
REMARK H PARENT
REMARK Flexibility Score: inf
ROOT
ATOM      1  C   UNL     1      39.869   2.127  -8.472  1.00  0.00     0.000 C 
ENDROOT
BRANCH   1   2
ATOM      2  C   UNL     1      38.681   3.080  -8.652  1.00  0.00     0.006 C 
BRANCH   2   3
ATOM      3  C   UNL     1      38.635   4.121  -7.530  1.00  0.00     0.053 C 
BRANCH   3   4
ATOM      4  C   UNL     1      38.933   5.484  -8.067  1.00  0.00     0.041 C 
ATOM      5  O   UNL     1      38.955   5.685  -9.309  1.00  0.00    -0.550 OA
ATOM      6  O   UNL     1      39.138   6.545  -7.194  1.00  0.00    -0.550 OA
ENDBRANCH   3   4
ENDBRANCH   2   3
ENDBRANCH   1   2
BRANCH   1   7
ATOM      7  C   UNL     1      41.166   2.759  -9.001  1.00  0.00     0.000 C 
BRANCH   7   8
ATOM      8  C   UNL     1      42.257   2.873  -7.921  1.00  0.00     0.004 C 
BRANCH   8   9
ATOM      9  C   UNL     1      41.810   2.416  -6.523  1.00  0.00     0.027 C 
BRANCH   9  10
ATOM     10  C   UNL     1      42.963   1.886  -5.714  1.00  0.00    -0.035 C 
ATOM     11  C   UNL     1      43.059   0.595  -5.384  1.00  0.00     0.004 C 
ENDBRANCH   9  10
ENDBRANCH   8   9
ENDBRANCH   7   8
ENDBRANCH   1   7
TORSDOF 7
ENDMDL
MODEL 9
REMARK VINA RESULT:    -3.539      3.642      5.566
REMARK INTER + INTRA:          -5.595
REMARK INTER:                  -5.191
REMARK INTRA:                  -0.404
REMARK UNBOUND:                -0.607
REMARK SMILES C=CCCCCCCC(=O)[O-]
REMARK SMILES IDX 6 1 7 2 8 3 9 4 10 5 11 6 5 7 4 8 3 9 2 10 1 11
REMARK H PARENT
REMARK Flexibility Score: inf
ROOT
ATOM      1  C   UNL     1      34.762   7.243   4.399  1.00  0.00     0.000 C 
ENDROOT
BRANCH   1   2
ATOM      2  C   UNL     1      33.787   6.478   5.303  1.00  0.00     0.006 C 
BRANCH   2   3
ATOM      3  C   UNL     1      34.352   6.327   6.718  1.00  0.00     0.053 C 
BRANCH   3   4
ATOM      4  C   UNL     1      35.414   5.275   6.749  1.00  0.00     0.041 C 
ATOM      5  O   UNL     1      35.120   4.071   6.531  1.00  0.00    -0.550 OA
ATOM      6  O   UNL     1      36.739   5.631   6.969  1.00  0.00    -0.550 OA
ENDBRANCH   3   4
ENDBRANCH   2   3
ENDBRANCH   1   2
BRANCH   1   7
ATOM      7  C   UNL     1      35.061   8.638   4.970  1.00  0.00     0.000 C 
BRANCH   7   8
ATOM      8  C   UNL     1      35.011   9.744   3.900  1.00  0.00     0.004 C 
BRANCH   8   9
ATOM      9  C   UNL     1      34.376   9.305   2.571  1.00  0.00     0.027 C 
BRANCH   9  10
ATOM     10  C   UNL     1      33.603  10.424   1.926  1.00  0.00    -0.035 C 
ATOM     11  C   UNL     1      33.971  11.702   2.055  1.00  0.00     0.004 C 
ENDBRANCH   9  10
ENDBRANCH   8   9
ENDBRANCH   7   8
ENDBRANCH   1   7
TORSDOF 7
ENDMDL
