MODEL 1
REMARK VINA RESULT:    -5.515      0.000      0.000
REMARK INTER + INTRA:          -6.628
REMARK INTER:                  -6.321
REMARK INTRA:                  -0.307
REMARK UNBOUND:                -0.307
REMARK SMILES COc1ccc(C(C)=O)c(O)c1
REMARK SMILES IDX 6 1 10 2 12 3 3 4 4 5 5 6 7 7 8 8 9 9 11 10 2 12 1 13
REMARK H PARENT 11 11
REMARK Flexibility Score: inf
ROOT
ATOM      1  C   UNL     1      43.155  -8.464  15.371  1.00  0.00     0.059 A 
ATOM      2  C   UNL     1      43.749  -9.635  14.846  1.00  0.00     0.130 A 
ATOM      3  C   UNL     1      43.148 -10.301  13.767  1.00  0.00     0.093 A 
ATOM      4  C   UNL     1      41.955  -9.835  13.208  1.00  0.00     0.122 A 
ATOM      5  C   UNL     1      41.354  -8.683  13.741  1.00  0.00     0.047 A 
ATOM      6  C   UNL     1      41.947  -8.009  14.811  1.00  0.00     0.019 A 
ENDROOT
BRANCH   1   7
ATOM      7  C   UNL     1      43.751  -7.702  16.501  1.00  0.00     0.163 C 
ATOM      8  C   UNL     1      43.547  -6.228  16.674  1.00  0.00     0.093 C 
ATOM      9  O   UNL     1      44.457  -8.309  17.351  1.00  0.00    -0.294 OA
ENDBRANCH   1   7
BRANCH   2  10
ATOM     10  O   UNL     1      44.918 -10.154  15.399  1.00  0.00    -0.507 OA
ATOM     11  H   UNL     1      45.834  -9.809  15.135  1.00  0.00     0.293 HD
ENDBRANCH   2  10
BRANCH   4  12
ATOM     12  O   UNL     1      41.401 -10.544  12.132  1.00  0.00    -0.497 OA
ATOM     13  C   UNL     1      41.466 -11.959  11.983  1.00  0.00     0.278 C 
ENDBRANCH   4  12
TORSDOF 3
ENDMDL
MODEL 2
REMARK VINA RESULT:    -5.512      1.702      4.656
REMARK INTER + INTRA:          -6.625
REMARK INTER:                  -6.325
REMARK INTRA:                  -0.299
REMARK UNBOUND:                -0.307
REMARK SMILES COc1ccc(C(C)=O)c(O)c1
REMARK SMILES IDX 6 1 10 2 12 3 3 4 4 5 5 6 7 7 8 8 9 9 11 10 2 12 1 13
REMARK H PARENT 11 11
REMARK Flexibility Score: inf
ROOT
ATOM      1  C   UNL     1      41.727 -10.637  13.743  1.00  0.00     0.059 A 
ATOM      2  C   UNL     1      42.234 -10.503  15.056  1.00  0.00     0.130 A 
ATOM      3  C   UNL     1      42.502  -9.228  15.577  1.00  0.00     0.093 A 
ATOM      4  C   UNL     1      42.292  -8.079  14.809  1.00  0.00     0.122 A 
ATOM      5  C   UNL     1      41.807  -8.211  13.498  1.00  0.00     0.047 A 
ATOM      6  C   UNL     1      41.531  -9.476  12.973  1.00  0.00     0.019 A 
ENDROOT
BRANCH   1   7
ATOM      7  C   UNL     1      41.405 -11.958  13.140  1.00  0.00     0.163 C 
ATOM      8  C   UNL     1      41.374 -12.180  11.658  1.00  0.00     0.093 C 
ATOM      9  O   UNL     1      41.148 -12.935  13.895  1.00  0.00    -0.294 OA
ENDBRANCH   1   7
BRANCH   2  10
ATOM     10  O   UNL     1      42.493 -11.626  15.841  1.00  0.00    -0.507 OA
ATOM     11  H   UNL     1      43.272 -11.657  16.489  1.00  0.00     0.293 HD
ENDBRANCH   2  10
BRANCH   4  12
ATOM     12  O   UNL     1      42.581  -6.832  15.383  1.00  0.00    -0.497 OA
ATOM     13  C   UNL     1      43.570  -6.618  16.386  1.00  0.00     0.278 C 
ENDBRANCH   4  12
TORSDOF 3
ENDMDL
MODEL 3
REMARK VINA RESULT:    -5.429      2.007      2.504
REMARK INTER + INTRA:          -6.530
REMARK INTER:                  -6.185
REMARK INTRA:                  -0.344
REMARK UNBOUND:                -0.307
REMARK SMILES COc1ccc(C(C)=O)c(O)c1
REMARK SMILES IDX 6 1 10 2 12 3 3 4 4 5 5 6 7 7 8 8 9 9 11 10 2 12 1 13
REMARK H PARENT 11 11
REMARK Flexibility Score: inf
ROOT
ATOM      1  C   UNL     1      42.186  -8.385  14.826  1.00  0.00     0.059 A 
ATOM      2  C   UNL     1      41.698  -8.480  13.502  1.00  0.00     0.130 A 
ATOM      3  C   UNL     1      41.534  -9.739  12.905  1.00  0.00     0.093 A 
ATOM      4  C   UNL     1      41.861 -10.910  13.595  1.00  0.00     0.122 A 
ATOM      5  C   UNL     1      42.362 -10.816  14.904  1.00  0.00     0.047 A 
ATOM      6  C   UNL     1      42.525  -9.568  15.508  1.00  0.00     0.019 A 
ENDROOT
BRANCH   1   7
ATOM      7  C   UNL     1      42.366  -7.082  15.521  1.00  0.00     0.163 C 
ATOM      8  C   UNL     1      43.616  -6.737  16.273  1.00  0.00     0.093 C 
ATOM      9  O   UNL     1      41.439  -6.228  15.482  1.00  0.00    -0.294 OA
ENDBRANCH   1   7
BRANCH   2  10
ATOM     10  O   UNL     1      41.397  -7.335  12.766  1.00  0.00    -0.507 OA
ATOM     11  H   UNL     1      41.950  -7.054  11.965  1.00  0.00     0.293 HD
ENDBRANCH   2  10
BRANCH   4  12
ATOM     12  O   UNL     1      41.676 -12.140  12.946  1.00  0.00    -0.497 OA
ATOM     13  C   UNL     1      41.299 -12.279  11.580  1.00  0.00     0.278 C 
ENDBRANCH   4  12
TORSDOF 3
ENDMDL
MODEL 4
REMARK VINA RESULT:    -5.417     20.649     21.498
REMARK INTER + INTRA:          -6.515
REMARK INTER:                  -6.195
REMARK INTRA:                  -0.321
REMARK UNBOUND:                -0.307
REMARK SMILES COc1ccc(C(C)=O)c(O)c1
REMARK SMILES IDX 6 1 10 2 12 3 3 4 4 5 5 6 7 7 8 8 9 9 11 10 2 12 1 13
REMARK H PARENT 11 11
REMARK Flexibility Score: inf
ROOT
ATOM      1  C   UNL     1      57.795 -24.026  13.264  1.00  0.00     0.059 A 
ATOM      2  C   UNL     1      58.685 -22.948  13.053  1.00  0.00     0.130 A 
ATOM      3  C   UNL     1      59.299 -22.782  11.802  1.00  0.00     0.093 A 
ATOM      4  C   UNL     1      59.057 -23.679  10.758  1.00  0.00     0.122 A 
ATOM      5  C   UNL     1      58.186 -24.760  10.972  1.00  0.00     0.047 A 
ATOM      6  C   UNL     1      57.567 -24.931  12.211  1.00  0.00     0.019 A 
ENDROOT
BRANCH   1   7
ATOM      7  C   UNL     1      57.099 -24.246  14.561  1.00  0.00     0.163 C 
ATOM      8  C   UNL     1      56.787 -25.615  15.084  1.00  0.00     0.093 C 
ATOM      9  O   UNL     1      56.755 -23.251  15.254  1.00  0.00    -0.294 OA
ENDBRANCH   1   7
BRANCH   2  10
ATOM     10  O   UNL     1      58.984 -22.054  14.080  1.00  0.00    -0.507 OA
ATOM     11  H   UNL     1      59.824 -22.144  14.640  1.00  0.00     0.293 HD
ENDBRANCH   2  10
BRANCH   4  12
ATOM     12  O   UNL     1      59.700 -23.462   9.530  1.00  0.00    -0.497 OA
ATOM     13  C   UNL     1      59.641 -22.243   8.796  1.00  0.00     0.278 C 
ENDBRANCH   4  12
TORSDOF 3
ENDMDL
MODEL 5
REMARK VINA RESULT:    -5.307      2.727      3.383
REMARK INTER + INTRA:          -6.390
REMARK INTER:                  -6.127
REMARK INTRA:                  -0.263
REMARK UNBOUND:                -0.307
REMARK SMILES COc1ccc(C(C)=O)c(O)c1
REMARK SMILES IDX 6 1 10 2 12 3 3 4 4 5 5 6 7 7 8 8 9 9 11 10 2 12 1 13
REMARK H PARENT 11 11
REMARK Flexibility Score: inf
ROOT
ATOM      1  C   UNL     1      43.410  -7.836  14.968  1.00  0.00     0.059 A 
ATOM      2  C   UNL     1      43.981  -7.746  13.677  1.00  0.00     0.130 A 
ATOM      3  C   UNL     1      44.759  -8.803  13.181  1.00  0.00     0.093 A 
ATOM      4  C   UNL     1      44.996  -9.945  13.951  1.00  0.00     0.122 A 
ATOM      5  C   UNL     1      44.445 -10.027  15.240  1.00  0.00     0.047 A 
ATOM      6  C   UNL     1      43.665  -8.983  15.741  1.00  0.00     0.019 A 
ENDROOT
BRANCH   1   7
ATOM      7  C   UNL     1      42.561  -6.758  15.544  1.00  0.00     0.163 C 
ATOM      8  C   UNL     1      43.028  -5.877  16.662  1.00  0.00     0.093 C 
ATOM      9  O   UNL     1      41.403  -6.571  15.081  1.00  0.00    -0.294 OA
ENDBRANCH   1   7
BRANCH   2  10
ATOM     10  O   UNL     1      43.800  -6.608  12.892  1.00  0.00    -0.507 OA
ATOM     11  H   UNL     1      42.926  -6.095  12.888  1.00  0.00     0.293 HD
ENDBRANCH   2  10
BRANCH   4  12
ATOM     12  O   UNL     1      45.784 -10.968  13.402  1.00  0.00    -0.497 OA
ATOM     13  C   UNL     1      47.185 -11.105  13.613  1.00  0.00     0.278 C 
ENDBRANCH   4  12
TORSDOF 3
ENDMDL
MODEL 6
REMARK VINA RESULT:    -5.264      2.302      3.299
REMARK INTER + INTRA:          -6.340
REMARK INTER:                  -6.010
REMARK INTRA:                  -0.330
REMARK UNBOUND:                -0.307
REMARK SMILES COc1ccc(C(C)=O)c(O)c1
REMARK SMILES IDX 6 1 10 2 12 3 3 4 4 5 5 6 7 7 8 8 9 9 11 10 2 12 1 13
REMARK H PARENT 11 11
REMARK Flexibility Score: inf
ROOT
ATOM      1  C   UNL     1      42.153  -9.912  14.095  1.00  0.00     0.059 A 
ATOM      2  C   UNL     1      41.961 -10.612  12.881  1.00  0.00     0.130 A 
ATOM      3  C   UNL     1      41.547  -9.920  11.733  1.00  0.00     0.093 A 
ATOM      4  C   UNL     1      41.302  -8.544  11.771  1.00  0.00     0.122 A 
ATOM      5  C   UNL     1      41.474  -7.852  12.981  1.00  0.00     0.047 A 
ATOM      6  C   UNL     1      41.892  -8.530  14.128  1.00  0.00     0.019 A 
ENDROOT
BRANCH   1   7
ATOM      7  C   UNL     1      42.608 -10.584  15.342  1.00  0.00     0.163 C 
ATOM      8  C   UNL     1      43.569  -9.943  16.297  1.00  0.00     0.093 C 
ATOM      9  O   UNL     1      42.177 -11.737  15.616  1.00  0.00    -0.294 OA
ENDBRANCH   1   7
BRANCH   2  10
ATOM     10  O   UNL     1      42.157 -11.990  12.810  1.00  0.00    -0.507 OA
ATOM     11  H   UNL     1      41.416 -12.622  12.528  1.00  0.00     0.293 HD
ENDBRANCH   2  10
BRANCH   4  12
ATOM     12  O   UNL     1      40.888  -7.907  10.591  1.00  0.00    -0.497 OA
ATOM     13  C   UNL     1      40.795  -6.496  10.430  1.00  0.00     0.278 C 
ENDBRANCH   4  12
TORSDOF 3
ENDMDL
MODEL 7
REMARK VINA RESULT:    -5.108      2.319      2.948
REMARK INTER + INTRA:          -6.161
REMARK INTER:                  -6.144
REMARK INTRA:                  -0.017
REMARK UNBOUND:                -0.307
REMARK SMILES COc1ccc(C(C)=O)c(O)c1
REMARK SMILES IDX 6 1 10 2 12 3 3 4 4 5 5 6 7 7 8 8 9 9 11 10 2 12 1 13
REMARK H PARENT 11 11
REMARK Flexibility Score: inf
ROOT
ATOM      1  C   UNL     1      43.424  -7.901  14.919  1.00  0.00     0.059 A 
ATOM      2  C   UNL     1      43.992  -8.963  15.660  1.00  0.00     0.130 A 
ATOM      3  C   UNL     1      44.716  -9.967  15.001  1.00  0.00     0.093 A 
ATOM      4  C   UNL     1      44.873  -9.947  13.612  1.00  0.00     0.122 A 
ATOM      5  C   UNL     1      44.294  -8.902  12.873  1.00  0.00     0.047 A 
ATOM      6  C   UNL     1      43.576  -7.895  13.521  1.00  0.00     0.019 A 
ENDROOT
BRANCH   1   7
ATOM      7  C   UNL     1      42.661  -6.796  15.561  1.00  0.00     0.163 C 
ATOM      8  C   UNL     1      43.266  -5.896  16.595  1.00  0.00     0.093 C 
ATOM      9  O   UNL     1      41.461  -6.601  15.230  1.00  0.00    -0.294 OA
ENDBRANCH   1   7
BRANCH   2  10
ATOM     10  O   UNL     1      43.826  -9.041  17.042  1.00  0.00    -0.507 OA
ATOM     11  H   UNL     1      44.365  -8.464  17.679  1.00  0.00     0.293 HD
ENDBRANCH   2  10
BRANCH   4  12
ATOM     12  O   UNL     1      45.607 -10.980  13.008  1.00  0.00    -0.497 OA
ATOM     13  C   UNL     1      46.999 -11.200  13.208  1.00  0.00     0.278 C 
ENDBRANCH   4  12
TORSDOF 3
ENDMDL
MODEL 8
REMARK VINA RESULT:    -4.930      2.130      5.102
REMARK INTER + INTRA:          -5.957
REMARK INTER:                  -5.619
REMARK INTRA:                  -0.338
REMARK UNBOUND:                -0.307
REMARK SMILES COc1ccc(C(C)=O)c(O)c1
REMARK SMILES IDX 6 1 10 2 12 3 3 4 4 5 5 6 7 7 8 8 9 9 11 10 2 12 1 13
REMARK H PARENT 11 11
REMARK Flexibility Score: inf
ROOT
ATOM      1  C   UNL     1      41.741 -10.108  12.921  1.00  0.00     0.059 A 
ATOM      2  C   UNL     1      41.531  -8.840  12.331  1.00  0.00     0.130 A 
ATOM      3  C   UNL     1      41.542  -7.686  13.129  1.00  0.00     0.093 A 
ATOM      4  C   UNL     1      41.741  -7.769  14.510  1.00  0.00     0.122 A 
ATOM      5  C   UNL     1      41.932  -9.029  15.099  1.00  0.00     0.047 A 
ATOM      6  C   UNL     1      41.928 -10.183  14.313  1.00  0.00     0.019 A 
ENDROOT
BRANCH   1   7
ATOM      7  C   UNL     1      41.759 -11.366  12.127  1.00  0.00     0.163 C 
ATOM      8  C   UNL     1      41.006 -12.592  12.546  1.00  0.00     0.093 C 
ATOM      9  O   UNL     1      42.429 -11.414  11.060  1.00  0.00    -0.294 OA
ENDBRANCH   1   7
BRANCH   2  10
ATOM     10  O   UNL     1      41.289  -8.718  10.963  1.00  0.00    -0.507 OA
ATOM     11  H   UNL     1      40.584  -9.274  10.493  1.00  0.00     0.293 HD
ENDBRANCH   2  10
BRANCH   4  12
ATOM     12  O   UNL     1      41.740  -6.580  15.256  1.00  0.00    -0.497 OA
ATOM     13  C   UNL     1      42.743  -6.225  16.203  1.00  0.00     0.278 C 
ENDBRANCH   4  12
TORSDOF 3
ENDMDL
