MODEL 1
REMARK VINA RESULT:    -7.344      0.000      0.000
REMARK INTER + INTRA:          -8.904
REMARK INTER:                  -8.632
REMARK INTRA:                  -0.272
REMARK UNBOUND:                -0.272
REMARK SMILES O=c1cc(-c2ccc(O)c(O)c2)oc2cc(O)cc(O)c12
REMARK SMILES IDX 4 1 3 2 2 3 1 4 21 5 19 6 18 7 16 8 15 9 14 10 13 11 5 12
REMARK SMILES IDX 6 13 7 14 8 15 12 16 10 17 9 18 11 20 20 22 17 24
REMARK H PARENT 9 19 11 21 20 23 17 25
REMARK Flexibility Score: inf
ROOT
ATOM      1  C   UNL     1     -21.390  34.472 -38.812  1.00  0.00     0.138 A 
ATOM      2  C   UNL     1     -20.985  33.653 -39.876  1.00  0.00     0.100 A 
ATOM      3  C   UNL     1     -21.230  32.280 -39.821  1.00  0.00     0.197 A 
ATOM      4  O   UNL     1     -20.800  31.563 -40.762  1.00  0.00    -0.289 OA
ATOM      5  C   UNL     1     -21.911  31.730 -38.710  1.00  0.00     0.107 A 
ATOM      6  C   UNL     1     -22.251  30.352 -38.565  1.00  0.00     0.134 A 
ATOM      7  C   UNL     1     -22.824  29.904 -37.368  1.00  0.00     0.093 A 
ATOM      8  C   UNL     1     -23.122  30.795 -36.335  1.00  0.00     0.123 A 
ATOM      9  C   UNL     1     -22.844  32.151 -36.487  1.00  0.00     0.094 A 
ATOM     10  C   UNL     1     -22.242  32.623 -37.655  1.00  0.00     0.146 A 
ATOM     11  O   UNL     1     -21.980  33.923 -37.755  1.00  0.00    -0.456 OA
ENDROOT
BRANCH   1  12
ATOM     12  C   UNL     1     -21.156  35.938 -38.819  1.00  0.00     0.021 A 
ATOM     13  C   UNL     1     -20.519  36.590 -37.746  1.00  0.00     0.016 A 
ATOM     14  C   UNL     1     -20.303  37.971 -37.783  1.00  0.00     0.051 A 
ATOM     15  C   UNL     1     -20.711  38.721 -38.894  1.00  0.00     0.157 A 
ATOM     16  C   UNL     1     -21.551  36.697 -39.935  1.00  0.00     0.062 A 
ATOM     17  C   UNL     1     -21.337  38.079 -39.975  1.00  0.00     0.158 A 
BRANCH  15  18
ATOM     18  O   UNL     1     -20.495  40.098 -38.927  1.00  0.00    -0.504 OA
ATOM     19  H   UNL     1     -21.165  40.750 -38.535  1.00  0.00     0.293 HD
ENDBRANCH  15  18
BRANCH  17  20
ATOM     20  O   UNL     1     -21.751  38.797 -41.097  1.00  0.00    -0.504 OA
ATOM     21  H   UNL     1     -21.254  38.752 -41.978  1.00  0.00     0.293 HD
ENDBRANCH  17  20
ENDBRANCH   1  12
BRANCH   6  22
ATOM     22  O   UNL     1     -22.073  29.394 -39.568  1.00  0.00    -0.507 OA
ATOM     23  H   UNL     1     -22.754  28.696 -39.826  1.00  0.00     0.293 HD
ENDBRANCH   6  22
BRANCH   8  24
ATOM     24  O   UNL     1     -23.705  30.342 -35.153  1.00  0.00    -0.508 OA
ATOM     25  H   UNL     1     -24.146  29.431 -35.093  1.00  0.00     0.293 HD
ENDBRANCH   8  24
TORSDOF 5
ENDMDL
MODEL 2
REMARK VINA RESULT:    -7.170      1.491      7.273
REMARK INTER + INTRA:          -8.699
REMARK INTER:                  -8.430
REMARK INTRA:                  -0.269
REMARK UNBOUND:                -0.272
REMARK SMILES O=c1cc(-c2ccc(O)c(O)c2)oc2cc(O)cc(O)c12
REMARK SMILES IDX 4 1 3 2 2 3 1 4 21 5 19 6 18 7 16 8 15 9 14 10 13 11 5 12
REMARK SMILES IDX 6 13 7 14 8 15 12 16 10 17 9 18 11 20 20 22 17 24
REMARK H PARENT 9 19 11 21 20 23 17 25
REMARK Flexibility Score: inf
ROOT
ATOM      1  C   UNL     1     -21.184  36.003 -38.781  1.00  0.00     0.138 A 
ATOM      2  C   UNL     1     -21.570  36.755 -39.899  1.00  0.00     0.100 A 
ATOM      3  C   UNL     1     -21.295  38.123 -39.938  1.00  0.00     0.197 A 
ATOM      4  O   UNL     1     -21.709  38.784 -40.927  1.00  0.00    -0.289 OA
ATOM      5  C   UNL     1     -20.604  38.733 -38.865  1.00  0.00     0.107 A 
ATOM      6  C   UNL     1     -20.234  40.111 -38.815  1.00  0.00     0.134 A 
ATOM      7  C   UNL     1     -19.653  40.628 -37.650  1.00  0.00     0.093 A 
ATOM      8  C   UNL     1     -19.374  39.804 -36.557  1.00  0.00     0.123 A 
ATOM      9  C   UNL     1     -19.682  38.446 -36.617  1.00  0.00     0.094 A 
ATOM     10  C   UNL     1     -20.293  37.908 -37.752  1.00  0.00     0.146 A 
ATOM     11  O   UNL     1     -20.583  36.610 -37.762  1.00  0.00    -0.456 OA
ENDROOT
BRANCH   1  12
ATOM     12  C   UNL     1     -21.449  34.545 -38.687  1.00  0.00     0.021 A 
ATOM     13  C   UNL     1     -22.159  33.991 -37.605  1.00  0.00     0.016 A 
ATOM     14  C   UNL     1     -22.403  32.616 -37.548  1.00  0.00     0.051 A 
ATOM     15  C   UNL     1     -21.951  31.773 -38.572  1.00  0.00     0.157 A 
ATOM     16  C   UNL     1     -21.010  33.694 -39.718  1.00  0.00     0.062 A 
ATOM     17  C   UNL     1     -21.253  32.318 -39.663  1.00  0.00     0.158 A 
BRANCH  15  18
ATOM     18  O   UNL     1     -22.195  30.402 -38.512  1.00  0.00    -0.504 OA
ATOM     19  H   UNL     1     -23.119  30.020 -38.680  1.00  0.00     0.293 HD
ENDBRANCH  15  18
BRANCH  17  20
ATOM     20  O   UNL     1     -20.793  31.506 -40.701  1.00  0.00    -0.504 OA
ATOM     21  H   UNL     1     -20.754  30.498 -40.618  1.00  0.00     0.293 HD
ENDBRANCH  17  20
ENDBRANCH   1  12
BRANCH   6  22
ATOM     22  O   UNL     1     -20.390  41.001 -39.882  1.00  0.00    -0.507 OA
ATOM     23  H   UNL     1     -19.636  41.489 -40.340  1.00  0.00     0.293 HD
ENDBRANCH   6  22
BRANCH   8  24
ATOM     24  O   UNL     1     -18.783  40.323 -35.408  1.00  0.00    -0.508 OA
ATOM     25  H   UNL     1     -18.174  41.133 -35.444  1.00  0.00     0.293 HD
ENDBRANCH   8  24
TORSDOF 5
ENDMDL
MODEL 3
REMARK VINA RESULT:    -7.074      0.997      2.624
REMARK INTER + INTRA:          -8.587
REMARK INTER:                  -8.297
REMARK INTRA:                  -0.290
REMARK UNBOUND:                -0.272
REMARK SMILES O=c1cc(-c2ccc(O)c(O)c2)oc2cc(O)cc(O)c12
REMARK SMILES IDX 4 1 3 2 2 3 1 4 21 5 19 6 18 7 16 8 15 9 14 10 13 11 5 12
REMARK SMILES IDX 6 13 7 14 8 15 12 16 10 17 9 18 11 20 20 22 17 24
REMARK H PARENT 9 19 11 21 20 23 17 25
REMARK Flexibility Score: inf
ROOT
ATOM      1  C   UNL     1     -21.795  34.701 -38.046  1.00  0.00     0.138 A 
ATOM      2  C   UNL     1     -22.372  34.355 -36.815  1.00  0.00     0.100 A 
ATOM      3  C   UNL     1     -22.702  33.023 -36.559  1.00  0.00     0.197 A 
ATOM      4  O   UNL     1     -23.276  32.752 -35.472  1.00  0.00    -0.289 OA
ATOM      5  C   UNL     1     -22.424  32.030 -37.528  1.00  0.00     0.107 A 
ATOM      6  C   UNL     1     -22.679  30.636 -37.359  1.00  0.00     0.134 A 
ATOM      7  C   UNL     1     -22.469  29.761 -38.433  1.00  0.00     0.093 A 
ATOM      8  C   UNL     1     -21.956  30.221 -39.647  1.00  0.00     0.123 A 
ATOM      9  C   UNL     1     -21.652  31.572 -39.804  1.00  0.00     0.094 A 
ATOM     10  C   UNL     1     -21.884  32.475 -38.764  1.00  0.00     0.146 A 
ATOM     11  O   UNL     1     -21.594  33.757 -38.960  1.00  0.00    -0.456 OA
ENDROOT
BRANCH   1  12
ATOM     12  C   UNL     1     -21.424  36.101 -38.370  1.00  0.00     0.021 A 
ATOM     13  C   UNL     1     -20.656  36.886 -37.488  1.00  0.00     0.016 A 
ATOM     14  C   UNL     1     -20.312  38.198 -37.824  1.00  0.00     0.051 A 
ATOM     15  C   UNL     1     -20.720  38.747 -39.047  1.00  0.00     0.157 A 
ATOM     16  C   UNL     1     -21.818  36.655 -39.602  1.00  0.00     0.062 A 
ATOM     17  C   UNL     1     -21.476  37.968 -39.940  1.00  0.00     0.158 A 
BRANCH  15  18
ATOM     18  O   UNL     1     -20.376  40.056 -39.378  1.00  0.00    -0.504 OA
ATOM     19  H   UNL     1     -20.039  40.298 -40.303  1.00  0.00     0.293 HD
ENDBRANCH  15  18
BRANCH  17  20
ATOM     20  O   UNL     1     -21.894  38.484 -41.167  1.00  0.00    -0.504 OA
ATOM     21  H   UNL     1     -22.872  38.543 -41.420  1.00  0.00     0.293 HD
ENDBRANCH  17  20
ENDBRANCH   1  12
BRANCH   6  22
ATOM     22  O   UNL     1     -23.112  30.060 -36.161  1.00  0.00    -0.507 OA
ATOM     23  H   UNL     1     -23.078  29.075 -35.950  1.00  0.00     0.293 HD
ENDBRANCH   6  22
BRANCH   8  24
ATOM     24  O   UNL     1     -21.736  29.341 -40.705  1.00  0.00    -0.508 OA
ATOM     25  H   UNL     1     -20.845  28.874 -40.830  1.00  0.00     0.293 HD
ENDBRANCH   8  24
TORSDOF 5
ENDMDL
MODEL 4
REMARK VINA RESULT:    -7.001      0.697      1.528
REMARK INTER + INTRA:          -8.500
REMARK INTER:                  -8.212
REMARK INTRA:                  -0.288
REMARK UNBOUND:                -0.272
REMARK SMILES O=c1cc(-c2ccc(O)c(O)c2)oc2cc(O)cc(O)c12
REMARK SMILES IDX 4 1 3 2 2 3 1 4 21 5 19 6 18 7 16 8 15 9 14 10 13 11 5 12
REMARK SMILES IDX 6 13 7 14 8 15 12 16 10 17 9 18 11 20 20 22 17 24
REMARK H PARENT 9 19 11 21 20 23 17 25
REMARK Flexibility Score: inf
ROOT
ATOM      1  C   UNL     1     -21.335  34.648 -38.877  1.00  0.00     0.138 A 
ATOM      2  C   UNL     1     -20.904  33.831 -39.932  1.00  0.00     0.100 A 
ATOM      3  C   UNL     1     -21.155  32.459 -39.887  1.00  0.00     0.197 A 
ATOM      4  O   UNL     1     -20.700  31.742 -40.818  1.00  0.00    -0.289 OA
ATOM      5  C   UNL     1     -21.868  31.908 -38.797  1.00  0.00     0.107 A 
ATOM      6  C   UNL     1     -22.216  30.530 -38.666  1.00  0.00     0.134 A 
ATOM      7  C   UNL     1     -22.823  30.081 -37.486  1.00  0.00     0.093 A 
ATOM      8  C   UNL     1     -23.147  30.970 -36.459  1.00  0.00     0.123 A 
ATOM      9  C   UNL     1     -22.861  32.326 -36.600  1.00  0.00     0.094 A 
ATOM     10  C   UNL     1     -22.225  32.799 -37.750  1.00  0.00     0.146 A 
ATOM     11  O   UNL     1     -21.956  34.099 -37.839  1.00  0.00    -0.456 OA
ENDROOT
BRANCH   1  12
ATOM     12  C   UNL     1     -21.097  36.113 -38.874  1.00  0.00     0.021 A 
ATOM     13  C   UNL     1     -21.458  36.924 -39.967  1.00  0.00     0.016 A 
ATOM     14  C   UNL     1     -21.230  38.303 -39.932  1.00  0.00     0.051 A 
ATOM     15  C   UNL     1     -20.649  38.897 -38.805  1.00  0.00     0.157 A 
ATOM     16  C   UNL     1     -20.526  36.719 -37.740  1.00  0.00     0.062 A 
ATOM     17  C   UNL     1     -20.297  38.099 -37.703  1.00  0.00     0.158 A 
BRANCH  15  18
ATOM     18  O   UNL     1     -20.423  40.272 -38.774  1.00  0.00    -0.504 OA
ATOM     19  H   UNL     1     -21.182  40.932 -38.653  1.00  0.00     0.293 HD
ENDBRANCH  15  18
BRANCH  17  20
ATOM     20  O   UNL     1     -19.720  38.660 -36.564  1.00  0.00    -0.504 OA
ATOM     21  H   UNL     1     -19.364  38.092 -35.805  1.00  0.00     0.293 HD
ENDBRANCH  17  20
ENDBRANCH   1  12
BRANCH   6  22
ATOM     22  O   UNL     1     -22.013  29.575 -39.666  1.00  0.00    -0.507 OA
ATOM     23  H   UNL     1     -22.385  29.632 -40.602  1.00  0.00     0.293 HD
ENDBRANCH   6  22
BRANCH   8  24
ATOM     24  O   UNL     1     -23.764  30.517 -35.295  1.00  0.00    -0.508 OA
ATOM     25  H   UNL     1     -23.372  30.705 -34.379  1.00  0.00     0.293 HD
ENDBRANCH   8  24
TORSDOF 5
ENDMDL
MODEL 5
REMARK VINA RESULT:    -6.920      3.613      7.934
REMARK INTER + INTRA:          -8.405
REMARK INTER:                  -8.116
REMARK INTRA:                  -0.289
REMARK UNBOUND:                -0.272
REMARK SMILES O=c1cc(-c2ccc(O)c(O)c2)oc2cc(O)cc(O)c12
REMARK SMILES IDX 4 1 3 2 2 3 1 4 21 5 19 6 18 7 16 8 15 9 14 10 13 11 5 12
REMARK SMILES IDX 6 13 7 14 8 15 12 16 10 17 9 18 11 20 20 22 17 24
REMARK H PARENT 9 19 11 21 20 23 17 25
REMARK Flexibility Score: inf
ROOT
ATOM      1  C   UNL     1     -22.041  30.063 -36.267  1.00  0.00     0.138 A 
ATOM      2  C   UNL     1     -21.479  31.344 -36.175  1.00  0.00     0.100 A 
ATOM      3  C   UNL     1     -21.304  32.105 -37.332  1.00  0.00     0.197 A 
ATOM      4  O   UNL     1     -20.740  33.225 -37.226  1.00  0.00    -0.289 OA
ATOM      5  C   UNL     1     -21.722  31.592 -38.582  1.00  0.00     0.107 A 
ATOM      6  C   UNL     1     -21.631  32.294 -39.821  1.00  0.00     0.134 A 
ATOM      7  C   UNL     1     -21.971  31.640 -41.013  1.00  0.00     0.093 A 
ATOM      8  C   UNL     1     -22.455  30.330 -41.002  1.00  0.00     0.123 A 
ATOM      9  C   UNL     1     -22.599  29.654 -39.793  1.00  0.00     0.094 A 
ATOM     10  C   UNL     1     -22.236  30.267 -38.591  1.00  0.00     0.146 A 
ATOM     11  O   UNL     1     -22.376  29.582 -37.461  1.00  0.00    -0.456 OA
ENDROOT
BRANCH   1  12
ATOM     12  C   UNL     1     -22.251  29.211 -35.070  1.00  0.00     0.021 A 
ATOM     13  C   UNL     1     -21.237  29.020 -34.111  1.00  0.00     0.016 A 
ATOM     14  C   UNL     1     -21.466  28.220 -32.988  1.00  0.00     0.051 A 
ATOM     15  C   UNL     1     -22.711  27.607 -32.797  1.00  0.00     0.157 A 
ATOM     16  C   UNL     1     -23.502  28.603 -34.863  1.00  0.00     0.062 A 
ATOM     17  C   UNL     1     -23.734  27.802 -33.740  1.00  0.00     0.158 A 
BRANCH  15  18
ATOM     18  O   UNL     1     -22.936  26.810 -31.675  1.00  0.00    -0.504 OA
ATOM     19  H   UNL     1     -23.008  25.802 -31.747  1.00  0.00     0.293 HD
ENDBRANCH  15  18
BRANCH  17  20
ATOM     20  O   UNL     1     -24.986  27.209 -33.577  1.00  0.00    -0.504 OA
ATOM     21  H   UNL     1     -25.112  26.356 -33.045  1.00  0.00     0.293 HD
ENDBRANCH  17  20
ENDBRANCH   1  12
BRANCH   6  22
ATOM     22  O   UNL     1     -21.241  33.632 -39.934  1.00  0.00    -0.507 OA
ATOM     23  H   UNL     1     -20.292  33.964 -39.858  1.00  0.00     0.293 HD
ENDBRANCH   6  22
BRANCH   8  24
ATOM     24  O   UNL     1     -22.804  29.692 -42.191  1.00  0.00    -0.508 OA
ATOM     25  H   UNL     1     -22.248  28.933 -42.568  1.00  0.00     0.293 HD
ENDBRANCH   8  24
TORSDOF 5
ENDMDL
MODEL 6
REMARK VINA RESULT:    -6.908      3.888      7.354
REMARK INTER + INTRA:          -8.391
REMARK INTER:                  -8.099
REMARK INTRA:                  -0.293
REMARK UNBOUND:                -0.272
REMARK SMILES O=c1cc(-c2ccc(O)c(O)c2)oc2cc(O)cc(O)c12
REMARK SMILES IDX 4 1 3 2 2 3 1 4 21 5 19 6 18 7 16 8 15 9 14 10 13 11 5 12
REMARK SMILES IDX 6 13 7 14 8 15 12 16 10 17 9 18 11 20 20 22 17 24
REMARK H PARENT 9 19 11 21 20 23 17 25
REMARK Flexibility Score: inf
ROOT
ATOM      1  C   UNL     1     -20.024  40.152 -36.455  1.00  0.00     0.138 A 
ATOM      2  C   UNL     1     -19.768  40.874 -37.630  1.00  0.00     0.100 A 
ATOM      3  C   UNL     1     -20.091  40.314 -38.867  1.00  0.00     0.197 A 
ATOM      4  O   UNL     1     -19.792  40.959 -39.907  1.00  0.00    -0.289 OA
ATOM      5  C   UNL     1     -20.701  39.039 -38.925  1.00  0.00     0.107 A 
ATOM      6  C   UNL     1     -21.110  38.388 -40.127  1.00  0.00     0.134 A 
ATOM      7  C   UNL     1     -21.598  37.076 -40.070  1.00  0.00     0.093 A 
ATOM      8  C   UNL     1     -21.747  36.415 -38.849  1.00  0.00     0.123 A 
ATOM      9  C   UNL     1     -21.401  37.062 -37.664  1.00  0.00     0.094 A 
ATOM     10  C   UNL     1     -20.879  38.358 -37.692  1.00  0.00     0.146 A 
ATOM     11  O   UNL     1     -20.548  38.934 -36.540  1.00  0.00    -0.456 OA
ENDROOT
BRANCH   1  12
ATOM     12  C   UNL     1     -19.702  40.700 -35.114  1.00  0.00     0.021 A 
ATOM     13  C   UNL     1     -20.189  40.104 -33.935  1.00  0.00     0.016 A 
ATOM     14  C   UNL     1     -19.863  40.636 -32.685  1.00  0.00     0.051 A 
ATOM     15  C   UNL     1     -19.038  41.764 -32.588  1.00  0.00     0.157 A 
ATOM     16  C   UNL     1     -18.864  41.825 -35.008  1.00  0.00     0.062 A 
ATOM     17  C   UNL     1     -18.536  42.360 -33.757  1.00  0.00     0.158 A 
BRANCH  15  18
ATOM     18  O   UNL     1     -18.715  42.292 -31.339  1.00  0.00    -0.504 OA
ATOM     19  H   UNL     1     -19.374  42.278 -30.570  1.00  0.00     0.293 HD
ENDBRANCH  15  18
BRANCH  17  20
ATOM     20  O   UNL     1     -17.710  43.482 -33.695  1.00  0.00    -0.504 OA
ATOM     21  H   UNL     1     -17.106  43.749 -34.463  1.00  0.00     0.293 HD
ENDBRANCH  17  20
ENDBRANCH   1  12
BRANCH   6  22
ATOM     22  O   UNL     1     -21.083  38.988 -41.390  1.00  0.00    -0.507 OA
ATOM     23  H   UNL     1     -20.437  39.709 -41.671  1.00  0.00     0.293 HD
ENDBRANCH   6  22
BRANCH   8  24
ATOM     24  O   UNL     1     -22.247  35.116 -38.799  1.00  0.00    -0.508 OA
ATOM     25  H   UNL     1     -21.645  34.311 -38.934  1.00  0.00     0.293 HD
ENDBRANCH   8  24
TORSDOF 5
ENDMDL
MODEL 7
REMARK VINA RESULT:    -6.899      1.788      7.574
REMARK INTER + INTRA:          -8.381
REMARK INTER:                  -8.088
REMARK INTRA:                  -0.293
REMARK UNBOUND:                -0.272
REMARK SMILES O=c1cc(-c2ccc(O)c(O)c2)oc2cc(O)cc(O)c12
REMARK SMILES IDX 4 1 3 2 2 3 1 4 21 5 19 6 18 7 16 8 15 9 14 10 13 11 5 12
REMARK SMILES IDX 6 13 7 14 8 15 12 16 10 17 9 18 11 20 20 22 17 24
REMARK H PARENT 9 19 11 21 20 23 17 25
REMARK Flexibility Score: inf
ROOT
ATOM      1  C   UNL     1     -20.883  35.849 -38.155  1.00  0.00     0.138 A 
ATOM      2  C   UNL     1     -20.476  36.288 -36.886  1.00  0.00     0.100 A 
ATOM      3  C   UNL     1     -20.184  37.638 -36.685  1.00  0.00     0.197 A 
ATOM      4  O   UNL     1     -19.761  37.991 -35.553  1.00  0.00    -0.289 OA
ATOM      5  C   UNL     1     -20.331  38.556 -37.751  1.00  0.00     0.107 A 
ATOM      6  C   UNL     1     -20.102  39.961 -37.651  1.00  0.00     0.134 A 
ATOM      7  C   UNL     1     -20.167  40.756 -38.803  1.00  0.00     0.093 A 
ATOM      8  C   UNL     1     -20.513  40.205 -40.039  1.00  0.00     0.123 A 
ATOM      9  C   UNL     1     -20.792  38.843 -40.137  1.00  0.00     0.094 A 
ATOM     10  C   UNL     1     -20.701  38.019 -39.013  1.00  0.00     0.146 A 
ATOM     11  O   UNL     1     -20.961  36.723 -39.153  1.00  0.00    -0.456 OA
ENDROOT
BRANCH   1  12
ATOM     12  C   UNL     1     -21.207  34.425 -38.424  1.00  0.00     0.021 A 
ATOM     13  C   UNL     1     -22.031  33.678 -37.561  1.00  0.00     0.016 A 
ATOM     14  C   UNL     1     -22.327  32.342 -37.845  1.00  0.00     0.051 A 
ATOM     15  C   UNL     1     -21.815  31.732 -38.997  1.00  0.00     0.157 A 
ATOM     16  C   UNL     1     -20.707  33.809 -39.586  1.00  0.00     0.062 A 
ATOM     17  C   UNL     1     -21.002  32.472 -39.872  1.00  0.00     0.158 A 
BRANCH  15  18
ATOM     18  O   UNL     1     -22.111  30.399 -39.277  1.00  0.00    -0.504 OA
ATOM     19  H   UNL     1     -22.511  30.120 -40.165  1.00  0.00     0.293 HD
ENDBRANCH  15  18
BRANCH  17  20
ATOM     20  O   UNL     1     -20.479  31.895 -41.030  1.00  0.00    -0.504 OA
ATOM     21  H   UNL     1     -21.039  31.314 -41.641  1.00  0.00     0.293 HD
ENDBRANCH  17  20
ENDBRANCH   1  12
BRANCH   6  22
ATOM     22  O   UNL     1     -19.834  40.625 -36.450  1.00  0.00    -0.507 OA
ATOM     23  H   UNL     1     -20.515  40.810 -35.729  1.00  0.00     0.293 HD
ENDBRANCH   6  22
BRANCH   8  24
ATOM     24  O   UNL     1     -20.590  41.005 -41.177  1.00  0.00    -0.508 OA
ATOM     25  H   UNL     1     -21.299  40.852 -41.885  1.00  0.00     0.293 HD
ENDBRANCH   8  24
TORSDOF 5
ENDMDL
MODEL 8
REMARK VINA RESULT:    -6.872      5.246      8.260
REMARK INTER + INTRA:          -8.349
REMARK INTER:                  -8.032
REMARK INTRA:                  -0.317
REMARK UNBOUND:                -0.272
REMARK SMILES O=c1cc(-c2ccc(O)c(O)c2)oc2cc(O)cc(O)c12
REMARK SMILES IDX 4 1 3 2 2 3 1 4 21 5 19 6 18 7 16 8 15 9 14 10 13 11 5 12
REMARK SMILES IDX 6 13 7 14 8 15 12 16 10 17 9 18 11 20 20 22 17 24
REMARK H PARENT 9 19 11 21 20 23 17 25
REMARK Flexibility Score: inf
ROOT
ATOM      1  C   UNL     1     -20.104  40.074 -35.905  1.00  0.00     0.138 A 
ATOM      2  C   UNL     1     -20.780  38.846 -35.922  1.00  0.00     0.100 A 
ATOM      3  C   UNL     1     -21.132  38.270 -37.144  1.00  0.00     0.197 A 
ATOM      4  O   UNL     1     -21.794  37.199 -37.126  1.00  0.00    -0.289 OA
ATOM      5  C   UNL     1     -20.778  38.913 -38.353  1.00  0.00     0.107 A 
ATOM      6  C   UNL     1     -21.050  38.399 -39.656  1.00  0.00     0.134 A 
ATOM      7  C   UNL     1     -20.754  39.179 -40.782  1.00  0.00     0.093 A 
ATOM      8  C   UNL     1     -20.143  40.428 -40.652  1.00  0.00     0.123 A 
ATOM      9  C   UNL     1     -19.825  40.916 -39.386  1.00  0.00     0.094 A 
ATOM     10  C   UNL     1     -20.138  40.176 -38.243  1.00  0.00     0.146 A 
ATOM     11  O   UNL     1     -19.830  40.684 -37.054  1.00  0.00    -0.456 OA
ENDROOT
BRANCH   1  12
ATOM     12  C   UNL     1     -19.704  40.731 -34.635  1.00  0.00     0.021 A 
ATOM     13  C   UNL     1     -20.119  40.235 -33.384  1.00  0.00     0.016 A 
ATOM     14  C   UNL     1     -19.719  40.868 -32.203  1.00  0.00     0.051 A 
ATOM     15  C   UNL     1     -18.893  41.998 -32.250  1.00  0.00     0.157 A 
ATOM     16  C   UNL     1     -18.864  41.858 -34.672  1.00  0.00     0.062 A 
ATOM     17  C   UNL     1     -18.462  42.493 -33.492  1.00  0.00     0.158 A 
BRANCH  15  18
ATOM     18  O   UNL     1     -18.496  42.627 -31.071  1.00  0.00    -0.504 OA
ATOM     19  H   UNL     1     -18.960  43.462 -30.733  1.00  0.00     0.293 HD
ENDBRANCH  15  18
BRANCH  17  20
ATOM     20  O   UNL     1     -17.636  43.614 -33.573  1.00  0.00    -0.504 OA
ATOM     21  H   UNL     1     -16.735  43.587 -34.034  1.00  0.00     0.293 HD
ENDBRANCH  17  20
ENDBRANCH   1  12
BRANCH   6  22
ATOM     22  O   UNL     1     -21.580  37.128 -39.901  1.00  0.00    -0.507 OA
ATOM     23  H   UNL     1     -22.234  36.908 -40.635  1.00  0.00     0.293 HD
ENDBRANCH   6  22
BRANCH   8  24
ATOM     24  O   UNL     1     -19.840  41.191 -41.777  1.00  0.00    -0.508 OA
ATOM     25  H   UNL     1     -18.976  41.057 -42.292  1.00  0.00     0.293 HD
ENDBRANCH   8  24
TORSDOF 5
ENDMDL
MODEL 9
REMARK VINA RESULT:    -6.814      1.497      7.316
REMARK INTER + INTRA:          -8.280
REMARK INTER:                  -7.998
REMARK INTRA:                  -0.282
REMARK UNBOUND:                -0.272
REMARK SMILES O=c1cc(-c2ccc(O)c(O)c2)oc2cc(O)cc(O)c12
REMARK SMILES IDX 4 1 3 2 2 3 1 4 21 5 19 6 18 7 16 8 15 9 14 10 13 11 5 12
REMARK SMILES IDX 6 13 7 14 8 15 12 16 10 17 9 18 11 20 20 22 17 24
REMARK H PARENT 9 19 11 21 20 23 17 25
REMARK Flexibility Score: inf
ROOT
ATOM      1  C   UNL     1     -21.057  34.328 -38.592  1.00  0.00     0.138 A 
ATOM      2  C   UNL     1     -20.534  34.595 -37.318  1.00  0.00     0.100 A 
ATOM      3  C   UNL     1     -20.251  35.912 -36.952  1.00  0.00     0.197 A 
ATOM      4  O   UNL     1     -19.725  36.115 -35.826  1.00  0.00    -0.289 OA
ATOM      5  C   UNL     1     -20.521  36.968 -37.854  1.00  0.00     0.107 A 
ATOM      6  C   UNL     1     -20.311  38.351 -37.573  1.00  0.00     0.134 A 
ATOM      7  C   UNL     1     -20.506  39.299 -38.586  1.00  0.00     0.093 A 
ATOM      8  C   UNL     1     -20.962  38.918 -39.850  1.00  0.00     0.123 A 
ATOM      9  C   UNL     1     -21.222  37.576 -40.118  1.00  0.00     0.094 A 
ATOM     10  C   UNL     1     -21.004  36.604 -39.140  1.00  0.00     0.146 A 
ATOM     11  O   UNL     1     -21.251  35.333 -39.441  1.00  0.00    -0.456 OA
ENDROOT
BRANCH   1  12
ATOM     12  C   UNL     1     -21.378  32.948 -39.033  1.00  0.00     0.021 A 
ATOM     13  C   UNL     1     -21.163  32.526 -40.360  1.00  0.00     0.016 A 
ATOM     14  C   UNL     1     -21.466  31.217 -40.745  1.00  0.00     0.051 A 
ATOM     15  C   UNL     1     -21.977  30.305 -39.813  1.00  0.00     0.157 A 
ATOM     16  C   UNL     1     -21.880  32.022 -38.101  1.00  0.00     0.062 A 
ATOM     17  C   UNL     1     -22.183  30.711 -38.484  1.00  0.00     0.158 A 
BRANCH  15  18
ATOM     18  O   UNL     1     -22.279  29.000 -40.201  1.00  0.00    -0.504 OA
ATOM     19  H   UNL     1     -21.725  28.512 -40.896  1.00  0.00     0.293 HD
ENDBRANCH  15  18
BRANCH  17  20
ATOM     20  O   UNL     1     -22.688  29.826 -37.532  1.00  0.00    -0.504 OA
ATOM     21  H   UNL     1     -22.311  29.772 -36.594  1.00  0.00     0.293 HD
ENDBRANCH  17  20
ENDBRANCH   1  12
BRANCH   6  22
ATOM     22  O   UNL     1     -19.938  38.846 -36.320  1.00  0.00    -0.507 OA
ATOM     23  H   UNL     1     -20.399  38.622 -35.451  1.00  0.00     0.293 HD
ENDBRANCH   6  22
BRANCH   8  24
ATOM     24  O   UNL     1     -21.167  39.869 -40.848  1.00  0.00    -0.508 OA
ATOM     25  H   UNL     1     -21.081  40.862 -40.660  1.00  0.00     0.293 HD
ENDBRANCH   8  24
TORSDOF 5
ENDMDL
