MODEL 1
REMARK VINA RESULT:    -4.430      0.000      0.000
REMARK INTER + INTRA:          -5.450
REMARK INTER:                  -5.207
REMARK INTRA:                  -0.243
REMARK UNBOUND:                -0.243
REMARK SMILES COc1ccc(C=CC(=O)[O-])cc1
REMARK SMILES IDX 6 1 5 2 12 3 4 4 13 5 3 6 7 7 8 8 9 9 10 10 11 11 2 12 1 13
REMARK H PARENT
REMARK Flexibility Score: inf
ROOT
ATOM      1  C   UNL     1       9.099 -19.141   7.361  1.00  0.00    -0.025 A 
ATOM      2  C   UNL     1       9.277 -17.784   7.059  1.00  0.00     0.012 A 
ATOM      3  C   UNL     1      10.117 -19.833   8.039  1.00  0.00     0.012 A 
ATOM      4  C   UNL     1      10.431 -17.114   7.477  1.00  0.00     0.047 A 
ATOM      5  C   UNL     1      11.270 -19.162   8.457  1.00  0.00     0.047 A 
ATOM      6  C   UNL     1      11.433 -17.791   8.180  1.00  0.00     0.118 A 
ENDROOT
BRANCH   1   7
ATOM      7  C   UNL     1       7.897 -19.842   6.865  1.00  0.00     0.010 C 
ATOM      8  C   UNL     1       6.756 -20.013   7.552  1.00  0.00     0.025 C 
BRANCH   8   9
ATOM      9  C   UNL     1       6.428 -19.386   8.848  1.00  0.00     0.064 C 
ATOM     10  O   UNL     1       6.268 -20.073   9.890  1.00  0.00    -0.545 OA
ATOM     11  O   UNL     1       6.366 -18.002   8.933  1.00  0.00    -0.545 OA
ENDBRANCH   8   9
ENDBRANCH   1   7
BRANCH   6  12
ATOM     12  O   UNL     1      12.571 -17.073   8.578  1.00  0.00    -0.497 OA
ATOM     13  C   UNL     1      13.126 -15.979   7.855  1.00  0.00     0.278 C 
ENDBRANCH   6  12
TORSDOF 3
ENDMDL
MODEL 2
REMARK VINA RESULT:    -4.402      0.363      1.651
REMARK INTER + INTRA:          -5.417
REMARK INTER:                  -5.211
REMARK INTRA:                  -0.207
REMARK UNBOUND:                -0.243
REMARK SMILES COc1ccc(C=CC(=O)[O-])cc1
REMARK SMILES IDX 6 1 5 2 12 3 4 4 13 5 3 6 7 7 8 8 9 9 10 10 11 11 2 12 1 13
REMARK H PARENT
REMARK Flexibility Score: inf
ROOT
ATOM      1  C   UNL     1       9.346 -18.927   7.214  1.00  0.00    -0.025 A 
ATOM      2  C   UNL     1      10.233 -19.656   8.017  1.00  0.00     0.012 A 
ATOM      3  C   UNL     1       9.597 -17.565   6.976  1.00  0.00     0.012 A 
ATOM      4  C   UNL     1      11.384 -19.048   8.530  1.00  0.00     0.047 A 
ATOM      5  C   UNL     1      10.747 -16.957   7.488  1.00  0.00     0.047 A 
ATOM      6  C   UNL     1      11.654 -17.700   8.269  1.00  0.00     0.118 A 
ENDROOT
BRANCH   1   7
ATOM      7  C   UNL     1       8.111 -19.574   6.728  1.00  0.00     0.010 C 
ATOM      8  C   UNL     1       6.966 -19.686   7.420  1.00  0.00     0.025 C 
BRANCH   8   9
ATOM      9  C   UNL     1       6.673 -19.035   8.712  1.00  0.00     0.064 C 
ATOM     10  O   UNL     1       6.686 -17.783   8.838  1.00  0.00    -0.545 OA
ATOM     11  O   UNL     1       6.305 -19.821   9.796  1.00  0.00    -0.545 OA
ENDBRANCH   8   9
ENDBRANCH   1   7
BRANCH   6  12
ATOM     12  O   UNL     1      12.823 -17.137   8.804  1.00  0.00    -0.497 OA
ATOM     13  C   UNL     1      13.513 -16.028   8.238  1.00  0.00     0.278 C 
ENDBRANCH   6  12
TORSDOF 3
ENDMDL
MODEL 3
REMARK VINA RESULT:    -4.197      1.402      5.306
REMARK INTER + INTRA:          -5.176
REMARK INTER:                  -5.144
REMARK INTRA:                  -0.032
REMARK UNBOUND:                -0.243
REMARK SMILES COc1ccc(C=CC(=O)[O-])cc1
REMARK SMILES IDX 6 1 5 2 12 3 4 4 13 5 3 6 7 7 8 8 9 9 10 10 11 11 2 12 1 13
REMARK H PARENT
REMARK Flexibility Score: inf
ROOT
ATOM      1  C   UNL     1       8.686 -17.909   7.368  1.00  0.00    -0.025 A 
ATOM      2  C   UNL     1       8.251 -19.033   6.653  1.00  0.00     0.012 A 
ATOM      3  C   UNL     1       7.957 -17.488   8.493  1.00  0.00     0.012 A 
ATOM      4  C   UNL     1       7.137 -19.759   7.087  1.00  0.00     0.047 A 
ATOM      5  C   UNL     1       6.844 -18.214   8.928  1.00  0.00     0.047 A 
ATOM      6  C   UNL     1       6.428 -19.362   8.225  1.00  0.00     0.118 A 
ENDROOT
BRANCH   1   7
ATOM      7  C   UNL     1       9.832 -17.127   6.862  1.00  0.00     0.010 C 
ATOM      8  C   UNL     1      11.063 -17.115   7.398  1.00  0.00     0.025 C 
BRANCH   8   9
ATOM      9  C   UNL     1      11.544 -18.004   8.473  1.00  0.00     0.064 C 
ATOM     10  O   UNL     1      11.211 -19.217   8.523  1.00  0.00    -0.545 OA
ATOM     11  O   UNL     1      12.442 -17.509   9.409  1.00  0.00    -0.545 OA
ENDBRANCH   8   9
ENDBRANCH   1   7
BRANCH   6  12
ATOM     12  O   UNL     1       5.319 -20.125   8.621  1.00  0.00    -0.497 OA
ATOM     13  C   UNL     1       4.587 -19.916   9.824  1.00  0.00     0.278 C 
ENDBRANCH   6  12
TORSDOF 3
ENDMDL
MODEL 4
REMARK VINA RESULT:    -4.183      1.828      5.341
REMARK INTER + INTRA:          -5.160
REMARK INTER:                  -5.156
REMARK INTRA:                  -0.004
REMARK UNBOUND:                -0.243
REMARK SMILES COc1ccc(C=CC(=O)[O-])cc1
REMARK SMILES IDX 6 1 5 2 12 3 4 4 13 5 3 6 7 7 8 8 9 9 10 10 11 11 2 12 1 13
REMARK H PARENT
REMARK Flexibility Score: inf
ROOT
ATOM      1  C   UNL     1       8.681 -17.962   7.545  1.00  0.00    -0.025 A 
ATOM      2  C   UNL     1       7.867 -17.565   8.615  1.00  0.00     0.012 A 
ATOM      3  C   UNL     1       8.295 -19.062   6.761  1.00  0.00     0.012 A 
ATOM      4  C   UNL     1       6.658 -18.223   8.863  1.00  0.00     0.047 A 
ATOM      5  C   UNL     1       7.087 -19.719   7.009  1.00  0.00     0.047 A 
ATOM      6  C   UNL     1       6.255 -19.298   8.065  1.00  0.00     0.118 A 
ENDROOT
BRANCH   1   7
ATOM      7  C   UNL     1       9.978 -17.288   7.333  1.00  0.00     0.010 C 
ATOM      8  C   UNL     1      11.179 -17.889   7.349  1.00  0.00     0.025 C 
BRANCH   8   9
ATOM      9  C   UNL     1      11.414 -19.345   7.403  1.00  0.00     0.064 C 
ATOM     10  O   UNL     1      11.588 -20.024   6.358  1.00  0.00    -0.545 OA
ATOM     11  O   UNL     1      11.516 -19.968   8.640  1.00  0.00    -0.545 OA
ENDBRANCH   8   9
ENDBRANCH   1   7
BRANCH   6  12
ATOM     12  O   UNL     1       5.032 -19.923   8.354  1.00  0.00    -0.497 OA
ATOM     13  C   UNL     1       4.523 -20.125   9.668  1.00  0.00     0.278 C 
ENDBRANCH   6  12
TORSDOF 3
ENDMDL
MODEL 5
REMARK VINA RESULT:    -3.690      1.308      5.309
REMARK INTER + INTRA:          -4.580
REMARK INTER:                  -4.385
REMARK INTRA:                  -0.195
REMARK UNBOUND:                -0.243
REMARK SMILES COc1ccc(C=CC(=O)[O-])cc1
REMARK SMILES IDX 6 1 5 2 12 3 4 4 13 5 3 6 7 7 8 8 9 9 10 10 11 11 2 12 1 13
REMARK H PARENT
REMARK Flexibility Score: inf
ROOT
ATOM      1  C   UNL     1       9.528 -19.141   7.400  1.00  0.00    -0.025 A 
ATOM      2  C   UNL     1       9.051 -20.122   8.279  1.00  0.00     0.012 A 
ATOM      3  C   UNL     1       8.666 -18.110   6.989  1.00  0.00     0.012 A 
ATOM      4  C   UNL     1       7.749 -20.045   8.784  1.00  0.00     0.047 A 
ATOM      5  C   UNL     1       7.365 -18.032   7.494  1.00  0.00     0.047 A 
ATOM      6  C   UNL     1       6.897 -19.002   8.402  1.00  0.00     0.118 A 
ENDROOT
BRANCH   1   7
ATOM      7  C   UNL     1      10.887 -19.271   6.838  1.00  0.00     0.010 C 
ATOM      8  C   UNL     1      11.901 -18.415   7.045  1.00  0.00     0.025 C 
BRANCH   8   9
ATOM      9  C   UNL     1      11.898 -17.292   8.004  1.00  0.00     0.064 C 
ATOM     10  O   UNL     1      11.955 -16.096   7.618  1.00  0.00    -0.545 OA
ATOM     11  O   UNL     1      11.759 -17.562   9.359  1.00  0.00    -0.545 OA
ENDBRANCH   8   9
ENDBRANCH   1   7
BRANCH   6  12
ATOM     12  O   UNL     1       5.601 -18.968   8.939  1.00  0.00    -0.497 OA
ATOM     13  C   UNL     1       4.885 -20.115   9.385  1.00  0.00     0.278 C 
ENDBRANCH   6  12
TORSDOF 3
ENDMDL
MODEL 6
REMARK VINA RESULT:    -3.664      2.101      5.554
REMARK INTER + INTRA:          -4.550
REMARK INTER:                  -4.671
REMARK INTRA:                   0.121
REMARK UNBOUND:                -0.243
REMARK SMILES COc1ccc(C=CC(=O)[O-])cc1
REMARK SMILES IDX 6 1 5 2 12 3 4 4 13 5 3 6 7 7 8 8 9 9 10 10 11 11 2 12 1 13
REMARK H PARENT
REMARK Flexibility Score: inf
ROOT
ATOM      1  C   UNL     1      11.418 -18.111   8.476  1.00  0.00    -0.025 A 
ATOM      2  C   UNL     1      10.155 -17.525   8.633  1.00  0.00     0.012 A 
ATOM      3  C   UNL     1      11.562 -19.211   7.614  1.00  0.00     0.012 A 
ATOM      4  C   UNL     1       9.062 -17.996   7.899  1.00  0.00     0.047 A 
ATOM      5  C   UNL     1      10.470 -19.682   6.880  1.00  0.00     0.047 A 
ATOM      6  C   UNL     1       9.208 -19.071   7.016  1.00  0.00     0.118 A 
ENDROOT
BRANCH   1   7
ATOM      7  C   UNL     1      12.546 -17.632   9.301  1.00  0.00     0.010 C 
ATOM      8  C   UNL     1      13.435 -16.694   8.935  1.00  0.00     0.025 C 
BRANCH   8   9
ATOM      9  C   UNL     1      13.348 -15.849   7.727  1.00  0.00     0.064 C 
ATOM     10  O   UNL     1      12.240 -15.477   7.261  1.00  0.00    -0.545 OA
ATOM     11  O   UNL     1      14.519 -15.396   7.134  1.00  0.00    -0.545 OA
ENDBRANCH   8   9
ENDBRANCH   1   7
BRANCH   6  12
ATOM     12  O   UNL     1       8.081 -19.505   6.301  1.00  0.00    -0.497 OA
ATOM     13  C   UNL     1       8.131 -20.123   5.019  1.00  0.00     0.278 C 
ENDBRANCH   6  12
TORSDOF 3
ENDMDL
MODEL 7
REMARK VINA RESULT:    -3.242      1.544      2.255
REMARK INTER + INTRA:          -4.054
REMARK INTER:                  -4.055
REMARK INTRA:                   0.001
REMARK UNBOUND:                -0.243
REMARK SMILES COc1ccc(C=CC(=O)[O-])cc1
REMARK SMILES IDX 6 1 5 2 12 3 4 4 13 5 3 6 7 7 8 8 9 9 10 10 11 11 2 12 1 13
REMARK H PARENT
REMARK Flexibility Score: inf
ROOT
ATOM      1  C   UNL     1      10.860 -18.619   8.241  1.00  0.00    -0.025 A 
ATOM      2  C   UNL     1      11.053 -17.803   7.118  1.00  0.00     0.012 A 
ATOM      3  C   UNL     1      11.705 -18.467   9.353  1.00  0.00     0.012 A 
ATOM      4  C   UNL     1      12.041 -16.813   7.126  1.00  0.00     0.047 A 
ATOM      5  C   UNL     1      12.693 -17.478   9.361  1.00  0.00     0.047 A 
ATOM      6  C   UNL     1      12.864 -16.638   8.243  1.00  0.00     0.118 A 
ENDROOT
BRANCH   1   7
ATOM      7  C   UNL     1       9.846 -19.692   8.190  1.00  0.00     0.010 C 
ATOM      8  C   UNL     1       8.526 -19.509   8.030  1.00  0.00     0.025 C 
BRANCH   8   9
ATOM      9  C   UNL     1       7.867 -18.230   7.701  1.00  0.00     0.064 C 
ATOM     10  O   UNL     1       7.776 -17.822   6.513  1.00  0.00    -0.545 OA
ATOM     11  O   UNL     1       7.271 -17.496   8.717  1.00  0.00    -0.545 OA
ENDBRANCH   8   9
ENDBRANCH   1   7
BRANCH   6  12
ATOM     12  O   UNL     1      13.839 -15.629   8.203  1.00  0.00    -0.497 OA
ATOM     13  C   UNL     1      14.528 -15.223   7.025  1.00  0.00     0.278 C 
ENDBRANCH   6  12
TORSDOF 3
ENDMDL
MODEL 8
REMARK VINA RESULT:    -2.297      1.534      5.165
REMARK INTER + INTRA:          -2.942
REMARK INTER:                  -3.050
REMARK INTRA:                   0.108
REMARK UNBOUND:                -0.243
REMARK SMILES COc1ccc(C=CC(=O)[O-])cc1
REMARK SMILES IDX 6 1 5 2 12 3 4 4 13 5 3 6 7 7 8 8 9 9 10 10 11 11 2 12 1 13
REMARK H PARENT
REMARK Flexibility Score: inf
ROOT
ATOM      1  C   UNL     1       9.722 -20.044   7.290  1.00  0.00    -0.025 A 
ATOM      2  C   UNL     1       8.858 -19.977   6.189  1.00  0.00     0.012 A 
ATOM      3  C   UNL     1       9.181 -20.090   8.586  1.00  0.00     0.012 A 
ATOM      4  C   UNL     1       7.472 -20.012   6.376  1.00  0.00     0.047 A 
ATOM      5  C   UNL     1       7.796 -20.125   8.773  1.00  0.00     0.047 A 
ATOM      6  C   UNL     1       6.929 -20.089   7.663  1.00  0.00     0.118 A 
ENDROOT
BRANCH   1   7
ATOM      7  C   UNL     1      11.180 -19.953   7.072  1.00  0.00     0.010 C 
ATOM      8  C   UNL     1      11.905 -18.824   7.116  1.00  0.00     0.025 C 
BRANCH   8   9
ATOM      9  C   UNL     1      11.417 -17.503   7.560  1.00  0.00     0.064 C 
ATOM     10  O   UNL     1      12.138 -16.729   8.242  1.00  0.00    -0.545 OA
ATOM     11  O   UNL     1      10.159 -17.077   7.155  1.00  0.00    -0.545 OA
ENDBRANCH   8   9
ENDBRANCH   1   7
BRANCH   6  12
ATOM     12  O   UNL     1       5.533 -20.123   7.798  1.00  0.00    -0.497 OA
ATOM     13  C   UNL     1       4.841 -19.985   9.034  1.00  0.00     0.278 C 
ENDBRANCH   6  12
TORSDOF 3
ENDMDL
MODEL 9
REMARK VINA RESULT:    -1.718      2.306      2.555
REMARK INTER + INTRA:          -2.262
REMARK INTER:                  -2.201
REMARK INTRA:                  -0.062
REMARK UNBOUND:                -0.243
REMARK SMILES COc1ccc(C=CC(=O)[O-])cc1
REMARK SMILES IDX 6 1 5 2 12 3 4 4 13 5 3 6 7 7 8 8 9 9 10 10 11 11 2 12 1 13
REMARK H PARENT
REMARK Flexibility Score: inf
ROOT
ATOM      1  C   UNL     1       9.421 -19.077   8.192  1.00  0.00    -0.025 A 
ATOM      2  C   UNL     1       9.538 -17.734   7.810  1.00  0.00     0.012 A 
ATOM      3  C   UNL     1      10.503 -19.705   8.832  1.00  0.00     0.012 A 
ATOM      4  C   UNL     1      10.697 -17.012   8.111  1.00  0.00     0.047 A 
ATOM      5  C   UNL     1      11.662 -18.984   9.133  1.00  0.00     0.047 A 
ATOM      6  C   UNL     1      11.765 -17.625   8.776  1.00  0.00     0.118 A 
ENDROOT
BRANCH   1   7
ATOM      7  C   UNL     1       8.210 -19.835   7.817  1.00  0.00     0.010 C 
ATOM      8  C   UNL     1       7.714 -19.945   6.574  1.00  0.00     0.025 C 
BRANCH   8   9
ATOM      9  C   UNL     1       8.377 -19.485   5.338  1.00  0.00     0.064 C 
ATOM     10  O   UNL     1       9.331 -20.124   4.825  1.00  0.00    -0.545 OA
ATOM     11  O   UNL     1       7.888 -18.358   4.689  1.00  0.00    -0.545 OA
ENDBRANCH   8   9
ENDBRANCH   1   7
BRANCH   6  12
ATOM     12  O   UNL     1      12.905 -16.857   9.058  1.00  0.00    -0.497 OA
ATOM     13  C   UNL     1      14.086 -17.366   9.668  1.00  0.00     0.278 C 
ENDBRANCH   6  12
TORSDOF 3
ENDMDL
