MODEL 1
REMARK VINA RESULT:    -4.380      0.000      0.000
REMARK INTER + INTRA:         -16.449
REMARK INTER:                 -11.037
REMARK INTRA:                  -5.412
REMARK UNBOUND:                -5.412
REMARK SMILES CCCCCCCCCCCCCCCCCCCCCCCCCCCC(=O)[O-]
REMARK SMILES IDX 15 1 16 2 17 3 18 4 19 5 20 6 21 7 22 8 23 9 24 10 25 11
REMARK SMILES IDX 26 12 27 13 28 14 29 15 30 16 14 17 13 18 12 19 11 20 10 21
REMARK SMILES IDX 9 22 8 23 7 24 6 25 5 26 4 27 3 28 2 29 1 30
REMARK H PARENT
REMARK Flexibility Score: inf
ROOT
ATOM      1  C   UNL     1       6.926  52.921  -0.889  1.00  0.00     0.000 C 
ENDROOT
BRANCH   1   2
ATOM      2  C   UNL     1       7.212  52.791   0.622  1.00  0.00     0.000 C 
BRANCH   2   3
ATOM      3  C   UNL     1       6.072  52.161   1.457  1.00  0.00     0.000 C 
BRANCH   3   4
ATOM      4  C   UNL     1       4.819  51.790   0.643  1.00  0.00     0.000 C 
BRANCH   4   5
ATOM      5  C   UNL     1       3.770  51.036   1.484  1.00  0.00     0.000 C 
BRANCH   5   6
ATOM      6  C   UNL     1       2.552  50.601   0.650  1.00  0.00     0.000 C 
BRANCH   6   7
ATOM      7  C   UNL     1       1.939  51.737  -0.193  1.00  0.00     0.000 C 
BRANCH   7   8
ATOM      8  C   UNL     1       1.880  51.472  -1.712  1.00  0.00     0.000 C 
BRANCH   8   9
ATOM      9  C   UNL     1       2.971  52.208  -2.518  1.00  0.00     0.000 C 
BRANCH   9  10
ATOM     10  C   UNL     1       3.545  51.350  -3.657  1.00  0.00     0.000 C 
BRANCH  10  11
ATOM     11  C   UNL     1       4.926  51.866  -4.082  1.00  0.00     0.000 C 
BRANCH  11  12
ATOM     12  C   UNL     1       5.115  53.342  -3.699  1.00  0.00     0.006 C 
BRANCH  12  13
ATOM     13  C   UNL     1       5.861  54.133  -4.783  1.00  0.00     0.053 C 
BRANCH  13  14
ATOM     14  C   UNL     1       4.976  55.149  -5.440  1.00  0.00     0.041 C 
ATOM     15  O   UNL     1       3.885  55.481  -4.904  1.00  0.00    -0.550 OA
ATOM     16  O   UNL     1       5.377  55.759  -6.622  1.00  0.00    -0.550 OA
ENDBRANCH  13  14
ENDBRANCH  12  13
ENDBRANCH  11  12
ENDBRANCH  10  11
ENDBRANCH   9  10
ENDBRANCH   8   9
ENDBRANCH   7   8
ENDBRANCH   6   7
ENDBRANCH   5   6
ENDBRANCH   4   5
ENDBRANCH   3   4
ENDBRANCH   2   3
ENDBRANCH   1   2
BRANCH   1  17
ATOM     17  C   UNL     1       8.067  52.378  -1.762  1.00  0.00     0.000 C 
BRANCH  17  18
ATOM     18  C   UNL     1       9.146  51.703  -0.902  1.00  0.00     0.000 C 
BRANCH  18  19
ATOM     19  C   UNL     1      10.556  51.849  -1.501  1.00  0.00     0.000 C 
BRANCH  19  20
ATOM     20  C   UNL     1      11.260  53.184  -1.186  1.00  0.00     0.000 C 
BRANCH  20  21
ATOM     21  C   UNL     1      11.036  53.696   0.253  1.00  0.00     0.000 C 
BRANCH  21  22
ATOM     22  C   UNL     1      10.345  55.071   0.315  1.00  0.00    -0.000 C 
BRANCH  22  23
ATOM     23  C   UNL     1       9.889  55.564  -1.069  1.00  0.00    -0.000 C 
BRANCH  23  24
ATOM     24  C   UNL     1       8.532  56.288  -1.021  1.00  0.00    -0.000 C 
BRANCH  24  25
ATOM     25  C   UNL     1       7.842  56.356  -2.396  1.00  0.00    -0.000 C 
BRANCH  25  26
ATOM     26  C   UNL     1       6.352  56.756  -2.358  1.00  0.00    -0.000 C 
BRANCH  26  27
ATOM     27  C   UNL     1       5.597  56.354  -1.075  1.00  0.00    -0.000 C 
BRANCH  27  28
ATOM     28  C   UNL     1       4.201  55.740  -1.306  1.00  0.00    -0.000 C 
BRANCH  28  29
ATOM     29  C   UNL     1       3.555  55.118  -0.056  1.00  0.00    -0.003 C 
ATOM     30  C   UNL     1       4.341  55.399   1.224  1.00  0.00     0.004 C 
ENDBRANCH  28  29
ENDBRANCH  27  28
ENDBRANCH  26  27
ENDBRANCH  25  26
ENDBRANCH  24  25
ENDBRANCH  23  24
ENDBRANCH  22  23
ENDBRANCH  21  22
ENDBRANCH  20  21
ENDBRANCH  19  20
ENDBRANCH  18  19
ENDBRANCH  17  18
ENDBRANCH   1  17
TORSDOF 26
ENDMDL
MODEL 2
REMARK VINA RESULT:    -4.341      1.922      5.263
REMARK INTER + INTRA:         -16.351
REMARK INTER:                 -11.716
REMARK INTRA:                  -4.635
REMARK UNBOUND:                -5.412
REMARK SMILES CCCCCCCCCCCCCCCCCCCCCCCCCCCC(=O)[O-]
REMARK SMILES IDX 15 1 16 2 17 3 18 4 19 5 20 6 21 7 22 8 23 9 24 10 25 11
REMARK SMILES IDX 26 12 27 13 28 14 29 15 30 16 14 17 13 18 12 19 11 20 10 21
REMARK SMILES IDX 9 22 8 23 7 24 6 25 5 26 4 27 3 28 2 29 1 30
REMARK H PARENT
REMARK Flexibility Score: inf
ROOT
ATOM      1  C   UNL     1       2.657  50.743   0.669  1.00  0.00     0.000 C 
ENDROOT
BRANCH   1   2
ATOM      2  C   UNL     1       2.206  51.864  -0.290  1.00  0.00     0.000 C 
BRANCH   2   3
ATOM      3  C   UNL     1       1.979  51.426  -1.756  1.00  0.00     0.000 C 
BRANCH   3   4
ATOM      4  C   UNL     1       2.689  52.307  -2.800  1.00  0.00     0.000 C 
BRANCH   4   5
ATOM      5  C   UNL     1       3.299  51.484  -3.952  1.00  0.00     0.000 C 
BRANCH   5   6
ATOM      6  C   UNL     1       4.746  51.902  -4.269  1.00  0.00     0.000 C 
BRANCH   6   7
ATOM      7  C   UNL     1       5.752  51.550  -3.156  1.00  0.00     0.000 C 
BRANCH   7   8
ATOM      8  C   UNL     1       6.630  52.722  -2.667  1.00  0.00     0.000 C 
BRANCH   8   9
ATOM      9  C   UNL     1       5.996  54.112  -2.887  1.00  0.00     0.000 C 
BRANCH   9  10
ATOM     10  C   UNL     1       5.343  54.673  -1.614  1.00  0.00     0.000 C 
BRANCH  10  11
ATOM     11  C   UNL     1       6.178  55.822  -1.036  1.00  0.00     0.000 C 
BRANCH  11  12
ATOM     12  C   UNL     1       5.799  56.109   0.426  1.00  0.00     0.006 C 
BRANCH  12  13
ATOM     13  C   UNL     1       5.127  57.479   0.594  1.00  0.00     0.053 C 
BRANCH  13  14
ATOM     14  C   UNL     1       3.793  57.533  -0.088  1.00  0.00     0.041 C 
ATOM     15  O   UNL     1       2.850  56.795   0.304  1.00  0.00    -0.550 OA
ATOM     16  O   UNL     1       3.580  58.430  -1.126  1.00  0.00    -0.550 OA
ENDBRANCH  13  14
ENDBRANCH  12  13
ENDBRANCH  11  12
ENDBRANCH  10  11
ENDBRANCH   9  10
ENDBRANCH   8   9
ENDBRANCH   7   8
ENDBRANCH   6   7
ENDBRANCH   5   6
ENDBRANCH   4   5
ENDBRANCH   3   4
ENDBRANCH   2   3
ENDBRANCH   1   2
BRANCH   1  17
ATOM     17  C   UNL     1       3.881  51.133   1.511  1.00  0.00     0.000 C 
BRANCH  17  18
ATOM     18  C   UNL     1       4.920  51.880   0.659  1.00  0.00     0.000 C 
BRANCH  18  19
ATOM     19  C   UNL     1       6.057  52.478   1.504  1.00  0.00     0.000 C 
BRANCH  19  20
ATOM     20  C   UNL     1       7.404  52.628   0.769  1.00  0.00     0.000 C 
BRANCH  20  21
ATOM     21  C   UNL     1       8.640  52.306   1.636  1.00  0.00     0.000 C 
BRANCH  21  22
ATOM     22  C   UNL     1       9.766  51.597   0.860  1.00  0.00    -0.000 C 
BRANCH  22  23
ATOM     23  C   UNL     1       9.513  51.576  -0.657  1.00  0.00    -0.000 C 
BRANCH  23  24
ATOM     24  C   UNL     1      10.683  52.172  -1.461  1.00  0.00    -0.000 C 
BRANCH  24  25
ATOM     25  C   UNL     1      10.961  53.644  -1.110  1.00  0.00    -0.000 C 
BRANCH  25  26
ATOM     26  C   UNL     1       9.750  54.590  -1.254  1.00  0.00    -0.000 C 
BRANCH  26  27
ATOM     27  C   UNL     1       9.779  55.835  -0.345  1.00  0.00    -0.000 C 
BRANCH  27  28
ATOM     28  C   UNL     1      10.814  55.783   0.798  1.00  0.00    -0.000 C 
BRANCH  28  29
ATOM     29  C   UNL     1      11.952  56.811   0.684  1.00  0.00    -0.003 C 
ATOM     30  C   UNL     1      11.497  58.143   0.087  1.00  0.00     0.004 C 
ENDBRANCH  28  29
ENDBRANCH  27  28
ENDBRANCH  26  27
ENDBRANCH  25  26
ENDBRANCH  24  25
ENDBRANCH  23  24
ENDBRANCH  22  23
ENDBRANCH  21  22
ENDBRANCH  20  21
ENDBRANCH  19  20
ENDBRANCH  18  19
ENDBRANCH  17  18
ENDBRANCH   1  17
TORSDOF 26
ENDMDL
MODEL 3
REMARK VINA RESULT:    -4.325      1.448      5.582
REMARK INTER + INTRA:         -16.310
REMARK INTER:                 -11.350
REMARK INTRA:                  -4.960
REMARK UNBOUND:                -5.412
REMARK SMILES CCCCCCCCCCCCCCCCCCCCCCCCCCCC(=O)[O-]
REMARK SMILES IDX 15 1 16 2 17 3 18 4 19 5 20 6 21 7 22 8 23 9 24 10 25 11
REMARK SMILES IDX 26 12 27 13 28 14 29 15 30 16 14 17 13 18 12 19 11 20 10 21
REMARK SMILES IDX 9 22 8 23 7 24 6 25 5 26 4 27 3 28 2 29 1 30
REMARK H PARENT
REMARK Flexibility Score: inf
ROOT
ATOM      1  C   UNL     1       4.251  51.826   1.504  1.00  0.00     0.000 C 
ENDROOT
BRANCH   1   2
ATOM      2  C   UNL     1       3.753  53.243   1.148  1.00  0.00     0.000 C 
BRANCH   2   3
ATOM      3  C   UNL     1       4.673  54.399   1.607  1.00  0.00     0.000 C 
BRANCH   3   4
ATOM      4  C   UNL     1       4.929  55.472   0.532  1.00  0.00     0.000 C 
BRANCH   4   5
ATOM      5  C   UNL     1       3.754  56.459   0.390  1.00  0.00     0.000 C 
BRANCH   5   6
ATOM      6  C   UNL     1       2.800  56.074  -0.754  1.00  0.00     0.000 C 
BRANCH   6   7
ATOM      7  C   UNL     1       3.447  55.174  -1.826  1.00  0.00     0.000 C 
BRANCH   7   8
ATOM      8  C   UNL     1       3.553  55.799  -3.234  1.00  0.00     0.000 C 
BRANCH   8   9
ATOM      9  C   UNL     1       4.884  56.537  -3.491  1.00  0.00     0.000 C 
BRANCH   9  10
ATOM     10  C   UNL     1       6.051  55.951  -2.681  1.00  0.00     0.000 C 
BRANCH  10  11
ATOM     11  C   UNL     1       7.300  55.802  -3.559  1.00  0.00     0.000 C 
BRANCH  11  12
ATOM     12  C   UNL     1       7.003  54.977  -4.821  1.00  0.00     0.006 C 
BRANCH  12  13
ATOM     13  C   UNL     1       7.736  55.521  -6.056  1.00  0.00     0.053 C 
BRANCH  13  14
ATOM     14  C   UNL     1       6.778  55.999  -7.106  1.00  0.00     0.041 C 
ATOM     15  O   UNL     1       6.437  55.235  -8.048  1.00  0.00    -0.550 OA
ATOM     16  O   UNL     1       6.230  57.272  -7.017  1.00  0.00    -0.550 OA
ENDBRANCH  13  14
ENDBRANCH  12  13
ENDBRANCH  11  12
ENDBRANCH  10  11
ENDBRANCH   9  10
ENDBRANCH   8   9
ENDBRANCH   7   8
ENDBRANCH   6   7
ENDBRANCH   5   6
ENDBRANCH   4   5
ENDBRANCH   3   4
ENDBRANCH   2   3
ENDBRANCH   1   2
BRANCH   1  17
ATOM     17  C   UNL     1       3.212  50.735   1.206  1.00  0.00     0.000 C 
BRANCH  17  18
ATOM     18  C   UNL     1       2.143  51.245   0.226  1.00  0.00     0.000 C 
BRANCH  18  19
ATOM     19  C   UNL     1       2.249  50.584  -1.159  1.00  0.00     0.000 C 
BRANCH  19  20
ATOM     20  C   UNL     1       2.092  51.548  -2.352  1.00  0.00     0.000 C 
BRANCH  20  21
ATOM     21  C   UNL     1       2.898  51.143  -3.605  1.00  0.00     0.000 C 
BRANCH  21  22
ATOM     22  C   UNL     1       3.918  52.209  -4.049  1.00  0.00    -0.000 C 
BRANCH  22  23
ATOM     23  C   UNL     1       5.359  51.845  -3.654  1.00  0.00    -0.000 C 
BRANCH  23  24
ATOM     24  C   UNL     1       5.678  52.195  -2.190  1.00  0.00    -0.000 C 
BRANCH  24  25
ATOM     25  C   UNL     1       7.177  52.450  -1.949  1.00  0.00    -0.000 C 
BRANCH  25  26
ATOM     26  C   UNL     1       7.569  52.689  -0.475  1.00  0.00    -0.000 C 
BRANCH  26  27
ATOM     27  C   UNL     1       8.358  53.987  -0.209  1.00  0.00    -0.000 C 
BRANCH  27  28
ATOM     28  C   UNL     1       9.523  54.252  -1.185  1.00  0.00    -0.000 C 
BRANCH  28  29
ATOM     29  C   UNL     1      10.876  53.662  -0.751  1.00  0.00    -0.003 C 
ATOM     30  C   UNL     1      11.255  52.403  -1.530  1.00  0.00     0.004 C 
ENDBRANCH  28  29
ENDBRANCH  27  28
ENDBRANCH  26  27
ENDBRANCH  25  26
ENDBRANCH  24  25
ENDBRANCH  23  24
ENDBRANCH  22  23
ENDBRANCH  21  22
ENDBRANCH  20  21
ENDBRANCH  19  20
ENDBRANCH  18  19
ENDBRANCH  17  18
ENDBRANCH   1  17
TORSDOF 26
ENDMDL
MODEL 4
REMARK VINA RESULT:    -4.313      1.081      2.384
REMARK INTER + INTRA:         -16.281
REMARK INTER:                 -10.802
REMARK INTRA:                  -5.479
REMARK UNBOUND:                -5.412
REMARK SMILES CCCCCCCCCCCCCCCCCCCCCCCCCCCC(=O)[O-]
REMARK SMILES IDX 15 1 16 2 17 3 18 4 19 5 20 6 21 7 22 8 23 9 24 10 25 11
REMARK SMILES IDX 26 12 27 13 28 14 29 15 30 16 14 17 13 18 12 19 11 20 10 21
REMARK SMILES IDX 9 22 8 23 7 24 6 25 5 26 4 27 3 28 2 29 1 30
REMARK H PARENT
REMARK Flexibility Score: inf
ROOT
ATOM      1  C   UNL     1       6.257  52.498   1.619  1.00  0.00     0.000 C 
ENDROOT
BRANCH   1   2
ATOM      2  C   UNL     1       5.143  51.858   0.764  1.00  0.00     0.000 C 
BRANCH   2   3
ATOM      3  C   UNL     1       3.834  51.535   1.522  1.00  0.00     0.000 C 
BRANCH   3   4
ATOM      4  C   UNL     1       2.785  50.781   0.685  1.00  0.00     0.000 C 
BRANCH   4   5
ATOM      5  C   UNL     1       2.329  51.580  -0.551  1.00  0.00     0.000 C 
BRANCH   5   6
ATOM      6  C   UNL     1       2.222  50.702  -1.810  1.00  0.00     0.000 C 
BRANCH   6   7
ATOM      7  C   UNL     1       2.938  51.290  -3.042  1.00  0.00     0.000 C 
BRANCH   7   8
ATOM      8  C   UNL     1       4.162  52.178  -2.730  1.00  0.00     0.000 C 
BRANCH   8   9
ATOM      9  C   UNL     1       5.260  52.132  -3.813  1.00  0.00     0.000 C 
BRANCH   9  10
ATOM     10  C   UNL     1       6.097  53.420  -3.861  1.00  0.00     0.000 C 
BRANCH  10  11
ATOM     11  C   UNL     1       5.671  54.302  -5.041  1.00  0.00     0.000 C 
BRANCH  11  12
ATOM     12  C   UNL     1       4.845  55.509  -4.569  1.00  0.00     0.006 C 
BRANCH  12  13
ATOM     13  C   UNL     1       3.337  55.219  -4.572  1.00  0.00     0.053 C 
BRANCH  13  14
ATOM     14  C   UNL     1       2.886  54.628  -5.874  1.00  0.00     0.041 C 
ATOM     15  O   UNL     1       2.922  55.316  -6.929  1.00  0.00    -0.550 OA
ATOM     16  O   UNL     1       2.469  53.304  -5.929  1.00  0.00    -0.550 OA
ENDBRANCH  13  14
ENDBRANCH  12  13
ENDBRANCH  11  12
ENDBRANCH  10  11
ENDBRANCH   9  10
ENDBRANCH   8   9
ENDBRANCH   7   8
ENDBRANCH   6   7
ENDBRANCH   5   6
ENDBRANCH   4   5
ENDBRANCH   3   4
ENDBRANCH   2   3
ENDBRANCH   1   2
BRANCH   1  17
ATOM     17  C   UNL     1       7.573  52.680   0.847  1.00  0.00     0.000 C 
BRANCH  17  18
ATOM     18  C   UNL     1       7.351  52.524  -0.665  1.00  0.00     0.000 C 
BRANCH  18  19
ATOM     19  C   UNL     1       8.533  51.834  -1.367  1.00  0.00     0.000 C 
BRANCH  19  20
ATOM     20  C   UNL     1       9.737  51.522  -0.456  1.00  0.00     0.000 C 
BRANCH  20  21
ATOM     21  C   UNL     1      11.079  52.099  -0.957  1.00  0.00     0.000 C 
BRANCH  21  22
ATOM     22  C   UNL     1      10.992  53.578  -1.379  1.00  0.00    -0.000 C 
BRANCH  22  23
ATOM     23  C   UNL     1      11.081  54.538  -0.181  1.00  0.00    -0.000 C 
BRANCH  23  24
ATOM     24  C   UNL     1       9.772  55.312   0.057  1.00  0.00    -0.000 C 
BRANCH  24  25
ATOM     25  C   UNL     1       9.414  56.254  -1.107  1.00  0.00    -0.000 C 
BRANCH  25  26
ATOM     26  C   UNL     1       8.196  55.817  -1.948  1.00  0.00    -0.000 C 
BRANCH  26  27
ATOM     27  C   UNL     1       6.901  56.613  -1.688  1.00  0.00    -0.000 C 
BRANCH  27  28
ATOM     28  C   UNL     1       6.068  56.125  -0.485  1.00  0.00    -0.000 C 
BRANCH  28  29
ATOM     29  C   UNL     1       4.865  55.239  -0.850  1.00  0.00    -0.003 C 
ATOM     30  C   UNL     1       3.776  55.239   0.223  1.00  0.00     0.004 C 
ENDBRANCH  28  29
ENDBRANCH  27  28
ENDBRANCH  26  27
ENDBRANCH  25  26
ENDBRANCH  24  25
ENDBRANCH  23  24
ENDBRANCH  22  23
ENDBRANCH  21  22
ENDBRANCH  20  21
ENDBRANCH  19  20
ENDBRANCH  18  19
ENDBRANCH  17  18
ENDBRANCH   1  17
TORSDOF 26
ENDMDL
MODEL 5
REMARK VINA RESULT:    -4.227      2.073      5.995
REMARK INTER + INTRA:         -16.063
REMARK INTER:                 -10.662
REMARK INTRA:                  -5.400
REMARK UNBOUND:                -5.412
REMARK SMILES CCCCCCCCCCCCCCCCCCCCCCCCCCCC(=O)[O-]
REMARK SMILES IDX 15 1 16 2 17 3 18 4 19 5 20 6 21 7 22 8 23 9 24 10 25 11
REMARK SMILES IDX 26 12 27 13 28 14 29 15 30 16 14 17 13 18 12 19 11 20 10 21
REMARK SMILES IDX 9 22 8 23 7 24 6 25 5 26 4 27 3 28 2 29 1 30
REMARK H PARENT
REMARK Flexibility Score: inf
ROOT
ATOM      1  C   UNL     1       4.178  52.184   1.459  1.00  0.00     0.000 C 
ENDROOT
BRANCH   1   2
ATOM      2  C   UNL     1       5.676  51.991   1.146  1.00  0.00     0.000 C 
BRANCH   2   3
ATOM      3  C   UNL     1       6.647  52.763   2.070  1.00  0.00     0.000 C 
BRANCH   3   4
ATOM      4  C   UNL     1       7.875  51.951   2.522  1.00  0.00     0.000 C 
BRANCH   4   5
ATOM      5  C   UNL     1       9.201  52.557   2.022  1.00  0.00     0.000 C 
BRANCH   5   6
ATOM      6  C   UNL     1       9.999  51.576   1.146  1.00  0.00     0.000 C 
BRANCH   6   7
ATOM      7  C   UNL     1      10.165  52.040  -0.315  1.00  0.00     0.000 C 
BRANCH   7   8
ATOM      8  C   UNL     1       9.011  51.652  -1.264  1.00  0.00     0.000 C 
BRANCH   8   9
ATOM      9  C   UNL     1       8.049  52.815  -1.586  1.00  0.00     0.000 C 
BRANCH   9  10
ATOM     10  C   UNL     1       8.707  54.193  -1.407  1.00  0.00     0.000 C 
BRANCH  10  11
ATOM     11  C   UNL     1       7.804  55.124  -0.588  1.00  0.00     0.000 C 
BRANCH  11  12
ATOM     12  C   UNL     1       6.320  54.896  -0.915  1.00  0.00     0.006 C 
BRANCH  12  13
ATOM     13  C   UNL     1       5.507  56.197  -0.862  1.00  0.00     0.053 C 
BRANCH  13  14
ATOM     14  C   UNL     1       4.557  56.213   0.298  1.00  0.00     0.041 C 
ATOM     15  O   UNL     1       3.421  56.746   0.180  1.00  0.00    -0.550 OA
ATOM     16  O   UNL     1       4.911  55.602   1.494  1.00  0.00    -0.550 OA
ENDBRANCH  13  14
ENDBRANCH  12  13
ENDBRANCH  11  12
ENDBRANCH  10  11
ENDBRANCH   9  10
ENDBRANCH   8   9
ENDBRANCH   7   8
ENDBRANCH   6   7
ENDBRANCH   5   6
ENDBRANCH   4   5
ENDBRANCH   3   4
ENDBRANCH   2   3
ENDBRANCH   1   2
BRANCH   1  17
ATOM     17  C   UNL     1       3.396  50.862   1.479  1.00  0.00     0.000 C 
BRANCH  17  18
ATOM     18  C   UNL     1       2.378  50.806   0.329  1.00  0.00     0.000 C 
BRANCH  18  19
ATOM     19  C   UNL     1       2.021  52.201  -0.213  1.00  0.00     0.000 C 
BRANCH  19  20
ATOM     20  C   UNL     1       2.151  52.357  -1.741  1.00  0.00     0.000 C 
BRANCH  20  21
ATOM     21  C   UNL     1       3.490  52.969  -2.206  1.00  0.00     0.000 C 
BRANCH  21  22
ATOM     22  C   UNL     1       4.600  51.924  -2.423  1.00  0.00    -0.000 C 
BRANCH  22  23
ATOM     23  C   UNL     1       5.213  51.999  -3.832  1.00  0.00    -0.000 C 
BRANCH  23  24
ATOM     24  C   UNL     1       4.977  53.362  -4.508  1.00  0.00    -0.000 C 
BRANCH  24  25
ATOM     25  C   UNL     1       6.234  54.251  -4.517  1.00  0.00    -0.000 C 
BRANCH  25  26
ATOM     26  C   UNL     1       5.959  55.767  -4.595  1.00  0.00    -0.000 C 
BRANCH  26  27
ATOM     27  C   UNL     1       6.770  56.526  -5.666  1.00  0.00    -0.000 C 
BRANCH  27  28
ATOM     28  C   UNL     1       8.057  57.201  -5.150  1.00  0.00    -0.000 C 
BRANCH  28  29
ATOM     29  C   UNL     1       8.193  57.248  -3.619  1.00  0.00    -0.003 C 
ATOM     30  C   UNL     1       7.854  58.618  -3.031  1.00  0.00     0.004 C 
ENDBRANCH  28  29
ENDBRANCH  27  28
ENDBRANCH  26  27
ENDBRANCH  25  26
ENDBRANCH  24  25
ENDBRANCH  23  24
ENDBRANCH  22  23
ENDBRANCH  21  22
ENDBRANCH  20  21
ENDBRANCH  19  20
ENDBRANCH  18  19
ENDBRANCH  17  18
ENDBRANCH   1  17
TORSDOF 26
ENDMDL
MODEL 6
REMARK VINA RESULT:    -4.204      2.227      4.570
REMARK INTER + INTRA:         -16.005
REMARK INTER:                 -11.805
REMARK INTRA:                  -4.200
REMARK UNBOUND:                -5.412
REMARK SMILES CCCCCCCCCCCCCCCCCCCCCCCCCCCC(=O)[O-]
REMARK SMILES IDX 15 1 16 2 17 3 18 4 19 5 20 6 21 7 22 8 23 9 24 10 25 11
REMARK SMILES IDX 26 12 27 13 28 14 29 15 30 16 14 17 13 18 12 19 11 20 10 21
REMARK SMILES IDX 9 22 8 23 7 24 6 25 5 26 4 27 3 28 2 29 1 30
REMARK H PARENT
REMARK Flexibility Score: inf
ROOT
ATOM      1  C   UNL     1       5.248  51.891   0.812  1.00  0.00     0.000 C 
ENDROOT
BRANCH   1   2
ATOM      2  C   UNL     1       3.932  51.504   1.518  1.00  0.00     0.000 C 
BRANCH   2   3
ATOM      3  C   UNL     1       2.913  50.741   0.638  1.00  0.00     0.000 C 
BRANCH   3   4
ATOM      4  C   UNL     1       2.154  51.626  -0.368  1.00  0.00     0.000 C 
BRANCH   4   5
ATOM      5  C   UNL     1       2.619  51.401  -1.821  1.00  0.00     0.000 C 
BRANCH   5   6
ATOM      6  C   UNL     1       3.406  52.601  -2.377  1.00  0.00     0.000 C 
BRANCH   6   7
ATOM      7  C   UNL     1       4.202  52.282  -3.658  1.00  0.00     0.000 C 
BRANCH   7   8
ATOM      8  C   UNL     1       5.643  51.777  -3.430  1.00  0.00     0.000 C 
BRANCH   8   9
ATOM      9  C   UNL     1       6.397  52.522  -2.308  1.00  0.00     0.000 C 
BRANCH   9  10
ATOM     10  C   UNL     1       7.231  53.699  -2.838  1.00  0.00     0.000 C 
BRANCH  10  11
ATOM     11  C   UNL     1       6.545  55.035  -2.528  1.00  0.00     0.000 C 
BRANCH  11  12
ATOM     12  C   UNL     1       5.824  54.993  -1.171  1.00  0.00     0.006 C 
BRANCH  12  13
ATOM     13  C   UNL     1       4.983  56.252  -0.920  1.00  0.00     0.053 C 
BRANCH  13  14
ATOM     14  C   UNL     1       4.061  56.083   0.250  1.00  0.00     0.041 C 
ATOM     15  O   UNL     1       4.323  55.237   1.146  1.00  0.00    -0.550 OA
ATOM     16  O   UNL     1       2.938  56.890   0.372  1.00  0.00    -0.550 OA
ENDBRANCH  13  14
ENDBRANCH  12  13
ENDBRANCH  11  12
ENDBRANCH  10  11
ENDBRANCH   9  10
ENDBRANCH   8   9
ENDBRANCH   7   8
ENDBRANCH   6   7
ENDBRANCH   5   6
ENDBRANCH   4   5
ENDBRANCH   3   4
ENDBRANCH   2   3
ENDBRANCH   1   2
BRANCH   1  17
ATOM     17  C   UNL     1       6.369  52.257   1.797  1.00  0.00     0.000 C 
BRANCH  17  18
ATOM     18  C   UNL     1       7.658  52.633   1.050  1.00  0.00     0.000 C 
BRANCH  18  19
ATOM     19  C   UNL     1       8.926  52.250   1.832  1.00  0.00     0.000 C 
BRANCH  19  20
ATOM     20  C   UNL     1       9.934  51.384   1.050  1.00  0.00     0.000 C 
BRANCH  20  21
ATOM     21  C   UNL     1      11.215  52.132   0.620  1.00  0.00     0.000 C 
BRANCH  21  22
ATOM     22  C   UNL     1      11.373  52.250  -0.907  1.00  0.00    -0.000 C 
BRANCH  22  23
ATOM     23  C   UNL     1      10.898  53.610  -1.445  1.00  0.00    -0.000 C 
BRANCH  23  24
ATOM     24  C   UNL     1      10.899  54.707  -0.365  1.00  0.00    -0.000 C 
BRANCH  24  25
ATOM     25  C   UNL     1       9.595  55.525  -0.342  1.00  0.00    -0.000 C 
BRANCH  25  26
ATOM     26  C   UNL     1       9.533  56.683  -1.360  1.00  0.00    -0.000 C 
BRANCH  26  27
ATOM     27  C   UNL     1       9.531  58.097  -0.744  1.00  0.00    -0.000 C 
BRANCH  27  28
ATOM     28  C   UNL     1      10.735  58.979  -1.134  1.00  0.00    -0.000 C 
BRANCH  28  29
ATOM     29  C   UNL     1      11.697  59.304   0.021  1.00  0.00    -0.003 C 
ATOM     30  C   UNL     1      12.456  58.078   0.529  1.00  0.00     0.004 C 
ENDBRANCH  28  29
ENDBRANCH  27  28
ENDBRANCH  26  27
ENDBRANCH  25  26
ENDBRANCH  24  25
ENDBRANCH  23  24
ENDBRANCH  22  23
ENDBRANCH  21  22
ENDBRANCH  20  21
ENDBRANCH  19  20
ENDBRANCH  18  19
ENDBRANCH  17  18
ENDBRANCH   1  17
TORSDOF 26
ENDMDL
MODEL 7
REMARK VINA RESULT:    -4.196      3.148      7.318
REMARK INTER + INTRA:         -15.985
REMARK INTER:                 -10.415
REMARK INTRA:                  -5.569
REMARK UNBOUND:                -5.412
REMARK SMILES CCCCCCCCCCCCCCCCCCCCCCCCCCCC(=O)[O-]
REMARK SMILES IDX 15 1 16 2 17 3 18 4 19 5 20 6 21 7 22 8 23 9 24 10 25 11
REMARK SMILES IDX 26 12 27 13 28 14 29 15 30 16 14 17 13 18 12 19 11 20 10 21
REMARK SMILES IDX 9 22 8 23 7 24 6 25 5 26 4 27 3 28 2 29 1 30
REMARK H PARENT
REMARK Flexibility Score: inf
ROOT
ATOM      1  C   UNL     1       4.923  53.348  -2.625  1.00  0.00     0.000 C 
ENDROOT
BRANCH   1   2
ATOM      2  C   UNL     1       5.991  52.237  -2.541  1.00  0.00     0.000 C 
BRANCH   2   3
ATOM      3  C   UNL     1       7.306  52.641  -1.832  1.00  0.00     0.000 C 
BRANCH   3   4
ATOM      4  C   UNL     1       8.292  51.478  -1.612  1.00  0.00     0.000 C 
BRANCH   4   5
ATOM      5  C   UNL     1       9.405  51.829  -0.605  1.00  0.00     0.000 C 
BRANCH   5   6
ATOM      6  C   UNL     1      10.793  51.893  -1.265  1.00  0.00     0.000 C 
BRANCH   6   7
ATOM      7  C   UNL     1      11.389  53.313  -1.326  1.00  0.00     0.000 C 
BRANCH   7   8
ATOM      8  C   UNL     1      10.444  54.443  -0.866  1.00  0.00     0.000 C 
BRANCH   8   9
ATOM      9  C   UNL     1      11.096  55.445   0.111  1.00  0.00     0.000 C 
BRANCH   9  10
ATOM     10  C   UNL     1      10.162  55.837   1.266  1.00  0.00     0.000 C 
BRANCH  10  11
ATOM     11  C   UNL     1       9.039  54.805   1.432  1.00  0.00     0.000 C 
BRANCH  11  12
ATOM     12  C   UNL     1       9.008  54.236   2.859  1.00  0.00     0.006 C 
BRANCH  12  13
ATOM     13  C   UNL     1      10.394  53.773   3.331  1.00  0.00     0.053 C 
BRANCH  13  14
ATOM     14  C   UNL     1      10.782  52.462   2.717  1.00  0.00     0.041 C 
ATOM     15  O   UNL     1      11.860  52.359   2.073  1.00  0.00    -0.550 OA
ATOM     16  O   UNL     1       9.975  51.346   2.893  1.00  0.00    -0.550 OA
ENDBRANCH  13  14
ENDBRANCH  12  13
ENDBRANCH  11  12
ENDBRANCH  10  11
ENDBRANCH   9  10
ENDBRANCH   8   9
ENDBRANCH   7   8
ENDBRANCH   6   7
ENDBRANCH   5   6
ENDBRANCH   4   5
ENDBRANCH   3   4
ENDBRANCH   2   3
ENDBRANCH   1   2
BRANCH   1  17
ATOM     17  C   UNL     1       3.489  52.806  -2.525  1.00  0.00     0.000 C 
BRANCH  17  18
ATOM     18  C   UNL     1       2.646  53.657  -1.562  1.00  0.00     0.000 C 
BRANCH  18  19
ATOM     19  C   UNL     1       1.934  52.809  -0.494  1.00  0.00     0.000 C 
BRANCH  19  20
ATOM     20  C   UNL     1       2.155  51.288  -0.619  1.00  0.00     0.000 C 
BRANCH  20  21
ATOM     21  C   UNL     1       2.899  50.654   0.576  1.00  0.00     0.000 C 
BRANCH  21  22
ATOM     22  C   UNL     1       3.561  51.688   1.506  1.00  0.00    -0.000 C 
BRANCH  22  23
ATOM     23  C   UNL     1       5.081  51.785   1.292  1.00  0.00    -0.000 C 
BRANCH  23  24
ATOM     24  C   UNL     1       5.580  53.241   1.247  1.00  0.00    -0.000 C 
BRANCH  24  25
ATOM     25  C   UNL     1       4.501  54.256   1.665  1.00  0.00    -0.000 C 
BRANCH  25  26
ATOM     26  C   UNL     1       4.516  55.585   0.879  1.00  0.00    -0.000 C 
BRANCH  26  27
ATOM     27  C   UNL     1       5.914  56.194   0.649  1.00  0.00    -0.000 C 
BRANCH  27  28
ATOM     28  C   UNL     1       6.361  56.261  -0.827  1.00  0.00    -0.000 C 
BRANCH  28  29
ATOM     29  C   UNL     1       7.234  57.475  -1.182  1.00  0.00    -0.003 C 
ATOM     30  C   UNL     1       8.431  57.113  -2.062  1.00  0.00     0.004 C 
ENDBRANCH  28  29
ENDBRANCH  27  28
ENDBRANCH  26  27
ENDBRANCH  25  26
ENDBRANCH  24  25
ENDBRANCH  23  24
ENDBRANCH  22  23
ENDBRANCH  21  22
ENDBRANCH  20  21
ENDBRANCH  19  20
ENDBRANCH  18  19
ENDBRANCH  17  18
ENDBRANCH   1  17
TORSDOF 26
ENDMDL
MODEL 8
REMARK VINA RESULT:    -4.191      2.061      4.822
REMARK INTER + INTRA:         -15.973
REMARK INTER:                 -10.406
REMARK INTRA:                  -5.567
REMARK UNBOUND:                -5.412
REMARK SMILES CCCCCCCCCCCCCCCCCCCCCCCCCCCC(=O)[O-]
REMARK SMILES IDX 15 1 16 2 17 3 18 4 19 5 20 6 21 7 22 8 23 9 24 10 25 11
REMARK SMILES IDX 26 12 27 13 28 14 29 15 30 16 14 17 13 18 12 19 11 20 10 21
REMARK SMILES IDX 9 22 8 23 7 24 6 25 5 26 4 27 3 28 2 29 1 30
REMARK H PARENT
REMARK Flexibility Score: inf
ROOT
ATOM      1  C   UNL     1       4.517  52.400   1.476  1.00  0.00     0.000 C 
ENDROOT
BRANCH   1   2
ATOM      2  C   UNL     1       3.743  51.114   1.117  1.00  0.00     0.000 C 
BRANCH   2   3
ATOM      3  C   UNL     1       2.409  51.336   0.367  1.00  0.00     0.000 C 
BRANCH   3   4
ATOM      4  C   UNL     1       2.318  50.620  -0.993  1.00  0.00     0.000 C 
BRANCH   4   5
ATOM      5  C   UNL     1       2.030  51.592  -2.155  1.00  0.00     0.000 C 
BRANCH   5   6
ATOM      6  C   UNL     1       3.259  52.441  -2.527  1.00  0.00     0.000 C 
BRANCH   6   7
ATOM      7  C   UNL     1       4.147  51.806  -3.615  1.00  0.00     0.000 C 
BRANCH   7   8
ATOM      8  C   UNL     1       5.656  51.769  -3.294  1.00  0.00     0.000 C 
BRANCH   8   9
ATOM      9  C   UNL     1       5.998  52.168  -1.843  1.00  0.00     0.000 C 
BRANCH   9  10
ATOM     10  C   UNL     1       7.429  52.709  -1.700  1.00  0.00     0.000 C 
BRANCH  10  11
ATOM     11  C   UNL     1       7.510  54.164  -2.176  1.00  0.00     0.000 C 
BRANCH  11  12
ATOM     12  C   UNL     1       6.299  54.979  -1.696  1.00  0.00     0.006 C 
BRANCH  12  13
ATOM     13  C   UNL     1       6.364  56.443  -2.155  1.00  0.00     0.053 C 
BRANCH  13  14
ATOM     14  C   UNL     1       5.940  57.387  -1.070  1.00  0.00     0.041 C 
ATOM     15  O   UNL     1       4.717  57.620  -0.874  1.00  0.00    -0.550 OA
ATOM     16  O   UNL     1       6.893  57.973  -0.248  1.00  0.00    -0.550 OA
ENDBRANCH  13  14
ENDBRANCH  12  13
ENDBRANCH  11  12
ENDBRANCH  10  11
ENDBRANCH   9  10
ENDBRANCH   8   9
ENDBRANCH   7   8
ENDBRANCH   6   7
ENDBRANCH   5   6
ENDBRANCH   4   5
ENDBRANCH   3   4
ENDBRANCH   2   3
ENDBRANCH   1   2
BRANCH   1  17
ATOM     17  C   UNL     1       3.790  53.678   1.032  1.00  0.00     0.000 C 
BRANCH  17  18
ATOM     18  C   UNL     1       4.561  54.932   1.474  1.00  0.00     0.000 C 
BRANCH  18  19
ATOM     19  C   UNL     1       6.011  54.621   1.881  1.00  0.00     0.000 C 
BRANCH  19  20
ATOM     20  C   UNL     1       6.800  55.820   2.443  1.00  0.00     0.000 C 
BRANCH  20  21
ATOM     21  C   UNL     1       8.334  55.656   2.385  1.00  0.00     0.000 C 
BRANCH  21  22
ATOM     22  C   UNL     1       8.860  55.291   0.985  1.00  0.00    -0.000 C 
BRANCH  22  23
ATOM     23  C   UNL     1      10.388  55.117   0.956  1.00  0.00    -0.000 C 
BRANCH  23  24
ATOM     24  C   UNL     1      10.945  55.013  -0.475  1.00  0.00    -0.000 C 
BRANCH  24  25
ATOM     25  C   UNL     1      10.987  53.564  -0.996  1.00  0.00    -0.000 C 
BRANCH  25  26
ATOM     26  C   UNL     1      11.389  52.505   0.052  1.00  0.00    -0.000 C 
BRANCH  26  27
ATOM     27  C   UNL     1      10.281  51.500   0.426  1.00  0.00    -0.000 C 
BRANCH  27  28
ATOM     28  C   UNL     1       9.816  51.560   1.895  1.00  0.00    -0.000 C 
BRANCH  28  29
ATOM     29  C   UNL     1       8.330  51.907   2.088  1.00  0.00    -0.003 C 
ATOM     30  C   UNL     1       7.856  51.724   3.530  1.00  0.00     0.004 C 
ENDBRANCH  28  29
ENDBRANCH  27  28
ENDBRANCH  26  27
ENDBRANCH  25  26
ENDBRANCH  24  25
ENDBRANCH  23  24
ENDBRANCH  22  23
ENDBRANCH  21  22
ENDBRANCH  20  21
ENDBRANCH  19  20
ENDBRANCH  18  19
ENDBRANCH  17  18
ENDBRANCH   1  17
TORSDOF 26
ENDMDL
MODEL 9
REMARK VINA RESULT:    -4.186      2.669      6.207
REMARK INTER + INTRA:         -15.961
REMARK INTER:                 -11.007
REMARK INTRA:                  -4.954
REMARK UNBOUND:                -5.412
REMARK SMILES CCCCCCCCCCCCCCCCCCCCCCCCCCCC(=O)[O-]
REMARK SMILES IDX 15 1 16 2 17 3 18 4 19 5 20 6 21 7 22 8 23 9 24 10 25 11
REMARK SMILES IDX 26 12 27 13 28 14 29 15 30 16 14 17 13 18 12 19 11 20 10 21
REMARK SMILES IDX 9 22 8 23 7 24 6 25 5 26 4 27 3 28 2 29 1 30
REMARK H PARENT
REMARK Flexibility Score: inf
ROOT
ATOM      1  C   UNL     1       3.282  50.736   1.557  1.00  0.00     0.000 C 
ENDROOT
BRANCH   1   2
ATOM      2  C   UNL     1       4.126  51.972   1.181  1.00  0.00     0.000 C 
BRANCH   2   3
ATOM      3  C   UNL     1       5.637  51.858   1.494  1.00  0.00     0.000 C 
BRANCH   3   4
ATOM      4  C   UNL     1       6.383  53.204   1.522  1.00  0.00     0.000 C 
BRANCH   4   5
ATOM      5  C   UNL     1       7.650  53.159   2.400  1.00  0.00     0.000 C 
BRANCH   5   6
ATOM      6  C   UNL     1       7.663  51.948   3.349  1.00  0.00     0.000 C 
BRANCH   6   7
ATOM      7  C   UNL     1       9.006  51.193   3.375  1.00  0.00     0.000 C 
BRANCH   7   8
ATOM      8  C   UNL     1      10.068  51.703   2.378  1.00  0.00     0.000 C 
BRANCH   8   9
ATOM      9  C   UNL     1      10.205  50.833   1.111  1.00  0.00     0.000 C 
BRANCH   9  10
ATOM     10  C   UNL     1       9.913  51.616  -0.178  1.00  0.00     0.000 C 
BRANCH  10  11
ATOM     11  C   UNL     1      11.038  52.617  -0.472  1.00  0.00     0.000 C 
BRANCH  11  12
ATOM     12  C   UNL     1      10.489  53.907  -1.102  1.00  0.00     0.006 C 
BRANCH  12  13
ATOM     13  C   UNL     1      10.961  55.164  -0.356  1.00  0.00     0.053 C 
BRANCH  13  14
ATOM     14  C   UNL     1      10.107  55.455   0.841  1.00  0.00     0.041 C 
ATOM     15  O   UNL     1       8.937  55.900   0.692  1.00  0.00    -0.550 OA
ATOM     16  O   UNL     1      10.587  55.193   2.117  1.00  0.00    -0.550 OA
ENDBRANCH  13  14
ENDBRANCH  12  13
ENDBRANCH  11  12
ENDBRANCH  10  11
ENDBRANCH   9  10
ENDBRANCH   8   9
ENDBRANCH   7   8
ENDBRANCH   6   7
ENDBRANCH   5   6
ENDBRANCH   4   5
ENDBRANCH   3   4
ENDBRANCH   2   3
ENDBRANCH   1   2
BRANCH   1  17
ATOM     17  C   UNL     1       2.246  50.371   0.483  1.00  0.00     0.000 C 
BRANCH  17  18
ATOM     18  C   UNL     1       2.043  51.532  -0.504  1.00  0.00     0.000 C 
BRANCH  18  19
ATOM     19  C   UNL     1       2.177  51.090  -1.971  1.00  0.00     0.000 C 
BRANCH  19  20
ATOM     20  C   UNL     1       2.910  52.090  -2.887  1.00  0.00     0.000 C 
BRANCH  20  21
ATOM     21  C   UNL     1       3.847  51.434  -3.923  1.00  0.00     0.000 C 
BRANCH  21  22
ATOM     22  C   UNL     1       5.331  51.797  -3.727  1.00  0.00    -0.000 C 
BRANCH  22  23
ATOM     23  C   UNL     1       5.678  52.081  -2.255  1.00  0.00    -0.000 C 
BRANCH  23  24
ATOM     24  C   UNL     1       7.001  52.851  -2.097  1.00  0.00    -0.000 C 
BRANCH  24  25
ATOM     25  C   UNL     1       7.121  54.040  -3.067  1.00  0.00    -0.000 C 
BRANCH  25  26
ATOM     26  C   UNL     1       7.323  55.414  -2.394  1.00  0.00    -0.000 C 
BRANCH  26  27
ATOM     27  C   UNL     1       6.027  56.195  -2.097  1.00  0.00    -0.000 C 
BRANCH  27  28
ATOM     28  C   UNL     1       4.784  55.714  -2.875  1.00  0.00    -0.000 C 
BRANCH  28  29
ATOM     29  C   UNL     1       3.491  55.643  -2.045  1.00  0.00    -0.003 C 
ATOM     30  C   UNL     1       3.698  55.005  -0.671  1.00  0.00     0.004 C 
ENDBRANCH  28  29
ENDBRANCH  27  28
ENDBRANCH  26  27
ENDBRANCH  25  26
ENDBRANCH  24  25
ENDBRANCH  23  24
ENDBRANCH  22  23
ENDBRANCH  21  22
ENDBRANCH  20  21
ENDBRANCH  19  20
ENDBRANCH  18  19
ENDBRANCH  17  18
ENDBRANCH   1  17
TORSDOF 26
ENDMDL
