MODEL 1
REMARK VINA RESULT:     6.417      0.000      0.000
REMARK INTER + INTRA:          17.310
REMARK INTER:                  12.419
REMARK INTRA:                   4.891
REMARK UNBOUND:                 4.891
REMARK SMILES CCCCCCCCCCCCCCCCCC(=O)[O-]
REMARK SMILES IDX 10 1 11 2 12 3 13 4 14 5 15 6 16 7 17 8 18 9 19 10 20 11
REMARK SMILES IDX 9 12 8 13 7 14 6 15 5 16 4 17 3 18 2 19 1 20
REMARK H PARENT
REMARK Flexibility Score: inf
ROOT
ATOM      1  C   UNL     1      88.068  82.585  18.770  1.00  0.00     0.000 C 
ENDROOT
BRANCH   1   2
ATOM      2  C   UNL     1      88.378  81.218  18.142  1.00  0.00     0.000 C 
BRANCH   2   3
ATOM      3  C   UNL     1      89.812  81.126  17.593  1.00  0.00     0.000 C 
BRANCH   3   4
ATOM      4  C   UNL     1      90.870  81.520  18.638  1.00  0.00     0.000 C 
BRANCH   4   5
ATOM      5  C   UNL     1      90.291  82.360  19.792  1.00  0.00     0.000 C 
BRANCH   5   6
ATOM      6  C   UNL     1      89.659  83.701  19.374  1.00  0.00     0.000 C 
BRANCH   6   7
ATOM      7  C   UNL     1      90.701  84.744  18.936  1.00  0.00     0.006 C 
BRANCH   7   8
ATOM      8  C   UNL     1      90.139  85.723  17.896  1.00  0.00     0.053 C 
BRANCH   8   9
ATOM      9  C   UNL     1      91.223  86.510  17.226  1.00  0.00     0.041 C 
ATOM     10  O   UNL     1      91.170  86.731  15.986  1.00  0.00    -0.550 OA
ATOM     11  O   UNL     1      92.275  87.023  17.972  1.00  0.00    -0.550 OA
ENDBRANCH   8   9
ENDBRANCH   7   8
ENDBRANCH   6   7
ENDBRANCH   5   6
ENDBRANCH   4   5
ENDBRANCH   3   4
ENDBRANCH   2   3
ENDBRANCH   1   2
BRANCH   1  12
ATOM     12  C   UNL     1      87.004  82.452  19.869  1.00  0.00     0.000 C 
BRANCH  12  13
ATOM     13  C   UNL     1      86.425  81.030  19.968  1.00  0.00    -0.000 C 
BRANCH  13  14
ATOM     14  C   UNL     1      85.102  80.878  19.198  1.00  0.00    -0.000 C 
BRANCH  14  15
ATOM     15  C   UNL     1      83.865  80.983  20.110  1.00  0.00    -0.000 C 
BRANCH  15  16
ATOM     16  C   UNL     1      82.923  82.165  19.806  1.00  0.00    -0.000 C 
BRANCH  16  17
ATOM     17  C   UNL     1      83.410  83.123  18.704  1.00  0.00    -0.000 C 
BRANCH  17  18
ATOM     18  C   UNL     1      82.912  82.729  17.306  1.00  0.00    -0.000 C 
BRANCH  18  19
ATOM     19  C   UNL     1      83.159  81.241  17.034  1.00  0.00    -0.003 C 
ATOM     20  C   UNL     1      83.194  80.953  15.536  1.00  0.00     0.004 C 
ENDBRANCH  18  19
ENDBRANCH  17  18
ENDBRANCH  16  17
ENDBRANCH  15  16
ENDBRANCH  14  15
ENDBRANCH  13  14
ENDBRANCH  12  13
ENDBRANCH   1  12
TORSDOF 16
ENDMDL
MODEL 2
REMARK VINA RESULT:     7.098      1.192      2.218
REMARK INTER + INTRA:          18.629
REMARK INTER:                  17.174
REMARK INTRA:                   1.455
REMARK UNBOUND:                 4.891
REMARK SMILES CCCCCCCCCCCCCCCCCC(=O)[O-]
REMARK SMILES IDX 10 1 11 2 12 3 13 4 14 5 15 6 16 7 17 8 18 9 19 10 20 11
REMARK SMILES IDX 9 12 8 13 7 14 6 15 5 16 4 17 3 18 2 19 1 20
REMARK H PARENT
REMARK Flexibility Score: inf
ROOT
ATOM      1  C   UNL     1      88.628  82.066  19.422  1.00  0.00     0.000 C 
ENDROOT
BRANCH   1   2
ATOM      2  C   UNL     1      89.437  81.188  18.455  1.00  0.00     0.000 C 
BRANCH   2   3
ATOM      3  C   UNL     1      90.936  81.530  18.453  1.00  0.00     0.000 C 
BRANCH   3   4
ATOM      4  C   UNL     1      91.244  82.835  19.208  1.00  0.00     0.000 C 
BRANCH   4   5
ATOM      5  C   UNL     1      89.988  83.683  19.478  1.00  0.00     0.000 C 
BRANCH   5   6
ATOM      6  C   UNL     1      90.010  85.099  18.873  1.00  0.00     0.000 C 
BRANCH   6   7
ATOM      7  C   UNL     1      91.185  85.320  17.906  1.00  0.00     0.006 C 
BRANCH   7   8
ATOM      8  C   UNL     1      91.666  86.778  17.902  1.00  0.00     0.053 C 
BRANCH   8   9
ATOM      9  C   UNL     1      91.612  87.380  16.532  1.00  0.00     0.041 C 
ATOM     10  O   UNL     1      90.538  87.880  16.102  1.00  0.00    -0.550 OA
ATOM     11  O   UNL     1      92.752  87.417  15.741  1.00  0.00    -0.550 OA
ENDBRANCH   8   9
ENDBRANCH   7   8
ENDBRANCH   6   7
ENDBRANCH   5   6
ENDBRANCH   4   5
ENDBRANCH   3   4
ENDBRANCH   2   3
ENDBRANCH   1   2
BRANCH   1  12
ATOM     12  C   UNL     1      87.531  81.246  20.117  1.00  0.00     0.000 C 
BRANCH  12  13
ATOM     13  C   UNL     1      86.353  80.917  19.185  1.00  0.00    -0.000 C 
BRANCH  13  14
ATOM     14  C   UNL     1      86.406  81.706  17.866  1.00  0.00    -0.000 C 
BRANCH  14  15
ATOM     15  C   UNL     1      85.513  81.097  16.769  1.00  0.00    -0.000 C 
BRANCH  15  16
ATOM     16  C   UNL     1      84.054  81.598  16.757  1.00  0.00    -0.000 C 
BRANCH  16  17
ATOM     17  C   UNL     1      83.113  80.897  17.753  1.00  0.00    -0.000 C 
BRANCH  17  18
ATOM     18  C   UNL     1      83.016  81.629  19.100  1.00  0.00    -0.000 C 
BRANCH  18  19
ATOM     19  C   UNL     1      82.876  83.141  18.894  1.00  0.00    -0.003 C 
ATOM     20  C   UNL     1      84.061  83.892  19.495  1.00  0.00     0.004 C 
ENDBRANCH  18  19
ENDBRANCH  17  18
ENDBRANCH  16  17
ENDBRANCH  15  16
ENDBRANCH  14  15
ENDBRANCH  13  14
ENDBRANCH  12  13
ENDBRANCH   1  12
TORSDOF 16
ENDMDL
MODEL 3
REMARK VINA RESULT:     8.357     17.512     20.789
REMARK INTER + INTRA:          21.065
REMARK INTER:                  20.148
REMARK INTRA:                   0.917
REMARK UNBOUND:                 4.891
REMARK SMILES CCCCCCCCCCCCCCCCCC(=O)[O-]
REMARK SMILES IDX 10 1 11 2 12 3 13 4 14 5 15 6 16 7 17 8 18 9 19 10 20 11
REMARK SMILES IDX 9 12 8 13 7 14 6 15 5 16 4 17 3 18 2 19 1 20
REMARK H PARENT
REMARK Flexibility Score: inf
ROOT
ATOM      1  C   UNL     1     100.248 100.309  10.419  1.00  0.00     0.000 C 
ENDROOT
BRANCH   1   2
ATOM      2  C   UNL     1     101.598 100.069   9.726  1.00  0.00     0.000 C 
BRANCH   2   3
ATOM      3  C   UNL     1     102.299  98.792  10.216  1.00  0.00     0.000 C 
BRANCH   3   4
ATOM      4  C   UNL     1     101.326  97.614  10.390  1.00  0.00     0.000 C 
BRANCH   4   5
ATOM      5  C   UNL     1     102.035  96.246  10.403  1.00  0.00     0.000 C 
BRANCH   5   6
ATOM      6  C   UNL     1     101.101  95.023  10.390  1.00  0.00     0.000 C 
BRANCH   6   7
ATOM      7  C   UNL     1      99.626  95.391  10.618  1.00  0.00     0.006 C 
BRANCH   7   8
ATOM      8  C   UNL     1      98.879  94.319  11.423  1.00  0.00     0.053 C 
BRANCH   8   9
ATOM      9  C   UNL     1      98.437  94.830  12.760  1.00  0.00     0.041 C 
ATOM     10  O   UNL     1      97.991  96.003  12.874  1.00  0.00    -0.550 OA
ATOM     11  O   UNL     1      98.491  94.004  13.874  1.00  0.00    -0.550 OA
ENDBRANCH   8   9
ENDBRANCH   7   8
ENDBRANCH   6   7
ENDBRANCH   5   6
ENDBRANCH   4   5
ENDBRANCH   3   4
ENDBRANCH   2   3
ENDBRANCH   1   2
BRANCH   1  12
ATOM     12  C   UNL     1      99.664  98.990  10.948  1.00  0.00     0.000 C 
BRANCH  12  13
ATOM     13  C   UNL     1      98.156  98.855  10.677  1.00  0.00    -0.000 C 
BRANCH  13  14
ATOM     14  C   UNL     1      97.738  99.488   9.339  1.00  0.00    -0.000 C 
BRANCH  14  15
ATOM     15  C   UNL     1      96.221  99.735   9.244  1.00  0.00    -0.000 C 
BRANCH  15  16
ATOM     16  C   UNL     1      95.562  99.278   7.927  1.00  0.00    -0.000 C 
BRANCH  16  17
ATOM     17  C   UNL     1      94.062  98.947   8.026  1.00  0.00    -0.000 C 
BRANCH  17  18
ATOM     18  C   UNL     1      93.305  99.203   6.715  1.00  0.00    -0.000 C 
BRANCH  18  19
ATOM     19  C   UNL     1      92.042 100.035   6.962  1.00  0.00    -0.003 C 
ATOM     20  C   UNL     1      91.842 101.073   5.862  1.00  0.00     0.004 C 
ENDBRANCH  18  19
ENDBRANCH  17  18
ENDBRANCH  16  17
ENDBRANCH  15  16
ENDBRANCH  14  15
ENDBRANCH  13  14
ENDBRANCH  12  13
ENDBRANCH   1  12
TORSDOF 16
ENDMDL
MODEL 4
REMARK VINA RESULT:     8.929     18.308     20.686
REMARK INTER + INTRA:          22.172
REMARK INTER:                  22.542
REMARK INTRA:                  -0.371
REMARK UNBOUND:                 4.891
REMARK SMILES CCCCCCCCCCCCCCCCCC(=O)[O-]
REMARK SMILES IDX 10 1 11 2 12 3 13 4 14 5 15 6 16 7 17 8 18 9 19 10 20 11
REMARK SMILES IDX 9 12 8 13 7 14 6 15 5 16 4 17 3 18 2 19 1 20
REMARK H PARENT
REMARK Flexibility Score: inf
ROOT
ATOM      1  C   UNL     1      98.859  99.281  10.971  1.00  0.00     0.000 C 
ENDROOT
BRANCH   1   2
ATOM      2  C   UNL     1      99.967 100.222  10.474  1.00  0.00     0.000 C 
BRANCH   2   3
ATOM      3  C   UNL     1     101.372  99.757  10.890  1.00  0.00     0.000 C 
BRANCH   3   4
ATOM      4  C   UNL     1     101.924  98.651   9.973  1.00  0.00     0.000 C 
BRANCH   4   5
ATOM      5  C   UNL     1     101.917  97.262  10.639  1.00  0.00     0.000 C 
BRANCH   5   6
ATOM      6  C   UNL     1     100.750  96.345  10.231  1.00  0.00     0.000 C 
BRANCH   6   7
ATOM      7  C   UNL     1     101.063  94.852  10.428  1.00  0.00     0.006 C 
BRANCH   7   8
ATOM      8  C   UNL     1      99.894  94.096  11.074  1.00  0.00     0.053 C 
BRANCH   8   9
ATOM      9  C   UNL     1      98.805  95.024  11.517  1.00  0.00     0.041 C 
ATOM     10  O   UNL     1      98.231  95.772  10.681  1.00  0.00    -0.550 OA
ATOM     11  O   UNL     1      98.403  95.043  12.846  1.00  0.00    -0.550 OA
ENDBRANCH   8   9
ENDBRANCH   7   8
ENDBRANCH   6   7
ENDBRANCH   5   6
ENDBRANCH   4   5
ENDBRANCH   3   4
ENDBRANCH   2   3
ENDBRANCH   1   2
BRANCH   1  12
ATOM     12  C   UNL     1      98.148  99.874  12.196  1.00  0.00     0.000 C 
BRANCH  12  13
ATOM     13  C   UNL     1      96.651  99.524  12.243  1.00  0.00    -0.000 C 
BRANCH  13  14
ATOM     14  C   UNL     1      95.757 100.694  11.797  1.00  0.00    -0.000 C 
BRANCH  14  15
ATOM     15  C   UNL     1      94.826 100.321  10.629  1.00  0.00    -0.000 C 
BRANCH  15  16
ATOM     16  C   UNL     1      95.509 100.221   9.249  1.00  0.00    -0.000 C 
BRANCH  16  17
ATOM     17  C   UNL     1      94.924  99.155   8.306  1.00  0.00    -0.000 C 
BRANCH  17  18
ATOM     18  C   UNL     1      93.421  99.342   8.051  1.00  0.00    -0.000 C 
BRANCH  18  19
ATOM     19  C   UNL     1      93.133  99.494   6.554  1.00  0.00    -0.003 C 
ATOM     20  C   UNL     1      91.853 100.291   6.317  1.00  0.00     0.004 C 
ENDBRANCH  18  19
ENDBRANCH  17  18
ENDBRANCH  16  17
ENDBRANCH  15  16
ENDBRANCH  14  15
ENDBRANCH  13  14
ENDBRANCH  12  13
ENDBRANCH   1  12
TORSDOF 16
ENDMDL
MODEL 5
REMARK VINA RESULT:     9.201      3.313      8.096
REMARK INTER + INTRA:          22.699
REMARK INTER:                  23.088
REMARK INTRA:                  -0.389
REMARK UNBOUND:                 4.891
REMARK SMILES CCCCCCCCCCCCCCCCCC(=O)[O-]
REMARK SMILES IDX 10 1 11 2 12 3 13 4 14 5 15 6 16 7 17 8 18 9 19 10 20 11
REMARK SMILES IDX 9 12 8 13 7 14 6 15 5 16 4 17 3 18 2 19 1 20
REMARK H PARENT
REMARK Flexibility Score: inf
ROOT
ATOM      1  C   UNL     1      88.064  81.977  19.322  1.00  0.00     0.000 C 
ENDROOT
BRANCH   1   2
ATOM      2  C   UNL     1      86.749  81.746  20.083  1.00  0.00     0.000 C 
BRANCH   2   3
ATOM      3  C   UNL     1      85.789  82.944  19.988  1.00  0.00     0.000 C 
BRANCH   3   4
ATOM      4  C   UNL     1      84.649  82.708  18.983  1.00  0.00     0.000 C 
BRANCH   4   5
ATOM      5  C   UNL     1      83.619  81.673  19.476  1.00  0.00     0.000 C 
BRANCH   5   6
ATOM      6  C   UNL     1      82.881  80.904  18.366  1.00  0.00     0.000 C 
BRANCH   6   7
ATOM      7  C   UNL     1      83.655  80.877  17.037  1.00  0.00     0.006 C 
BRANCH   7   8
ATOM      8  C   UNL     1      82.911  81.618  15.918  1.00  0.00     0.053 C 
BRANCH   8   9
ATOM      9  C   UNL     1      83.563  81.417  14.584  1.00  0.00     0.041 C 
ATOM     10  O   UNL     1      82.886  81.003  13.605  1.00  0.00    -0.550 OA
ATOM     11  O   UNL     1      84.909  81.712  14.415  1.00  0.00    -0.550 OA
ENDBRANCH   8   9
ENDBRANCH   7   8
ENDBRANCH   6   7
ENDBRANCH   5   6
ENDBRANCH   4   5
ENDBRANCH   3   4
ENDBRANCH   2   3
ENDBRANCH   1   2
BRANCH   1  12
ATOM     12  C   UNL     1      89.240  81.308  20.050  1.00  0.00     0.000 C 
BRANCH  12  13
ATOM     13  C   UNL     1      90.605  81.698  19.460  1.00  0.00    -0.000 C 
BRANCH  13  14
ATOM     14  C   UNL     1      90.475  82.535  18.176  1.00  0.00    -0.000 C 
BRANCH  14  15
ATOM     15  C   UNL     1      90.119  84.007  18.456  1.00  0.00    -0.000 C 
BRANCH  15  16
ATOM     16  C   UNL     1      91.237  84.838  19.118  1.00  0.00    -0.000 C 
BRANCH  16  17
ATOM     17  C   UNL     1      91.863  85.923  18.223  1.00  0.00    -0.000 C 
BRANCH  17  18
ATOM     18  C   UNL     1      92.904  86.778  18.960  1.00  0.00    -0.000 C 
BRANCH  18  19
ATOM     19  C   UNL     1      92.882  88.225  18.455  1.00  0.00    -0.003 C 
ATOM     20  C   UNL     1      92.676  89.207  19.605  1.00  0.00     0.004 C 
ENDBRANCH  18  19
ENDBRANCH  17  18
ENDBRANCH  16  17
ENDBRANCH  15  16
ENDBRANCH  14  15
ENDBRANCH  13  14
ENDBRANCH  12  13
ENDBRANCH   1  12
TORSDOF 16
ENDMDL
MODEL 6
REMARK VINA RESULT:     9.289     16.864     20.202
REMARK INTER + INTRA:          22.868
REMARK INTER:                  24.191
REMARK INTRA:                  -1.323
REMARK UNBOUND:                 4.891
REMARK SMILES CCCCCCCCCCCCCCCCCC(=O)[O-]
REMARK SMILES IDX 10 1 11 2 12 3 13 4 14 5 15 6 16 7 17 8 18 9 19 10 20 11
REMARK SMILES IDX 9 12 8 13 7 14 6 15 5 16 4 17 3 18 2 19 1 20
REMARK H PARENT
REMARK Flexibility Score: inf
ROOT
ATOM      1  C   UNL     1     101.031  94.939  10.396  1.00  0.00     0.000 C 
ENDROOT
BRANCH   1   2
ATOM      2  C   UNL     1      99.867  94.190  11.063  1.00  0.00     0.000 C 
BRANCH   2   3
ATOM      3  C   UNL     1      98.632  95.080  11.276  1.00  0.00     0.000 C 
BRANCH   3   4
ATOM      4  C   UNL     1      98.287  95.266  12.764  1.00  0.00     0.000 C 
BRANCH   4   5
ATOM      5  C   UNL     1      98.673  94.048  13.625  1.00  0.00     0.000 C 
BRANCH   5   6
ATOM      6  C   UNL     1      98.598  94.271  15.147  1.00  0.00     0.000 C 
BRANCH   6   7
ATOM      7  C   UNL     1      99.383  95.510  15.611  1.00  0.00     0.006 C 
BRANCH   7   8
ATOM      8  C   UNL     1      99.584  95.532  17.132  1.00  0.00     0.053 C 
BRANCH   8   9
ATOM      9  C   UNL     1      99.860  96.914  17.640  1.00  0.00     0.041 C 
ATOM     10  O   UNL     1      98.906  97.674  17.956  1.00  0.00    -0.550 OA
ATOM     11  O   UNL     1     101.168  97.352  17.792  1.00  0.00    -0.550 OA
ENDBRANCH   8   9
ENDBRANCH   7   8
ENDBRANCH   6   7
ENDBRANCH   5   6
ENDBRANCH   4   5
ENDBRANCH   3   4
ENDBRANCH   2   3
ENDBRANCH   1   2
BRANCH   1  12
ATOM     12  C   UNL     1     100.729  96.442  10.299  1.00  0.00     0.000 C 
BRANCH  12  13
ATOM     13  C   UNL     1     101.918  97.318  10.728  1.00  0.00    -0.000 C 
BRANCH  13  14
ATOM     14  C   UNL     1     102.058  98.585   9.867  1.00  0.00    -0.000 C 
BRANCH  14  15
ATOM     15  C   UNL     1     101.723  99.872  10.642  1.00  0.00    -0.000 C 
BRANCH  15  16
ATOM     16  C   UNL     1     100.292 100.410  10.437  1.00  0.00    -0.000 C 
BRANCH  16  17
ATOM     17  C   UNL     1      99.168  99.473  10.914  1.00  0.00    -0.000 C 
BRANCH  17  18
ATOM     18  C   UNL     1      98.517  99.940  12.224  1.00  0.00    -0.000 C 
BRANCH  18  19
ATOM     19  C   UNL     1      97.145  99.285  12.420  1.00  0.00    -0.003 C 
ATOM     20  C   UNL     1      97.007  98.705  13.825  1.00  0.00     0.004 C 
ENDBRANCH  18  19
ENDBRANCH  17  18
ENDBRANCH  16  17
ENDBRANCH  15  16
ENDBRANCH  14  15
ENDBRANCH  13  14
ENDBRANCH  12  13
ENDBRANCH   1  12
TORSDOF 16
ENDMDL
MODEL 7
REMARK VINA RESULT:     9.347     14.590     19.974
REMARK INTER + INTRA:          22.982
REMARK INTER:                  23.648
REMARK INTRA:                  -0.666
REMARK UNBOUND:                 4.891
REMARK SMILES CCCCCCCCCCCCCCCCCC(=O)[O-]
REMARK SMILES IDX 10 1 11 2 12 3 13 4 14 5 15 6 16 7 17 8 18 9 19 10 20 11
REMARK SMILES IDX 9 12 8 13 7 14 6 15 5 16 4 17 3 18 2 19 1 20
REMARK H PARENT
REMARK Flexibility Score: inf
ROOT
ATOM      1  C   UNL     1     101.044  97.184  10.330  1.00  0.00     0.000 C 
ENDROOT
BRANCH   1   2
ATOM      2  C   UNL     1     101.992  98.331  10.708  1.00  0.00     0.000 C 
BRANCH   2   3
ATOM      3  C   UNL     1     102.241  99.305   9.544  1.00  0.00     0.000 C 
BRANCH   3   4
ATOM      4  C   UNL     1     101.986 100.771   9.936  1.00  0.00     0.000 C 
BRANCH   4   5
ATOM      5  C   UNL     1     100.494 101.079  10.166  1.00  0.00     0.000 C 
BRANCH   5   6
ATOM      6  C   UNL     1      99.821 100.262  11.284  1.00  0.00     0.000 C 
BRANCH   6   7
ATOM      7  C   UNL     1      98.590  99.479  10.796  1.00  0.00     0.006 C 
BRANCH   7   8
ATOM      8  C   UNL     1      98.164  98.391  11.791  1.00  0.00     0.053 C 
BRANCH   8   9
ATOM      9  C   UNL     1      97.237  98.926  12.839  1.00  0.00     0.041 C 
ATOM     10  O   UNL     1      96.609 100.001  12.641  1.00  0.00    -0.550 OA
ATOM     11  O   UNL     1      97.043  98.225  14.022  1.00  0.00    -0.550 OA
ENDBRANCH   8   9
ENDBRANCH   7   8
ENDBRANCH   6   7
ENDBRANCH   5   6
ENDBRANCH   4   5
ENDBRANCH   3   4
ENDBRANCH   2   3
ENDBRANCH   1   2
BRANCH   1  12
ATOM     12  C   UNL     1     101.778  95.835  10.366  1.00  0.00     0.000 C 
BRANCH  12  13
ATOM     13  C   UNL     1     100.817  94.635  10.427  1.00  0.00    -0.000 C 
BRANCH  13  14
ATOM     14  C   UNL     1      99.358  95.060  10.663  1.00  0.00    -0.000 C 
BRANCH  14  15
ATOM     15  C   UNL     1      98.653  94.205  11.732  1.00  0.00    -0.000 C 
BRANCH  15  16
ATOM     16  C   UNL     1      98.195  94.971  12.990  1.00  0.00    -0.000 C 
BRANCH  16  17
ATOM     17  C   UNL     1      98.531  94.291  14.329  1.00  0.00    -0.000 C 
BRANCH  17  18
ATOM     18  C   UNL     1      98.397  92.762  14.273  1.00  0.00    -0.000 C 
BRANCH  18  19
ATOM     19  C   UNL     1      97.157  92.292  15.042  1.00  0.00    -0.003 C 
ATOM     20  C   UNL     1      96.923  90.796  14.847  1.00  0.00     0.004 C 
ENDBRANCH  18  19
ENDBRANCH  17  18
ENDBRANCH  16  17
ENDBRANCH  15  16
ENDBRANCH  14  15
ENDBRANCH  13  14
ENDBRANCH  12  13
ENDBRANCH   1  12
TORSDOF 16
ENDMDL
MODEL 8
REMARK VINA RESULT:     9.383     16.903     20.249
REMARK INTER + INTRA:          23.051
REMARK INTER:                  22.688
REMARK INTRA:                   0.363
REMARK UNBOUND:                 4.891
REMARK SMILES CCCCCCCCCCCCCCCCCC(=O)[O-]
REMARK SMILES IDX 10 1 11 2 12 3 13 4 14 5 15 6 16 7 17 8 18 9 19 10 20 11
REMARK SMILES IDX 9 12 8 13 7 14 6 15 5 16 4 17 3 18 2 19 1 20
REMARK H PARENT
REMARK Flexibility Score: inf
ROOT
ATOM      1  C   UNL     1      99.112  94.168  10.720  1.00  0.00     0.000 C 
ENDROOT
BRANCH   1   2
ATOM      2  C   UNL     1      98.765  95.556  11.280  1.00  0.00     0.000 C 
BRANCH   2   3
ATOM      3  C   UNL     1      98.311  95.508  12.748  1.00  0.00     0.000 C 
BRANCH   3   4
ATOM      4  C   UNL     1      98.312  94.080  13.320  1.00  0.00     0.000 C 
BRANCH   4   5
ATOM      5  C   UNL     1      98.769  94.022  14.790  1.00  0.00     0.000 C 
BRANCH   5   6
ATOM      6  C   UNL     1      99.045  95.388  15.445  1.00  0.00     0.000 C 
BRANCH   6   7
ATOM      7  C   UNL     1      99.833  95.274  16.760  1.00  0.00     0.006 C 
BRANCH   7   8
ATOM      8  C   UNL     1      99.179  96.070  17.898  1.00  0.00     0.053 C 
BRANCH   8   9
ATOM      9  C   UNL     1      99.591  97.510  17.882  1.00  0.00     0.041 C 
ATOM     10  O   UNL     1      98.737  98.415  18.082  1.00  0.00    -0.550 OA
ATOM     11  O   UNL     1     100.920  97.853  17.674  1.00  0.00    -0.550 OA
ENDBRANCH   8   9
ENDBRANCH   7   8
ENDBRANCH   6   7
ENDBRANCH   5   6
ENDBRANCH   4   5
ENDBRANCH   3   4
ENDBRANCH   2   3
ENDBRANCH   1   2
BRANCH   1  12
ATOM     12  C   UNL     1     100.616  93.885  10.853  1.00  0.00     0.000 C 
BRANCH  12  13
ATOM     13  C   UNL     1     101.487  94.992  10.233  1.00  0.00    -0.000 C 
BRANCH  13  14
ATOM     14  C   UNL     1     100.897  96.396  10.447  1.00  0.00    -0.000 C 
BRANCH  14  15
ATOM     15  C   UNL     1     101.975  97.462  10.715  1.00  0.00    -0.000 C 
BRANCH  15  16
ATOM     16  C   UNL     1     102.003  98.635   9.715  1.00  0.00    -0.000 C 
BRANCH  16  17
ATOM     17  C   UNL     1     101.912 100.036  10.347  1.00  0.00    -0.000 C 
BRANCH  17  18
ATOM     18  C   UNL     1     100.512 100.655  10.230  1.00  0.00    -0.000 C 
BRANCH  18  19
ATOM     19  C   UNL     1      99.585 100.129  11.331  1.00  0.00    -0.003 C 
ATOM     20  C   UNL     1      98.681  99.017  10.806  1.00  0.00     0.004 C 
ENDBRANCH  18  19
ENDBRANCH  17  18
ENDBRANCH  16  17
ENDBRANCH  15  16
ENDBRANCH  14  15
ENDBRANCH  13  14
ENDBRANCH  12  13
ENDBRANCH   1  12
TORSDOF 16
ENDMDL
