MODEL 1
REMARK VINA RESULT:    -2.726      0.000      0.000
REMARK INTER + INTRA:          -3.317
REMARK INTER:                  -3.204
REMARK INTRA:                  -0.112
REMARK UNBOUND:                -0.112
REMARK SMILES O=C([O-])CCC(=O)[O-]
REMARK SMILES IDX 4 1 2 2 1 3 3 4 5 5 6 6 7 7 8 8
REMARK H PARENT
REMARK Flexibility Score: inf
ROOT
ATOM      1  C   UNL     1     -27.137 -18.514  12.591  1.00  0.00     0.059 C 
ENDROOT
BRANCH   1   2
ATOM      2  C   UNL     1     -27.014 -18.349  14.076  1.00  0.00     0.042 C 
ATOM      3  O   UNL     1     -27.616 -19.135  14.853  1.00  0.00    -0.550 OA
ATOM      4  O   UNL     1     -26.266 -17.301  14.599  1.00  0.00    -0.550 OA
ENDBRANCH   1   2
BRANCH   1   5
ATOM      5  C   UNL     1     -28.125 -17.509  11.990  1.00  0.00     0.059 C 
BRANCH   5   6
ATOM      6  C   UNL     1     -27.462 -16.613  10.989  1.00  0.00     0.042 C 
ATOM      7  O   UNL     1     -26.393 -16.016  11.285  1.00  0.00    -0.550 OA
ATOM      8  O   UNL     1     -28.044 -16.405   9.745  1.00  0.00    -0.550 OA
ENDBRANCH   5   6
ENDBRANCH   1   5
TORSDOF 3
ENDMDL
MODEL 2
REMARK VINA RESULT:    -2.545     22.519     23.274
REMARK INTER + INTRA:          -3.104
REMARK INTER:                  -3.064
REMARK INTRA:                  -0.039
REMARK UNBOUND:                -0.112
REMARK SMILES O=C([O-])CCC(=O)[O-]
REMARK SMILES IDX 4 1 2 2 1 3 3 4 5 5 6 6 7 7 8 8
REMARK H PARENT
REMARK Flexibility Score: inf
ROOT
ATOM      1  C   UNL     1      -9.676 -19.851  -3.088  1.00  0.00     0.059 C 
ENDROOT
BRANCH   1   2
ATOM      2  C   UNL     1      -9.673 -18.392  -2.745  1.00  0.00     0.042 C 
ATOM      3  O   UNL     1      -9.206 -17.551  -3.557  1.00  0.00    -0.550 OA
ATOM      4  O   UNL     1     -10.148 -17.967  -1.511  1.00  0.00    -0.550 OA
ENDBRANCH   1   2
BRANCH   1   5
ATOM      5  C   UNL     1      -9.940 -20.722  -1.855  1.00  0.00     0.059 C 
BRANCH   5   6
ATOM      6  C   UNL     1     -10.438 -22.083  -2.236  1.00  0.00     0.042 C 
ATOM      7  O   UNL     1     -10.230 -23.067  -1.478  1.00  0.00    -0.550 OA
ATOM      8  O   UNL     1     -11.094 -22.273  -3.445  1.00  0.00    -0.550 OA
ENDBRANCH   5   6
ENDBRANCH   1   5
TORSDOF 3
ENDMDL
MODEL 3
REMARK VINA RESULT:    -2.511     22.492     23.154
REMARK INTER + INTRA:          -3.063
REMARK INTER:                  -3.026
REMARK INTRA:                  -0.037
REMARK UNBOUND:                -0.112
REMARK SMILES O=C([O-])CCC(=O)[O-]
REMARK SMILES IDX 4 1 2 2 1 3 3 4 5 5 6 6 7 7 8 8
REMARK H PARENT
REMARK Flexibility Score: inf
ROOT
ATOM      1  C   UNL     1     -10.100 -20.764  -1.874  1.00  0.00     0.059 C 
ENDROOT
BRANCH   1   2
ATOM      2  C   UNL     1     -10.473 -22.166  -2.255  1.00  0.00     0.042 C 
ATOM      3  O   UNL     1     -10.211 -23.123  -1.481  1.00  0.00    -0.550 OA
ATOM      4  O   UNL     1     -11.073 -22.417  -3.483  1.00  0.00    -0.550 OA
ENDBRANCH   1   2
BRANCH   1   5
ATOM      5  C   UNL     1      -9.618 -19.959  -3.085  1.00  0.00     0.059 C 
BRANCH   5   6
ATOM      6  C   UNL     1      -9.665 -18.484  -2.822  1.00  0.00     0.042 C 
ATOM      7  O   UNL     1      -9.211 -17.676  -3.674  1.00  0.00    -0.550 OA
ATOM      8  O   UNL     1     -10.171 -18.006  -1.621  1.00  0.00    -0.550 OA
ENDBRANCH   5   6
ENDBRANCH   1   5
TORSDOF 3
ENDMDL
MODEL 4
REMARK VINA RESULT:    -2.478     22.552     23.097
REMARK INTER + INTRA:          -3.025
REMARK INTER:                  -2.979
REMARK INTRA:                  -0.046
REMARK UNBOUND:                -0.112
REMARK SMILES O=C([O-])CCC(=O)[O-]
REMARK SMILES IDX 4 1 2 2 1 3 3 4 5 5 6 6 7 7 8 8
REMARK H PARENT
REMARK Flexibility Score: inf
ROOT
ATOM      1  C   UNL     1      -9.758 -20.719  -1.874  1.00  0.00     0.059 C 
ENDROOT
BRANCH   1   2
ATOM      2  C   UNL     1     -10.371 -22.017  -2.305  1.00  0.00     0.042 C 
ATOM      3  O   UNL     1     -10.972 -22.098  -3.408  1.00  0.00    -0.550 OA
ATOM      4  O   UNL     1     -10.312 -23.125  -1.469  1.00  0.00    -0.550 OA
ENDBRANCH   1   2
BRANCH   1   5
ATOM      5  C   UNL     1      -9.738 -19.696  -3.015  1.00  0.00     0.059 C 
BRANCH   5   6
ATOM      6  C   UNL     1      -9.663 -18.292  -2.497  1.00  0.00     0.042 C 
ATOM      7  O   UNL     1     -10.138 -18.009  -1.366  1.00  0.00    -0.550 OA
ATOM      8  O   UNL     1      -9.107 -17.289  -3.280  1.00  0.00    -0.550 OA
ENDBRANCH   5   6
ENDBRANCH   1   5
TORSDOF 3
ENDMDL
MODEL 5
REMARK VINA RESULT:    -2.416     22.496     23.197
REMARK INTER + INTRA:          -2.952
REMARK INTER:                  -2.834
REMARK INTRA:                  -0.118
REMARK UNBOUND:                -0.112
REMARK SMILES O=C([O-])CCC(=O)[O-]
REMARK SMILES IDX 4 1 2 2 1 3 3 4 5 5 6 6 7 7 8 8
REMARK H PARENT
REMARK Flexibility Score: inf
ROOT
ATOM      1  C   UNL     1      -9.962 -18.232  -1.518  1.00  0.00     0.059 C 
ENDROOT
BRANCH   1   2
ATOM      2  C   UNL     1      -8.707 -17.478  -1.198  1.00  0.00     0.042 C 
ATOM      3  O   UNL     1      -8.072 -17.724  -0.139  1.00  0.00    -0.550 OA
ATOM      4  O   UNL     1      -8.261 -16.475  -2.051  1.00  0.00    -0.550 OA
ENDBRANCH   1   2
BRANCH   1   5
ATOM      5  C   UNL     1      -9.708 -19.345  -2.541  1.00  0.00     0.059 C 
BRANCH   5   6
ATOM      6  C   UNL     1      -9.631 -20.690  -1.885  1.00  0.00     0.042 C 
ATOM      7  O   UNL     1     -10.590 -21.500  -1.990  1.00  0.00    -0.550 OA
ATOM      8  O   UNL     1      -8.520 -21.033  -1.126  1.00  0.00    -0.550 OA
ENDBRANCH   5   6
ENDBRANCH   1   5
TORSDOF 3
ENDMDL
MODEL 6
REMARK VINA RESULT:    -2.366     22.526     23.480
REMARK INTER + INTRA:          -2.894
REMARK INTER:                  -2.772
REMARK INTRA:                  -0.122
REMARK UNBOUND:                -0.112
REMARK SMILES O=C([O-])CCC(=O)[O-]
REMARK SMILES IDX 4 1 2 2 1 3 3 4 5 5 6 6 7 7 8 8
REMARK H PARENT
REMARK Flexibility Score: inf
ROOT
ATOM      1  C   UNL     1     -10.014 -18.527  -1.710  1.00  0.00     0.059 C 
ENDROOT
BRANCH   1   2
ATOM      2  C   UNL     1      -9.510 -19.929  -1.874  1.00  0.00     0.042 C 
ATOM      3  O   UNL     1     -10.304 -20.902  -1.785  1.00  0.00    -0.550 OA
ATOM      4  O   UNL     1      -8.157 -20.162  -2.085  1.00  0.00    -0.550 OA
ENDBRANCH   1   2
BRANCH   1   5
ATOM      5  C   UNL     1      -9.468 -17.598  -2.799  1.00  0.00     0.059 C 
BRANCH   5   6
ATOM      6  C   UNL     1      -8.502 -16.598  -2.240  1.00  0.00     0.042 C 
ATOM      7  O   UNL     1      -8.227 -15.554  -2.888  1.00  0.00    -0.550 OA
ATOM      8  O   UNL     1      -7.875 -16.839  -1.024  1.00  0.00    -0.550 OA
ENDBRANCH   5   6
ENDBRANCH   1   5
TORSDOF 3
ENDMDL
MODEL 7
REMARK VINA RESULT:    -2.350     17.371     18.168
REMARK INTER + INTRA:          -2.874
REMARK INTER:                  -2.702
REMARK INTRA:                  -0.172
REMARK UNBOUND:                -0.112
REMARK SMILES O=C([O-])CCC(=O)[O-]
REMARK SMILES IDX 4 1 2 2 1 3 3 4 5 5 6 6 7 7 8 8
REMARK H PARENT
REMARK Flexibility Score: inf
ROOT
ATOM      1  C   UNL     1     -10.110 -18.462  10.705  1.00  0.00     0.059 C 
ENDROOT
BRANCH   1   2
ATOM      2  C   UNL     1      -9.210 -17.506   9.983  1.00  0.00     0.042 C 
ATOM      3  O   UNL     1      -7.973 -17.731   9.912  1.00  0.00    -0.550 OA
ATOM      4  O   UNL     1      -9.732 -16.347   9.423  1.00  0.00    -0.550 OA
ENDBRANCH   1   2
BRANCH   1   5
ATOM      5  C   UNL     1      -9.613 -18.744  12.127  1.00  0.00     0.059 C 
BRANCH   5   6
ATOM      6  C   UNL     1      -9.629 -17.507  12.973  1.00  0.00     0.042 C 
ATOM      7  O   UNL     1      -8.586 -17.140  13.575  1.00  0.00    -0.550 OA
ATOM      8  O   UNL     1     -10.805 -16.785  13.130  1.00  0.00    -0.550 OA
ENDBRANCH   5   6
ENDBRANCH   1   5
TORSDOF 3
ENDMDL
MODEL 8
REMARK VINA RESULT:    -2.282     16.572     17.143
REMARK INTER + INTRA:          -2.794
REMARK INTER:                  -2.766
REMARK INTRA:                  -0.028
REMARK UNBOUND:                -0.112
REMARK SMILES O=C([O-])CCC(=O)[O-]
REMARK SMILES IDX 4 1 2 2 1 3 3 4 5 5 6 6 7 7 8 8
REMARK H PARENT
REMARK Flexibility Score: inf
ROOT
ATOM      1  C   UNL     1     -10.703 -16.871  13.163  1.00  0.00     0.059 C 
ENDROOT
BRANCH   1   2
ATOM      2  C   UNL     1     -10.646 -16.912  14.660  1.00  0.00     0.042 C 
ATOM      3  O   UNL     1     -11.707 -16.876  15.336  1.00  0.00    -0.550 OA
ATOM      4  O   UNL     1      -9.418 -16.947  15.309  1.00  0.00    -0.550 OA
ENDBRANCH   1   2
BRANCH   1   5
ATOM      5  C   UNL     1      -9.560 -17.672  12.531  1.00  0.00     0.059 C 
BRANCH   5   6
ATOM      6  C   UNL     1      -9.866 -18.047  11.113  1.00  0.00     0.042 C 
ATOM      7  O   UNL     1     -10.142 -19.240  10.820  1.00  0.00    -0.550 OA
ATOM      8  O   UNL     1      -9.805 -17.089  10.110  1.00  0.00    -0.550 OA
ENDBRANCH   5   6
ENDBRANCH   1   5
TORSDOF 3
ENDMDL
MODEL 9
REMARK VINA RESULT:    -0.325      0.230      3.925
REMARK INTER + INTRA:          -0.495
REMARK INTER:                  -0.376
REMARK INTRA:                  -0.118
REMARK UNBOUND:                -0.112
REMARK SMILES O=C([O-])CCC(=O)[O-]
REMARK SMILES IDX 4 1 2 2 1 3 3 4 5 5 6 6 7 7 8 8
REMARK H PARENT
REMARK Flexibility Score: inf
ROOT
ATOM      1  C   UNL     1     -28.119 -17.725  11.978  1.00  0.00     0.059 C 
ENDROOT
BRANCH   1   2
ATOM      2  C   UNL     1     -27.557 -16.749  10.989  1.00  0.00     0.042 C 
ATOM      3  O   UNL     1     -28.125 -16.573   9.880  1.00  0.00    -0.550 OA
ATOM      4  O   UNL     1     -26.382 -16.066  11.277  1.00  0.00    -0.550 OA
ENDBRANCH   1   2
BRANCH   1   5
ATOM      5  C   UNL     1     -27.024 -18.602  12.594  1.00  0.00     0.059 C 
BRANCH   5   6
ATOM      6  C   UNL     1     -26.834 -18.308  14.051  1.00  0.00     0.042 C 
ATOM      7  O   UNL     1     -27.203 -19.143  14.917  1.00  0.00    -0.550 OA
ATOM      8  O   UNL     1     -26.289 -17.095  14.452  1.00  0.00    -0.550 OA
ENDBRANCH   5   6
ENDBRANCH   1   5
TORSDOF 3
ENDMDL
