MODEL 1
REMARK VINA RESULT:    -7.088      0.000      0.000
REMARK INTER + INTRA:          -8.941
REMARK INTER:                  -8.538
REMARK INTRA:                  -0.403
REMARK UNBOUND:                -0.403
REMARK SMILES O=c1c(O)c(-c2ccc(O)cc2O)oc2cc(O)cc(O)c12
REMARK SMILES IDX 5 1 3 2 2 3 1 4 22 5 20 6 19 7 17 8 16 9 15 10 14 11 6 12
REMARK SMILES IDX 8 13 7 14 9 15 11 16 12 17 10 18 13 20 4 22 21 24 18 26
REMARK H PARENT 10 19 13 21 4 23 21 25 18 27
REMARK Flexibility Score: inf
ROOT
ATOM      1  C   UNL     1      46.089 -29.174  17.876  1.00  0.00     0.184 A 
ATOM      2  C   UNL     1      46.686 -29.432  19.119  1.00  0.00     0.208 A 
ATOM      3  C   UNL     1      46.125 -30.412  19.953  1.00  0.00     0.238 A 
ATOM      4  O   UNL     1      46.627 -30.596  21.092  1.00  0.00    -0.285 OA
ATOM      5  C   UNL     1      44.991 -31.140  19.518  1.00  0.00     0.111 A 
ATOM      6  C   UNL     1      44.362 -32.184  20.263  1.00  0.00     0.134 A 
ATOM      7  C   UNL     1      43.173 -32.751  19.789  1.00  0.00     0.093 A 
ATOM      8  C   UNL     1      42.625 -32.360  18.568  1.00  0.00     0.123 A 
ATOM      9  C   UNL     1      43.262 -31.382  17.803  1.00  0.00     0.094 A 
ATOM     10  C   UNL     1      44.430 -30.771  18.266  1.00  0.00     0.146 A 
ATOM     11  O   UNL     1      44.997 -29.835  17.515  1.00  0.00    -0.451 OA
ENDROOT
BRANCH   1  12
ATOM     12  C   UNL     1      46.650 -28.169  16.947  1.00  0.00     0.063 A 
ATOM     13  C   UNL     1      46.753 -25.859  16.187  1.00  0.00     0.047 A 
ATOM     14  C   UNL     1      46.199 -26.840  17.015  1.00  0.00     0.020 A 
ATOM     15  C   UNL     1      47.767 -26.189  15.287  1.00  0.00     0.119 A 
ATOM     16  C   UNL     1      48.226 -27.511  15.211  1.00  0.00     0.093 A 
ATOM     17  C   UNL     1      47.672 -28.505  16.027  1.00  0.00     0.130 A 
BRANCH  15  18
ATOM     18  O   UNL     1      48.312 -25.201  14.472  1.00  0.00    -0.508 OA
ATOM     19  H   UNL     1      48.143 -24.217  14.646  1.00  0.00     0.293 HD
ENDBRANCH  15  18
BRANCH  17  20
ATOM     20  O   UNL     1      48.142 -29.812  15.885  1.00  0.00    -0.507 OA
ATOM     21  H   UNL     1      49.002 -30.140  16.306  1.00  0.00     0.293 HD
ENDBRANCH  17  20
ENDBRANCH   1  12
BRANCH   2  22
ATOM     22  O   UNL     1      47.807 -28.700  19.520  1.00  0.00    -0.502 OA
ATOM     23  H   UNL     1      47.996 -27.765  19.178  1.00  0.00     0.293 HD
ENDBRANCH   2  22
BRANCH   6  24
ATOM     24  O   UNL     1      44.874 -32.713  21.451  1.00  0.00    -0.507 OA
ATOM     25  H   UNL     1      45.655 -32.329  21.963  1.00  0.00     0.293 HD
ENDBRANCH   6  24
BRANCH   8  26
ATOM     26  O   UNL     1      41.449 -32.958  18.119  1.00  0.00    -0.508 OA
ATOM     27  H   UNL     1      40.923 -32.575  17.343  1.00  0.00     0.293 HD
ENDBRANCH   8  26
TORSDOF 6
ENDMDL
MODEL 2
REMARK VINA RESULT:    -6.884      2.548      7.461
REMARK INTER + INTRA:          -8.695
REMARK INTER:                  -8.304
REMARK INTRA:                  -0.391
REMARK UNBOUND:                -0.403
REMARK SMILES O=c1c(O)c(-c2ccc(O)cc2O)oc2cc(O)cc(O)c12
REMARK SMILES IDX 5 1 3 2 2 3 1 4 22 5 20 6 19 7 17 8 16 9 15 10 14 11 6 12
REMARK SMILES IDX 8 13 7 14 9 15 11 16 12 17 10 18 13 20 4 22 21 24 18 26
REMARK H PARENT 10 19 13 21 4 23 21 25 18 27
REMARK Flexibility Score: inf
ROOT
ATOM      1  C   UNL     1      46.337 -27.799  18.360  1.00  0.00     0.184 A 
ATOM      2  C   UNL     1      46.341 -27.536  16.982  1.00  0.00     0.208 A 
ATOM      3  C   UNL     1      47.097 -26.457  16.497  1.00  0.00     0.238 A 
ATOM      4  O   UNL     1      47.048 -26.189  15.269  1.00  0.00    -0.285 OA
ATOM      5  C   UNL     1      47.862 -25.675  17.396  1.00  0.00     0.111 A 
ATOM      6  C   UNL     1      48.698 -24.582  17.011  1.00  0.00     0.134 A 
ATOM      7  C   UNL     1      49.312 -23.802  17.998  1.00  0.00     0.093 A 
ATOM      8  C   UNL     1      49.177 -24.113  19.350  1.00  0.00     0.123 A 
ATOM      9  C   UNL     1      48.410 -25.213  19.736  1.00  0.00     0.094 A 
ATOM     10  C   UNL     1      47.754 -25.988  18.776  1.00  0.00     0.146 A 
ATOM     11  O   UNL     1      47.023 -27.019  19.185  1.00  0.00    -0.451 OA
ENDROOT
BRANCH   1  12
ATOM     12  C   UNL     1      45.578 -28.936  18.924  1.00  0.00     0.063 A 
ATOM     13  C   UNL     1      45.343 -31.339  19.230  1.00  0.00     0.047 A 
ATOM     14  C   UNL     1      46.008 -30.248  18.664  1.00  0.00     0.020 A 
ATOM     15  C   UNL     1      44.245 -31.135  20.068  1.00  0.00     0.119 A 
ATOM     16  C   UNL     1      43.808 -29.831  20.336  1.00  0.00     0.093 A 
ATOM     17  C   UNL     1      44.460 -28.731  19.766  1.00  0.00     0.130 A 
BRANCH  15  18
ATOM     18  O   UNL     1      43.595 -32.231  20.630  1.00  0.00    -0.508 OA
ATOM     19  H   UNL     1      43.084 -32.155  21.501  1.00  0.00     0.293 HD
ENDBRANCH  15  18
BRANCH  17  20
ATOM     20  O   UNL     1      43.960 -27.455  20.039  1.00  0.00    -0.507 OA
ATOM     21  H   UNL     1      44.388 -26.607  19.689  1.00  0.00     0.293 HD
ENDBRANCH  17  20
ENDBRANCH   1  12
BRANCH   2  22
ATOM     22  O   UNL     1      45.579 -28.328  16.119  1.00  0.00    -0.502 OA
ATOM     23  H   UNL     1      45.954 -29.153  15.666  1.00  0.00     0.293 HD
ENDBRANCH   2  22
BRANCH   6  24
ATOM     24  O   UNL     1      48.975 -24.240  15.684  1.00  0.00    -0.507 OA
ATOM     25  H   UNL     1      48.299 -24.248  14.935  1.00  0.00     0.293 HD
ENDBRANCH   6  24
BRANCH   8  26
ATOM     26  O   UNL     1      49.816 -23.324  20.304  1.00  0.00    -0.508 OA
ATOM     27  H   UNL     1      50.810 -23.405  20.480  1.00  0.00     0.293 HD
ENDBRANCH   8  26
TORSDOF 6
ENDMDL
MODEL 3
REMARK VINA RESULT:    -6.477      3.789      5.027
REMARK INTER + INTRA:          -8.205
REMARK INTER:                  -7.807
REMARK INTRA:                  -0.398
REMARK UNBOUND:                -0.403
REMARK SMILES O=c1c(O)c(-c2ccc(O)cc2O)oc2cc(O)cc(O)c12
REMARK SMILES IDX 5 1 3 2 2 3 1 4 22 5 20 6 19 7 17 8 16 9 15 10 14 11 6 12
REMARK SMILES IDX 8 13 7 14 9 15 11 16 12 17 10 18 13 20 4 22 21 24 18 26
REMARK H PARENT 10 19 13 21 4 23 21 25 18 27
REMARK Flexibility Score: inf
ROOT
ATOM      1  C   UNL     1      48.395 -26.074  19.170  1.00  0.00     0.184 A 
ATOM      2  C   UNL     1      49.168 -27.239  19.054  1.00  0.00     0.208 A 
ATOM      3  C   UNL     1      48.529 -28.454  18.760  1.00  0.00     0.238 A 
ATOM      4  O   UNL     1      49.218 -29.506  18.719  1.00  0.00    -0.285 OA
ATOM      5  C   UNL     1      47.127 -28.479  18.556  1.00  0.00     0.111 A 
ATOM      6  C   UNL     1      46.378 -29.646  18.213  1.00  0.00     0.134 A 
ATOM      7  C   UNL     1      44.981 -29.578  18.157  1.00  0.00     0.093 A 
ATOM      8  C   UNL     1      44.309 -28.375  18.364  1.00  0.00     0.123 A 
ATOM      9  C   UNL     1      45.034 -27.215  18.643  1.00  0.00     0.094 A 
ATOM     10  C   UNL     1      46.427 -27.258  18.743  1.00  0.00     0.146 A 
ATOM     11  O   UNL     1      47.078 -26.136  19.024  1.00  0.00    -0.451 OA
ENDROOT
BRANCH   1  12
ATOM     12  C   UNL     1      49.017 -24.764  19.455  1.00  0.00     0.063 A 
ATOM     13  C   UNL     1      50.328 -22.864  18.680  1.00  0.00     0.047 A 
ATOM     14  C   UNL     1      49.776 -24.129  18.456  1.00  0.00     0.020 A 
ATOM     15  C   UNL     1      50.125 -22.214  19.898  1.00  0.00     0.119 A 
ATOM     16  C   UNL     1      49.370 -22.837  20.901  1.00  0.00     0.093 A 
ATOM     17  C   UNL     1      48.820 -24.108  20.693  1.00  0.00     0.130 A 
BRANCH  15  18
ATOM     18  O   UNL     1      50.677 -20.953  20.105  1.00  0.00    -0.508 OA
ATOM     19  H   UNL     1      51.174 -20.725  20.959  1.00  0.00     0.293 HD
ENDBRANCH  15  18
BRANCH  17  20
ATOM     20  O   UNL     1      48.106 -24.696  21.739  1.00  0.00    -0.507 OA
ATOM     21  H   UNL     1      48.535 -25.295  22.433  1.00  0.00     0.293 HD
ENDBRANCH  17  20
ENDBRANCH   1  12
BRANCH   2  22
ATOM     22  O   UNL     1      50.549 -27.183  19.257  1.00  0.00    -0.502 OA
ATOM     23  H   UNL     1      51.026 -27.787  19.917  1.00  0.00     0.293 HD
ENDBRANCH   2  22
BRANCH   6  24
ATOM     24  O   UNL     1      46.956 -30.880  17.896  1.00  0.00    -0.507 OA
ATOM     25  H   UNL     1      47.340 -31.525  18.569  1.00  0.00     0.293 HD
ENDBRANCH   6  24
BRANCH   8  26
ATOM     26  O   UNL     1      42.919 -28.341  18.285  1.00  0.00    -0.508 OA
ATOM     27  H   UNL     1      42.337 -28.815  18.964  1.00  0.00     0.293 HD
ENDBRANCH   8  26
TORSDOF 6
ENDMDL
MODEL 4
REMARK VINA RESULT:    -6.448      3.779      4.539
REMARK INTER + INTRA:          -8.170
REMARK INTER:                  -7.805
REMARK INTRA:                  -0.365
REMARK UNBOUND:                -0.403
REMARK SMILES O=c1c(O)c(-c2ccc(O)cc2O)oc2cc(O)cc(O)c12
REMARK SMILES IDX 5 1 3 2 2 3 1 4 22 5 20 6 19 7 17 8 16 9 15 10 14 11 6 12
REMARK SMILES IDX 8 13 7 14 9 15 11 16 12 17 10 18 13 20 4 22 21 24 18 26
REMARK H PARENT 10 19 13 21 4 23 21 25 18 27
REMARK Flexibility Score: inf
ROOT
ATOM      1  C   UNL     1      47.824 -26.144  20.225  1.00  0.00     0.184 A 
ATOM      2  C   UNL     1      48.284 -27.190  21.038  1.00  0.00     0.208 A 
ATOM      3  C   UNL     1      47.566 -28.396  21.067  1.00  0.00     0.238 A 
ATOM      4  O   UNL     1      47.948 -29.309  21.844  1.00  0.00    -0.285 OA
ATOM      5  C   UNL     1      46.413 -28.547  20.258  1.00  0.00     0.111 A 
ATOM      6  C   UNL     1      45.630 -29.739  20.176  1.00  0.00     0.134 A 
ATOM      7  C   UNL     1      44.440 -29.733  19.438  1.00  0.00     0.093 A 
ATOM      8  C   UNL     1      44.039 -28.605  18.725  1.00  0.00     0.123 A 
ATOM      9  C   UNL     1      44.826 -27.453  18.750  1.00  0.00     0.094 A 
ATOM     10  C   UNL     1      45.999 -27.414  19.508  1.00  0.00     0.146 A 
ATOM     11  O   UNL     1      46.713 -26.294  19.516  1.00  0.00    -0.451 OA
ENDROOT
BRANCH   1  12
ATOM     12  C   UNL     1      48.553 -24.860  20.138  1.00  0.00     0.063 A 
ATOM     13  C   UNL     1      49.268 -22.791  21.204  1.00  0.00     0.047 A 
ATOM     14  C   UNL     1      48.542 -23.985  21.238  1.00  0.00     0.020 A 
ATOM     15  C   UNL     1      50.020 -22.458  20.075  1.00  0.00     0.119 A 
ATOM     16  C   UNL     1      50.040 -23.323  18.973  1.00  0.00     0.093 A 
ATOM     17  C   UNL     1      49.308 -24.517  18.992  1.00  0.00     0.130 A 
BRANCH  15  18
ATOM     18  O   UNL     1      50.743 -21.268  20.057  1.00  0.00    -0.508 OA
ATOM     19  H   UNL     1      51.568 -21.159  19.480  1.00  0.00     0.293 HD
ENDBRANCH  15  18
BRANCH  17  20
ATOM     20  O   UNL     1      49.336 -25.324  17.852  1.00  0.00    -0.507 OA
ATOM     21  H   UNL     1      49.296 -24.954  16.911  1.00  0.00     0.293 HD
ENDBRANCH  17  20
ENDBRANCH   1  12
BRANCH   2  22
ATOM     22  O   UNL     1      49.427 -27.014  21.823  1.00  0.00    -0.502 OA
ATOM     23  H   UNL     1      50.362 -27.151  21.458  1.00  0.00     0.293 HD
ENDBRANCH   2  22
BRANCH   6  24
ATOM     24  O   UNL     1      45.986 -30.950  20.776  1.00  0.00    -0.507 OA
ATOM     25  H   UNL     1      45.523 -31.831  20.611  1.00  0.00     0.293 HD
ENDBRANCH   6  24
BRANCH   8  26
ATOM     26  O   UNL     1      42.858 -28.641  17.987  1.00  0.00    -0.508 OA
ATOM     27  H   UNL     1      42.503 -29.505  17.596  1.00  0.00     0.293 HD
ENDBRANCH   8  26
TORSDOF 6
ENDMDL
MODEL 5
REMARK VINA RESULT:    -6.287      5.105      6.524
REMARK INTER + INTRA:          -7.976
REMARK INTER:                  -7.560
REMARK INTRA:                  -0.416
REMARK UNBOUND:                -0.403
REMARK SMILES O=c1c(O)c(-c2ccc(O)cc2O)oc2cc(O)cc(O)c12
REMARK SMILES IDX 5 1 3 2 2 3 1 4 22 5 20 6 19 7 17 8 16 9 15 10 14 11 6 12
REMARK SMILES IDX 8 13 7 14 9 15 11 16 12 17 10 18 13 20 4 22 21 24 18 26
REMARK H PARENT 10 19 13 21 4 23 21 25 18 27
REMARK Flexibility Score: inf
ROOT
ATOM      1  C   UNL     1      48.861 -25.505  17.920  1.00  0.00     0.184 A 
ATOM      2  C   UNL     1      49.738 -26.595  17.814  1.00  0.00     0.208 A 
ATOM      3  C   UNL     1      49.529 -27.540  16.798  1.00  0.00     0.238 A 
ATOM      4  O   UNL     1      50.281 -28.548  16.746  1.00  0.00    -0.285 OA
ATOM      5  C   UNL     1      48.462 -27.365  15.884  1.00  0.00     0.111 A 
ATOM      6  C   UNL     1      48.180 -28.239  14.789  1.00  0.00     0.134 A 
ATOM      7  C   UNL     1      47.025 -28.036  14.023  1.00  0.00     0.093 A 
ATOM      8  C   UNL     1      46.179 -26.955  14.268  1.00  0.00     0.123 A 
ATOM      9  C   UNL     1      46.476 -26.061  15.298  1.00  0.00     0.094 A 
ATOM     10  C   UNL     1      47.600 -26.258  16.103  1.00  0.00     0.146 A 
ATOM     11  O   UNL     1      47.839 -25.392  17.081  1.00  0.00    -0.451 OA
ENDROOT
BRANCH   1  12
ATOM     12  C   UNL     1      49.046 -24.466  18.956  1.00  0.00     0.063 A 
ATOM     13  C   UNL     1      49.931 -22.289  19.591  1.00  0.00     0.047 A 
ATOM     14  C   UNL     1      49.787 -23.312  18.649  1.00  0.00     0.020 A 
ATOM     15  C   UNL     1      49.332 -22.401  20.847  1.00  0.00     0.119 A 
ATOM     16  C   UNL     1      48.590 -23.546  21.164  1.00  0.00     0.093 A 
ATOM     17  C   UNL     1      48.447 -24.582  20.232  1.00  0.00     0.130 A 
BRANCH  15  18
ATOM     18  O   UNL     1      49.479 -21.372  21.774  1.00  0.00    -0.508 OA
ATOM     19  H   UNL     1      49.275 -20.409  21.533  1.00  0.00     0.293 HD
ENDBRANCH  15  18
BRANCH  17  20
ATOM     20  O   UNL     1      47.727 -25.716  20.614  1.00  0.00    -0.507 OA
ATOM     21  H   UNL     1      46.718 -25.777  20.553  1.00  0.00     0.293 HD
ENDBRANCH  17  20
ENDBRANCH   1  12
BRANCH   2  22
ATOM     22  O   UNL     1      50.784 -26.739  18.729  1.00  0.00    -0.502 OA
ATOM     23  H   UNL     1      51.108 -27.646  19.045  1.00  0.00     0.293 HD
ENDBRANCH   2  22
BRANCH   6  24
ATOM     24  O   UNL     1      49.008 -29.296  14.400  1.00  0.00    -0.507 OA
ATOM     25  H   UNL     1      49.993 -29.361  14.606  1.00  0.00     0.293 HD
ENDBRANCH   6  24
BRANCH   8  26
ATOM     26  O   UNL     1      45.048 -26.775  13.476  1.00  0.00    -0.508 OA
ATOM     27  H   UNL     1      44.848 -25.887  13.031  1.00  0.00     0.293 HD
ENDBRANCH   8  26
TORSDOF 6
ENDMDL
MODEL 6
REMARK VINA RESULT:    -6.176      3.582      5.414
REMARK INTER + INTRA:          -7.843
REMARK INTER:                  -7.715
REMARK INTRA:                  -0.127
REMARK UNBOUND:                -0.403
REMARK SMILES O=c1c(O)c(-c2ccc(O)cc2O)oc2cc(O)cc(O)c12
REMARK SMILES IDX 5 1 3 2 2 3 1 4 22 5 20 6 19 7 17 8 16 9 15 10 14 11 6 12
REMARK SMILES IDX 8 13 7 14 9 15 11 16 12 17 10 18 13 20 4 22 21 24 18 26
REMARK H PARENT 10 19 13 21 4 23 21 25 18 27
REMARK Flexibility Score: inf
ROOT
ATOM      1  C   UNL     1      48.074 -25.779  18.906  1.00  0.00     0.184 A 
ATOM      2  C   UNL     1      47.379 -25.864  17.690  1.00  0.00     0.208 A 
ATOM      3  C   UNL     1      46.602 -27.003  17.428  1.00  0.00     0.238 A 
ATOM      4  O   UNL     1      46.030 -27.101  16.312  1.00  0.00    -0.285 OA
ATOM      5  C   UNL     1      46.510 -28.030  18.400  1.00  0.00     0.111 A 
ATOM      6  C   UNL     1      45.719 -29.211  18.259  1.00  0.00     0.134 A 
ATOM      7  C   UNL     1      45.800 -30.216  19.230  1.00  0.00     0.093 A 
ATOM      8  C   UNL     1      46.588 -30.055  20.369  1.00  0.00     0.123 A 
ATOM      9  C   UNL     1      47.320 -28.881  20.546  1.00  0.00     0.094 A 
ATOM     10  C   UNL     1      47.289 -27.875  19.576  1.00  0.00     0.146 A 
ATOM     11  O   UNL     1      48.010 -26.778  19.777  1.00  0.00    -0.451 OA
ENDROOT
BRANCH   1  12
ATOM     12  C   UNL     1      48.889 -24.593  19.245  1.00  0.00     0.063 A 
ATOM     13  C   UNL     1      50.534 -22.930  18.569  1.00  0.00     0.047 A 
ATOM     14  C   UNL     1      49.792 -24.083  18.296  1.00  0.00     0.020 A 
ATOM     15  C   UNL     1      50.378 -22.267  19.788  1.00  0.00     0.119 A 
ATOM     16  C   UNL     1      49.480 -22.765  20.741  1.00  0.00     0.093 A 
ATOM     17  C   UNL     1      48.739 -23.925  20.483  1.00  0.00     0.130 A 
BRANCH  15  18
ATOM     18  O   UNL     1      51.120 -21.117  20.045  1.00  0.00    -0.508 OA
ATOM     19  H   UNL     1      51.150 -20.348  19.385  1.00  0.00     0.293 HD
ENDBRANCH  15  18
BRANCH  17  20
ATOM     20  O   UNL     1      47.885 -24.397  21.482  1.00  0.00    -0.507 OA
ATOM     21  H   UNL     1      47.872 -25.362  21.789  1.00  0.00     0.293 HD
ENDBRANCH  17  20
ENDBRANCH   1  12
BRANCH   2  22
ATOM     22  O   UNL     1      47.486 -24.834  16.752  1.00  0.00    -0.502 OA
ATOM     23  H   UNL     1      47.556 -25.011  15.757  1.00  0.00     0.293 HD
ENDBRANCH   2  22
BRANCH   6  24
ATOM     24  O   UNL     1      44.828 -29.434  17.205  1.00  0.00    -0.507 OA
ATOM     25  H   UNL     1      44.614 -28.764  16.481  1.00  0.00     0.293 HD
ENDBRANCH   6  24
BRANCH   8  26
ATOM     26  O   UNL     1      46.632 -31.070  21.323  1.00  0.00    -0.508 OA
ATOM     27  H   UNL     1      46.785 -32.036  21.063  1.00  0.00     0.293 HD
ENDBRANCH   8  26
TORSDOF 6
ENDMDL
MODEL 7
REMARK VINA RESULT:    -6.077      3.069      7.495
REMARK INTER + INTRA:          -7.723
REMARK INTER:                  -7.421
REMARK INTRA:                  -0.302
REMARK UNBOUND:                -0.403
REMARK SMILES O=c1c(O)c(-c2ccc(O)cc2O)oc2cc(O)cc(O)c12
REMARK SMILES IDX 5 1 3 2 2 3 1 4 22 5 20 6 19 7 17 8 16 9 15 10 14 11 6 12
REMARK SMILES IDX 8 13 7 14 9 15 11 16 12 17 10 18 13 20 4 22 21 24 18 26
REMARK H PARENT 10 19 13 21 4 23 21 25 18 27
REMARK Flexibility Score: inf
ROOT
ATOM      1  C   UNL     1      46.805 -27.167  18.568  1.00  0.00     0.184 A 
ATOM      2  C   UNL     1      47.386 -27.073  17.295  1.00  0.00     0.208 A 
ATOM      3  C   UNL     1      48.343 -26.074  17.055  1.00  0.00     0.238 A 
ATOM      4  O   UNL     1      48.815 -25.954  15.895  1.00  0.00    -0.285 OA
ATOM      5  C   UNL     1      48.725 -25.201  18.104  1.00  0.00     0.111 A 
ATOM      6  C   UNL     1      49.714 -24.177  17.987  1.00  0.00     0.134 A 
ATOM      7  C   UNL     1      49.923 -23.294  19.053  1.00  0.00     0.093 A 
ATOM      8  C   UNL     1      49.229 -23.437  20.254  1.00  0.00     0.123 A 
ATOM      9  C   UNL     1      48.302 -24.470  20.400  1.00  0.00     0.094 A 
ATOM     10  C   UNL     1      48.044 -25.344  19.342  1.00  0.00     0.146 A 
ATOM     11  O   UNL     1      47.145 -26.305  19.517  1.00  0.00    -0.451 OA
ENDROOT
BRANCH   1  12
ATOM     12  C   UNL     1      45.810 -28.215  18.883  1.00  0.00     0.063 A 
ATOM     13  C   UNL     1      43.665 -29.263  18.408  1.00  0.00     0.047 A 
ATOM     14  C   UNL     1      44.599 -28.252  18.170  1.00  0.00     0.020 A 
ATOM     15  C   UNL     1      43.928 -30.255  19.355  1.00  0.00     0.119 A 
ATOM     16  C   UNL     1      45.133 -30.229  20.071  1.00  0.00     0.093 A 
ATOM     17  C   UNL     1      46.072 -29.214  19.849  1.00  0.00     0.130 A 
BRANCH  15  18
ATOM     18  O   UNL     1      42.991 -31.259  19.579  1.00  0.00    -0.508 OA
ATOM     19  H   UNL     1      43.179 -32.029  20.211  1.00  0.00     0.293 HD
ENDBRANCH  15  18
BRANCH  17  20
ATOM     20  O   UNL     1      47.239 -29.217  20.616  1.00  0.00    -0.507 OA
ATOM     21  H   UNL     1      48.114 -28.824  20.293  1.00  0.00     0.293 HD
ENDBRANCH  17  20
ENDBRANCH   1  12
BRANCH   2  22
ATOM     22  O   UNL     1      46.992 -27.950  16.281  1.00  0.00    -0.502 OA
ATOM     23  H   UNL     1      47.360 -27.891  15.338  1.00  0.00     0.293 HD
ENDBRANCH   2  22
BRANCH   6  24
ATOM     24  O   UNL     1      50.529 -24.002  16.864  1.00  0.00    -0.507 OA
ATOM     25  H   UNL     1      50.569 -23.162  16.308  1.00  0.00     0.293 HD
ENDBRANCH   6  24
BRANCH   8  26
ATOM     26  O   UNL     1      49.474 -22.550  21.300  1.00  0.00    -0.508 OA
ATOM     27  H   UNL     1      50.282 -21.939  21.298  1.00  0.00     0.293 HD
ENDBRANCH   8  26
TORSDOF 6
ENDMDL
MODEL 8
REMARK VINA RESULT:    -6.046      4.910      6.607
REMARK INTER + INTRA:          -7.686
REMARK INTER:                  -7.322
REMARK INTRA:                  -0.364
REMARK UNBOUND:                -0.403
REMARK SMILES O=c1c(O)c(-c2ccc(O)cc2O)oc2cc(O)cc(O)c12
REMARK SMILES IDX 5 1 3 2 2 3 1 4 22 5 20 6 19 7 17 8 16 9 15 10 14 11 6 12
REMARK SMILES IDX 8 13 7 14 9 15 11 16 12 17 10 18 13 20 4 22 21 24 18 26
REMARK H PARENT 10 19 13 21 4 23 21 25 18 27
REMARK Flexibility Score: inf
ROOT
ATOM      1  C   UNL     1      49.088 -25.992  17.817  1.00  0.00     0.184 A 
ATOM      2  C   UNL     1      48.484 -25.750  16.574  1.00  0.00     0.208 A 
ATOM      3  C   UNL     1      48.394 -26.799  15.645  1.00  0.00     0.238 A 
ATOM      4  O   UNL     1      47.907 -26.561  14.510  1.00  0.00    -0.285 OA
ATOM      5  C   UNL     1      48.885 -28.083  15.985  1.00  0.00     0.111 A 
ATOM      6  C   UNL     1      48.810 -29.231  15.138  1.00  0.00     0.134 A 
ATOM      7  C   UNL     1      49.439 -30.420  15.529  1.00  0.00     0.093 A 
ATOM      8  C   UNL     1      50.080 -30.524  16.762  1.00  0.00     0.123 A 
ATOM      9  C   UNL     1      50.109 -29.427  17.624  1.00  0.00     0.094 A 
ATOM     10  C   UNL     1      49.524 -28.216  17.247  1.00  0.00     0.146 A 
ATOM     11  O   UNL     1      49.585 -27.192  18.090  1.00  0.00    -0.451 OA
ENDROOT
BRANCH   1  12
ATOM     12  C   UNL     1      49.189 -24.932  18.842  1.00  0.00     0.063 A 
ATOM     13  C   UNL     1      50.144 -22.811  19.561  1.00  0.00     0.047 A 
ATOM     14  C   UNL     1      50.070 -23.855  18.635  1.00  0.00     0.020 A 
ATOM     15  C   UNL     1      49.338 -22.823  20.701  1.00  0.00     0.119 A 
ATOM     16  C   UNL     1      48.455 -23.890  20.916  1.00  0.00     0.093 A 
ATOM     17  C   UNL     1      48.379 -24.947  20.001  1.00  0.00     0.130 A 
BRANCH  15  18
ATOM     18  O   UNL     1      49.419 -21.773  21.612  1.00  0.00    -0.508 OA
ATOM     19  H   UNL     1      49.610 -20.824  21.312  1.00  0.00     0.293 HD
ENDBRANCH  15  18
BRANCH  17  20
ATOM     20  O   UNL     1      47.509 -26.002  20.284  1.00  0.00    -0.507 OA
ATOM     21  H   UNL     1      47.466 -26.848  19.730  1.00  0.00     0.293 HD
ENDBRANCH  17  20
ENDBRANCH   1  12
BRANCH   2  22
ATOM     22  O   UNL     1      48.006 -24.474  16.267  1.00  0.00    -0.502 OA
ATOM     23  H   UNL     1      48.038 -23.708  16.930  1.00  0.00     0.293 HD
ENDBRANCH   2  22
BRANCH   6  24
ATOM     24  O   UNL     1      48.117 -29.262  13.924  1.00  0.00    -0.507 OA
ATOM     25  H   UNL     1      48.337 -28.694  13.121  1.00  0.00     0.293 HD
ENDBRANCH   6  24
BRANCH   8  26
ATOM     26  O   UNL     1      50.680 -31.728  17.125  1.00  0.00    -0.508 OA
ATOM     27  H   UNL     1      50.534 -32.138  18.040  1.00  0.00     0.293 HD
ENDBRANCH   8  26
TORSDOF 6
ENDMDL
MODEL 9
REMARK VINA RESULT:    -5.084      1.971      6.787
REMARK INTER + INTRA:          -6.527
REMARK INTER:                  -6.135
REMARK INTRA:                  -0.392
REMARK UNBOUND:                -0.403
REMARK SMILES O=c1c(O)c(-c2ccc(O)cc2O)oc2cc(O)cc(O)c12
REMARK SMILES IDX 5 1 3 2 2 3 1 4 22 5 20 6 19 7 17 8 16 9 15 10 14 11 6 12
REMARK SMILES IDX 8 13 7 14 9 15 11 16 12 17 10 18 13 20 4 22 21 24 18 26
REMARK H PARENT 10 19 13 21 4 23 21 25 18 27
REMARK Flexibility Score: inf
ROOT
ATOM      1  C   UNL     1      45.968 -28.333  18.360  1.00  0.00     0.184 A 
ATOM      2  C   UNL     1      46.356 -27.625  19.508  1.00  0.00     0.208 A 
ATOM      3  C   UNL     1      47.099 -26.444  19.361  1.00  0.00     0.238 A 
ATOM      4  O   UNL     1      47.497 -25.847  20.394  1.00  0.00    -0.285 OA
ATOM      5  C   UNL     1      47.420 -25.972  18.064  1.00  0.00     0.111 A 
ATOM      6  C   UNL     1      48.135 -24.765  17.794  1.00  0.00     0.134 A 
ATOM      7  C   UNL     1      48.503 -24.461  16.477  1.00  0.00     0.093 A 
ATOM      8  C   UNL     1      48.126 -25.282  15.416  1.00  0.00     0.123 A 
ATOM      9  C   UNL     1      47.377 -26.433  15.661  1.00  0.00     0.094 A 
ATOM     10  C   UNL     1      47.027 -26.784  16.967  1.00  0.00     0.146 A 
ATOM     11  O   UNL     1      46.326 -27.895  17.159  1.00  0.00    -0.451 OA
ENDROOT
BRANCH   1  12
ATOM     12  C   UNL     1      45.164 -29.570  18.454  1.00  0.00     0.063 A 
ATOM     13  C   UNL     1      45.078 -31.981  18.780  1.00  0.00     0.047 A 
ATOM     14  C   UNL     1      45.816 -30.803  18.632  1.00  0.00     0.020 A 
ATOM     15  C   UNL     1      43.683 -31.944  18.760  1.00  0.00     0.119 A 
ATOM     16  C   UNL     1      43.023 -30.721  18.585  1.00  0.00     0.093 A 
ATOM     17  C   UNL     1      43.751 -29.535  18.425  1.00  0.00     0.130 A 
BRANCH  15  18
ATOM     18  O   UNL     1      42.961 -33.125  18.914  1.00  0.00    -0.508 OA
ATOM     19  H   UNL     1      43.328 -33.905  19.447  1.00  0.00     0.293 HD
ENDBRANCH  15  18
BRANCH  17  20
ATOM     20  O   UNL     1      43.042 -28.350  18.218  1.00  0.00    -0.507 OA
ATOM     21  H   UNL     1      42.043 -28.324  18.059  1.00  0.00     0.293 HD
ENDBRANCH  17  20
ENDBRANCH   1  12
BRANCH   2  22
ATOM     22  O   UNL     1      46.022 -28.113  20.774  1.00  0.00    -0.502 OA
ATOM     23  H   UNL     1      46.718 -28.459  21.423  1.00  0.00     0.293 HD
ENDBRANCH   2  22
BRANCH   6  24
ATOM     24  O   UNL     1      48.483 -23.828  18.771  1.00  0.00    -0.507 OA
ATOM     25  H   UNL     1      48.955 -22.955  18.588  1.00  0.00     0.293 HD
ENDBRANCH   6  24
BRANCH   8  26
ATOM     26  O   UNL     1      48.495 -24.939  14.117  1.00  0.00    -0.508 OA
ATOM     27  H   UNL     1      49.467 -24.820  13.856  1.00  0.00     0.293 HD
ENDBRANCH   8  26
TORSDOF 6
ENDMDL
