MODEL 1
REMARK VINA RESULT:    -4.111      0.000      0.000
REMARK INTER + INTRA:          -4.232
REMARK INTER:                  -4.232
REMARK INTRA:                   0.000
REMARK UNBOUND:                 0.000
REMARK SMILES Nc1ncnc2nc[nH]c12
REMARK SMILES IDX 8 1 7 2 6 3 5 4 4 5 3 6 2 7 10 8 9 9 1 11
REMARK H PARENT 9 10 1 12 1 13
REMARK Flexibility Score: inf
ROOT
ATOM      1  C   UNL     1      71.129 -61.458 189.888  1.00  0.00     0.199 A 
ATOM      2  N   UNL     1      71.170 -62.756 189.480  1.00  0.00    -0.217 NA
ATOM      3  C   UNL     1      69.971 -62.909 188.895  1.00  0.00     0.182 A 
ATOM      4  N   UNL     1      69.495 -64.036 188.313  1.00  0.00    -0.215 NA
ATOM      5  C   UNL     1      68.242 -63.999 187.766  1.00  0.00     0.226 A 
ATOM      6  N   UNL     1      67.497 -62.848 187.810  1.00  0.00    -0.217 NA
ATOM      7  C   UNL     1      67.975 -61.711 188.396  1.00  0.00     0.152 A 
ATOM      8  C   UNL     1      69.252 -61.764 188.949  1.00  0.00     0.127 A 
ATOM      9  N   UNL     1      69.969 -60.825 189.577  1.00  0.00    -0.340 N 
ATOM     10  H   UNL     1      69.709 -59.835 189.785  1.00  0.00     0.168 HD
ENDROOT
BRANCH   7  11
ATOM     11  N   UNL     1      67.181 -60.524 188.431  1.00  0.00    -0.382 N 
ATOM     12  H   UNL     1      66.181 -60.574 188.727  1.00  0.00     0.158 HD
ATOM     13  H   UNL     1      67.577 -59.596 188.164  1.00  0.00     0.158 HD
ENDBRANCH   7  11
TORSDOF 1
ENDMDL
MODEL 2
REMARK VINA RESULT:    -4.021     19.383     20.393
REMARK INTER + INTRA:          -4.139
REMARK INTER:                  -4.139
REMARK INTRA:                   0.000
REMARK UNBOUND:                 0.000
REMARK SMILES Nc1ncnc2nc[nH]c12
REMARK SMILES IDX 8 1 7 2 6 3 5 4 4 5 3 6 2 7 10 8 9 9 1 11
REMARK H PARENT 9 10 1 12 1 13
REMARK Flexibility Score: inf
ROOT
ATOM      1  C   UNL     1      83.106 -57.379 203.961  1.00  0.00     0.199 A 
ATOM      2  N   UNL     1      83.854 -56.541 203.192  1.00  0.00    -0.217 NA
ATOM      3  C   UNL     1      84.181 -57.324 202.151  1.00  0.00     0.182 A 
ATOM      4  N   UNL     1      84.932 -56.972 201.080  1.00  0.00    -0.215 NA
ATOM      5  C   UNL     1      85.158 -57.913 200.114  1.00  0.00     0.226 A 
ATOM      6  N   UNL     1      84.634 -59.175 200.235  1.00  0.00    -0.217 NA
ATOM      7  C   UNL     1      83.876 -59.532 201.314  1.00  0.00     0.152 A 
ATOM      8  C   UNL     1      83.655 -58.563 202.289  1.00  0.00     0.127 A 
ATOM      9  N   UNL     1      82.966 -58.622 203.435  1.00  0.00    -0.340 N 
ATOM     10  H   UNL     1      82.440 -59.428 203.840  1.00  0.00     0.168 HD
ENDROOT
BRANCH   7  11
ATOM     11  N   UNL     1      83.341 -60.852 201.419  1.00  0.00    -0.382 N 
ATOM     12  H   UNL     1      82.313 -60.990 201.544  1.00  0.00     0.158 HD
ATOM     13  H   UNL     1      83.956 -61.694 201.373  1.00  0.00     0.158 HD
ENDBRANCH   7  11
TORSDOF 1
ENDMDL
MODEL 3
REMARK VINA RESULT:    -4.015     11.425     12.688
REMARK INTER + INTRA:          -4.132
REMARK INTER:                  -4.132
REMARK INTRA:                   0.000
REMARK UNBOUND:                 0.000
REMARK SMILES Nc1ncnc2nc[nH]c12
REMARK SMILES IDX 8 1 7 2 6 3 5 4 4 5 3 6 2 7 10 8 9 9 1 11
REMARK H PARENT 9 10 1 12 1 13
REMARK Flexibility Score: inf
ROOT
ATOM      1  C   UNL     1      69.550 -63.369 199.726  1.00  0.00     0.199 A 
ATOM      2  N   UNL     1      68.713 -62.391 199.282  1.00  0.00    -0.217 NA
ATOM      3  C   UNL     1      68.961 -61.391 200.143  1.00  0.00     0.182 A 
ATOM      4  N   UNL     1      68.382 -60.167 200.147  1.00  0.00    -0.215 NA
ATOM      5  C   UNL     1      68.767 -59.274 201.108  1.00  0.00     0.226 A 
ATOM      6  N   UNL     1      69.713 -59.619 202.039  1.00  0.00    -0.217 NA
ATOM      7  C   UNL     1      70.299 -60.853 202.037  1.00  0.00     0.152 A 
ATOM      8  C   UNL     1      69.897 -61.750 201.052  1.00  0.00     0.127 A 
ATOM      9  N   UNL     1      70.287 -63.007 200.806  1.00  0.00    -0.340 N 
ATOM     10  H   UNL     1      70.991 -63.584 201.318  1.00  0.00     0.168 HD
ENDROOT
BRANCH   7  11
ATOM     11  N   UNL     1      71.283 -61.190 203.017  1.00  0.00    -0.382 N 
ATOM     12  H   UNL     1      72.103 -61.779 202.751  1.00  0.00     0.158 HD
ATOM     13  H   UNL     1      71.204 -60.860 204.003  1.00  0.00     0.158 HD
ENDBRANCH   7  11
TORSDOF 1
ENDMDL
MODEL 4
REMARK VINA RESULT:    -3.890      2.090      4.454
REMARK INTER + INTRA:          -4.003
REMARK INTER:                  -4.003
REMARK INTRA:                   0.000
REMARK UNBOUND:                 0.000
REMARK SMILES Nc1ncnc2nc[nH]c12
REMARK SMILES IDX 8 1 7 2 6 3 5 4 4 5 3 6 2 7 10 8 9 9 1 11
REMARK H PARENT 9 10 1 12 1 13
REMARK Flexibility Score: inf
ROOT
ATOM      1  C   UNL     1      70.901 -63.224 188.718  1.00  0.00     0.199 A 
ATOM      2  N   UNL     1      70.005 -62.199 188.746  1.00  0.00    -0.217 NA
ATOM      3  C   UNL     1      70.412 -61.494 189.814  1.00  0.00     0.182 A 
ATOM      4  N   UNL     1      69.852 -60.357 190.292  1.00  0.00    -0.215 NA
ATOM      5  C   UNL     1      70.410 -59.778 191.398  1.00  0.00     0.226 A 
ATOM      6  N   UNL     1      71.507 -60.341 191.999  1.00  0.00    -0.217 NA
ATOM      7  C   UNL     1      72.073 -61.488 191.519  1.00  0.00     0.152 A 
ATOM      8  C   UNL     1      71.493 -62.065 190.393  1.00  0.00     0.127 A 
ATOM      9  N   UNL     1      71.824 -63.169 189.712  1.00  0.00    -0.340 N 
ATOM     10  H   UNL     1      72.604 -63.838 189.892  1.00  0.00     0.168 HD
ENDROOT
BRANCH   7  11
ATOM     11  N   UNL     1      73.215 -62.057 192.162  1.00  0.00    -0.382 N 
ATOM     12  H   UNL     1      73.468 -63.055 191.989  1.00  0.00     0.158 HD
ATOM     13  H   UNL     1      73.811 -61.495 192.809  1.00  0.00     0.158 HD
ENDBRANCH   7  11
TORSDOF 1
ENDMDL
MODEL 5
REMARK VINA RESULT:    -3.733     11.133     12.207
REMARK INTER + INTRA:          -3.842
REMARK INTER:                  -3.842
REMARK INTRA:                   0.000
REMARK UNBOUND:                 0.000
REMARK SMILES Nc1ncnc2nc[nH]c12
REMARK SMILES IDX 8 1 7 2 6 3 5 4 4 5 3 6 2 7 10 8 9 9 1 11
REMARK H PARENT 9 10 1 12 1 13
REMARK Flexibility Score: inf
ROOT
ATOM      1  C   UNL     1      70.755 -60.263 202.404  1.00  0.00     0.199 A 
ATOM      2  N   UNL     1      70.033 -59.545 201.500  1.00  0.00    -0.217 NA
ATOM      3  C   UNL     1      69.573 -60.503 200.678  1.00  0.00     0.182 A 
ATOM      4  N   UNL     1      68.788 -60.323 199.589  1.00  0.00    -0.215 NA
ATOM      5  C   UNL     1      68.418 -61.426 198.871  1.00  0.00     0.226 A 
ATOM      6  N   UNL     1      68.836 -62.676 199.251  1.00  0.00    -0.217 NA
ATOM      7  C   UNL     1      69.627 -62.860 200.349  1.00  0.00     0.152 A 
ATOM      8  C   UNL     1      69.996 -61.727 201.070  1.00  0.00     0.127 A 
ATOM      9  N   UNL     1      70.750 -61.600 202.167  1.00  0.00    -0.340 N 
ATOM     10  H   UNL     1      71.229 -62.345 202.721  1.00  0.00     0.168 HD
ENDROOT
BRANCH   7  11
ATOM     11  N   UNL     1      70.051 -64.171 200.727  1.00  0.00    -0.382 N 
ATOM     12  H   UNL     1      70.226 -64.893 199.993  1.00  0.00     0.158 HD
ATOM     13  H   UNL     1      70.192 -64.431 201.727  1.00  0.00     0.158 HD
ENDBRANCH   7  11
TORSDOF 1
ENDMDL
MODEL 6
REMARK VINA RESULT:    -3.733     17.631     19.623
REMARK INTER + INTRA:          -3.842
REMARK INTER:                  -3.842
REMARK INTRA:                   0.000
REMARK UNBOUND:                 0.000
REMARK SMILES Nc1ncnc2nc[nH]c12
REMARK SMILES IDX 8 1 7 2 6 3 5 4 4 5 3 6 2 7 10 8 9 9 1 11
REMARK H PARENT 9 10 1 12 1 13
REMARK Flexibility Score: inf
ROOT
ATOM      1  C   UNL     1      85.655 -59.400 201.301  1.00  0.00     0.199 A 
ATOM      2  N   UNL     1      85.382 -58.595 202.365  1.00  0.00    -0.217 NA
ATOM      3  C   UNL     1      84.186 -58.080 202.033  1.00  0.00     0.182 A 
ATOM      4  N   UNL     1      83.455 -57.203 202.761  1.00  0.00    -0.215 NA
ATOM      5  C   UNL     1      82.253 -56.790 202.255  1.00  0.00     0.226 A 
ATOM      6  N   UNL     1      81.810 -57.257 201.044  1.00  0.00    -0.217 NA
ATOM      7  C   UNL     1      82.546 -58.142 200.309  1.00  0.00     0.152 A 
ATOM      8  C   UNL     1      83.767 -58.553 200.837  1.00  0.00     0.127 A 
ATOM      9  N   UNL     1      84.686 -59.396 200.351  1.00  0.00    -0.340 N 
ATOM     10  H   UNL     1      84.674 -59.930 199.454  1.00  0.00     0.168 HD
ENDROOT
BRANCH   7  11
ATOM     11  N   UNL     1      82.064 -58.615 199.050  1.00  0.00    -0.382 N 
ATOM     12  H   UNL     1      81.238 -58.159 198.603  1.00  0.00     0.158 HD
ATOM     13  H   UNL     1      82.521 -59.414 198.558  1.00  0.00     0.158 HD
ENDBRANCH   7  11
TORSDOF 1
ENDMDL
MODEL 7
REMARK VINA RESULT:    -3.717      1.116      3.063
REMARK INTER + INTRA:          -3.825
REMARK INTER:                  -3.825
REMARK INTRA:                   0.000
REMARK UNBOUND:                 0.000
REMARK SMILES Nc1ncnc2nc[nH]c12
REMARK SMILES IDX 8 1 7 2 6 3 5 4 4 5 3 6 2 7 10 8 9 9 1 11
REMARK H PARENT 9 10 1 12 1 13
REMARK Flexibility Score: inf
ROOT
ATOM      1  C   UNL     1      67.577 -62.192 187.948  1.00  0.00     0.199 A 
ATOM      2  N   UNL     1      68.507 -63.182 188.024  1.00  0.00    -0.217 NA
ATOM      3  C   UNL     1      69.477 -62.608 188.755  1.00  0.00     0.182 A 
ATOM      4  N   UNL     1      70.650 -63.174 189.127  1.00  0.00    -0.215 NA
ATOM      5  C   UNL     1      71.517 -62.427 189.876  1.00  0.00     0.226 A 
ATOM      6  N   UNL     1      71.198 -61.142 190.236  1.00  0.00    -0.217 NA
ATOM      7  C   UNL     1      70.015 -60.571 189.861  1.00  0.00     0.152 A 
ATOM      8  C   UNL     1      69.143 -61.343 189.099  1.00  0.00     0.127 A 
ATOM      9  N   UNL     1      67.937 -61.055 188.596  1.00  0.00    -0.340 N 
ATOM     10  H   UNL     1      67.391 -60.169 188.676  1.00  0.00     0.168 HD
ENDROOT
BRANCH   7  11
ATOM     11  N   UNL     1      69.704 -59.231 190.247  1.00  0.00    -0.382 N 
ATOM     12  H   UNL     1      69.756 -58.952 191.252  1.00  0.00     0.158 HD
ATOM     13  H   UNL     1      69.423 -58.513 189.544  1.00  0.00     0.158 HD
ENDBRANCH   7  11
TORSDOF 1
ENDMDL
MODEL 8
REMARK VINA RESULT:    -3.584     10.731     12.084
REMARK INTER + INTRA:          -3.689
REMARK INTER:                  -3.689
REMARK INTRA:                   0.000
REMARK UNBOUND:                 0.000
REMARK SMILES Nc1ncnc2nc[nH]c12
REMARK SMILES IDX 8 1 7 2 6 3 5 4 4 5 3 6 2 7 10 8 9 9 1 11
REMARK H PARENT 9 10 1 12 1 13
REMARK Flexibility Score: inf
ROOT
ATOM      1  C   UNL     1      71.166 -58.440 198.638  1.00  0.00     0.199 A 
ATOM      2  N   UNL     1      71.555 -58.220 199.924  1.00  0.00    -0.217 NA
ATOM      3  C   UNL     1      71.121 -59.329 200.546  1.00  0.00     0.182 A 
ATOM      4  N   UNL     1      71.254 -59.620 201.862  1.00  0.00    -0.215 NA
ATOM      5  C   UNL     1      70.746 -60.807 202.314  1.00  0.00     0.226 A 
ATOM      6  N   UNL     1      70.121 -61.670 201.451  1.00  0.00    -0.217 NA
ATOM      7  C   UNL     1      69.986 -61.378 200.124  1.00  0.00     0.152 A 
ATOM      8  C   UNL     1      70.509 -60.166 199.679  1.00  0.00     0.127 A 
ATOM      9  N   UNL     1      70.525 -59.622 198.456  1.00  0.00    -0.340 N 
ATOM     10  H   UNL     1      70.138 -60.005 197.565  1.00  0.00     0.168 HD
ENDROOT
BRANCH   7  11
ATOM     11  N   UNL     1      69.331 -62.292 199.243  1.00  0.00    -0.382 N 
ATOM     12  H   UNL     1      69.082 -63.250 199.577  1.00  0.00     0.158 HD
ATOM     13  H   UNL     1      69.091 -62.027 198.263  1.00  0.00     0.158 HD
ENDBRANCH   7  11
TORSDOF 1
ENDMDL
MODEL 9
REMARK VINA RESULT:    -3.558     11.487     12.227
REMARK INTER + INTRA:          -3.662
REMARK INTER:                  -3.662
REMARK INTRA:                   0.000
REMARK UNBOUND:                 0.000
REMARK SMILES Nc1ncnc2nc[nH]c12
REMARK SMILES IDX 8 1 7 2 6 3 5 4 4 5 3 6 2 7 10 8 9 9 1 11
REMARK H PARENT 9 10 1 12 1 13
REMARK Flexibility Score: inf
ROOT
ATOM      1  C   UNL     1      77.741 -52.641 192.593  1.00  0.00     0.199 A 
ATOM      2  N   UNL     1      78.332 -53.692 193.225  1.00  0.00    -0.217 NA
ATOM      3  C   UNL     1      77.302 -54.240 193.892  1.00  0.00     0.182 A 
ATOM      4  N   UNL     1      77.348 -55.332 194.692  1.00  0.00    -0.215 NA
ATOM      5  C   UNL     1      76.189 -55.743 195.288  1.00  0.00     0.226 A 
ATOM      6  N   UNL     1      75.017 -55.063 195.075  1.00  0.00    -0.217 NA
ATOM      7  C   UNL     1      74.969 -53.962 194.268  1.00  0.00     0.152 A 
ATOM      8  C   UNL     1      76.157 -53.555 193.668  1.00  0.00     0.127 A 
ATOM      9  N   UNL     1      76.411 -52.532 192.844  1.00  0.00    -0.340 N 
ATOM     10  H   UNL     1      75.752 -51.812 192.474  1.00  0.00     0.168 HD
ENDROOT
BRANCH   7  11
ATOM     11  N   UNL     1      73.737 -53.269 194.061  1.00  0.00    -0.382 N 
ATOM     12  H   UNL     1      73.591 -52.325 194.485  1.00  0.00     0.158 HD
ATOM     13  H   UNL     1      72.968 -53.683 193.490  1.00  0.00     0.158 HD
ENDBRANCH   7  11
TORSDOF 1
ENDMDL
