MODEL 1
REMARK VINA RESULT:    -7.631      0.000      0.000
REMARK INTER + INTRA:          -8.540
REMARK INTER:                  -8.300
REMARK INTRA:                  -0.241
REMARK UNBOUND:                -0.241
REMARK SMILES C=C(C)[C@H]1CC[C@]2(C)CC[C@@]3(C)[C@@H](CC[C@H]4[C@]5(C)CC[C@@H](O)C(C)(C)[C@@H]5CC[C@]43C)[C@H]12
REMARK SMILES IDX 4 1 5 2 6 3 7 4 31 5 13 6 14 7 15 8 16 9 17 10 19 11 20 12
REMARK SMILES IDX 21 13 23 14 26 15 27 16 28 17 29 18 11 19 10 20 9 21 12 22
REMARK SMILES IDX 30 23 24 24 25 25 18 26 8 27 2 28 3 29 1 30 22 31
REMARK H PARENT 22 32
REMARK Flexibility Score: inf
ROOT
ATOM      1  C   UNL     1       4.154   6.075 -23.645  1.00  0.00     0.018 C 
ATOM      2  C   UNL     1       3.087   7.155 -23.819  1.00  0.00     0.009 C 
ATOM      3  C   UNL     1       2.399   6.812 -25.132  1.00  0.00     0.008 C 
ATOM      4  C   UNL     1       3.512   6.273 -26.044  1.00  0.00    -0.029 C 
ATOM      5  C   UNL     1       4.461   5.497 -25.066  1.00  0.00     0.006 C 
ATOM      6  C   UNL     1       4.328   3.922 -25.032  1.00  0.00    -0.000 C 
ATOM      7  C   UNL     1       5.584   3.320 -24.363  1.00  0.00     0.005 C 
ATOM      8  C   UNL     1       5.886   1.856 -24.701  1.00  0.00     0.005 C 
ATOM      9  C   UNL     1       4.668   0.954 -25.060  1.00  0.00     0.002 C 
ATOM     10  C   UNL     1       4.007   0.206 -23.808  1.00  0.00    -0.026 C 
ATOM     11  C   UNL     1       5.031  -0.686 -23.006  1.00  0.00     0.010 C 
ATOM     12  C   UNL     1       5.360  -2.032 -23.630  1.00  0.00     0.033 C 
ATOM     13  C   UNL     1       4.097  -2.883 -23.739  1.00  0.00     0.120 C 
ATOM     14  C   UNL     1       3.061  -2.215 -24.691  1.00  0.00    -0.006 C 
ATOM     15  C   UNL     1       2.778  -0.698 -24.260  1.00  0.00     0.003 C 
ATOM     16  C   UNL     1       1.796   0.020 -25.233  1.00  0.00     0.005 C 
ATOM     17  C   UNL     1       2.183   1.432 -25.690  1.00  0.00     0.008 C 
ATOM     18  C   UNL     1       3.674   1.647 -26.130  1.00  0.00    -0.024 C 
ATOM     19  C   UNL     1       3.976   3.235 -26.378  1.00  0.00    -0.024 C 
ATOM     20  C   UNL     1       2.705   3.975 -26.918  1.00  0.00     0.008 C 
ATOM     21  C   UNL     1       2.938   5.448 -27.230  1.00  0.00     0.007 C 
ATOM     22  C   UNL     1       5.133   3.464 -27.413  1.00  0.00     0.012 C 
ATOM     23  C   UNL     1       3.818   0.916 -27.504  1.00  0.00     0.012 C 
ATOM     24  C   UNL     1       3.576  -2.392 -26.149  1.00  0.00     0.014 C 
ATOM     25  C   UNL     1       1.738  -3.028 -24.601  1.00  0.00     0.014 C 
ATOM     26  C   UNL     1       3.530   1.240 -22.738  1.00  0.00     0.012 C 
ATOM     27  C   UNL     1       4.251   7.485 -26.680  1.00  0.00     0.011 C 
ENDROOT
BRANCH   1  28
ATOM     28  C   UNL     1       5.389   6.541 -22.875  1.00  0.00    -0.077 C 
ATOM     29  C   UNL     1       6.215   5.542 -22.103  1.00  0.00     0.039 C 
ATOM     30  C   UNL     1       5.784   7.824 -22.874  1.00  0.00     0.008 C 
ENDBRANCH   1  28
BRANCH  13  31
ATOM     31  O   UNL     1       3.554  -3.074 -22.451  1.00  0.00    -0.393 OA
ATOM     32  H   UNL     1       3.862  -2.320 -21.881  1.00  0.00     0.210 HD
ENDBRANCH  13  31
TORSDOF 2
ENDMDL
MODEL 2
REMARK VINA RESULT:    -7.226      2.517      7.585
REMARK INTER + INTRA:          -8.100
REMARK INTER:                  -7.757
REMARK INTRA:                  -0.343
REMARK UNBOUND:                -0.241
REMARK SMILES C=C(C)[C@H]1CC[C@]2(C)CC[C@@]3(C)[C@@H](CC[C@H]4[C@]5(C)CC[C@@H](O)C(C)(C)[C@@H]5CC[C@]43C)[C@H]12
REMARK SMILES IDX 4 1 5 2 6 3 7 4 31 5 13 6 14 7 15 8 16 9 17 10 19 11 20 12
REMARK SMILES IDX 21 13 23 14 26 15 27 16 28 17 29 18 11 19 10 20 9 21 12 22
REMARK SMILES IDX 30 23 24 24 25 25 18 26 8 27 2 28 3 29 1 30 22 31
REMARK H PARENT 22 32
REMARK Flexibility Score: inf
ROOT
ATOM      1  C   UNL     1       1.003  -1.088 -25.526  1.00  0.00     0.018 C 
ATOM      2  C   UNL     1       0.055  -1.913 -24.657  1.00  0.00     0.009 C 
ATOM      3  C   UNL     1       0.785  -2.075 -23.332  1.00  0.00     0.008 C 
ATOM      4  C   UNL     1       2.270  -2.219 -23.702  1.00  0.00    -0.029 C 
ATOM      5  C   UNL     1       2.444  -1.277 -24.944  1.00  0.00     0.006 C 
ATOM      6  C   UNL     1       3.096   0.140 -24.688  1.00  0.00    -0.000 C 
ATOM      7  C   UNL     1       3.567   0.734 -26.034  1.00  0.00     0.005 C 
ATOM      8  C   UNL     1       4.658   1.807 -25.947  1.00  0.00     0.005 C 
ATOM      9  C   UNL     1       4.701   2.659 -24.644  1.00  0.00     0.002 C 
ATOM     10  C   UNL     1       3.823   3.997 -24.700  1.00  0.00    -0.026 C 
ATOM     11  C   UNL     1       4.215   4.948 -25.896  1.00  0.00     0.010 C 
ATOM     12  C   UNL     1       5.467   5.784 -25.687  1.00  0.00     0.033 C 
ATOM     13  C   UNL     1       5.285   6.713 -24.489  1.00  0.00     0.120 C 
ATOM     14  C   UNL     1       5.100   5.892 -23.178  1.00  0.00    -0.006 C 
ATOM     15  C   UNL     1       3.927   4.812 -23.337  1.00  0.00     0.003 C 
ATOM     16  C   UNL     1       3.759   3.929 -22.065  1.00  0.00     0.005 C 
ATOM     17  C   UNL     1       3.616   2.418 -22.285  1.00  0.00     0.008 C 
ATOM     18  C   UNL     1       4.608   1.757 -23.306  1.00  0.00    -0.024 C 
ATOM     19  C   UNL     1       4.189   0.201 -23.588  1.00  0.00    -0.024 C 
ATOM     20  C   UNL     1       3.554  -0.453 -22.314  1.00  0.00     0.008 C 
ATOM     21  C   UNL     1       3.198  -1.924 -22.492  1.00  0.00     0.007 C 
ATOM     22  C   UNL     1       5.419  -0.677 -24.009  1.00  0.00     0.012 C 
ATOM     23  C   UNL     1       6.002   1.753 -22.599  1.00  0.00     0.012 C 
ATOM     24  C   UNL     1       6.485   5.298 -22.792  1.00  0.00     0.014 C 
ATOM     25  C   UNL     1       4.727   6.888 -22.043  1.00  0.00     0.014 C 
ATOM     26  C   UNL     1       2.326   3.662 -24.997  1.00  0.00     0.012 C 
ATOM     27  C   UNL     1       2.533  -3.701 -24.097  1.00  0.00     0.011 C 
ENDROOT
BRANCH   1  28
ATOM     28  C   UNL     1       0.885  -1.378 -27.022  1.00  0.00    -0.077 C 
ATOM     29  C   UNL     1      -0.458  -1.284 -27.702  1.00  0.00     0.039 C 
ATOM     30  C   UNL     1       1.952  -1.700 -27.770  1.00  0.00     0.008 C 
ENDBRANCH   1  28
BRANCH  13  31
ATOM     31  O   UNL     1       4.180   7.558 -24.721  1.00  0.00    -0.393 OA
ATOM     32  H   UNL     1       4.437   8.198 -25.437  1.00  0.00     0.210 HD
ENDBRANCH  13  31
TORSDOF 2
ENDMDL
MODEL 3
REMARK VINA RESULT:    -5.755      2.737      7.598
REMARK INTER + INTRA:          -6.500
REMARK INTER:                  -6.514
REMARK INTRA:                   0.014
REMARK UNBOUND:                -0.241
REMARK SMILES C=C(C)[C@H]1CC[C@]2(C)CC[C@@]3(C)[C@@H](CC[C@H]4[C@]5(C)CC[C@@H](O)C(C)(C)[C@@H]5CC[C@]43C)[C@H]12
REMARK SMILES IDX 4 1 5 2 6 3 7 4 31 5 13 6 14 7 15 8 16 9 17 10 19 11 20 12
REMARK SMILES IDX 21 13 23 14 26 15 27 16 28 17 29 18 11 19 10 20 9 21 12 22
REMARK SMILES IDX 30 23 24 24 25 25 18 26 8 27 2 28 3 29 1 30 22 31
REMARK H PARENT 22 32
REMARK Flexibility Score: inf
ROOT
ATOM      1  C   UNL     1       1.813  -0.960 -24.090  1.00  0.00     0.018 C 
ATOM      2  C   UNL     1       2.523  -1.659 -22.931  1.00  0.00     0.009 C 
ATOM      3  C   UNL     1       4.004  -1.410 -23.177  1.00  0.00     0.008 C 
ATOM      4  C   UNL     1       4.176  -1.462 -24.703  1.00  0.00    -0.029 C 
ATOM      5  C   UNL     1       2.850  -0.831 -25.255  1.00  0.00     0.006 C 
ATOM      6  C   UNL     1       2.913   0.673 -25.737  1.00  0.00    -0.000 C 
ATOM      7  C   UNL     1       1.680   0.978 -26.615  1.00  0.00     0.005 C 
ATOM      8  C   UNL     1       1.819   2.162 -27.578  1.00  0.00     0.005 C 
ATOM      9  C   UNL     1       2.792   3.301 -27.151  1.00  0.00     0.002 C 
ATOM     10  C   UNL     1       2.107   4.472 -26.302  1.00  0.00    -0.026 C 
ATOM     11  C   UNL     1       0.890   5.148 -27.043  1.00  0.00     0.010 C 
ATOM     12  C   UNL     1       1.254   6.152 -28.125  1.00  0.00     0.033 C 
ATOM     13  C   UNL     1       2.040   7.313 -27.520  1.00  0.00     0.120 C 
ATOM     14  C   UNL     1       3.393   6.815 -26.929  1.00  0.00    -0.006 C 
ATOM     15  C   UNL     1       3.164   5.597 -25.914  1.00  0.00     0.003 C 
ATOM     16  C   UNL     1       4.504   5.032 -25.355  1.00  0.00     0.005 C 
ATOM     17  C   UNL     1       4.660   3.507 -25.343  1.00  0.00     0.008 C 
ATOM     18  C   UNL     1       4.221   2.742 -26.642  1.00  0.00    -0.024 C 
ATOM     19  C   UNL     1       4.245   1.126 -26.393  1.00  0.00    -0.024 C 
ATOM     20  C   UNL     1       5.377   0.726 -25.386  1.00  0.00     0.008 C 
ATOM     21  C   UNL     1       5.494  -0.777 -25.159  1.00  0.00     0.007 C 
ATOM     22  C   UNL     1       4.486   0.324 -27.720  1.00  0.00     0.012 C 
ATOM     23  C   UNL     1       5.308   3.073 -27.715  1.00  0.00     0.012 C 
ATOM     24  C   UNL     1       4.342   6.500 -28.121  1.00  0.00     0.014 C 
ATOM     25  C   UNL     1       4.044   8.003 -26.164  1.00  0.00     0.014 C 
ATOM     26  C   UNL     1       1.451   3.901 -25.004  1.00  0.00     0.012 C 
ATOM     27  C   UNL     1       4.295  -2.953 -25.131  1.00  0.00     0.011 C 
ENDROOT
BRANCH   1  28
ATOM     28  C   UNL     1       0.491  -1.613 -24.492  1.00  0.00    -0.077 C 
ATOM     29  C   UNL     1      -0.110  -2.690 -23.624  1.00  0.00     0.039 C 
ATOM     30  C   UNL     1      -0.176  -1.245 -25.597  1.00  0.00     0.008 C 
ENDBRANCH   1  28
BRANCH  13  31
ATOM     31  O   UNL     1       1.254   7.940 -26.531  1.00  0.00    -0.393 OA
ATOM     32  H   UNL     1       1.401   8.920 -26.609  1.00  0.00     0.210 HD
ENDBRANCH  13  31
TORSDOF 2
ENDMDL
MODEL 4
REMARK VINA RESULT:    -5.650      2.625      7.607
REMARK INTER + INTRA:          -6.386
REMARK INTER:                  -5.854
REMARK INTRA:                  -0.532
REMARK UNBOUND:                -0.241
REMARK SMILES C=C(C)[C@H]1CC[C@]2(C)CC[C@@]3(C)[C@@H](CC[C@H]4[C@]5(C)CC[C@@H](O)C(C)(C)[C@@H]5CC[C@]43C)[C@H]12
REMARK SMILES IDX 4 1 5 2 6 3 7 4 31 5 13 6 14 7 15 8 16 9 17 10 19 11 20 12
REMARK SMILES IDX 21 13 23 14 26 15 27 16 28 17 29 18 11 19 10 20 9 21 12 22
REMARK SMILES IDX 30 23 24 24 25 25 18 26 8 27 2 28 3 29 1 30 22 31
REMARK H PARENT 22 32
REMARK Flexibility Score: inf
ROOT
ATOM      1  C   UNL     1       3.304  -0.874 -25.781  1.00  0.00     0.018 C 
ATOM      2  C   UNL     1       2.625  -1.818 -24.789  1.00  0.00     0.009 C 
ATOM      3  C   UNL     1       2.857  -1.183 -23.427  1.00  0.00     0.008 C 
ATOM      4  C   UNL     1       4.263  -0.566 -23.501  1.00  0.00    -0.029 C 
ATOM      5  C   UNL     1       4.377  -0.062 -24.982  1.00  0.00     0.006 C 
ATOM      6  C   UNL     1       4.161   1.483 -25.236  1.00  0.00    -0.000 C 
ATOM      7  C   UNL     1       4.717   1.853 -26.630  1.00  0.00     0.005 C 
ATOM      8  C   UNL     1       5.078   3.327 -26.838  1.00  0.00     0.005 C 
ATOM      9  C   UNL     1       4.280   4.369 -25.999  1.00  0.00     0.002 C 
ATOM     10  C   UNL     1       2.953   4.914 -26.711  1.00  0.00    -0.026 C 
ATOM     11  C   UNL     1       3.226   5.559 -28.124  1.00  0.00     0.010 C 
ATOM     12  C   UNL     1       3.790   6.971 -28.105  1.00  0.00     0.033 C 
ATOM     13  C   UNL     1       2.807   7.919 -27.422  1.00  0.00     0.120 C 
ATOM     14  C   UNL     1       2.603   7.522 -25.930  1.00  0.00    -0.006 C 
ATOM     15  C   UNL     1       2.202   5.977 -25.795  1.00  0.00     0.003 C 
ATOM     16  C   UNL     1       2.055   5.531 -24.310  1.00  0.00     0.005 C 
ATOM     17  C   UNL     1       2.719   4.206 -23.916  1.00  0.00     0.008 C 
ATOM     18  C   UNL     1       4.181   3.968 -24.437  1.00  0.00    -0.024 C 
ATOM     19  C   UNL     1       4.661   2.437 -24.118  1.00  0.00    -0.024 C 
ATOM     20  C   UNL     1       4.023   1.909 -22.787  1.00  0.00     0.008 C 
ATOM     21  C   UNL     1       4.481   0.509 -22.400  1.00  0.00     0.007 C 
ATOM     22  C   UNL     1       6.219   2.322 -23.975  1.00  0.00     0.012 C 
ATOM     23  C   UNL     1       5.088   4.932 -23.606  1.00  0.00     0.012 C 
ATOM     24  C   UNL     1       3.886   7.933 -25.151  1.00  0.00     0.014 C 
ATOM     25  C   UNL     1       1.453   8.400 -25.358  1.00  0.00     0.014 C 
ATOM     26  C   UNL     1       1.984   3.736 -27.047  1.00  0.00     0.012 C 
ATOM     27  C   UNL     1       5.304  -1.688 -23.222  1.00  0.00     0.011 C 
ENDROOT
BRANCH   1  28
ATOM     28  C   UNL     1       3.841  -1.568 -27.031  1.00  0.00    -0.077 C 
ATOM     29  C   UNL     1       5.257  -2.088 -27.052  1.00  0.00     0.039 C 
ATOM     30  C   UNL     1       3.083  -1.754 -28.122  1.00  0.00     0.008 C 
ENDBRANCH   1  28
BRANCH  13  31
ATOM     31  O   UNL     1       1.584   7.903 -28.125  1.00  0.00    -0.393 OA
ATOM     32  H   UNL     1       1.712   8.424 -28.961  1.00  0.00     0.210 HD
ENDBRANCH  13  31
TORSDOF 2
ENDMDL
MODEL 5
REMARK VINA RESULT:    -4.758      2.755      7.775
REMARK INTER + INTRA:          -5.416
REMARK INTER:                  -5.111
REMARK INTRA:                  -0.305
REMARK UNBOUND:                -0.241
REMARK SMILES C=C(C)[C@H]1CC[C@]2(C)CC[C@@]3(C)[C@@H](CC[C@H]4[C@]5(C)CC[C@@H](O)C(C)(C)[C@@H]5CC[C@]43C)[C@H]12
REMARK SMILES IDX 4 1 5 2 6 3 7 4 31 5 13 6 14 7 15 8 16 9 17 10 19 11 20 12
REMARK SMILES IDX 21 13 23 14 26 15 27 16 28 17 29 18 11 19 10 20 9 21 12 22
REMARK SMILES IDX 30 23 24 24 25 25 18 26 8 27 2 28 3 29 1 30 22 31
REMARK H PARENT 22 32
REMARK Flexibility Score: inf
ROOT
ATOM      1  C   UNL     1      -0.040  -0.943 -25.703  1.00  0.00     0.018 C 
ATOM      2  C   UNL     1      -0.545  -1.699 -24.474  1.00  0.00     0.009 C 
ATOM      3  C   UNL     1       0.632  -1.705 -23.511  1.00  0.00     0.008 C 
ATOM      4  C   UNL     1       1.879  -1.849 -24.396  1.00  0.00    -0.029 C 
ATOM      5  C   UNL     1       1.522  -1.034 -25.689  1.00  0.00     0.006 C 
ATOM      6  C   UNL     1       2.133   0.417 -25.817  1.00  0.00    -0.000 C 
ATOM      7  C   UNL     1       2.035   0.882 -27.288  1.00  0.00     0.005 C 
ATOM      8  C   UNL     1       3.011   1.986 -27.708  1.00  0.00     0.005 C 
ATOM      9  C   UNL     1       3.480   2.968 -26.594  1.00  0.00     0.002 C 
ATOM     10  C   UNL     1       2.563   4.271 -26.431  1.00  0.00    -0.026 C 
ATOM     11  C   UNL     1       2.424   5.103 -27.763  1.00  0.00     0.010 C 
ATOM     12  C   UNL     1       3.610   5.989 -28.112  1.00  0.00     0.033 C 
ATOM     13  C   UNL     1       3.827   7.030 -27.017  1.00  0.00     0.120 C 
ATOM     14  C   UNL     1       4.191   6.344 -25.667  1.00  0.00    -0.006 C 
ATOM     15  C   UNL     1       3.112   5.223 -25.282  1.00  0.00     0.003 C 
ATOM     16  C   UNL     1       3.483   4.472 -23.968  1.00  0.00     0.005 C 
ATOM     17  C   UNL     1       3.364   2.943 -23.989  1.00  0.00     0.008 C 
ATOM     18  C   UNL     1       3.946   2.206 -25.247  1.00  0.00    -0.024 C 
ATOM     19  C   UNL     1       3.550   0.620 -25.216  1.00  0.00    -0.024 C 
ATOM     20  C   UNL     1       3.473   0.083 -23.747  1.00  0.00     0.008 C 
ATOM     21  C   UNL     1       3.170  -1.407 -23.651  1.00  0.00     0.007 C 
ATOM     22  C   UNL     1       4.589  -0.265 -25.991  1.00  0.00     0.012 C 
ATOM     23  C   UNL     1       5.500   2.311 -25.115  1.00  0.00     0.012 C 
ATOM     24  C   UNL     1       5.655   5.829 -25.778  1.00  0.00     0.014 C 
ATOM     25  C   UNL     1       4.204   7.441 -24.564  1.00  0.00     0.014 C 
ATOM     26  C   UNL     1       1.086   3.869 -26.116  1.00  0.00     0.012 C 
ATOM     27  C   UNL     1       2.070  -3.355 -24.732  1.00  0.00     0.011 C 
ENDROOT
BRANCH   1  28
ATOM     28  C   UNL     1      -0.685  -1.389 -27.014  1.00  0.00    -0.077 C 
ATOM     29  C   UNL     1      -2.187  -1.469 -27.124  1.00  0.00     0.039 C 
ATOM     30  C   UNL     1       0.045  -1.697 -28.097  1.00  0.00     0.008 C 
ENDBRANCH   1  28
BRANCH  13  31
ATOM     31  O   UNL     1       2.664   7.818 -26.890  1.00  0.00    -0.393 OA
ATOM     32  H   UNL     1       2.772   8.384 -26.080  1.00  0.00     0.210 HD
ENDBRANCH  13  31
TORSDOF 2
ENDMDL
