MODEL 1
REMARK VINA RESULT:    -4.143      0.000      0.000
REMARK INTER + INTRA:          -6.761
REMARK INTER:                  -6.323
REMARK INTRA:                  -0.438
REMARK UNBOUND:                -0.438
REMARK SMILES CC1=CCC[C@@H](C)C(=O)C[C@@H](C(C)C)C(=O)C1
REMARK SMILES IDX 8 1 9 2 6 3 7 4 5 5 4 6 3 7 2 8 1 9 10 11 11 12 15 13 16 14
REMARK SMILES IDX 17 15 12 17 13 18 14 19
REMARK H PARENT
REMARK Flexibility Score: 70.00
ROOT
ATOM      1  C   UNL     1     -14.299  11.199 -30.029  1.00  0.00     0.136 C 
ATOM      2  O   UNL     1     -14.488  10.011 -30.246  1.00  0.00    -0.299 OA
ENDROOT
BRANCH   1   3
ATOM      3  C   UNL     1     -13.918  11.613 -28.615  1.00  0.00     0.053 C 
ATOM      4  C   UNL     1     -12.440  11.363 -28.272  1.00  0.00     0.016 C 
BRANCH   3   5
ATOM      5  C   UNL     1     -14.895  11.048 -27.561  1.00  0.00     0.015 C 
BRANCH   5   6
ATOM      6  C   UNL     1     -16.040  12.008 -27.181  1.00  0.00     0.028 C 
BRANCH   6   7
ATOM      7  C   UNL     1     -17.300  11.756 -27.973  1.00  0.00    -0.028 C 
ATOM      8  C   UNL     1     -17.753  12.538 -28.984  1.00  0.00    -0.070 CG0
ATOM      9  C   UNL     1     -19.000  12.127 -29.726  1.00  0.00     0.039 C 
ATOM     10  G   UNL     1     -17.118  13.866 -29.371  1.00  0.00     0.000 G0
ENDBRANCH   6   7
ENDBRANCH   5   6
ENDBRANCH   3   5
ENDBRANCH   1   3
BRANCH   1  11
ATOM     11  C   UNL     1     -14.483  12.176 -31.174  1.00  0.00     0.087 C 
BRANCH  11  12
ATOM     12  C   UNL     1     -14.848  13.605 -30.686  1.00  0.00     0.066 C 
BRANCH  12  13
ATOM     13  C   UNL     1     -16.356  13.815 -30.684  1.00  0.00     0.140 C 
ATOM     14  O   UNL     1     -16.959  13.987 -31.734  1.00  0.00    -0.299 OA
BRANCH  13  15
ATOM     15  C   UNL     1     -17.111  13.861 -29.378  1.00  0.00     0.106 CG0
ATOM     16  G   UNL     1     -17.731  12.527 -28.987  1.00  0.00     0.000 G0
ENDBRANCH  13  15
ENDBRANCH  12  13
BRANCH  12  17
ATOM     17  C   UNL     1     -14.106  14.737 -31.468  1.00  0.00    -0.006 C 
ATOM     18  C   UNL     1     -13.940  16.001 -30.608  1.00  0.00     0.008 C 
ATOM     19  C   UNL     1     -12.738  14.311 -32.035  1.00  0.00     0.008 C 
ENDBRANCH  12  17
ENDBRANCH  11  12
ENDBRANCH   1  11
TORSDOF 1
ENDMDL
MODEL 2
REMARK VINA RESULT:    -3.906      1.549      3.800
REMARK INTER + INTRA:          -6.398
REMARK INTER:                  -6.914
REMARK INTRA:                   0.516
REMARK UNBOUND:                -0.438
REMARK SMILES CC1=CCC[C@@H](C)C(=O)C[C@@H](C(C)C)C(=O)C1
REMARK SMILES IDX 8 1 9 2 6 3 7 4 5 5 4 6 3 7 2 8 1 9 10 11 11 12 15 13 16 14
REMARK SMILES IDX 17 15 12 17 13 18 14 19
REMARK H PARENT
REMARK Flexibility Score: 70.00
ROOT
ATOM      1  C   UNL     1     -17.116  13.465 -31.035  1.00  0.00     0.136 C 
ATOM      2  O   UNL     1     -17.323  13.977 -32.126  1.00  0.00    -0.299 OA
ENDROOT
BRANCH   1   3
ATOM      3  C   UNL     1     -18.093  12.405 -30.548  1.00  0.00     0.053 C 
ATOM      4  C   UNL     1     -19.257  12.969 -29.716  1.00  0.00     0.016 C 
BRANCH   3   5
ATOM      5  C   UNL     1     -17.374  11.219 -29.870  1.00  0.00     0.015 C 
BRANCH   5   6
ATOM      6  C   UNL     1     -16.912  11.499 -28.426  1.00  0.00     0.028 C 
BRANCH   6   7
ATOM      7  C   UNL     1     -15.802  10.579 -27.979  1.00  0.00    -0.028 C 
ATOM      8  C   UNL     1     -14.480  10.875 -28.026  1.00  0.00    -0.070 CG0
ATOM      9  C   UNL     1     -13.486   9.876 -27.487  1.00  0.00     0.039 C 
ATOM     10  G   UNL     1     -13.921  12.136 -28.669  1.00  0.00     0.000 G0
ENDBRANCH   6   7
ENDBRANCH   5   6
ENDBRANCH   3   5
ENDBRANCH   1   3
BRANCH   1  11
ATOM     11  C   UNL     1     -15.918  13.941 -30.235  1.00  0.00     0.087 C 
BRANCH  11  12
ATOM     12  C   UNL     1     -14.570  13.464 -30.841  1.00  0.00     0.066 C 
BRANCH  12  13
ATOM     13  C   UNL     1     -14.092  12.181 -30.175  1.00  0.00     0.140 C 
ATOM     14  O   UNL     1     -13.894  11.174 -30.840  1.00  0.00    -0.299 OA
BRANCH  13  15
ATOM     15  C   UNL     1     -13.905  12.130 -28.678  1.00  0.00     0.106 CG0
ATOM     16  G   UNL     1     -14.475  10.873 -28.036  1.00  0.00     0.000 G0
ENDBRANCH  13  15
ENDBRANCH  12  13
BRANCH  12  17
ATOM     17  C   UNL     1     -13.461  14.567 -30.837  1.00  0.00    -0.006 C 
ATOM     18  C   UNL     1     -12.716  14.623 -32.180  1.00  0.00     0.008 C 
ATOM     19  C   UNL     1     -13.980  15.971 -30.471  1.00  0.00     0.008 C 
ENDBRANCH  12  17
ENDBRANCH  11  12
ENDBRANCH   1  11
TORSDOF 1
ENDMDL
MODEL 3
REMARK VINA RESULT:    -3.675      1.556      3.803
REMARK INTER + INTRA:          -6.047
REMARK INTER:                  -5.837
REMARK INTRA:                  -0.210
REMARK UNBOUND:                -0.438
REMARK SMILES CC1=CCC[C@@H](C)C(=O)C[C@@H](C(C)C)C(=O)C1
REMARK SMILES IDX 8 1 9 2 6 3 7 4 5 5 4 6 3 7 2 8 1 9 10 11 11 12 15 13 16 14
REMARK SMILES IDX 17 15 12 17 13 18 14 19
REMARK H PARENT
REMARK Flexibility Score: 70.00
ROOT
ATOM      1  C   UNL     1     -14.115  14.088 -30.241  1.00  0.00     0.136 C 
ATOM      2  O   UNL     1     -13.882  15.287 -30.306  1.00  0.00    -0.299 OA
ENDROOT
BRANCH   1   3
ATOM      3  C   UNL     1     -14.147  13.298 -31.542  1.00  0.00     0.053 C 
ATOM      4  C   UNL     1     -12.978  13.613 -32.488  1.00  0.00     0.016 C 
BRANCH   3   5
ATOM      5  C   UNL     1     -15.528  13.367 -32.230  1.00  0.00     0.015 C 
BRANCH   5   6
ATOM      6  C   UNL     1     -16.641  13.978 -31.356  1.00  0.00     0.028 C 
BRANCH   6   7
ATOM      7  C   UNL     1     -17.765  13.010 -31.082  1.00  0.00    -0.028 C 
ATOM      8  C   UNL     1     -18.070  12.496 -29.864  1.00  0.00    -0.070 CG0
ATOM      9  C   UNL     1     -19.263  11.582 -29.732  1.00  0.00     0.039 C 
ATOM     10  G   UNL     1     -17.226  12.722 -28.619  1.00  0.00     0.000 G0
ENDBRANCH   6   7
ENDBRANCH   5   6
ENDBRANCH   3   5
ENDBRANCH   1   3
BRANCH   1  11
ATOM     11  C   UNL     1     -14.380  13.481 -28.877  1.00  0.00     0.087 C 
BRANCH  11  12
ATOM     12  C   UNL     1     -14.733  11.970 -28.955  1.00  0.00     0.066 C 
BRANCH  12  13
ATOM     13  C   UNL     1     -16.131  11.704 -28.416  1.00  0.00     0.140 C 
ATOM     14  O   UNL     1     -16.389  10.649 -27.855  1.00  0.00    -0.299 OA
BRANCH  13  15
ATOM     15  C   UNL     1     -17.226  12.725 -28.614  1.00  0.00     0.106 CG0
ATOM     16  G   UNL     1     -18.062  12.486 -29.863  1.00  0.00     0.000 G0
ENDBRANCH  13  15
ENDBRANCH  12  13
BRANCH  12  17
ATOM     17  C   UNL     1     -13.666  11.047 -28.281  1.00  0.00    -0.006 C 
ATOM     18  C   UNL     1     -12.886  10.231 -29.324  1.00  0.00     0.008 C 
ATOM     19  C   UNL     1     -12.681  11.798 -27.365  1.00  0.00     0.008 C 
ENDBRANCH  12  17
ENDBRANCH  11  12
ENDBRANCH   1  11
TORSDOF 1
ENDMDL
MODEL 4
REMARK VINA RESULT:    -3.559      1.849      4.646
REMARK INTER + INTRA:          -5.870
REMARK INTER:                  -5.564
REMARK INTRA:                  -0.306
REMARK UNBOUND:                -0.438
REMARK SMILES CC1=CCC[C@@H](C)C(=O)C[C@@H](C(C)C)C(=O)C1
REMARK SMILES IDX 8 1 9 2 6 3 7 4 5 5 4 6 3 7 2 8 1 9 10 11 11 12 15 13 16 14
REMARK SMILES IDX 17 15 12 17 13 18 14 19
REMARK H PARENT
REMARK Flexibility Score: 70.00
ROOT
ATOM      1  C   UNL     1     -16.711  12.200 -28.152  1.00  0.00     0.136 C 
ATOM      2  O   UNL     1     -16.588  13.053 -27.284  1.00  0.00    -0.299 OA
ENDROOT
BRANCH   1   3
ATOM      3  C   UNL     1     -17.948  12.258 -29.036  1.00  0.00     0.053 C 
ATOM      4  C   UNL     1     -18.209  10.963 -29.823  1.00  0.00     0.016 C 
BRANCH   3   5
ATOM      5  C   UNL     1     -17.974  13.526 -29.918  1.00  0.00     0.015 C 
BRANCH   5   6
ATOM      6  C   UNL     1     -17.270  13.366 -31.279  1.00  0.00     0.028 C 
BRANCH   6   7
ATOM      7  C   UNL     1     -15.915  14.029 -31.318  1.00  0.00    -0.028 C 
ATOM      8  C   UNL     1     -14.727  13.376 -31.296  1.00  0.00    -0.070 CG0
ATOM      9  C   UNL     1     -13.450  14.172 -31.400  1.00  0.00     0.039 C 
ATOM     10  G   UNL     1     -14.595  11.874 -31.091  1.00  0.00     0.000 G0
ENDBRANCH   6   7
ENDBRANCH   5   6
ENDBRANCH   3   5
ENDBRANCH   1   3
BRANCH   1  11
ATOM     11  C   UNL     1     -15.639  11.134 -28.267  1.00  0.00     0.087 C 
BRANCH  11  12
ATOM     12  C   UNL     1     -14.225  11.733 -28.496  1.00  0.00     0.066 C 
BRANCH  12  13
ATOM     13  C   UNL     1     -13.740  11.467 -29.915  1.00  0.00     0.140 C 
ATOM     14  O   UNL     1     -12.640  10.969 -30.111  1.00  0.00    -0.299 OA
BRANCH  13  15
ATOM     15  C   UNL     1     -14.596  11.861 -31.094  1.00  0.00     0.106 CG0
ATOM     16  G   UNL     1     -14.721  13.367 -31.279  1.00  0.00     0.000 G0
ENDBRANCH  13  15
ENDBRANCH  12  13
BRANCH  12  17
ATOM     17  C   UNL     1     -13.176  11.277 -27.430  1.00  0.00    -0.006 C 
ATOM     18  C   UNL     1     -12.500  12.481 -26.752  1.00  0.00     0.008 C 
ATOM     19  C   UNL     1     -13.747  10.330 -26.358  1.00  0.00     0.008 C 
ENDBRANCH  12  17
ENDBRANCH  11  12
ENDBRANCH   1  11
TORSDOF 1
ENDMDL
MODEL 5
REMARK VINA RESULT:    -3.307      1.883      3.701
REMARK INTER + INTRA:          -5.484
REMARK INTER:                  -5.397
REMARK INTRA:                  -0.087
REMARK UNBOUND:                -0.438
REMARK SMILES CC1=CCC[C@@H](C)C(=O)C[C@@H](C(C)C)C(=O)C1
REMARK SMILES IDX 8 1 9 2 6 3 7 4 5 5 4 6 3 7 2 8 1 9 10 11 11 12 15 13 16 14
REMARK SMILES IDX 17 15 12 17 13 18 14 19
REMARK H PARENT
REMARK Flexibility Score: 70.00
ROOT
ATOM      1  C   UNL     1     -15.912  13.743 -31.399  1.00  0.00     0.136 C 
ATOM      2  O   UNL     1     -16.147  13.429 -32.558  1.00  0.00    -0.299 OA
ENDROOT
BRANCH   1   3
ATOM      3  C   UNL     1     -17.076  13.771 -30.419  1.00  0.00     0.053 C 
ATOM      4  C   UNL     1     -16.695  14.275 -29.018  1.00  0.00     0.016 C 
BRANCH   3   5
ATOM      5  C   UNL     1     -17.852  12.436 -30.401  1.00  0.00     0.015 C 
BRANCH   5   6
ATOM      6  C   UNL     1     -16.966  11.190 -30.201  1.00  0.00     0.028 C 
BRANCH   6   7
ATOM      7  C   UNL     1     -16.638  10.934 -28.751  1.00  0.00    -0.028 C 
ATOM      8  C   UNL     1     -15.386  10.887 -28.232  1.00  0.00    -0.070 CG0
ATOM      9  C   UNL     1     -15.215  10.679 -26.748  1.00  0.00     0.039 C 
ATOM     10  G   UNL     1     -14.122  10.952 -29.076  1.00  0.00     0.000 G0
ENDBRANCH   6   7
ENDBRANCH   5   6
ENDBRANCH   3   5
ENDBRANCH   1   3
BRANCH   1  11
ATOM     11  C   UNL     1     -14.487  14.105 -31.029  1.00  0.00     0.087 C 
BRANCH  11  12
ATOM     12  C   UNL     1     -13.588  12.855 -30.822  1.00  0.00     0.066 C 
BRANCH  12  13
ATOM     13  C   UNL     1     -13.650  12.368 -29.381  1.00  0.00     0.140 C 
ATOM     14  O   UNL     1     -13.295  13.096 -28.465  1.00  0.00    -0.299 OA
BRANCH  13  15
ATOM     15  C   UNL     1     -14.106  10.961 -29.077  1.00  0.00     0.106 CG0
ATOM     16  G   UNL     1     -15.388  10.900 -28.260  1.00  0.00     0.000 G0
ENDBRANCH  13  15
ENDBRANCH  12  13
BRANCH  12  17
ATOM     17  C   UNL     1     -12.115  13.063 -31.302  1.00  0.00    -0.006 C 
ATOM     18  C   UNL     1     -11.344  11.733 -31.348  1.00  0.00     0.008 C 
ATOM     19  C   UNL     1     -11.996  13.780 -32.660  1.00  0.00     0.008 C 
ENDBRANCH  12  17
ENDBRANCH  11  12
ENDBRANCH   1  11
TORSDOF 1
ENDMDL
MODEL 6
REMARK VINA RESULT:    -3.168      1.860      4.156
REMARK INTER + INTRA:          -5.273
REMARK INTER:                  -6.642
REMARK INTRA:                   1.369
REMARK UNBOUND:                -0.438
REMARK SMILES CC1=CCC[C@@H](C)C(=O)C[C@@H](C(C)C)C(=O)C1
REMARK SMILES IDX 8 1 9 2 6 3 7 4 5 5 4 6 3 7 2 8 1 9 10 11 11 12 15 13 16 14
REMARK SMILES IDX 17 15 12 17 13 18 14 19
REMARK H PARENT
REMARK Flexibility Score: 70.00
ROOT
ATOM      1  C   UNL     1     -16.022  12.256 -27.861  1.00  0.00     0.136 C 
ATOM      2  O   UNL     1     -16.510  12.170 -26.743  1.00  0.00    -0.299 OA
ENDROOT
BRANCH   1   3
ATOM      3  C   UNL     1     -14.728  11.502 -28.134  1.00  0.00     0.053 C 
ATOM      4  C   UNL     1     -13.490  12.140 -27.482  1.00  0.00     0.016 C 
BRANCH   3   5
ATOM      5  C   UNL     1     -14.540  11.194 -29.635  1.00  0.00     0.015 C 
BRANCH   5   6
ATOM      6  C   UNL     1     -13.271  11.812 -30.255  1.00  0.00     0.028 C 
BRANCH   6   7
ATOM      7  C   UNL     1     -13.377  13.307 -30.432  1.00  0.00    -0.028 C 
ATOM      8  C   UNL     1     -14.332  13.939 -31.158  1.00  0.00    -0.070 CG0
ATOM      9  C   UNL     1     -14.346  15.447 -31.197  1.00  0.00     0.039 C 
ATOM     10  G   UNL     1     -15.358  13.211 -32.015  1.00  0.00     0.000 G0
ENDBRANCH   6   7
ENDBRANCH   5   6
ENDBRANCH   3   5
ENDBRANCH   1   3
BRANCH   1  11
ATOM     11  C   UNL     1     -16.726  13.125 -28.886  1.00  0.00     0.087 C 
BRANCH  11  12
ATOM     12  C   UNL     1     -17.042  12.360 -30.200  1.00  0.00     0.066 C 
BRANCH  12  13
ATOM     13  C   UNL     1     -16.743  13.219 -31.421  1.00  0.00     0.140 C 
ATOM     14  O   UNL     1     -17.630  13.874 -31.950  1.00  0.00    -0.299 OA
BRANCH  13  15
ATOM     15  C   UNL     1     -15.356  13.230 -32.017  1.00  0.00     0.106 CG0
ATOM     16  G   UNL     1     -14.330  13.955 -31.157  1.00  0.00     0.000 G0
ENDBRANCH  13  15
ENDBRANCH  12  13
BRANCH  12  17
ATOM     17  C   UNL     1     -18.491  11.774 -30.244  1.00  0.00    -0.006 C 
ATOM     18  C   UNL     1     -18.575  10.422 -29.518  1.00  0.00     0.008 C 
ATOM     19  C   UNL     1     -19.567  12.728 -29.693  1.00  0.00     0.008 C 
ENDBRANCH  12  17
ENDBRANCH  11  12
ENDBRANCH   1  11
TORSDOF 1
ENDMDL
MODEL 7
REMARK VINA RESULT:    -3.160      1.608      2.133
REMARK INTER + INTRA:          -5.260
REMARK INTER:                  -6.556
REMARK INTRA:                   1.296
REMARK UNBOUND:                -0.438
REMARK SMILES CC1=CCC[C@@H](C)C(=O)C[C@@H](C(C)C)C(=O)C1
REMARK SMILES IDX 8 1 9 2 6 3 7 4 5 5 4 6 3 7 2 8 1 9 10 11 11 12 15 13 16 14
REMARK SMILES IDX 17 15 12 17 13 18 14 19
REMARK H PARENT
REMARK Flexibility Score: 70.00
ROOT
ATOM      1  C   UNL     1     -14.925  12.493 -28.375  1.00  0.00     0.136 C 
ATOM      2  O   UNL     1     -13.878  13.026 -28.034  1.00  0.00    -0.299 OA
ENDROOT
BRANCH   1   3
ATOM      3  C   UNL     1     -14.946  10.976 -28.494  1.00  0.00     0.053 C 
ATOM      4  C   UNL     1     -14.762  10.464 -29.932  1.00  0.00     0.016 C 
BRANCH   3   5
ATOM      5  C   UNL     1     -16.162  10.354 -27.773  1.00  0.00     0.015 C 
BRANCH   5   6
ATOM      6  C   UNL     1     -17.288   9.888 -28.717  1.00  0.00     0.028 C 
BRANCH   6   7
ATOM      7  C   UNL     1     -18.375  10.921 -28.884  1.00  0.00    -0.028 C 
ATOM      8  C   UNL     1     -18.432  11.837 -29.882  1.00  0.00    -0.070 CG0
ATOM      9  C   UNL     1     -19.614  12.771 -29.954  1.00  0.00     0.039 C 
ATOM     10  G   UNL     1     -17.324  12.038 -30.906  1.00  0.00     0.000 G0
ENDBRANCH   6   7
ENDBRANCH   5   6
ENDBRANCH   3   5
ENDBRANCH   1   3
BRANCH   1  11
ATOM     11  C   UNL     1     -16.116  13.382 -28.680  1.00  0.00     0.087 C 
BRANCH  11  12
ATOM     12  C   UNL     1     -15.985  14.104 -30.048  1.00  0.00     0.066 C 
BRANCH  12  13
ATOM     13  C   UNL     1     -16.881  13.460 -31.097  1.00  0.00     0.140 C 
ATOM     14  O   UNL     1     -17.278  14.108 -32.055  1.00  0.00    -0.299 OA
BRANCH  13  15
ATOM     15  C   UNL     1     -17.325  12.026 -30.935  1.00  0.00     0.106 CG0
ATOM     16  G   UNL     1     -18.406  11.839 -29.880  1.00  0.00     0.000 G0
ENDBRANCH  13  15
ENDBRANCH  12  13
BRANCH  12  17
ATOM     17  C   UNL     1     -14.508  14.231 -30.546  1.00  0.00    -0.006 C 
ATOM     18  C   UNL     1     -14.313  13.548 -31.910  1.00  0.00     0.008 C 
ATOM     19  C   UNL     1     -13.994  15.681 -30.612  1.00  0.00     0.008 C 
ENDBRANCH  12  17
ENDBRANCH  11  12
ENDBRANCH   1  11
TORSDOF 1
ENDMDL
MODEL 8
REMARK VINA RESULT:    -2.413     10.559     12.637
REMARK INTER + INTRA:          -4.120
REMARK INTER:                  -4.290
REMARK INTRA:                   0.170
REMARK UNBOUND:                -0.438
REMARK SMILES CC1=CCC[C@@H](C)C(=O)C[C@@H](C(C)C)C(=O)C1
REMARK SMILES IDX 8 1 9 2 6 3 7 4 5 5 4 6 3 7 2 8 1 9 10 11 11 12 15 13 16 14
REMARK SMILES IDX 17 15 12 17 13 18 14 19
REMARK H PARENT
REMARK Flexibility Score: 70.00
ROOT
ATOM      1  C   UNL     1     -23.421  18.796 -31.973  1.00  0.00     0.136 C 
ATOM      2  O   UNL     1     -22.998  17.651 -32.046  1.00  0.00    -0.299 OA
ENDROOT
BRANCH   1   3
ATOM      3  C   UNL     1     -22.556  19.912 -32.540  1.00  0.00     0.053 C 
ATOM      4  C   UNL     1     -22.624  21.221 -31.735  1.00  0.00     0.016 C 
BRANCH   3   5
ATOM      5  C   UNL     1     -22.785  20.112 -34.054  1.00  0.00     0.015 C 
BRANCH   5   6
ATOM      6  C   UNL     1     -24.166  19.643 -34.554  1.00  0.00     0.028 C 
BRANCH   6   7
ATOM      7  C   UNL     1     -25.248  20.669 -34.323  1.00  0.00    -0.028 C 
ATOM      8  C   UNL     1     -26.500  20.393 -33.881  1.00  0.00    -0.070 CG0
ATOM      9  C   UNL     1     -27.460  21.531 -33.640  1.00  0.00     0.039 C 
ATOM     10  G   UNL     1     -27.032  18.981 -33.685  1.00  0.00     0.000 G0
ENDBRANCH   6   7
ENDBRANCH   5   6
ENDBRANCH   3   5
ENDBRANCH   1   3
BRANCH   1  11
ATOM     11  C   UNL     1     -24.761  19.025 -31.300  1.00  0.00     0.087 C 
BRANCH  11  12
ATOM     12  C   UNL     1     -25.793  17.913 -31.634  1.00  0.00     0.066 C 
BRANCH  12  13
ATOM     13  C   UNL     1     -27.051  18.500 -32.258  1.00  0.00     0.140 C 
ATOM     14  O   UNL     1     -28.091  18.557 -31.618  1.00  0.00    -0.299 OA
BRANCH  13  15
ATOM     15  C   UNL     1     -27.035  18.974 -33.691  1.00  0.00     0.106 CG0
ATOM     16  G   UNL     1     -26.501  20.390 -33.857  1.00  0.00     0.000 G0
ENDBRANCH  13  15
ENDBRANCH  12  13
BRANCH  12  17
ATOM     17  C   UNL     1     -26.126  16.988 -30.418  1.00  0.00    -0.006 C 
ATOM     18  C   UNL     1     -25.390  15.641 -30.516  1.00  0.00     0.008 C 
ATOM     19  C   UNL     1     -25.846  17.634 -29.048  1.00  0.00     0.008 C 
ENDBRANCH  12  17
ENDBRANCH  11  12
ENDBRANCH   1  11
TORSDOF 1
ENDMDL
MODEL 9
REMARK VINA RESULT:    -2.220      9.108     11.908
REMARK INTER + INTRA:          -3.825
REMARK INTER:                  -5.687
REMARK INTRA:                   1.862
REMARK UNBOUND:                -0.438
REMARK SMILES CC1=CCC[C@@H](C)C(=O)C[C@@H](C(C)C)C(=O)C1
REMARK SMILES IDX 8 1 9 2 6 3 7 4 5 5 4 6 3 7 2 8 1 9 10 11 11 12 15 13 16 14
REMARK SMILES IDX 17 15 12 17 13 18 14 19
REMARK H PARENT
REMARK Flexibility Score: 70.00
ROOT
ATOM      1  C   UNL     1     -25.942  12.400 -30.870  1.00  0.00     0.136 C 
ATOM      2  O   UNL     1     -26.386  13.535 -30.967  1.00  0.00    -0.299 OA
ENDROOT
BRANCH   1   3
ATOM      3  C   UNL     1     -26.239  11.421 -31.997  1.00  0.00     0.053 C 
ATOM      4  C   UNL     1     -26.725  12.094 -33.291  1.00  0.00     0.016 C 
BRANCH   3   5
ATOM      5  C   UNL     1     -27.144  10.259 -31.533  1.00  0.00     0.015 C 
BRANCH   5   6
ATOM      6  C   UNL     1     -28.653  10.560 -31.612  1.00  0.00     0.028 C 
BRANCH   6   7
ATOM      7  C   UNL     1     -29.124  11.473 -30.506  1.00  0.00    -0.028 C 
ATOM      8  C   UNL     1     -28.778  11.356 -29.201  1.00  0.00    -0.070 CG0
ATOM      9  C   UNL     1     -29.281  12.381 -28.214  1.00  0.00     0.039 C 
ATOM     10  G   UNL     1     -27.968  10.195 -28.644  1.00  0.00     0.000 G0
ENDBRANCH   6   7
ENDBRANCH   5   6
ENDBRANCH   3   5
ENDBRANCH   1   3
BRANCH   1  11
ATOM     11  C   UNL     1     -25.152  12.043 -29.626  1.00  0.00     0.087 C 
BRANCH  11  12
ATOM     12  C   UNL     1     -25.426  10.592 -29.142  1.00  0.00     0.066 C 
BRANCH  12  13
ATOM     13  C   UNL     1     -26.587  10.552 -28.159  1.00  0.00     0.140 C 
ATOM     14  O   UNL     1     -26.402  10.783 -26.972  1.00  0.00    -0.299 OA
BRANCH  13  15
ATOM     15  C   UNL     1     -27.970  10.179 -28.635  1.00  0.00     0.106 CG0
ATOM     16  G   UNL     1     -28.754  11.352 -29.205  1.00  0.00     0.000 G0
ENDBRANCH  13  15
ENDBRANCH  12  13
BRANCH  12  17
ATOM     17  C   UNL     1     -24.157   9.877 -28.572  1.00  0.00    -0.006 C 
ATOM     18  C   UNL     1     -22.912  10.173 -29.424  1.00  0.00     0.008 C 
ATOM     19  C   UNL     1     -23.867  10.205 -27.095  1.00  0.00     0.008 C 
ENDBRANCH  12  17
ENDBRANCH  11  12
ENDBRANCH   1  11
TORSDOF 1
ENDMDL
