MODEL 1
REMARK VINA RESULT:    -4.526      0.000      0.000
REMARK INTER + INTRA:          -5.087
REMARK INTER:                  -4.791
REMARK INTRA:                  -0.296
REMARK UNBOUND:                -0.296
REMARK SMILES C=C1CC[C@]2(C(C)C)C[C@H]12
REMARK SMILES IDX 5 1 4 2 3 3 2 4 1 5 10 6 9 7 6 8 7 9 8 10
REMARK H PARENT
REMARK Flexibility Score: inf
ROOT
ATOM      1  C   UNL     1     144.175 145.073 132.089  1.00  0.00    -0.020 C 
ATOM      2  C   UNL     1     144.858 145.613 130.820  1.00  0.00     0.012 C 
ATOM      3  C   UNL     1     145.701 146.822 131.233  1.00  0.00     0.031 C 
ATOM      4  C   UNL     1     145.445 146.993 132.692  1.00  0.00    -0.074 C 
ATOM      5  C   UNL     1     145.972 147.985 133.417  1.00  0.00     0.008 C 
ATOM      6  C   UNL     1     144.532 145.970 133.265  1.00  0.00     0.021 C 
ATOM      7  C   UNL     1     143.110 145.979 132.711  1.00  0.00     0.016 C 
ENDROOT
BRANCH   1   8
ATOM      8  C   UNL     1     144.001 143.533 132.251  1.00  0.00    -0.011 C 
ATOM      9  C   UNL     1     145.125 142.972 133.131  1.00  0.00     0.008 C 
ATOM     10  C   UNL     1     143.896 142.730 130.943  1.00  0.00     0.008 C 
ENDBRANCH   1   8
TORSDOF 1
ENDMDL
MODEL 2
REMARK VINA RESULT:    -4.451      1.523      3.934
REMARK INTER + INTRA:          -5.007
REMARK INTER:                  -4.772
REMARK INTRA:                  -0.235
REMARK UNBOUND:                -0.296
REMARK SMILES C=C1CC[C@]2(C(C)C)C[C@H]12
REMARK SMILES IDX 5 1 4 2 3 3 2 4 1 5 10 6 9 7 6 8 7 9 8 10
REMARK H PARENT
REMARK Flexibility Score: inf
ROOT
ATOM      1  C   UNL     1     146.331 145.476 132.244  1.00  0.00    -0.020 C 
ATOM      2  C   UNL     1     145.996 145.394 130.744  1.00  0.00     0.012 C 
ATOM      3  C   UNL     1     144.889 144.349 130.580  1.00  0.00     0.031 C 
ATOM      4  C   UNL     1     144.656 143.811 131.951  1.00  0.00    -0.074 C 
ATOM      5  C   UNL     1     143.786 142.832 132.217  1.00  0.00     0.008 C 
ATOM      6  C   UNL     1     145.497 144.450 132.997  1.00  0.00     0.021 C 
ATOM      7  C   UNL     1     147.000 144.239 132.846  1.00  0.00     0.016 C 
ENDROOT
BRANCH   1   8
ATOM      8  C   UNL     1     146.684 146.863 132.860  1.00  0.00    -0.011 C 
ATOM      9  C   UNL     1     145.595 147.283 133.854  1.00  0.00     0.008 C 
ATOM     10  C   UNL     1     146.951 147.995 131.852  1.00  0.00     0.008 C 
ENDBRANCH   1   8
TORSDOF 1
ENDMDL
MODEL 3
REMARK VINA RESULT:    -4.373      1.795      3.290
REMARK INTER + INTRA:          -4.924
REMARK INTER:                  -4.620
REMARK INTRA:                  -0.304
REMARK UNBOUND:                -0.296
REMARK SMILES C=C1CC[C@]2(C(C)C)C[C@H]12
REMARK SMILES IDX 5 1 4 2 3 3 2 4 1 5 10 6 9 7 6 8 7 9 8 10
REMARK H PARENT
REMARK Flexibility Score: inf
ROOT
ATOM      1  C   UNL     1     145.766 146.073 132.875  1.00  0.00    -0.020 C 
ATOM      2  C   UNL     1     144.648 145.380 133.674  1.00  0.00     0.012 C 
ATOM      3  C   UNL     1     143.342 145.579 132.901  1.00  0.00     0.031 C 
ATOM      4  C   UNL     1     143.711 146.420 131.727  1.00  0.00    -0.074 C 
ATOM      5  C   UNL     1     142.822 146.853 130.828  1.00  0.00     0.008 C 
ATOM      6  C   UNL     1     145.158 146.752 131.657  1.00  0.00     0.021 C 
ATOM      7  C   UNL     1     145.690 147.599 132.809  1.00  0.00     0.016 C 
ENDROOT
BRANCH   1   8
ATOM      8  C   UNL     1     147.178 145.415 132.831  1.00  0.00    -0.011 C 
ATOM      9  C   UNL     1     147.265 144.450 131.643  1.00  0.00     0.008 C 
ATOM     10  C   UNL     1     147.628 144.711 134.124  1.00  0.00     0.008 C 
ENDBRANCH   1   8
TORSDOF 1
ENDMDL
MODEL 4
REMARK VINA RESULT:    -4.345      1.906      2.945
REMARK INTER + INTRA:          -4.895
REMARK INTER:                  -4.601
REMARK INTRA:                  -0.294
REMARK UNBOUND:                -0.296
REMARK SMILES C=C1CC[C@]2(C(C)C)C[C@H]12
REMARK SMILES IDX 5 1 4 2 3 3 2 4 1 5 10 6 9 7 6 8 7 9 8 10
REMARK H PARENT
REMARK Flexibility Score: inf
ROOT
ATOM      1  C   UNL     1     145.287 146.462 132.043  1.00  0.00    -0.020 C 
ATOM      2  C   UNL     1     145.770 145.500 130.943  1.00  0.00     0.012 C 
ATOM      3  C   UNL     1     146.897 144.653 131.539  1.00  0.00     0.031 C 
ATOM      4  C   UNL     1     147.084 145.174 132.923  1.00  0.00    -0.074 C 
ATOM      5  C   UNL     1     148.021 144.716 133.759  1.00  0.00     0.008 C 
ATOM      6  C   UNL     1     146.143 146.266 133.285  1.00  0.00     0.021 C 
ATOM      7  C   UNL     1     146.281 147.546 132.465  1.00  0.00     0.016 C 
ENDROOT
BRANCH   1   8
ATOM      8  C   UNL     1     143.768 146.797 132.135  1.00  0.00    -0.011 C 
ATOM      9  C   UNL     1     143.109 145.931 133.214  1.00  0.00     0.008 C 
ATOM     10  C   UNL     1     142.980 146.699 130.817  1.00  0.00     0.008 C 
ENDBRANCH   1   8
TORSDOF 1
ENDMDL
MODEL 5
REMARK VINA RESULT:    -4.336      1.433      2.619
REMARK INTER + INTRA:          -4.885
REMARK INTER:                  -4.600
REMARK INTRA:                  -0.284
REMARK UNBOUND:                -0.296
REMARK SMILES C=C1CC[C@]2(C(C)C)C[C@H]12
REMARK SMILES IDX 5 1 4 2 3 3 2 4 1 5 10 6 9 7 6 8 7 9 8 10
REMARK H PARENT
REMARK Flexibility Score: inf
ROOT
ATOM      1  C   UNL     1     146.046 144.991 132.934  1.00  0.00    -0.020 C 
ATOM      2  C   UNL     1     145.218 146.045 133.690  1.00  0.00     0.012 C 
ATOM      3  C   UNL     1     145.392 147.376 132.954  1.00  0.00     0.031 C 
ATOM      4  C   UNL     1     146.348 147.086 131.848  1.00  0.00    -0.074 C 
ATOM      5  C   UNL     1     146.793 148.019 131.000  1.00  0.00     0.008 C 
ATOM      6  C   UNL     1     146.780 145.665 131.785  1.00  0.00     0.021 C 
ATOM      7  C   UNL     1     147.564 145.166 132.995  1.00  0.00     0.016 C 
ENDROOT
BRANCH   1   8
ATOM      8  C   UNL     1     145.488 143.540 132.817  1.00  0.00    -0.011 C 
ATOM      9  C   UNL     1     144.427 143.479 131.712  1.00  0.00     0.008 C 
ATOM     10  C   UNL     1     144.940 142.926 134.117  1.00  0.00     0.008 C 
ENDBRANCH   1   8
TORSDOF 1
ENDMDL
MODEL 6
REMARK VINA RESULT:    -4.335      1.973      3.454
REMARK INTER + INTRA:          -4.884
REMARK INTER:                  -4.581
REMARK INTRA:                  -0.303
REMARK UNBOUND:                -0.296
REMARK SMILES C=C1CC[C@]2(C(C)C)C[C@H]12
REMARK SMILES IDX 5 1 4 2 3 3 2 4 1 5 10 6 9 7 6 8 7 9 8 10
REMARK H PARENT
REMARK Flexibility Score: inf
ROOT
ATOM      1  C   UNL     1     144.923 144.669 132.875  1.00  0.00    -0.020 C 
ATOM      2  C   UNL     1     146.030 145.234 133.782  1.00  0.00     0.012 C 
ATOM      3  C   UNL     1     147.363 145.030 133.058  1.00  0.00     0.031 C 
ATOM      4  C   UNL     1     147.015 144.307 131.802  1.00  0.00    -0.074 C 
ATOM      5  C   UNL     1     147.928 143.902 130.913  1.00  0.00     0.008 C 
ATOM      6  C   UNL     1     145.560 144.060 131.635  1.00  0.00     0.021 C 
ATOM      7  C   UNL     1     144.927 143.151 132.685  1.00  0.00     0.016 C 
ENDROOT
BRANCH   1   8
ATOM      8  C   UNL     1     143.550 145.403 132.820  1.00  0.00    -0.011 C 
ATOM      9  C   UNL     1     143.544 146.409 131.663  1.00  0.00     0.008 C 
ATOM     10  C   UNL     1     143.103 146.086 134.124  1.00  0.00     0.008 C 
ENDBRANCH   1   8
TORSDOF 1
ENDMDL
MODEL 7
REMARK VINA RESULT:    -4.332      1.836      2.700
REMARK INTER + INTRA:          -4.881
REMARK INTER:                  -4.587
REMARK INTRA:                  -0.294
REMARK UNBOUND:                -0.296
REMARK SMILES C=C1CC[C@]2(C(C)C)C[C@H]12
REMARK SMILES IDX 5 1 4 2 3 3 2 4 1 5 10 6 9 7 6 8 7 9 8 10
REMARK H PARENT
REMARK Flexibility Score: inf
ROOT
ATOM      1  C   UNL     1     145.440 144.297 132.080  1.00  0.00    -0.020 C 
ATOM      2  C   UNL     1     144.951 145.240 130.967  1.00  0.00     0.012 C 
ATOM      3  C   UNL     1     143.828 146.098 131.555  1.00  0.00     0.031 C 
ATOM      4  C   UNL     1     143.649 145.601 132.949  1.00  0.00    -0.074 C 
ATOM      5  C   UNL     1     142.716 146.073 133.781  1.00  0.00     0.008 C 
ATOM      6  C   UNL     1     144.591 144.514 133.324  1.00  0.00     0.021 C 
ATOM      7  C   UNL     1     144.448 143.221 132.525  1.00  0.00     0.016 C 
ENDROOT
BRANCH   1   8
ATOM      8  C   UNL     1     146.959 143.963 132.168  1.00  0.00    -0.011 C 
ATOM      9  C   UNL     1     147.625 144.847 133.228  1.00  0.00     0.008 C 
ATOM     10  C   UNL     1     147.739 144.037 130.844  1.00  0.00     0.008 C 
ENDBRANCH   1   8
TORSDOF 1
ENDMDL
MODEL 8
REMARK VINA RESULT:    -4.310      0.740      3.952
REMARK INTER + INTRA:          -4.858
REMARK INTER:                  -4.576
REMARK INTRA:                  -0.281
REMARK UNBOUND:                -0.296
REMARK SMILES C=C1CC[C@]2(C(C)C)C[C@H]12
REMARK SMILES IDX 5 1 4 2 3 3 2 4 1 5 10 6 9 7 6 8 7 9 8 10
REMARK H PARENT
REMARK Flexibility Score: inf
ROOT
ATOM      1  C   UNL     1     144.648 145.734 132.904  1.00  0.00    -0.020 C 
ATOM      2  C   UNL     1     145.496 144.666 133.616  1.00  0.00     0.012 C 
ATOM      3  C   UNL     1     145.317 143.353 132.850  1.00  0.00     0.031 C 
ATOM      4  C   UNL     1     144.338 143.665 131.770  1.00  0.00    -0.074 C 
ATOM      5  C   UNL     1     143.882 142.751 130.907  1.00  0.00     0.008 C 
ATOM      6  C   UNL     1     143.896 145.084 131.751  1.00  0.00     0.021 C 
ATOM      7  C   UNL     1     143.132 145.546 132.988  1.00  0.00     0.016 C 
ENDROOT
BRANCH   1   8
ATOM      8  C   UNL     1     145.194 147.190 132.813  1.00  0.00    -0.011 C 
ATOM      9  C   UNL     1     146.249 147.282 131.704  1.00  0.00     0.008 C 
ATOM     10  C   UNL     1     145.744 147.782 134.122  1.00  0.00     0.008 C 
ENDBRANCH   1   8
TORSDOF 1
ENDMDL
MODEL 9
REMARK VINA RESULT:    -4.222      1.510      2.325
REMARK INTER + INTRA:          -4.764
REMARK INTER:                  -4.483
REMARK INTRA:                  -0.281
REMARK UNBOUND:                -0.296
REMARK SMILES C=C1CC[C@]2(C(C)C)C[C@H]12
REMARK SMILES IDX 5 1 4 2 3 3 2 4 1 5 10 6 9 7 6 8 7 9 8 10
REMARK H PARENT
REMARK Flexibility Score: inf
ROOT
ATOM      1  C   UNL     1     145.426 145.849 132.819  1.00  0.00    -0.020 C 
ATOM      2  C   UNL     1     144.963 145.280 131.466  1.00  0.00     0.012 C 
ATOM      3  C   UNL     1     145.569 146.159 130.369  1.00  0.00     0.031 C 
ATOM      4  C   UNL     1     146.302 147.235 131.095  1.00  0.00    -0.074 C 
ATOM      5  C   UNL     1     146.933 148.238 130.476  1.00  0.00     0.008 C 
ATOM      6  C   UNL     1     146.252 147.103 132.574  1.00  0.00     0.021 C 
ATOM      7  C   UNL     1     144.862 147.221 133.193  1.00  0.00     0.016 C 
ENDROOT
BRANCH   1   8
ATOM      8  C   UNL     1     145.754 144.860 133.977  1.00  0.00    -0.011 C 
ATOM      9  C   UNL     1     147.273 144.718 134.125  1.00  0.00     0.008 C 
ATOM     10  C   UNL     1     145.096 143.473 133.880  1.00  0.00     0.008 C 
ENDBRANCH   1   8
TORSDOF 1
ENDMDL
