MODEL 1
REMARK VINA RESULT:    -2.902      0.000      0.000
REMARK INTER + INTRA:          -3.583
REMARK INTER:                  -3.411
REMARK INTRA:                  -0.172
REMARK UNBOUND:                -0.172
REMARK SMILES O=C([O-])CCC(=O)[O-]
REMARK SMILES IDX 4 1 2 2 1 3 3 4 5 5 6 6 7 7 8 8
REMARK H PARENT
REMARK Flexibility Score: inf
ROOT
ATOM      1  C   UNL     1      -9.563   5.195  52.349  1.00  0.00     0.059 C 
ENDROOT
BRANCH   1   2
ATOM      2  C   UNL     1     -10.281   5.147  51.034  1.00  0.00     0.042 C 
ATOM      3  O   UNL     1     -10.617   6.214  50.456  1.00  0.00    -0.550 OA
ATOM      4  O   UNL     1     -10.542   3.925  50.429  1.00  0.00    -0.550 OA
ENDBRANCH   1   2
BRANCH   1   5
ATOM      5  C   UNL     1      -8.130   5.712  52.189  1.00  0.00     0.059 C 
BRANCH   5   6
ATOM      6  C   UNL     1      -7.286   4.761  51.398  1.00  0.00     0.042 C 
ATOM      7  O   UNL     1      -6.600   5.178  50.427  1.00  0.00    -0.550 OA
ATOM      8  O   UNL     1      -7.225   3.420  51.757  1.00  0.00    -0.550 OA
ENDBRANCH   5   6
ENDBRANCH   1   5
TORSDOF 3
ENDMDL
MODEL 2
REMARK VINA RESULT:    -2.864      1.549      1.943
REMARK INTER + INTRA:          -3.538
REMARK INTER:                  -3.397
REMARK INTRA:                  -0.142
REMARK UNBOUND:                -0.172
REMARK SMILES O=C([O-])CCC(=O)[O-]
REMARK SMILES IDX 4 1 2 2 1 3 3 4 5 5 6 6 7 7 8 8
REMARK H PARENT
REMARK Flexibility Score: inf
ROOT
ATOM      1  C   UNL     1      -7.930   5.730  51.717  1.00  0.00     0.059 C 
ENDROOT
BRANCH   1   2
ATOM      2  C   UNL     1      -9.427   5.697  51.671  1.00  0.00     0.042 C 
ATOM      3  O   UNL     1     -10.038   6.063  50.632  1.00  0.00    -0.550 OA
ATOM      4  O   UNL     1     -10.146   5.225  52.760  1.00  0.00    -0.550 OA
ENDBRANCH   1   2
BRANCH   1   5
ATOM      5  C   UNL     1      -7.318   4.525  50.997  1.00  0.00     0.059 C 
BRANCH   5   6
ATOM      6  C   UNL     1      -7.314   3.306  51.869  1.00  0.00     0.042 C 
ATOM      7  O   UNL     1      -6.482   3.200  52.808  1.00  0.00    -0.550 OA
ATOM      8  O   UNL     1      -8.256   2.304  51.668  1.00  0.00    -0.550 OA
ENDBRANCH   5   6
ENDBRANCH   1   5
TORSDOF 3
ENDMDL
MODEL 3
REMARK VINA RESULT:    -2.857      1.564      3.541
REMARK INTER + INTRA:          -3.531
REMARK INTER:                  -3.393
REMARK INTRA:                  -0.138
REMARK UNBOUND:                -0.172
REMARK SMILES O=C([O-])CCC(=O)[O-]
REMARK SMILES IDX 4 1 2 2 1 3 3 4 5 5 6 6 7 7 8 8
REMARK H PARENT
REMARK Flexibility Score: inf
ROOT
ATOM      1  C   UNL     1      -7.339   4.494  51.011  1.00  0.00     0.059 C 
ENDROOT
BRANCH   1   2
ATOM      2  C   UNL     1      -7.365   3.274  51.881  1.00  0.00     0.042 C 
ATOM      3  O   UNL     1      -6.511   3.130  52.796  1.00  0.00    -0.550 OA
ATOM      4  O   UNL     1      -8.355   2.317  51.707  1.00  0.00    -0.550 OA
ENDBRANCH   1   2
BRANCH   1   5
ATOM      5  C   UNL     1      -7.863   5.727  51.754  1.00  0.00     0.059 C 
BRANCH   5   6
ATOM      6  C   UNL     1      -9.360   5.753  51.792  1.00  0.00     0.042 C 
ATOM      7  O   UNL     1      -9.972   5.539  52.872  1.00  0.00    -0.550 OA
ATOM      8  O   UNL     1     -10.079   6.054  50.641  1.00  0.00    -0.550 OA
ENDBRANCH   5   6
ENDBRANCH   1   5
TORSDOF 3
ENDMDL
MODEL 4
REMARK VINA RESULT:    -2.822     12.342     13.439
REMARK INTER + INTRA:          -3.489
REMARK INTER:                  -3.372
REMARK INTRA:                  -0.116
REMARK UNBOUND:                -0.172
REMARK SMILES O=C([O-])CCC(=O)[O-]
REMARK SMILES IDX 4 1 2 2 1 3 3 4 5 5 6 6 7 7 8 8
REMARK H PARENT
REMARK Flexibility Score: inf
ROOT
ATOM      1  C   UNL     1       1.688  -1.518  53.579  1.00  0.00     0.059 C 
ENDROOT
BRANCH   1   2
ATOM      2  C   UNL     1       2.315  -2.817  53.985  1.00  0.00     0.042 C 
ATOM      3  O   UNL     1       1.640  -3.880  53.962  1.00  0.00    -0.550 OA
ATOM      4  O   UNL     1       3.654  -2.859  54.349  1.00  0.00    -0.550 OA
ENDBRANCH   1   2
BRANCH   1   5
ATOM      5  C   UNL     1       2.747  -0.465  53.235  1.00  0.00     0.059 C 
BRANCH   5   6
ATOM      6  C   UNL     1       2.716   0.682  54.198  1.00  0.00     0.042 C 
ATOM      7  O   UNL     1       2.321   1.817  53.821  1.00  0.00    -0.550 OA
ATOM      8  O   UNL     1       3.085   0.487  55.523  1.00  0.00    -0.550 OA
ENDBRANCH   5   6
ENDBRANCH   1   5
TORSDOF 3
ENDMDL
MODEL 5
REMARK VINA RESULT:    -2.821     12.328     13.486
REMARK INTER + INTRA:          -3.488
REMARK INTER:                  -3.369
REMARK INTRA:                  -0.119
REMARK UNBOUND:                -0.172
REMARK SMILES O=C([O-])CCC(=O)[O-]
REMARK SMILES IDX 4 1 2 2 1 3 3 4 5 5 6 6 7 7 8 8
REMARK H PARENT
REMARK Flexibility Score: inf
ROOT
ATOM      1  C   UNL     1       2.757  -0.510  53.264  1.00  0.00     0.059 C 
ENDROOT
BRANCH   1   2
ATOM      2  C   UNL     1       2.716   0.625  54.241  1.00  0.00     0.042 C 
ATOM      3  O   UNL     1       3.154   0.469  55.412  1.00  0.00    -0.550 OA
ATOM      4  O   UNL     1       2.232   1.865  53.848  1.00  0.00    -0.550 OA
ENDBRANCH   1   2
BRANCH   1   5
ATOM      5  C   UNL     1       1.729  -1.591  53.612  1.00  0.00     0.059 C 
BRANCH   5   6
ATOM      6  C   UNL     1       2.392  -2.868  54.029  1.00  0.00     0.042 C 
ATOM      7  O   UNL     1       1.738  -3.943  54.055  1.00  0.00    -0.550 OA
ATOM      8  O   UNL     1       3.743  -2.876  54.352  1.00  0.00    -0.550 OA
ENDBRANCH   5   6
ENDBRANCH   1   5
TORSDOF 3
ENDMDL
MODEL 6
REMARK VINA RESULT:    -2.815      1.077      3.339
REMARK INTER + INTRA:          -3.481
REMARK INTER:                  -3.325
REMARK INTRA:                  -0.156
REMARK UNBOUND:                -0.172
REMARK SMILES O=C([O-])CCC(=O)[O-]
REMARK SMILES IDX 4 1 2 2 1 3 3 4 5 5 6 6 7 7 8 8
REMARK H PARENT
REMARK Flexibility Score: inf
ROOT
ATOM      1  C   UNL     1      -8.392   5.777  51.939  1.00  0.00     0.059 C 
ENDROOT
BRANCH   1   2
ATOM      2  C   UNL     1      -7.348   4.812  51.467  1.00  0.00     0.042 C 
ATOM      3  O   UNL     1      -6.664   5.069  50.442  1.00  0.00    -0.550 OA
ATOM      4  O   UNL     1      -7.103   3.647  52.183  1.00  0.00    -0.550 OA
ENDBRANCH   1   2
BRANCH   1   5
ATOM      5  C   UNL     1      -9.613   5.783  51.014  1.00  0.00     0.059 C 
BRANCH   5   6
ATOM      6  C   UNL     1     -10.414   4.524  51.150  1.00  0.00     0.042 C 
ATOM      7  O   UNL     1     -10.448   3.690  50.207  1.00  0.00    -0.550 OA
ATOM      8  O   UNL     1     -11.090   4.254  52.333  1.00  0.00    -0.550 OA
ENDBRANCH   5   6
ENDBRANCH   1   5
TORSDOF 3
ENDMDL
MODEL 7
REMARK VINA RESULT:    -2.763      2.614      3.440
REMARK INTER + INTRA:          -3.419
REMARK INTER:                  -3.369
REMARK INTRA:                  -0.051
REMARK UNBOUND:                -0.172
REMARK SMILES O=C([O-])CCC(=O)[O-]
REMARK SMILES IDX 4 1 2 2 1 3 3 4 5 5 6 6 7 7 8 8
REMARK H PARENT
REMARK Flexibility Score: inf
ROOT
ATOM      1  C   UNL     1      -7.670   4.429  52.810  1.00  0.00     0.059 C 
ENDROOT
BRANCH   1   2
ATOM      2  C   UNL     1      -7.663   5.113  51.477  1.00  0.00     0.042 C 
ATOM      3  O   UNL     1      -6.630   5.086  50.756  1.00  0.00    -0.550 OA
ATOM      4  O   UNL     1      -8.809   5.744  51.013  1.00  0.00    -0.550 OA
ENDBRANCH   1   2
BRANCH   1   5
ATOM      5  C   UNL     1      -6.317   3.781  53.118  1.00  0.00     0.059 C 
BRANCH   5   6
ATOM      6  C   UNL     1      -6.016   3.806  54.586  1.00  0.00     0.042 C 
ATOM      7  O   UNL     1      -6.160   4.869  55.245  1.00  0.00    -0.550 OA
ATOM      8  O   UNL     1      -5.613   2.644  55.233  1.00  0.00    -0.550 OA
ENDBRANCH   5   6
ENDBRANCH   1   5
TORSDOF 3
ENDMDL
MODEL 8
REMARK VINA RESULT:    -2.745     11.189     12.742
REMARK INTER + INTRA:          -3.398
REMARK INTER:                  -3.342
REMARK INTRA:                  -0.056
REMARK UNBOUND:                -0.172
REMARK SMILES O=C([O-])CCC(=O)[O-]
REMARK SMILES IDX 4 1 2 2 1 3 3 4 5 5 6 6 7 7 8 8
REMARK H PARENT
REMARK Flexibility Score: inf
ROOT
ATOM      1  C   UNL     1       1.112   1.146  58.456  1.00  0.00     0.059 C 
ENDROOT
BRANCH   1   2
ATOM      2  C   UNL     1       0.458   1.631  57.199  1.00  0.00     0.042 C 
ATOM      3  O   UNL     1       1.156   2.108  56.265  1.00  0.00    -0.550 OA
ATOM      4  O   UNL     1      -0.917   1.520  57.043  1.00  0.00    -0.550 OA
ENDBRANCH   1   2
BRANCH   1   5
ATOM      5  C   UNL     1       1.192   2.252  59.513  1.00  0.00     0.059 C 
BRANCH   5   6
ATOM      6  C   UNL     1       0.481   1.863  60.773  1.00  0.00     0.042 C 
ATOM      7  O   UNL     1       0.023   2.749  61.542  1.00  0.00    -0.550 OA
ATOM      8  O   UNL     1       0.289   0.521  61.077  1.00  0.00    -0.550 OA
ENDBRANCH   5   6
ENDBRANCH   1   5
TORSDOF 3
ENDMDL
MODEL 9
REMARK VINA RESULT:    -2.724      2.863      3.624
REMARK INTER + INTRA:          -3.374
REMARK INTER:                  -3.328
REMARK INTRA:                  -0.046
REMARK UNBOUND:                -0.172
REMARK SMILES O=C([O-])CCC(=O)[O-]
REMARK SMILES IDX 4 1 2 2 1 3 3 4 5 5 6 6 7 7 8 8
REMARK H PARENT
REMARK Flexibility Score: inf
ROOT
ATOM      1  C   UNL     1      -7.515   4.602  52.928  1.00  0.00     0.059 C 
ENDROOT
BRANCH   1   2
ATOM      2  C   UNL     1      -7.674   5.174  51.553  1.00  0.00     0.042 C 
ATOM      3  O   UNL     1      -8.723   5.800  51.245  1.00  0.00    -0.550 OA
ATOM      4  O   UNL     1      -6.649   5.052  50.626  1.00  0.00    -0.550 OA
ENDBRANCH   1   2
BRANCH   1   5
ATOM      5  C   UNL     1      -8.188   5.481  53.987  1.00  0.00     0.059 C 
BRANCH   5   6
ATOM      6  C   UNL     1      -7.297   5.696  55.172  1.00  0.00     0.042 C 
ATOM      7  O   UNL     1      -6.278   4.976  55.338  1.00  0.00    -0.550 OA
ATOM      8  O   UNL     1      -7.571   6.719  56.072  1.00  0.00    -0.550 OA
ENDBRANCH   5   6
ENDBRANCH   1   5
TORSDOF 3
ENDMDL
