MODEL 1
REMARK VINA RESULT:    -3.831      0.000      0.000
REMARK INTER + INTRA:          -3.943
REMARK INTER:                  -3.943
REMARK INTRA:                   0.000
REMARK UNBOUND:                 0.000
REMARK SMILES Oc1ccc2[nH]ccc2c1
REMARK SMILES IDX 3 1 4 2 5 3 9 4 8 5 7 6 6 7 10 8 2 9 1 11
REMARK H PARENT 6 10 1 12
REMARK Flexibility Score: inf
ROOT
ATOM      1  C   UNL     1     161.930 173.755 168.204  1.00  0.00     0.048 A 
ATOM      2  C   UNL     1     163.215 173.424 167.735  1.00  0.00     0.030 A 
ATOM      3  C   UNL     1     163.685 174.086 166.603  1.00  0.00     0.046 A 
ATOM      4  C   UNL     1     162.932 175.031 165.958  1.00  0.00     0.003 A 
ATOM      5  C   UNL     1     163.673 175.491 164.891  1.00  0.00     0.028 A 
ATOM      6  C   UNL     1     164.869 174.781 164.947  1.00  0.00     0.083 A 
ATOM      7  N   UNL     1     164.870 173.924 165.994  1.00  0.00    -0.361 N 
ATOM      8  C   UNL     1     161.657 175.382 166.396  1.00  0.00     0.056 A 
ATOM      9  C   UNL     1     161.151 174.730 167.541  1.00  0.00     0.116 A 
ATOM     10  H   UNL     1     165.639 173.273 166.269  1.00  0.00     0.166 HD
ENDROOT
BRANCH   9  11
ATOM     11  O   UNL     1     159.882 175.039 168.025  1.00  0.00    -0.508 OA
ATOM     12  H   UNL     1     159.377 175.855 167.703  1.00  0.00     0.293 HD
ENDBRANCH   9  11
TORSDOF 1
ENDMDL
MODEL 2
REMARK VINA RESULT:    -3.813     10.461     10.855
REMARK INTER + INTRA:          -3.924
REMARK INTER:                  -3.924
REMARK INTRA:                   0.000
REMARK UNBOUND:                 0.000
REMARK SMILES Oc1ccc2[nH]ccc2c1
REMARK SMILES IDX 3 1 4 2 5 3 9 4 8 5 7 6 6 7 10 8 2 9 1 11
REMARK H PARENT 6 10 1 12
REMARK Flexibility Score: inf
ROOT
ATOM      1  C   UNL     1     170.101 167.117 168.213  1.00  0.00     0.048 A 
ATOM      2  C   UNL     1     169.277 167.086 169.354  1.00  0.00     0.030 A 
ATOM      3  C   UNL     1     168.069 166.397 169.265  1.00  0.00     0.046 A 
ATOM      4  C   UNL     1     167.683 165.767 168.112  1.00  0.00     0.003 A 
ATOM      5  C   UNL     1     166.456 165.186 168.351  1.00  0.00     0.028 A 
ATOM      6  C   UNL     1     166.155 165.504 169.672  1.00  0.00     0.083 A 
ATOM      7  N   UNL     1     167.143 166.245 170.225  1.00  0.00    -0.361 N 
ATOM      8  C   UNL     1     168.474 165.778 166.966  1.00  0.00     0.056 A 
ATOM      9  C   UNL     1     169.705 166.467 167.022  1.00  0.00     0.116 A 
ATOM     10  H   UNL     1     167.175 166.618 171.200  1.00  0.00     0.166 HD
ENDROOT
BRANCH   9  11
ATOM     11  O   UNL     1     170.538 166.514 165.907  1.00  0.00    -0.508 OA
ATOM     12  H   UNL     1     170.911 167.390 165.561  1.00  0.00     0.293 HD
ENDBRANCH   9  11
TORSDOF 1
ENDMDL
MODEL 3
REMARK VINA RESULT:    -3.712      0.845      0.987
REMARK INTER + INTRA:          -3.821
REMARK INTER:                  -3.821
REMARK INTRA:                   0.000
REMARK UNBOUND:                 0.000
REMARK SMILES Oc1ccc2[nH]ccc2c1
REMARK SMILES IDX 3 1 4 2 5 3 9 4 8 5 7 6 6 7 10 8 2 9 1 11
REMARK H PARENT 6 10 1 12
REMARK Flexibility Score: inf
ROOT
ATOM      1  C   UNL     1     162.208 172.750 168.643  1.00  0.00     0.048 A 
ATOM      2  C   UNL     1     163.380 172.615 167.875  1.00  0.00     0.030 A 
ATOM      3  C   UNL     1     163.607 173.547 166.865  1.00  0.00     0.046 A 
ATOM      4  C   UNL     1     162.727 174.567 166.617  1.00  0.00     0.003 A 
ATOM      5  C   UNL     1     163.237 175.305 165.569  1.00  0.00     0.028 A 
ATOM      6  C   UNL     1     164.430 174.675 165.229  1.00  0.00     0.083 A 
ATOM      7  N   UNL     1     164.651 173.602 166.023  1.00  0.00    -0.361 N 
ATOM      8  C   UNL     1     161.559 174.730 167.358  1.00  0.00     0.056 A 
ATOM      9  C   UNL     1     161.299 173.802 168.389  1.00  0.00     0.116 A 
ATOM     10  H   UNL     1     165.468 172.953 165.986  1.00  0.00     0.166 HD
ENDROOT
BRANCH   9  11
ATOM     11  O   UNL     1     160.146 173.913 169.163  1.00  0.00    -0.508 OA
ATOM     12  H   UNL     1     159.767 174.816 169.420  1.00  0.00     0.293 HD
ENDBRANCH   9  11
TORSDOF 1
ENDMDL
MODEL 4
REMARK VINA RESULT:    -3.624      9.496     10.189
REMARK INTER + INTRA:          -3.730
REMARK INTER:                  -3.730
REMARK INTRA:                   0.000
REMARK UNBOUND:                 0.000
REMARK SMILES Oc1ccc2[nH]ccc2c1
REMARK SMILES IDX 3 1 4 2 5 3 9 4 8 5 7 6 6 7 10 8 2 9 1 11
REMARK H PARENT 6 10 1 12
REMARK Flexibility Score: inf
ROOT
ATOM      1  C   UNL     1     161.068 163.850 168.465  1.00  0.00     0.048 A 
ATOM      2  C   UNL     1     161.854 163.872 169.632  1.00  0.00     0.030 A 
ATOM      3  C   UNL     1     163.019 164.635 169.618  1.00  0.00     0.046 A 
ATOM      4  C   UNL     1     163.401 165.345 168.511  1.00  0.00     0.003 A 
ATOM      5  C   UNL     1     164.582 165.985 168.818  1.00  0.00     0.028 A 
ATOM      6  C   UNL     1     164.862 165.618 170.131  1.00  0.00     0.083 A 
ATOM      7  N   UNL     1     163.904 164.793 170.615  1.00  0.00    -0.361 N 
ATOM      8  C   UNL     1     162.647 165.345 167.339  1.00  0.00     0.056 A 
ATOM      9  C   UNL     1     161.459 164.582 167.320  1.00  0.00     0.116 A 
ATOM     10  H   UNL     1     163.865 164.370 171.569  1.00  0.00     0.166 HD
ENDROOT
BRANCH   9  11
ATOM     11  O   UNL     1     160.665 164.542 166.177  1.00  0.00    -0.508 OA
ATOM     12  H   UNL     1     160.484 163.674 165.688  1.00  0.00     0.293 HD
ENDBRANCH   9  11
TORSDOF 1
ENDMDL
MODEL 5
REMARK VINA RESULT:    -3.551      2.858      4.544
REMARK INTER + INTRA:          -3.655
REMARK INTER:                  -3.655
REMARK INTRA:                   0.000
REMARK UNBOUND:                 0.000
REMARK SMILES Oc1ccc2[nH]ccc2c1
REMARK SMILES IDX 3 1 4 2 5 3 9 4 8 5 7 6 6 7 10 8 2 9 1 11
REMARK H PARENT 6 10 1 12
REMARK Flexibility Score: inf
ROOT
ATOM      1  C   UNL     1     162.656 174.534 166.840  1.00  0.00     0.048 A 
ATOM      2  C   UNL     1     161.559 174.569 167.721  1.00  0.00     0.030 A 
ATOM      3  C   UNL     1     161.410 173.514 168.619  1.00  0.00     0.046 A 
ATOM      4  C   UNL     1     162.296 172.470 168.654  1.00  0.00     0.003 A 
ATOM      5  C   UNL     1     161.874 171.605 169.640  1.00  0.00     0.028 A 
ATOM      6  C   UNL     1     160.723 172.186 170.164  1.00  0.00     0.083 A 
ATOM      7  N   UNL     1     160.444 173.352 169.537  1.00  0.00    -0.361 N 
ATOM      8  C   UNL     1     163.392 172.404 167.797  1.00  0.00     0.056 A 
ATOM      9  C   UNL     1     163.572 173.458 166.874  1.00  0.00     0.116 A 
ATOM     10  H   UNL     1     159.642 173.992 169.730  1.00  0.00     0.166 HD
ENDROOT
BRANCH   9  11
ATOM     11  O   UNL     1     164.649 173.446 165.992  1.00  0.00    -0.508 OA
ATOM     12  H   UNL     1     165.342 174.184 165.994  1.00  0.00     0.293 HD
ENDBRANCH   9  11
TORSDOF 1
ENDMDL
MODEL 6
REMARK VINA RESULT:    -3.551      2.624      4.106
REMARK INTER + INTRA:          -3.655
REMARK INTER:                  -3.655
REMARK INTRA:                   0.000
REMARK UNBOUND:                 0.000
REMARK SMILES Oc1ccc2[nH]ccc2c1
REMARK SMILES IDX 3 1 4 2 5 3 9 4 8 5 7 6 6 7 10 8 2 9 1 11
REMARK H PARENT 6 10 1 12
REMARK Flexibility Score: inf
ROOT
ATOM      1  C   UNL     1     163.422 175.413 164.875  1.00  0.00     0.048 A 
ATOM      2  C   UNL     1     162.078 175.825 164.946  1.00  0.00     0.030 A 
ATOM      3  C   UNL     1     161.323 175.398 166.036  1.00  0.00     0.046 A 
ATOM      4  C   UNL     1     161.858 174.603 167.014  1.00  0.00     0.003 A 
ATOM      5  C   UNL     1     160.864 174.363 167.939  1.00  0.00     0.028 A 
ATOM      6  C   UNL     1     159.749 175.043 167.458  1.00  0.00     0.083 A 
ATOM      7  N   UNL     1     160.035 175.673 166.295  1.00  0.00    -0.361 N 
ATOM      8  C   UNL     1     163.183 174.177 166.976  1.00  0.00     0.056 A 
ATOM      9  C   UNL     1     163.977 174.592 165.884  1.00  0.00     0.116 A 
ATOM     10  H   UNL     1     159.384 176.254 165.721  1.00  0.00     0.166 HD
ENDROOT
BRANCH   9  11
ATOM     11  O   UNL     1     165.309 174.197 165.790  1.00  0.00    -0.508 OA
ATOM     12  H   UNL     1     166.066 174.833 166.010  1.00  0.00     0.293 HD
ENDBRANCH   9  11
TORSDOF 1
ENDMDL
MODEL 7
REMARK VINA RESULT:    -3.523     16.954     17.879
REMARK INTER + INTRA:          -3.626
REMARK INTER:                  -3.626
REMARK INTRA:                   0.000
REMARK UNBOUND:                 0.000
REMARK SMILES Oc1ccc2[nH]ccc2c1
REMARK SMILES IDX 3 1 4 2 5 3 9 4 8 5 7 6 6 7 10 8 2 9 1 11
REMARK H PARENT 6 10 1 12
REMARK Flexibility Score: inf
ROOT
ATOM      1  C   UNL     1     168.488 156.665 166.847  1.00  0.00     0.048 A 
ATOM      2  C   UNL     1     169.581 156.596 167.730  1.00  0.00     0.030 A 
ATOM      3  C   UNL     1     169.756 157.643 168.633  1.00  0.00     0.046 A 
ATOM      4  C   UNL     1     168.900 158.711 168.669  1.00  0.00     0.003 A 
ATOM      5  C   UNL     1     169.343 159.560 169.660  1.00  0.00     0.028 A 
ATOM      6  C   UNL     1     170.475 158.945 170.185  1.00  0.00     0.083 A 
ATOM      7  N   UNL     1     170.723 157.774 169.554  1.00  0.00    -0.361 N 
ATOM      8  C   UNL     1     167.809 158.811 167.809  1.00  0.00     0.056 A 
ATOM      9  C   UNL     1     167.603 157.766 166.882  1.00  0.00     0.116 A 
ATOM     10  H   UNL     1     171.507 157.112 169.748  1.00  0.00     0.166 HD
ENDROOT
BRANCH   9  11
ATOM     11  O   UNL     1     166.529 157.812 165.996  1.00  0.00    -0.508 OA
ATOM     12  H   UNL     1     166.399 157.102 165.286  1.00  0.00     0.293 HD
ENDBRANCH   9  11
TORSDOF 1
ENDMDL
MODEL 8
REMARK VINA RESULT:    -3.406     10.416     10.751
REMARK INTER + INTRA:          -3.505
REMARK INTER:                  -3.505
REMARK INTRA:                   0.000
REMARK UNBOUND:                 0.000
REMARK SMILES Oc1ccc2[nH]ccc2c1
REMARK SMILES IDX 3 1 4 2 5 3 9 4 8 5 7 6 6 7 10 8 2 9 1 11
REMARK H PARENT 6 10 1 12
REMARK Flexibility Score: inf
ROOT
ATOM      1  C   UNL     1     168.565 165.875 167.363  1.00  0.00     0.048 A 
ATOM      2  C   UNL     1     167.803 165.925 168.545  1.00  0.00     0.030 A 
ATOM      3  C   UNL     1     168.265 166.729 169.584  1.00  0.00     0.046 A 
ATOM      4  C   UNL     1     169.422 167.454 169.472  1.00  0.00     0.003 A 
ATOM      5  C   UNL     1     169.597 168.136 170.657  1.00  0.00     0.028 A 
ATOM      6  C   UNL     1     168.507 167.778 171.445  1.00  0.00     0.083 A 
ATOM      7  N   UNL     1     167.697 166.919 170.785  1.00  0.00    -0.361 N 
ATOM      8  C   UNL     1     170.200 167.428 168.317  1.00  0.00     0.056 A 
ATOM      9  C   UNL     1     169.760 166.622 167.244  1.00  0.00     0.116 A 
ATOM     10  H   UNL     1     166.812 166.493 171.141  1.00  0.00     0.166 HD
ENDROOT
BRANCH   9  11
ATOM     11  O   UNL     1     170.496 166.555 166.064  1.00  0.00    -0.508 OA
ATOM     12  H   UNL     1     171.436 166.179 166.048  1.00  0.00     0.293 HD
ENDBRANCH   9  11
TORSDOF 1
ENDMDL
MODEL 9
REMARK VINA RESULT:    -3.384      9.800     11.072
REMARK INTER + INTRA:          -3.483
REMARK INTER:                  -3.483
REMARK INTRA:                   0.000
REMARK UNBOUND:                 0.000
REMARK SMILES Oc1ccc2[nH]ccc2c1
REMARK SMILES IDX 3 1 4 2 5 3 9 4 8 5 7 6 6 7 10 8 2 9 1 11
REMARK H PARENT 6 10 1 12
REMARK Flexibility Score: inf
ROOT
ATOM      1  C   UNL     1     162.681 165.331 167.427  1.00  0.00     0.048 A 
ATOM      2  C   UNL     1     163.412 165.274 168.628  1.00  0.00     0.030 A 
ATOM      3  C   UNL     1     162.920 164.466 169.652  1.00  0.00     0.046 A 
ATOM      4  C   UNL     1     161.764 163.747 169.507  1.00  0.00     0.003 A 
ATOM      5  C   UNL     1     161.556 163.060 170.684  1.00  0.00     0.028 A 
ATOM      6  C   UNL     1     162.625 163.411 171.502  1.00  0.00     0.083 A 
ATOM      7  N   UNL     1     163.455 164.270 170.867  1.00  0.00    -0.361 N 
ATOM      8  C   UNL     1     161.017 163.780 168.332  1.00  0.00     0.056 A 
ATOM      9  C   UNL     1     161.488 164.589 167.274  1.00  0.00     0.116 A 
ATOM     10  H   UNL     1     164.332 164.691 171.247  1.00  0.00     0.166 HD
ENDROOT
BRANCH   9  11
ATOM     11  O   UNL     1     160.783 164.663 166.076  1.00  0.00    -0.508 OA
ATOM     12  H   UNL     1     160.499 165.552 165.683  1.00  0.00     0.293 HD
ENDBRANCH   9  11
TORSDOF 1
ENDMDL
