MODEL 1
REMARK VINA RESULT:    -3.944      0.000      0.000
REMARK INTER + INTRA:         -12.862
REMARK INTER:                  -9.016
REMARK INTRA:                  -3.846
REMARK UNBOUND:                -3.846
REMARK SMILES CCCCCCCCCCCCCCCCCCCCCCCC(=O)[O-]
REMARK SMILES IDX 13 1 14 2 15 3 16 4 17 5 18 6 19 7 20 8 21 9 22 10 23 11
REMARK SMILES IDX 24 12 25 13 26 14 12 15 11 16 10 17 9 18 8 19 7 20 6 21 5 22
REMARK SMILES IDX 4 23 3 24 2 25 1 26
REMARK H PARENT
REMARK Flexibility Score: inf
ROOT
ATOM      1  C   UNL     1      27.510  25.615 -12.847  1.00  0.00     0.000 C 
ENDROOT
BRANCH   1   2
ATOM      2  C   UNL     1      28.521  26.594 -12.224  1.00  0.00     0.000 C 
BRANCH   2   3
ATOM      3  C   UNL     1      29.844  26.699 -13.014  1.00  0.00     0.000 C 
BRANCH   3   4
ATOM      4  C   UNL     1      30.532  25.333 -13.185  1.00  0.00     0.000 C 
BRANCH   4   5
ATOM      5  C   UNL     1      31.662  25.372 -14.227  1.00  0.00     0.000 C 
BRANCH   5   6
ATOM      6  C   UNL     1      31.359  24.497 -15.457  1.00  0.00     0.000 C 
BRANCH   6   7
ATOM      7  C   UNL     1      31.356  25.300 -16.771  1.00  0.00     0.000 C 
BRANCH   7   8
ATOM      8  C   UNL     1      30.027  26.013 -17.095  1.00  0.00     0.000 C 
BRANCH   8   9
ATOM      9  C   UNL     1      29.885  27.433 -16.505  1.00  0.00     0.000 C 
BRANCH   9  10
ATOM     10  C   UNL     1      28.510  28.094 -16.728  1.00  0.00     0.006 C 
BRANCH  10  11
ATOM     11  C   UNL     1      28.558  29.395 -17.544  1.00  0.00     0.053 C 
BRANCH  11  12
ATOM     12  C   UNL     1      27.187  29.918 -17.844  1.00  0.00     0.041 C 
ATOM     13  O   UNL     1      26.521  29.438 -18.801  1.00  0.00    -0.550 OA
ATOM     14  O   UNL     1      26.625  30.902 -17.038  1.00  0.00    -0.550 OA
ENDBRANCH  11  12
ENDBRANCH  10  11
ENDBRANCH   9  10
ENDBRANCH   8   9
ENDBRANCH   7   8
ENDBRANCH   6   7
ENDBRANCH   5   6
ENDBRANCH   4   5
ENDBRANCH   3   4
ENDBRANCH   2   3
ENDBRANCH   1   2
BRANCH   1  15
ATOM     15  C   UNL     1      27.237  25.911 -14.329  1.00  0.00     0.000 C 
BRANCH  15  16
ATOM     16  C   UNL     1      26.641  24.711 -15.079  1.00  0.00     0.000 C 
BRANCH  16  17
ATOM     17  C   UNL     1      27.052  23.355 -14.474  1.00  0.00     0.000 C 
BRANCH  17  18
ATOM     18  C   UNL     1      28.405  22.854 -15.023  1.00  0.00    -0.000 C 
BRANCH  18  19
ATOM     19  C   UNL     1      28.403  22.570 -16.538  1.00  0.00    -0.000 C 
BRANCH  19  20
ATOM     20  C   UNL     1      29.488  21.575 -17.001  1.00  0.00    -0.000 C 
BRANCH  20  21
ATOM     21  C   UNL     1      29.811  21.712 -18.499  1.00  0.00    -0.000 C 
BRANCH  21  22
ATOM     22  C   UNL     1      29.269  23.015 -19.113  1.00  0.00    -0.000 C 
BRANCH  22  23
ATOM     23  C   UNL     1      28.394  22.827 -20.365  1.00  0.00    -0.000 C 
BRANCH  23  24
ATOM     24  C   UNL     1      27.206  23.801 -20.419  1.00  0.00    -0.000 C 
BRANCH  24  25
ATOM     25  C   UNL     1      27.094  24.603 -19.118  1.00  0.00    -0.003 C 
ATOM     26  C   UNL     1      25.693  25.185 -18.949  1.00  0.00     0.004 C 
ENDBRANCH  24  25
ENDBRANCH  23  24
ENDBRANCH  22  23
ENDBRANCH  21  22
ENDBRANCH  20  21
ENDBRANCH  19  20
ENDBRANCH  18  19
ENDBRANCH  17  18
ENDBRANCH  16  17
ENDBRANCH  15  16
ENDBRANCH   1  15
TORSDOF 22
ENDMDL
MODEL 2
REMARK VINA RESULT:    -3.825      3.032      6.244
REMARK INTER + INTRA:         -12.591
REMARK INTER:                  -8.265
REMARK INTRA:                  -4.326
REMARK UNBOUND:                -3.846
REMARK SMILES CCCCCCCCCCCCCCCCCCCCCCCC(=O)[O-]
REMARK SMILES IDX 13 1 14 2 15 3 16 4 17 5 18 6 19 7 20 8 21 9 22 10 23 11
REMARK SMILES IDX 24 12 25 13 26 14 12 15 11 16 10 17 9 18 8 19 7 20 6 21 5 22
REMARK SMILES IDX 4 23 3 24 2 25 1 26
REMARK H PARENT
REMARK Flexibility Score: inf
ROOT
ATOM      1  C   UNL     1      27.220  26.460 -17.134  1.00  0.00     0.000 C 
ENDROOT
BRANCH   1   2
ATOM      2  C   UNL     1      26.643  25.116 -17.611  1.00  0.00     0.000 C 
BRANCH   2   3
ATOM      3  C   UNL     1      26.109  25.152 -19.060  1.00  0.00     0.000 C 
BRANCH   3   4
ATOM      4  C   UNL     1      26.883  24.201 -19.990  1.00  0.00     0.000 C 
BRANCH   4   5
ATOM      5  C   UNL     1      27.934  23.371 -19.235  1.00  0.00     0.000 C 
BRANCH   5   6
ATOM      6  C   UNL     1      28.985  22.755 -20.176  1.00  0.00     0.000 C 
BRANCH   6   7
ATOM      7  C   UNL     1      30.426  23.125 -19.782  1.00  0.00     0.000 C 
BRANCH   7   8
ATOM      8  C   UNL     1      30.551  23.999 -18.516  1.00  0.00     0.000 C 
BRANCH   8   9
ATOM      9  C   UNL     1      31.876  24.780 -18.386  1.00  0.00     0.000 C 
BRANCH   9  10
ATOM     10  C   UNL     1      32.725  24.417 -17.151  1.00  0.00     0.006 C 
BRANCH  10  11
ATOM     11  C   UNL     1      34.242  24.450 -17.394  1.00  0.00     0.053 C 
BRANCH  11  12
ATOM     12  C   UNL     1      34.863  25.713 -16.882  1.00  0.00     0.041 C 
ATOM     13  O   UNL     1      34.280  26.391 -15.993  1.00  0.00    -0.550 OA
ATOM     14  O   UNL     1      36.107  26.118 -17.352  1.00  0.00    -0.550 OA
ENDBRANCH  11  12
ENDBRANCH  10  11
ENDBRANCH   9  10
ENDBRANCH   8   9
ENDBRANCH   7   8
ENDBRANCH   6   7
ENDBRANCH   5   6
ENDBRANCH   4   5
ENDBRANCH   3   4
ENDBRANCH   2   3
ENDBRANCH   1   2
BRANCH   1  15
ATOM     15  C   UNL     1      28.754  26.449 -17.055  1.00  0.00     0.000 C 
BRANCH  15  16
ATOM     16  C   UNL     1      29.302  27.339 -15.930  1.00  0.00     0.000 C 
BRANCH  16  17
ATOM     17  C   UNL     1      30.789  27.082 -15.625  1.00  0.00     0.000 C 
BRANCH  17  18
ATOM     18  C   UNL     1      31.015  26.581 -14.183  1.00  0.00    -0.000 C 
BRANCH  18  19
ATOM     19  C   UNL     1      29.802  26.778 -13.252  1.00  0.00    -0.000 C 
BRANCH  19  20
ATOM     20  C   UNL     1      29.582  25.631 -12.243  1.00  0.00    -0.000 C 
BRANCH  20  21
ATOM     21  C   UNL     1      28.118  25.159 -12.200  1.00  0.00    -0.000 C 
BRANCH  21  22
ATOM     22  C   UNL     1      27.377  25.379 -13.530  1.00  0.00    -0.000 C 
BRANCH  22  23
ATOM     23  C   UNL     1      26.658  24.137 -14.086  1.00  0.00    -0.000 C 
BRANCH  23  24
ATOM     24  C   UNL     1      27.595  22.934 -14.275  1.00  0.00    -0.000 C 
BRANCH  24  25
ATOM     25  C   UNL     1      28.606  23.197 -15.397  1.00  0.00    -0.003 C 
ATOM     26  C   UNL     1      30.040  23.069 -14.888  1.00  0.00     0.004 C 
ENDBRANCH  24  25
ENDBRANCH  23  24
ENDBRANCH  22  23
ENDBRANCH  21  22
ENDBRANCH  20  21
ENDBRANCH  19  20
ENDBRANCH  18  19
ENDBRANCH  17  18
ENDBRANCH  16  17
ENDBRANCH  15  16
ENDBRANCH   1  15
TORSDOF 22
ENDMDL
MODEL 3
REMARK VINA RESULT:    -3.795      4.431      6.102
REMARK INTER + INTRA:         -12.522
REMARK INTER:                  -8.467
REMARK INTRA:                  -4.055
REMARK UNBOUND:                -3.846
REMARK SMILES CCCCCCCCCCCCCCCCCCCCCCCC(=O)[O-]
REMARK SMILES IDX 13 1 14 2 15 3 16 4 17 5 18 6 19 7 20 8 21 9 22 10 23 11
REMARK SMILES IDX 24 12 25 13 26 14 12 15 11 16 10 17 9 18 8 19 7 20 6 21 5 22
REMARK SMILES IDX 4 23 3 24 2 25 1 26
REMARK H PARENT
REMARK Flexibility Score: inf
ROOT
ATOM      1  C   UNL     1      30.089  27.507 -16.319  1.00  0.00     0.000 C 
ENDROOT
BRANCH   1   2
ATOM      2  C   UNL     1      30.950  26.842 -15.232  1.00  0.00     0.000 C 
BRANCH   2   3
ATOM      3  C   UNL     1      32.335  26.379 -15.737  1.00  0.00     0.000 C 
BRANCH   3   4
ATOM      4  C   UNL     1      32.317  24.922 -16.232  1.00  0.00     0.000 C 
BRANCH   4   5
ATOM      5  C   UNL     1      32.948  24.771 -17.626  1.00  0.00     0.000 C 
BRANCH   5   6
ATOM      6  C   UNL     1      32.780  26.035 -18.488  1.00  0.00     0.000 C 
BRANCH   6   7
ATOM      7  C   UNL     1      34.103  26.500 -19.125  1.00  0.00     0.000 C 
BRANCH   7   8
ATOM      8  C   UNL     1      35.294  25.540 -18.924  1.00  0.00     0.000 C 
BRANCH   8   9
ATOM      9  C   UNL     1      36.451  26.100 -18.068  1.00  0.00     0.000 C 
BRANCH   9  10
ATOM     10  C   UNL     1      36.179  26.133 -16.551  1.00  0.00     0.006 C 
BRANCH  10  11
ATOM     11  C   UNL     1      36.393  24.787 -15.840  1.00  0.00     0.053 C 
BRANCH  11  12
ATOM     12  C   UNL     1      37.279  24.923 -14.640  1.00  0.00     0.041 C 
ATOM     13  O   UNL     1      37.465  23.938 -13.876  1.00  0.00    -0.550 OA
ATOM     14  O   UNL     1      37.937  26.122 -14.392  1.00  0.00    -0.550 OA
ENDBRANCH  11  12
ENDBRANCH  10  11
ENDBRANCH   9  10
ENDBRANCH   8   9
ENDBRANCH   7   8
ENDBRANCH   6   7
ENDBRANCH   5   6
ENDBRANCH   4   5
ENDBRANCH   3   4
ENDBRANCH   2   3
ENDBRANCH   1   2
BRANCH   1  15
ATOM     15  C   UNL     1      29.104  26.528 -16.975  1.00  0.00     0.000 C 
BRANCH  15  16
ATOM     16  C   UNL     1      28.254  25.760 -15.953  1.00  0.00     0.000 C 
BRANCH  16  17
ATOM     17  C   UNL     1      26.974  25.158 -16.561  1.00  0.00     0.000 C 
BRANCH  17  18
ATOM     18  C   UNL     1      26.722  25.649 -18.003  1.00  0.00    -0.000 C 
BRANCH  18  19
ATOM     19  C   UNL     1      26.228  24.550 -18.965  1.00  0.00    -0.000 C 
BRANCH  19  20
ATOM     20  C   UNL     1      27.104  24.362 -20.220  1.00  0.00    -0.000 C 
BRANCH  20  21
ATOM     21  C   UNL     1      28.107  23.205 -20.070  1.00  0.00    -0.000 C 
BRANCH  21  22
ATOM     22  C   UNL     1      29.427  23.638 -19.407  1.00  0.00    -0.000 C 
BRANCH  22  23
ATOM     23  C   UNL     1      29.747  22.933 -18.076  1.00  0.00    -0.000 C 
BRANCH  23  24
ATOM     24  C   UNL     1      28.614  22.012 -17.598  1.00  0.00    -0.000 C 
BRANCH  24  25
ATOM     25  C   UNL     1      28.849  21.558 -16.153  1.00  0.00    -0.003 C 
ATOM     26  C   UNL     1      29.803  22.503 -15.426  1.00  0.00     0.004 C 
ENDBRANCH  24  25
ENDBRANCH  23  24
ENDBRANCH  22  23
ENDBRANCH  21  22
ENDBRANCH  20  21
ENDBRANCH  19  20
ENDBRANCH  18  19
ENDBRANCH  17  18
ENDBRANCH  16  17
ENDBRANCH  15  16
ENDBRANCH   1  15
TORSDOF 22
ENDMDL
MODEL 4
REMARK VINA RESULT:    -3.746      4.461      6.112
REMARK INTER + INTRA:         -12.410
REMARK INTER:                  -9.066
REMARK INTRA:                  -3.344
REMARK UNBOUND:                -3.846
REMARK SMILES CCCCCCCCCCCCCCCCCCCCCCCC(=O)[O-]
REMARK SMILES IDX 13 1 14 2 15 3 16 4 17 5 18 6 19 7 20 8 21 9 22 10 23 11
REMARK SMILES IDX 24 12 25 13 26 14 12 15 11 16 10 17 9 18 8 19 7 20 6 21 5 22
REMARK SMILES IDX 4 23 3 24 2 25 1 26
REMARK H PARENT
REMARK Flexibility Score: inf
ROOT
ATOM      1  C   UNL     1      27.651  26.232 -16.111  1.00  0.00     0.000 C 
ENDROOT
BRANCH   1   2
ATOM      2  C   UNL     1      27.835  27.587 -16.815  1.00  0.00     0.000 C 
BRANCH   2   3
ATOM      3  C   UNL     1      29.289  28.106 -16.786  1.00  0.00     0.000 C 
BRANCH   3   4
ATOM      4  C   UNL     1      30.313  26.965 -16.653  1.00  0.00     0.000 C 
BRANCH   4   5
ATOM      5  C   UNL     1      31.180  27.100 -15.390  1.00  0.00     0.000 C 
BRANCH   5   6
ATOM      6  C   UNL     1      32.188  25.947 -15.243  1.00  0.00     0.000 C 
BRANCH   6   7
ATOM      7  C   UNL     1      33.333  26.022 -16.270  1.00  0.00     0.000 C 
BRANCH   7   8
ATOM      8  C   UNL     1      34.526  25.088 -15.984  1.00  0.00     0.000 C 
BRANCH   8   9
ATOM      9  C   UNL     1      35.907  25.777 -15.956  1.00  0.00     0.000 C 
BRANCH   9  10
ATOM     10  C   UNL     1      36.514  26.074 -17.342  1.00  0.00     0.006 C 
BRANCH  10  11
ATOM     11  C   UNL     1      38.047  25.981 -17.395  1.00  0.00     0.053 C 
BRANCH  11  12
ATOM     12  C   UNL     1      38.690  27.333 -17.384  1.00  0.00     0.041 C 
ATOM     13  O   UNL     1      39.527  27.644 -18.275  1.00  0.00    -0.550 OA
ATOM     14  O   UNL     1      38.331  28.268 -16.420  1.00  0.00    -0.550 OA
ENDBRANCH  11  12
ENDBRANCH  10  11
ENDBRANCH   9  10
ENDBRANCH   8   9
ENDBRANCH   7   8
ENDBRANCH   6   7
ENDBRANCH   5   6
ENDBRANCH   4   5
ENDBRANCH   3   4
ENDBRANCH   2   3
ENDBRANCH   1   2
BRANCH   1  15
ATOM     15  C   UNL     1      26.826  25.240 -16.944  1.00  0.00     0.000 C 
BRANCH  15  16
ATOM     16  C   UNL     1      26.575  25.727 -18.379  1.00  0.00     0.000 C 
BRANCH  16  17
ATOM     17  C   UNL     1      26.075  24.613 -19.317  1.00  0.00     0.000 C 
BRANCH  17  18
ATOM     18  C   UNL     1      27.187  24.089 -20.250  1.00  0.00    -0.000 C 
BRANCH  18  19
ATOM     19  C   UNL     1      28.182  23.128 -19.567  1.00  0.00    -0.000 C 
BRANCH  19  20
ATOM     20  C   UNL     1      29.665  23.443 -19.848  1.00  0.00    -0.000 C 
BRANCH  20  21
ATOM     21  C   UNL     1      30.334  24.205 -18.690  1.00  0.00    -0.000 C 
BRANCH  21  22
ATOM     22  C   UNL     1      31.431  23.386 -17.987  1.00  0.00    -0.000 C 
BRANCH  22  23
ATOM     23  C   UNL     1      30.966  22.618 -16.737  1.00  0.00    -0.000 C 
BRANCH  23  24
ATOM     24  C   UNL     1      29.709  23.222 -16.093  1.00  0.00    -0.000 C 
BRANCH  24  25
ATOM     25  C   UNL     1      28.613  22.163 -15.928  1.00  0.00    -0.003 C 
ATOM     26  C   UNL     1      28.910  20.927 -16.773  1.00  0.00     0.004 C 
ENDBRANCH  24  25
ENDBRANCH  23  24
ENDBRANCH  22  23
ENDBRANCH  21  22
ENDBRANCH  20  21
ENDBRANCH  19  20
ENDBRANCH  18  19
ENDBRANCH  17  18
ENDBRANCH  16  17
ENDBRANCH  15  16
ENDBRANCH   1  15
TORSDOF 22
ENDMDL
MODEL 5
REMARK VINA RESULT:    -3.735      3.228      5.500
REMARK INTER + INTRA:         -12.384
REMARK INTER:                  -7.707
REMARK INTRA:                  -4.676
REMARK UNBOUND:                -3.846
REMARK SMILES CCCCCCCCCCCCCCCCCCCCCCCC(=O)[O-]
REMARK SMILES IDX 13 1 14 2 15 3 16 4 17 5 18 6 19 7 20 8 21 9 22 10 23 11
REMARK SMILES IDX 24 12 25 13 26 14 12 15 11 16 10 17 9 18 8 19 7 20 6 21 5 22
REMARK SMILES IDX 4 23 3 24 2 25 1 26
REMARK H PARENT
REMARK Flexibility Score: inf
ROOT
ATOM      1  C   UNL     1      27.814  25.775 -16.850  1.00  0.00     0.000 C 
ENDROOT
BRANCH   1   2
ATOM      2  C   UNL     1      26.453  25.267 -16.342  1.00  0.00     0.000 C 
BRANCH   2   3
ATOM      3  C   UNL     1      26.563  24.304 -15.139  1.00  0.00     0.000 C 
BRANCH   3   4
ATOM      4  C   UNL     1      26.188  24.986 -13.811  1.00  0.00     0.000 C 
BRANCH   4   5
ATOM      5  C   UNL     1      27.386  25.101 -12.853  1.00  0.00     0.000 C 
BRANCH   5   6
ATOM      6  C   UNL     1      28.298  26.292 -13.193  1.00  0.00     0.000 C 
BRANCH   6   7
ATOM      7  C   UNL     1      29.785  25.898 -13.275  1.00  0.00     0.000 C 
BRANCH   7   8
ATOM      8  C   UNL     1      30.055  24.380 -13.295  1.00  0.00     0.000 C 
BRANCH   8   9
ATOM      9  C   UNL     1      30.124  23.744 -14.700  1.00  0.00     0.000 C 
BRANCH   9  10
ATOM     10  C   UNL     1      30.034  22.205 -14.722  1.00  0.00     0.006 C 
BRANCH  10  11
ATOM     11  C   UNL     1      28.889  21.649 -15.583  1.00  0.00     0.053 C 
BRANCH  11  12
ATOM     12  C   UNL     1      29.202  20.286 -16.117  1.00  0.00     0.041 C 
ATOM     13  O   UNL     1      28.642  19.874 -17.169  1.00  0.00    -0.550 OA
ATOM     14  O   UNL     1      30.147  19.488 -15.483  1.00  0.00    -0.550 OA
ENDBRANCH  11  12
ENDBRANCH  10  11
ENDBRANCH   9  10
ENDBRANCH   8   9
ENDBRANCH   7   8
ENDBRANCH   6   7
ENDBRANCH   5   6
ENDBRANCH   4   5
ENDBRANCH   3   4
ENDBRANCH   2   3
ENDBRANCH   1   2
BRANCH   1  15
ATOM     15  C   UNL     1      28.003  27.283 -16.624  1.00  0.00     0.000 C 
BRANCH  15  16
ATOM     16  C   UNL     1      29.480  27.704 -16.603  1.00  0.00     0.000 C 
BRANCH  16  17
ATOM     17  C   UNL     1      30.435  26.583 -17.054  1.00  0.00     0.000 C 
BRANCH  17  18
ATOM     18  C   UNL     1      31.760  26.589 -16.265  1.00  0.00    -0.000 C 
BRANCH  18  19
ATOM     19  C   UNL     1      32.903  25.810 -16.947  1.00  0.00    -0.000 C 
BRANCH  19  20
ATOM     20  C   UNL     1      32.492  25.082 -18.243  1.00  0.00    -0.000 C 
BRANCH  20  21
ATOM     21  C   UNL     1      32.593  23.552 -18.116  1.00  0.00    -0.000 C 
BRANCH  21  22
ATOM     22  C   UNL     1      31.228  22.850 -18.218  1.00  0.00    -0.000 C 
BRANCH  22  23
ATOM     23  C   UNL     1      30.125  23.672 -18.909  1.00  0.00    -0.000 C 
BRANCH  23  24
ATOM     24  C   UNL     1      28.772  22.945 -18.955  1.00  0.00    -0.000 C 
BRANCH  24  25
ATOM     25  C   UNL     1      28.063  23.187 -20.292  1.00  0.00    -0.003 C 
ATOM     26  C   UNL     1      26.931  24.200 -20.141  1.00  0.00     0.004 C 
ENDBRANCH  24  25
ENDBRANCH  23  24
ENDBRANCH  22  23
ENDBRANCH  21  22
ENDBRANCH  20  21
ENDBRANCH  19  20
ENDBRANCH  18  19
ENDBRANCH  17  18
ENDBRANCH  16  17
ENDBRANCH  15  16
ENDBRANCH   1  15
TORSDOF 22
ENDMDL
MODEL 6
REMARK VINA RESULT:    -3.724      3.363      6.093
REMARK INTER + INTRA:         -12.358
REMARK INTER:                  -8.267
REMARK INTRA:                  -4.092
REMARK UNBOUND:                -3.846
REMARK SMILES CCCCCCCCCCCCCCCCCCCCCCCC(=O)[O-]
REMARK SMILES IDX 13 1 14 2 15 3 16 4 17 5 18 6 19 7 20 8 21 9 22 10 23 11
REMARK SMILES IDX 24 12 25 13 26 14 12 15 11 16 10 17 9 18 8 19 7 20 6 21 5 22
REMARK SMILES IDX 4 23 3 24 2 25 1 26
REMARK H PARENT
REMARK Flexibility Score: inf
ROOT
ATOM      1  C   UNL     1      28.372  27.333 -16.732  1.00  0.00     0.000 C 
ENDROOT
BRANCH   1   2
ATOM      2  C   UNL     1      27.628  26.289 -15.881  1.00  0.00     0.000 C 
BRANCH   2   3
ATOM      3  C   UNL     1      26.782  25.302 -16.716  1.00  0.00     0.000 C 
BRANCH   3   4
ATOM      4  C   UNL     1      26.599  25.775 -18.169  1.00  0.00     0.000 C 
BRANCH   4   5
ATOM      5  C   UNL     1      26.055  24.664 -19.082  1.00  0.00     0.000 C 
BRANCH   5   6
ATOM      6  C   UNL     1      27.096  24.187 -20.111  1.00  0.00     0.000 C 
BRANCH   6   7
ATOM      7  C   UNL     1      28.065  23.138 -19.534  1.00  0.00     0.000 C 
BRANCH   7   8
ATOM      8  C   UNL     1      29.531  23.603 -19.413  1.00  0.00     0.000 C 
BRANCH   8   9
ATOM      9  C   UNL     1      29.902  24.257 -18.065  1.00  0.00     0.000 C 
BRANCH   9  10
ATOM     10  C   UNL     1      30.375  23.275 -16.974  1.00  0.00     0.006 C 
BRANCH  10  11
ATOM     11  C   UNL     1      29.242  22.668 -16.134  1.00  0.00     0.053 C 
BRANCH  11  12
ATOM     12  C   UNL     1      29.549  22.707 -14.669  1.00  0.00     0.041 C 
ATOM     13  O   UNL     1      30.342  21.865 -14.165  1.00  0.00    -0.550 OA
ATOM     14  O   UNL     1      28.998  23.700 -13.867  1.00  0.00    -0.550 OA
ENDBRANCH  11  12
ENDBRANCH  10  11
ENDBRANCH   9  10
ENDBRANCH   8   9
ENDBRANCH   7   8
ENDBRANCH   6   7
ENDBRANCH   5   6
ENDBRANCH   4   5
ENDBRANCH   3   4
ENDBRANCH   2   3
ENDBRANCH   1   2
BRANCH   1  15
ATOM     15  C   UNL     1      29.835  27.514 -16.299  1.00  0.00     0.000 C 
BRANCH  15  16
ATOM     16  C   UNL     1      30.148  26.841 -14.955  1.00  0.00     0.000 C 
BRANCH  16  17
ATOM     17  C   UNL     1      31.635  26.476 -14.794  1.00  0.00     0.000 C 
BRANCH  17  18
ATOM     18  C   UNL     1      32.353  26.326 -16.152  1.00  0.00    -0.000 C 
BRANCH  18  19
ATOM     19  C   UNL     1      33.870  26.078 -16.038  1.00  0.00    -0.000 C 
BRANCH  19  20
ATOM     20  C   UNL     1      34.462  25.220 -17.175  1.00  0.00    -0.000 C 
BRANCH  20  21
ATOM     21  C   UNL     1      34.942  26.070 -18.364  1.00  0.00    -0.000 C 
BRANCH  21  22
ATOM     22  C   UNL     1      33.823  26.367 -19.379  1.00  0.00    -0.000 C 
BRANCH  22  23
ATOM     23  C   UNL     1      32.945  25.158 -19.748  1.00  0.00    -0.000 C 
BRANCH  23  24
ATOM     24  C   UNL     1      33.543  24.302 -20.876  1.00  0.00    -0.000 C 
BRANCH  24  25
ATOM     25  C   UNL     1      33.222  22.818 -20.668  1.00  0.00    -0.003 C 
ATOM     26  C   UNL     1      33.153  22.472 -19.183  1.00  0.00     0.004 C 
ENDBRANCH  24  25
ENDBRANCH  23  24
ENDBRANCH  22  23
ENDBRANCH  21  22
ENDBRANCH  20  21
ENDBRANCH  19  20
ENDBRANCH  18  19
ENDBRANCH  17  18
ENDBRANCH  16  17
ENDBRANCH  15  16
ENDBRANCH   1  15
TORSDOF 22
ENDMDL
MODEL 7
REMARK VINA RESULT:    -3.719      5.226      6.669
REMARK INTER + INTRA:         -12.348
REMARK INTER:                  -9.068
REMARK INTRA:                  -3.280
REMARK UNBOUND:                -3.846
REMARK SMILES CCCCCCCCCCCCCCCCCCCCCCCC(=O)[O-]
REMARK SMILES IDX 13 1 14 2 15 3 16 4 17 5 18 6 19 7 20 8 21 9 22 10 23 11
REMARK SMILES IDX 24 12 25 13 26 14 12 15 11 16 10 17 9 18 8 19 7 20 6 21 5 22
REMARK SMILES IDX 4 23 3 24 2 25 1 26
REMARK H PARENT
REMARK Flexibility Score: inf
ROOT
ATOM      1  C   UNL     1      30.865  27.028 -15.794  1.00  0.00     0.000 C 
ENDROOT
BRANCH   1   2
ATOM      2  C   UNL     1      32.230  26.371 -15.527  1.00  0.00     0.000 C 
BRANCH   2   3
ATOM      3  C   UNL     1      33.036  26.077 -16.812  1.00  0.00     0.000 C 
BRANCH   3   4
ATOM      4  C   UNL     1      34.546  25.958 -16.539  1.00  0.00     0.000 C 
BRANCH   4   5
ATOM      5  C   UNL     1      34.873  25.992 -15.037  1.00  0.00     0.000 C 
BRANCH   5   6
ATOM      6  C   UNL     1      36.121  25.161 -14.688  1.00  0.00     0.000 C 
BRANCH   6   7
ATOM      7  C   UNL     1      37.213  25.992 -13.989  1.00  0.00     0.000 C 
BRANCH   7   8
ATOM      8  C   UNL     1      38.407  26.380 -14.884  1.00  0.00     0.000 C 
BRANCH   8   9
ATOM      9  C   UNL     1      38.315  25.896 -16.347  1.00  0.00     0.000 C 
BRANCH   9  10
ATOM     10  C   UNL     1      38.082  27.010 -17.387  1.00  0.00     0.006 C 
BRANCH  10  11
ATOM     11  C   UNL     1      38.835  28.317 -17.096  1.00  0.00     0.053 C 
BRANCH  11  12
ATOM     12  C   UNL     1      39.045  29.130 -18.335  1.00  0.00     0.041 C 
ATOM     13  O   UNL     1      40.059  29.872 -18.443  1.00  0.00    -0.550 OA
ATOM     14  O   UNL     1      38.147  29.034 -19.392  1.00  0.00    -0.550 OA
ENDBRANCH  11  12
ENDBRANCH  10  11
ENDBRANCH   9  10
ENDBRANCH   8   9
ENDBRANCH   7   8
ENDBRANCH   6   7
ENDBRANCH   5   6
ENDBRANCH   4   5
ENDBRANCH   3   4
ENDBRANCH   2   3
ENDBRANCH   1   2
BRANCH   1  15
ATOM     15  C   UNL     1      29.747  26.448 -14.914  1.00  0.00     0.000 C 
BRANCH  15  16
ATOM     16  C   UNL     1      28.342  26.754 -15.452  1.00  0.00     0.000 C 
BRANCH  16  17
ATOM     17  C   UNL     1      27.277  25.756 -14.964  1.00  0.00     0.000 C 
BRANCH  17  18
ATOM     18  C   UNL     1      26.479  25.133 -16.129  1.00  0.00    -0.000 C 
BRANCH  18  19
ATOM     19  C   UNL     1      26.937  25.598 -17.526  1.00  0.00    -0.000 C 
BRANCH  19  20
ATOM     20  C   UNL     1      26.866  24.508 -18.615  1.00  0.00    -0.000 C 
BRANCH  20  21
ATOM     21  C   UNL     1      28.125  23.625 -18.647  1.00  0.00    -0.000 C 
BRANCH  21  22
ATOM     22  C   UNL     1      29.399  24.382 -18.232  1.00  0.00    -0.000 C 
BRANCH  22  23
ATOM     23  C   UNL     1      30.338  23.605 -17.291  1.00  0.00    -0.000 C 
BRANCH  23  24
ATOM     24  C   UNL     1      29.651  22.410 -16.609  1.00  0.00    -0.000 C 
BRANCH  24  25
ATOM     25  C   UNL     1      29.372  22.708 -15.132  1.00  0.00    -0.003 C 
ATOM     26  C   UNL     1      28.033  22.119 -14.695  1.00  0.00     0.004 C 
ENDBRANCH  24  25
ENDBRANCH  23  24
ENDBRANCH  22  23
ENDBRANCH  21  22
ENDBRANCH  20  21
ENDBRANCH  19  20
ENDBRANCH  18  19
ENDBRANCH  17  18
ENDBRANCH  16  17
ENDBRANCH  15  16
ENDBRANCH   1  15
TORSDOF 22
ENDMDL
MODEL 8
REMARK VINA RESULT:    -3.711      4.533      5.636
REMARK INTER + INTRA:         -12.330
REMARK INTER:                  -9.225
REMARK INTRA:                  -3.105
REMARK UNBOUND:                -3.846
REMARK SMILES CCCCCCCCCCCCCCCCCCCCCCCC(=O)[O-]
REMARK SMILES IDX 13 1 14 2 15 3 16 4 17 5 18 6 19 7 20 8 21 9 22 10 23 11
REMARK SMILES IDX 24 12 25 13 26 14 12 15 11 16 10 17 9 18 8 19 7 20 6 21 5 22
REMARK SMILES IDX 4 23 3 24 2 25 1 26
REMARK H PARENT
REMARK Flexibility Score: inf
ROOT
ATOM      1  C   UNL     1      28.938  27.505 -16.857  1.00  0.00     0.000 C 
ENDROOT
BRANCH   1   2
ATOM      2  C   UNL     1      30.074  26.519 -16.533  1.00  0.00     0.000 C 
BRANCH   2   3
ATOM      3  C   UNL     1      31.059  27.041 -15.464  1.00  0.00     0.000 C 
BRANCH   3   4
ATOM      4  C   UNL     1      32.272  26.111 -15.284  1.00  0.00     0.000 C 
BRANCH   4   5
ATOM      5  C   UNL     1      32.625  25.354 -16.575  1.00  0.00     0.000 C 
BRANCH   5   6
ATOM      6  C   UNL     1      33.829  25.971 -17.308  1.00  0.00     0.000 C 
BRANCH   6   7
ATOM      7  C   UNL     1      33.521  26.303 -18.781  1.00  0.00     0.000 C 
BRANCH   7   8
ATOM      8  C   UNL     1      34.733  26.783 -19.606  1.00  0.00     0.000 C 
BRANCH   8   9
ATOM      9  C   UNL     1      35.671  25.664 -20.106  1.00  0.00     0.000 C 
BRANCH   9  10
ATOM     10  C   UNL     1      37.007  25.547 -19.346  1.00  0.00     0.006 C 
BRANCH  10  11
ATOM     11  C   UNL     1      37.690  26.892 -19.054  1.00  0.00     0.053 C 
BRANCH  11  12
ATOM     12  C   UNL     1      38.245  26.947 -17.664  1.00  0.00     0.041 C 
ATOM     13  O   UNL     1      38.509  25.882 -17.044  1.00  0.00    -0.550 OA
ATOM     14  O   UNL     1      38.516  28.175 -17.071  1.00  0.00    -0.550 OA
ENDBRANCH  11  12
ENDBRANCH  10  11
ENDBRANCH   9  10
ENDBRANCH   8   9
ENDBRANCH   7   8
ENDBRANCH   6   7
ENDBRANCH   5   6
ENDBRANCH   4   5
ENDBRANCH   3   4
ENDBRANCH   2   3
ENDBRANCH   1   2
BRANCH   1  15
ATOM     15  C   UNL     1      27.550  26.933 -16.531  1.00  0.00     0.000 C 
BRANCH  15  16
ATOM     16  C   UNL     1      27.487  26.264 -15.150  1.00  0.00     0.000 C 
BRANCH  16  17
ATOM     17  C   UNL     1      26.676  24.955 -15.149  1.00  0.00     0.000 C 
BRANCH  17  18
ATOM     18  C   UNL     1      27.384  23.827 -14.369  1.00  0.00    -0.000 C 
BRANCH  18  19
ATOM     19  C   UNL     1      28.916  23.978 -14.296  1.00  0.00    -0.000 C 
BRANCH  19  20
ATOM     20  C   UNL     1      29.696  22.997 -15.195  1.00  0.00    -0.000 C 
BRANCH  20  21
ATOM     21  C   UNL     1      28.804  22.344 -16.265  1.00  0.00    -0.000 C 
BRANCH  21  22
ATOM     22  C   UNL     1      29.098  22.858 -17.686  1.00  0.00    -0.000 C 
BRANCH  22  23
ATOM     23  C   UNL     1      28.004  23.756 -18.290  1.00  0.00    -0.000 C 
BRANCH  23  24
ATOM     24  C   UNL     1      28.028  23.782 -19.826  1.00  0.00    -0.000 C 
BRANCH  24  25
ATOM     25  C   UNL     1      26.700  24.302 -20.387  1.00  0.00    -0.003 C 
ATOM     26  C   UNL     1      25.924  25.086 -19.332  1.00  0.00     0.004 C 
ENDBRANCH  24  25
ENDBRANCH  23  24
ENDBRANCH  22  23
ENDBRANCH  21  22
ENDBRANCH  20  21
ENDBRANCH  19  20
ENDBRANCH  18  19
ENDBRANCH  17  18
ENDBRANCH  16  17
ENDBRANCH  15  16
ENDBRANCH   1  15
TORSDOF 22
ENDMDL
MODEL 9
REMARK VINA RESULT:    -3.710      4.177      6.048
REMARK INTER + INTRA:         -12.327
REMARK INTER:                  -8.332
REMARK INTRA:                  -3.996
REMARK UNBOUND:                -3.846
REMARK SMILES CCCCCCCCCCCCCCCCCCCCCCCC(=O)[O-]
REMARK SMILES IDX 13 1 14 2 15 3 16 4 17 5 18 6 19 7 20 8 21 9 22 10 23 11
REMARK SMILES IDX 24 12 25 13 26 14 12 15 11 16 10 17 9 18 8 19 7 20 6 21 5 22
REMARK SMILES IDX 4 23 3 24 2 25 1 26
REMARK H PARENT
REMARK Flexibility Score: inf
ROOT
ATOM      1  C   UNL     1      27.343  27.086 -17.163  1.00  0.00     0.000 C 
ENDROOT
BRANCH   1   2
ATOM      2  C   UNL     1      28.729  27.468 -16.615  1.00  0.00     0.000 C 
BRANCH   2   3
ATOM      3  C   UNL     1      29.779  26.344 -16.754  1.00  0.00     0.000 C 
BRANCH   3   4
ATOM      4  C   UNL     1      31.077  26.661 -15.990  1.00  0.00     0.000 C 
BRANCH   4   5
ATOM      5  C   UNL     1      32.309  26.002 -16.630  1.00  0.00     0.000 C 
BRANCH   5   6
ATOM      6  C   UNL     1      31.976  25.297 -17.957  1.00  0.00     0.000 C 
BRANCH   6   7
ATOM      7  C   UNL     1      33.226  25.020 -18.814  1.00  0.00     0.000 C 
BRANCH   7   8
ATOM      8  C   UNL     1      33.968  26.280 -19.306  1.00  0.00     0.000 C 
BRANCH   8   9
ATOM      9  C   UNL     1      35.445  26.383 -18.871  1.00  0.00     0.000 C 
BRANCH   9  10
ATOM     10  C   UNL     1      35.829  25.507 -17.662  1.00  0.00     0.006 C 
BRANCH  10  11
ATOM     11  C   UNL     1      35.990  26.281 -16.344  1.00  0.00     0.053 C 
BRANCH  11  12
ATOM     12  C   UNL     1      37.430  26.490 -15.990  1.00  0.00     0.041 C 
ATOM     13  O   UNL     1      38.060  25.605 -15.349  1.00  0.00    -0.550 OA
ATOM     14  O   UNL     1      38.091  27.639 -16.408  1.00  0.00    -0.550 OA
ENDBRANCH  11  12
ENDBRANCH  10  11
ENDBRANCH   9  10
ENDBRANCH   8   9
ENDBRANCH   7   8
ENDBRANCH   6   7
ENDBRANCH   5   6
ENDBRANCH   4   5
ENDBRANCH   3   4
ENDBRANCH   2   3
ENDBRANCH   1   2
BRANCH   1  15
ATOM     15  C   UNL     1      27.192  25.574 -17.388  1.00  0.00     0.000 C 
BRANCH  15  16
ATOM     16  C   UNL     1      26.269  25.234 -18.567  1.00  0.00     0.000 C 
BRANCH  16  17
ATOM     17  C   UNL     1      26.866  24.180 -19.518  1.00  0.00     0.000 C 
BRANCH  17  18
ATOM     18  C   UNL     1      28.361  23.919 -19.241  1.00  0.00    -0.000 C 
BRANCH  18  19
ATOM     19  C   UNL     1      28.662  22.518 -18.672  1.00  0.00    -0.000 C 
BRANCH  19  20
ATOM     20  C   UNL     1      29.651  22.510 -17.489  1.00  0.00    -0.000 C 
BRANCH  20  21
ATOM     21  C   UNL     1      28.948  22.697 -16.133  1.00  0.00    -0.000 C 
BRANCH  21  22
ATOM     22  C   UNL     1      29.917  23.092 -15.004  1.00  0.00    -0.000 C 
BRANCH  22  23
ATOM     23  C   UNL     1      29.307  23.987 -13.910  1.00  0.00    -0.000 C 
BRANCH  23  24
ATOM     24  C   UNL     1      27.788  24.167 -14.058  1.00  0.00    -0.000 C 
BRANCH  24  25
ATOM     25  C   UNL     1      27.366  25.593 -13.689  1.00  0.00    -0.003 C 
ATOM     26  C   UNL     1      28.534  26.380 -13.102  1.00  0.00     0.004 C 
ENDBRANCH  24  25
ENDBRANCH  23  24
ENDBRANCH  22  23
ENDBRANCH  21  22
ENDBRANCH  20  21
ENDBRANCH  19  20
ENDBRANCH  18  19
ENDBRANCH  17  18
ENDBRANCH  16  17
ENDBRANCH  15  16
ENDBRANCH   1  15
TORSDOF 22
ENDMDL
