MODEL 1
REMARK VINA RESULT:    -4.387      0.000      0.000
REMARK INTER + INTRA:         -12.580
REMARK INTER:                  -9.516
REMARK INTRA:                  -3.064
REMARK UNBOUND:                -3.064
REMARK SMILES CCCCCCCCCCCCCCCCCCCCCC(=O)[O-]
REMARK SMILES IDX 12 1 11 2 10 3 9 4 8 5 7 6 6 7 5 8 4 9 3 10 2 11 1 12 13 13
REMARK SMILES IDX 14 14 15 15 16 16 17 17 18 18 19 19 20 20 21 21 22 22 23 23
REMARK SMILES IDX 24 24
REMARK H PARENT
REMARK Flexibility Score: inf
ROOT
ATOM      1  C   UNL     1       0.798 -24.385 -12.470  1.00  0.00     0.000 C 
ENDROOT
BRANCH   1   2
ATOM      2  C   UNL     1      -0.118 -25.279 -13.321  1.00  0.00     0.000 C 
BRANCH   2   3
ATOM      3  C   UNL     1       0.262 -25.202 -14.804  1.00  0.00     0.000 C 
BRANCH   3   4
ATOM      4  C   UNL     1       0.136 -23.765 -15.334  1.00  0.00    -0.000 C 
BRANCH   4   5
ATOM      5  C   UNL     1      -0.996 -23.610 -16.366  1.00  0.00    -0.000 C 
BRANCH   5   6
ATOM      6  C   UNL     1      -2.172 -24.591 -16.192  1.00  0.00    -0.000 C 
BRANCH   6   7
ATOM      7  C   UNL     1      -3.565 -23.995 -16.466  1.00  0.00    -0.000 C 
BRANCH   7   8
ATOM      8  C   UNL     1      -3.952 -22.901 -15.458  1.00  0.00    -0.000 C 
BRANCH   8   9
ATOM      9  C   UNL     1      -4.100 -21.537 -16.150  1.00  0.00    -0.000 C 
BRANCH   9  10
ATOM     10  C   UNL     1      -4.878 -20.527 -15.279  1.00  0.00    -0.000 C 
BRANCH  10  11
ATOM     11  C   UNL     1      -5.857 -19.652 -16.080  1.00  0.00    -0.003 C 
ATOM     12  C   UNL     1      -7.277 -19.675 -15.516  1.00  0.00     0.004 C 
ENDBRANCH  10  11
ENDBRANCH   9  10
ENDBRANCH   8   9
ENDBRANCH   7   8
ENDBRANCH   6   7
ENDBRANCH   5   6
ENDBRANCH   4   5
ENDBRANCH   3   4
ENDBRANCH   2   3
ENDBRANCH   1   2
BRANCH   1  13
ATOM     13  C   UNL     1       0.015 -23.359 -11.625  1.00  0.00     0.000 C 
BRANCH  13  14
ATOM     14  C   UNL     1      -1.463 -23.209 -12.032  1.00  0.00     0.000 C 
BRANCH  14  15
ATOM     15  C   UNL     1      -1.839 -21.850 -12.654  1.00  0.00     0.000 C 
BRANCH  15  16
ATOM     16  C   UNL     1      -0.696 -20.819 -12.723  1.00  0.00     0.000 C 
BRANCH  16  17
ATOM     17  C   UNL     1      -0.625 -20.094 -14.078  1.00  0.00     0.000 C 
BRANCH  17  18
ATOM     18  C   UNL     1       0.755 -20.219 -14.744  1.00  0.00     0.000 C 
BRANCH  18  19
ATOM     19  C   UNL     1       1.764 -20.998 -13.885  1.00  0.00     0.000 C 
BRANCH  19  20
ATOM     20  C   UNL     1       2.996 -20.133 -13.571  1.00  0.00     0.006 C 
BRANCH  20  21
ATOM     21  C   UNL     1       3.353 -20.149 -12.079  1.00  0.00     0.053 C 
BRANCH  21  22
ATOM     22  C   UNL     1       4.379 -21.194 -11.765  1.00  0.00     0.041 C 
ATOM     23  O   UNL     1       4.090 -22.160 -11.011  1.00  0.00    -0.550 OA
ATOM     24  O   UNL     1       5.646 -21.119 -12.332  1.00  0.00    -0.550 OA
ENDBRANCH  21  22
ENDBRANCH  20  21
ENDBRANCH  19  20
ENDBRANCH  18  19
ENDBRANCH  17  18
ENDBRANCH  16  17
ENDBRANCH  15  16
ENDBRANCH  14  15
ENDBRANCH  13  14
ENDBRANCH   1  13
TORSDOF 20
ENDMDL
MODEL 2
REMARK VINA RESULT:    -4.383     11.141     14.119
REMARK INTER + INTRA:         -12.571
REMARK INTER:                  -9.094
REMARK INTRA:                  -3.477
REMARK UNBOUND:                -3.064
REMARK SMILES CCCCCCCCCCCCCCCCCCCCCC(=O)[O-]
REMARK SMILES IDX 12 1 11 2 10 3 9 4 8 5 7 6 6 7 5 8 4 9 3 10 2 11 1 12 13 13
REMARK SMILES IDX 14 14 15 15 16 16 17 17 18 18 19 19 20 20 21 21 22 22 23 23
REMARK SMILES IDX 24 24
REMARK H PARENT
REMARK Flexibility Score: inf
ROOT
ATOM      1  C   UNL     1       3.551 -27.083  -1.227  1.00  0.00     0.000 C 
ENDROOT
BRANCH   1   2
ATOM      2  C   UNL     1       3.069 -27.422  -2.647  1.00  0.00     0.000 C 
BRANCH   2   3
ATOM      3  C   UNL     1       3.637 -28.769  -3.113  1.00  0.00     0.000 C 
BRANCH   3   4
ATOM      4  C   UNL     1       4.097 -29.618  -1.918  1.00  0.00    -0.000 C 
BRANCH   4   5
ATOM      5  C   UNL     1       3.561 -31.060  -1.973  1.00  0.00    -0.000 C 
BRANCH   5   6
ATOM      6  C   UNL     1       2.404 -31.360  -1.000  1.00  0.00    -0.000 C 
BRANCH   6   7
ATOM      7  C   UNL     1       2.128 -30.263   0.045  1.00  0.00    -0.000 C 
BRANCH   7   8
ATOM      8  C   UNL     1       0.743 -29.618  -0.123  1.00  0.00    -0.000 C 
BRANCH   8   9
ATOM      9  C   UNL     1      -0.015 -30.232  -1.310  1.00  0.00    -0.000 C 
BRANCH   9  10
ATOM     10  C   UNL     1      -0.263 -29.205  -2.435  1.00  0.00    -0.000 C 
BRANCH  10  11
ATOM     11  C   UNL     1       0.039 -29.749  -3.842  1.00  0.00    -0.003 C 
ATOM     12  C   UNL     1       0.242 -31.263  -3.864  1.00  0.00     0.004 C 
ENDBRANCH  10  11
ENDBRANCH   9  10
ENDBRANCH   8   9
ENDBRANCH   7   8
ENDBRANCH   6   7
ENDBRANCH   5   6
ENDBRANCH   4   5
ENDBRANCH   3   4
ENDBRANCH   2   3
ENDBRANCH   1   2
BRANCH   1  13
ATOM     13  C   UNL     1       4.835 -26.229  -1.220  1.00  0.00     0.000 C 
BRANCH  13  14
ATOM     14  C   UNL     1       5.436 -26.012   0.181  1.00  0.00     0.000 C 
BRANCH  14  15
ATOM     15  C   UNL     1       4.625 -25.086   1.108  1.00  0.00     0.000 C 
BRANCH  15  16
ATOM     16  C   UNL     1       4.196 -23.744   0.486  1.00  0.00     0.000 C 
BRANCH  16  17
ATOM     17  C   UNL     1       2.696 -23.694   0.149  1.00  0.00     0.000 C 
BRANCH  17  18
ATOM     18  C   UNL     1       2.409 -22.938  -1.159  1.00  0.00     0.000 C 
BRANCH  18  19
ATOM     19  C   UNL     1       3.479 -23.180  -2.236  1.00  0.00     0.000 C 
BRANCH  19  20
ATOM     20  C   UNL     1       2.847 -23.754  -3.514  1.00  0.00     0.006 C 
BRANCH  20  21
ATOM     21  C   UNL     1       3.675 -23.435  -4.766  1.00  0.00     0.053 C 
BRANCH  21  22
ATOM     22  C   UNL     1       4.719 -24.477  -5.022  1.00  0.00     0.041 C 
ATOM     23  O   UNL     1       5.933 -24.226  -4.800  1.00  0.00    -0.550 OA
ATOM     24  O   UNL     1       4.349 -25.739  -5.473  1.00  0.00    -0.550 OA
ENDBRANCH  21  22
ENDBRANCH  20  21
ENDBRANCH  19  20
ENDBRANCH  18  19
ENDBRANCH  17  18
ENDBRANCH  16  17
ENDBRANCH  15  16
ENDBRANCH  14  15
ENDBRANCH  13  14
ENDBRANCH   1  13
TORSDOF 20
ENDMDL
MODEL 3
REMARK VINA RESULT:    -4.323      8.087     10.580
REMARK INTER + INTRA:         -12.442
REMARK INTER:                  -9.795
REMARK INTRA:                  -2.646
REMARK UNBOUND:                -3.064
REMARK SMILES CCCCCCCCCCCCCCCCCCCCCC(=O)[O-]
REMARK SMILES IDX 12 1 11 2 10 3 9 4 8 5 7 6 6 7 5 8 4 9 3 10 2 11 1 12 13 13
REMARK SMILES IDX 14 14 15 15 16 16 17 17 18 18 19 19 20 20 21 21 22 22 23 23
REMARK SMILES IDX 24 24
REMARK H PARENT
REMARK Flexibility Score: inf
ROOT
ATOM      1  C   UNL     1      -7.509 -15.225 -11.286  1.00  0.00     0.000 C 
ENDROOT
BRANCH   1   2
ATOM      2  C   UNL     1      -6.606 -14.378 -12.197  1.00  0.00     0.000 C 
BRANCH   2   3
ATOM      3  C   UNL     1      -5.649 -15.266 -13.002  1.00  0.00     0.000 C 
BRANCH   3   4
ATOM      4  C   UNL     1      -5.475 -14.735 -14.433  1.00  0.00    -0.000 C 
BRANCH   4   5
ATOM      5  C   UNL     1      -6.742 -14.909 -15.290  1.00  0.00    -0.000 C 
BRANCH   5   6
ATOM      6  C   UNL     1      -6.577 -15.831 -16.514  1.00  0.00    -0.000 C 
BRANCH   6   7
ATOM      7  C   UNL     1      -7.503 -17.061 -16.535  1.00  0.00    -0.000 C 
BRANCH   7   8
ATOM      8  C   UNL     1      -6.729 -18.388 -16.500  1.00  0.00    -0.000 C 
BRANCH   8   9
ATOM      9  C   UNL     1      -5.725 -18.413 -15.336  1.00  0.00    -0.000 C 
BRANCH   9  10
ATOM     10  C   UNL     1      -6.391 -18.817 -14.004  1.00  0.00    -0.000 C 
BRANCH  10  11
ATOM     11  C   UNL     1      -6.702 -20.321 -13.904  1.00  0.00    -0.003 C 
ATOM     12  C   UNL     1      -8.200 -20.621 -13.908  1.00  0.00     0.004 C 
ENDBRANCH  10  11
ENDBRANCH   9  10
ENDBRANCH   8   9
ENDBRANCH   7   8
ENDBRANCH   6   7
ENDBRANCH   5   6
ENDBRANCH   4   5
ENDBRANCH   3   4
ENDBRANCH   2   3
ENDBRANCH   1   2
BRANCH   1  13
ATOM     13  C   UNL     1      -7.171 -16.729 -11.341  1.00  0.00     0.000 C 
BRANCH  13  14
ATOM     14  C   UNL     1      -7.525 -17.498 -10.054  1.00  0.00     0.000 C 
BRANCH  14  15
ATOM     15  C   UNL     1      -7.753 -19.011 -10.234  1.00  0.00     0.000 C 
BRANCH  15  16
ATOM     16  C   UNL     1      -7.087 -19.907  -9.172  1.00  0.00     0.000 C 
BRANCH  16  17
ATOM     17  C   UNL     1      -6.080 -19.146  -8.294  1.00  0.00     0.000 C 
BRANCH  17  18
ATOM     18  C   UNL     1      -6.558 -18.997  -6.840  1.00  0.00     0.000 C 
BRANCH  18  19
ATOM     19  C   UNL     1      -7.595 -20.060  -6.440  1.00  0.00     0.000 C 
BRANCH  19  20
ATOM     20  C   UNL     1      -8.809 -19.409  -5.759  1.00  0.00     0.006 C 
BRANCH  20  21
ATOM     21  C   UNL     1      -9.735 -18.712  -6.763  1.00  0.00     0.053 C 
BRANCH  21  22
ATOM     22  C   UNL     1     -10.595 -19.693  -7.500  1.00  0.00     0.041 C 
ATOM     23  O   UNL     1     -10.859 -19.515  -8.718  1.00  0.00    -0.550 OA
ATOM     24  O   UNL     1     -11.077 -20.822  -6.849  1.00  0.00    -0.550 OA
ENDBRANCH  21  22
ENDBRANCH  20  21
ENDBRANCH  19  20
ENDBRANCH  18  19
ENDBRANCH  17  18
ENDBRANCH  16  17
ENDBRANCH  15  16
ENDBRANCH  14  15
ENDBRANCH  13  14
ENDBRANCH   1  13
TORSDOF 20
ENDMDL
MODEL 4
REMARK VINA RESULT:    -4.270      7.758     10.028
REMARK INTER + INTRA:         -12.326
REMARK INTER:                  -9.656
REMARK INTRA:                  -2.671
REMARK UNBOUND:                -3.064
REMARK SMILES CCCCCCCCCCCCCCCCCCCCCC(=O)[O-]
REMARK SMILES IDX 12 1 11 2 10 3 9 4 8 5 7 6 6 7 5 8 4 9 3 10 2 11 1 12 13 13
REMARK SMILES IDX 14 14 15 15 16 16 17 17 18 18 19 19 20 20 21 21 22 22 23 23
REMARK SMILES IDX 24 24
REMARK H PARENT
REMARK Flexibility Score: inf
ROOT
ATOM      1  C   UNL     1      -7.338 -25.107 -17.797  1.00  0.00     0.000 C 
ENDROOT
BRANCH   1   2
ATOM      2  C   UNL     1      -8.154 -25.338 -19.079  1.00  0.00     0.000 C 
BRANCH   2   3
ATOM      3  C   UNL     1      -9.647 -25.480 -18.762  1.00  0.00     0.000 C 
BRANCH   3   4
ATOM      4  C   UNL     1     -10.158 -26.884 -19.124  1.00  0.00    -0.000 C 
BRANCH   4   5
ATOM      5  C   UNL     1      -9.709 -27.957 -18.116  1.00  0.00    -0.000 C 
BRANCH   5   6
ATOM      6  C   UNL     1     -10.838 -28.544 -17.246  1.00  0.00    -0.000 C 
BRANCH   6   7
ATOM      7  C   UNL     1     -10.400 -29.042 -15.856  1.00  0.00    -0.000 C 
BRANCH   7   8
ATOM      8  C   UNL     1      -9.273 -28.191 -15.249  1.00  0.00    -0.000 C 
BRANCH   8   9
ATOM      9  C   UNL     1      -9.747 -27.468 -13.979  1.00  0.00    -0.000 C 
BRANCH   9  10
ATOM     10  C   UNL     1     -10.608 -26.228 -14.303  1.00  0.00    -0.000 C 
BRANCH  10  11
ATOM     11  C   UNL     1     -10.472 -25.098 -13.269  1.00  0.00    -0.003 C 
ATOM     12  C   UNL     1      -9.343 -25.337 -12.269  1.00  0.00     0.004 C 
ENDBRANCH  10  11
ENDBRANCH   9  10
ENDBRANCH   8   9
ENDBRANCH   7   8
ENDBRANCH   6   7
ENDBRANCH   5   6
ENDBRANCH   4   5
ENDBRANCH   3   4
ENDBRANCH   2   3
ENDBRANCH   1   2
BRANCH   1  13
ATOM     13  C   UNL     1      -8.221 -25.011 -16.536  1.00  0.00     0.000 C 
BRANCH  13  14
ATOM     14  C   UNL     1      -7.513 -24.385 -15.321  1.00  0.00     0.000 C 
BRANCH  14  15
ATOM     15  C   UNL     1      -6.428 -23.344 -15.655  1.00  0.00     0.000 C 
BRANCH  15  16
ATOM     16  C   UNL     1      -6.719 -21.911 -15.169  1.00  0.00     0.000 C 
BRANCH  16  17
ATOM     17  C   UNL     1      -8.222 -21.629 -15.005  1.00  0.00     0.000 C 
BRANCH  17  18
ATOM     18  C   UNL     1      -8.557 -20.983 -13.650  1.00  0.00     0.000 C 
BRANCH  18  19
ATOM     19  C   UNL     1      -8.058 -21.810 -12.455  1.00  0.00     0.000 C 
BRANCH  19  20
ATOM     20  C   UNL     1      -8.879 -21.497 -11.194  1.00  0.00     0.006 C 
BRANCH  20  21
ATOM     21  C   UNL     1      -8.271 -22.125  -9.933  1.00  0.00     0.053 C 
BRANCH  21  22
ATOM     22  C   UNL     1      -9.318 -22.747  -9.061  1.00  0.00     0.041 C 
ATOM     23  O   UNL     1      -9.776 -22.116  -8.072  1.00  0.00    -0.550 OA
ATOM     24  O   UNL     1      -9.813 -24.011  -9.360  1.00  0.00    -0.550 OA
ENDBRANCH  21  22
ENDBRANCH  20  21
ENDBRANCH  19  20
ENDBRANCH  18  19
ENDBRANCH  17  18
ENDBRANCH  16  17
ENDBRANCH  15  16
ENDBRANCH  14  15
ENDBRANCH  13  14
ENDBRANCH   1  13
TORSDOF 20
ENDMDL
MODEL 5
REMARK VINA RESULT:    -4.223      4.465      7.987
REMARK INTER + INTRA:         -12.224
REMARK INTER:                  -9.583
REMARK INTRA:                  -2.642
REMARK UNBOUND:                -3.064
REMARK SMILES CCCCCCCCCCCCCCCCCCCCCC(=O)[O-]
REMARK SMILES IDX 12 1 11 2 10 3 9 4 8 5 7 6 6 7 5 8 4 9 3 10 2 11 1 12 13 13
REMARK SMILES IDX 14 14 15 15 16 16 17 17 18 18 19 19 20 20 21 21 22 22 23 23
REMARK SMILES IDX 24 24
REMARK H PARENT
REMARK Flexibility Score: inf
ROOT
ATOM      1  C   UNL     1       0.439 -23.624 -15.766  1.00  0.00     0.000 C 
ENDROOT
BRANCH   1   2
ATOM      2  C   UNL     1       0.290 -24.955 -15.012  1.00  0.00     0.000 C 
BRANCH   2   3
ATOM      3  C   UNL     1      -0.025 -24.715 -13.530  1.00  0.00     0.000 C 
BRANCH   3   4
ATOM      4  C   UNL     1       0.280 -23.264 -13.128  1.00  0.00    -0.000 C 
BRANCH   4   5
ATOM      5  C   UNL     1      -0.974 -22.501 -12.662  1.00  0.00    -0.000 C 
BRANCH   5   6
ATOM      6  C   UNL     1      -0.932 -20.978 -12.898  1.00  0.00    -0.000 C 
BRANCH   6   7
ATOM      7  C   UNL     1      -0.653 -20.550 -14.350  1.00  0.00    -0.000 C 
BRANCH   7   8
ATOM      8  C   UNL     1       0.731 -19.903 -14.523  1.00  0.00    -0.000 C 
BRANCH   8   9
ATOM      9  C   UNL     1       1.531 -19.948 -13.211  1.00  0.00    -0.000 C 
BRANCH   9  10
ATOM     10  C   UNL     1       2.954 -20.509 -13.419  1.00  0.00    -0.000 C 
BRANCH  10  11
ATOM     11  C   UNL     1       3.552 -21.151 -12.156  1.00  0.00    -0.003 C 
ATOM     12  C   UNL     1       4.005 -20.122 -11.122  1.00  0.00     0.004 C 
ENDBRANCH  10  11
ENDBRANCH   9  10
ENDBRANCH   8   9
ENDBRANCH   7   8
ENDBRANCH   6   7
ENDBRANCH   5   6
ENDBRANCH   4   5
ENDBRANCH   3   4
ENDBRANCH   2   3
ENDBRANCH   1   2
BRANCH   1  13
ATOM     13  C   UNL     1      -0.701 -23.379 -16.776  1.00  0.00     0.000 C 
BRANCH  13  14
ATOM     14  C   UNL     1      -1.954 -24.239 -16.528  1.00  0.00     0.000 C 
BRANCH  14  15
ATOM     15  C   UNL     1      -3.076 -23.552 -15.726  1.00  0.00     0.000 C 
BRANCH  15  16
ATOM     16  C   UNL     1      -3.385 -22.101 -16.139  1.00  0.00     0.000 C 
BRANCH  16  17
ATOM     17  C   UNL     1      -4.248 -21.356 -15.107  1.00  0.00     0.000 C 
BRANCH  17  18
ATOM     18  C   UNL     1      -4.345 -19.848 -15.394  1.00  0.00     0.000 C 
BRANCH  18  19
ATOM     19  C   UNL     1      -5.307 -19.521 -16.548  1.00  0.00     0.000 C 
BRANCH  19  20
ATOM     20  C   UNL     1      -5.548 -18.006 -16.644  1.00  0.00     0.006 C 
BRANCH  20  21
ATOM     21  C   UNL     1      -7.024 -17.639 -16.439  1.00  0.00     0.053 C 
BRANCH  21  22
ATOM     22  C   UNL     1      -7.454 -16.537 -17.359  1.00  0.00     0.041 C 
ATOM     23  O   UNL     1      -7.596 -15.365 -16.921  1.00  0.00    -0.550 OA
ATOM     24  O   UNL     1      -7.666 -16.798 -18.707  1.00  0.00    -0.550 OA
ENDBRANCH  21  22
ENDBRANCH  20  21
ENDBRANCH  19  20
ENDBRANCH  18  19
ENDBRANCH  17  18
ENDBRANCH  16  17
ENDBRANCH  15  16
ENDBRANCH  14  15
ENDBRANCH  13  14
ENDBRANCH   1  13
TORSDOF 20
ENDMDL
MODEL 6
REMARK VINA RESULT:    -4.217      1.210      4.751
REMARK INTER + INTRA:         -12.213
REMARK INTER:                  -8.714
REMARK INTRA:                  -3.499
REMARK UNBOUND:                -3.064
REMARK SMILES CCCCCCCCCCCCCCCCCCCCCC(=O)[O-]
REMARK SMILES IDX 12 1 11 2 10 3 9 4 8 5 7 6 6 7 5 8 4 9 3 10 2 11 1 12 13 13
REMARK SMILES IDX 14 14 15 15 16 16 17 17 18 18 19 19 20 20 21 21 22 22 23 23
REMARK SMILES IDX 24 24
REMARK H PARENT
REMARK Flexibility Score: inf
ROOT
ATOM      1  C   UNL     1      -3.092 -24.351 -16.385  1.00  0.00     0.000 C 
ENDROOT
BRANCH   1   2
ATOM      2  C   UNL     1      -4.206 -23.381 -15.960  1.00  0.00     0.000 C 
BRANCH   2   3
ATOM      3  C   UNL     1      -3.734 -21.925 -16.058  1.00  0.00     0.000 C 
BRANCH   3   4
ATOM      4  C   UNL     1      -4.610 -21.002 -15.196  1.00  0.00    -0.000 C 
BRANCH   4   5
ATOM      5  C   UNL     1      -3.783 -20.116 -14.247  1.00  0.00    -0.000 C 
BRANCH   5   6
ATOM      6  C   UNL     1      -2.772 -20.875 -13.364  1.00  0.00    -0.000 C 
BRANCH   6   7
ATOM      7  C   UNL     1      -3.365 -22.035 -12.543  1.00  0.00    -0.000 C 
BRANCH   7   8
ATOM      8  C   UNL     1      -2.287 -22.962 -11.961  1.00  0.00    -0.000 C 
BRANCH   8   9
ATOM      9  C   UNL     1      -0.889 -22.335 -12.087  1.00  0.00    -0.000 C 
BRANCH   9  10
ATOM     10  C   UNL     1       0.228 -23.400 -12.063  1.00  0.00    -0.000 C 
BRANCH  10  11
ATOM     11  C   UNL     1      -0.296 -24.837 -11.900  1.00  0.00    -0.003 C 
ATOM     12  C   UNL     1       0.726 -25.775 -11.259  1.00  0.00     0.004 C 
ENDBRANCH  10  11
ENDBRANCH   9  10
ENDBRANCH   8   9
ENDBRANCH   7   8
ENDBRANCH   6   7
ENDBRANCH   5   6
ENDBRANCH   4   5
ENDBRANCH   3   4
ENDBRANCH   2   3
ENDBRANCH   1   2
BRANCH   1  13
ATOM     13  C   UNL     1      -2.186 -24.771 -15.209  1.00  0.00     0.000 C 
BRANCH  13  14
ATOM     14  C   UNL     1      -0.704 -24.399 -15.396  1.00  0.00     0.000 C 
BRANCH  14  15
ATOM     15  C   UNL     1      -0.429 -23.286 -16.424  1.00  0.00     0.000 C 
BRANCH  15  16
ATOM     16  C   UNL     1       0.625 -22.245 -16.001  1.00  0.00     0.000 C 
BRANCH  16  17
ATOM     17  C   UNL     1       0.003 -20.967 -15.416  1.00  0.00     0.000 C 
BRANCH  17  18
ATOM     18  C   UNL     1       0.942 -20.249 -14.433  1.00  0.00     0.000 C 
BRANCH  18  19
ATOM     19  C   UNL     1       2.269 -20.996 -14.221  1.00  0.00     0.000 C 
BRANCH  19  20
ATOM     20  C   UNL     1       3.268 -20.125 -13.444  1.00  0.00     0.006 C 
BRANCH  20  21
ATOM     21  C   UNL     1       2.902 -20.004 -11.959  1.00  0.00     0.053 C 
BRANCH  21  22
ATOM     22  C   UNL     1       3.959 -20.594 -11.076  1.00  0.00     0.041 C 
ATOM     23  O   UNL     1       4.158 -20.126  -9.924  1.00  0.00    -0.550 OA
ATOM     24  O   UNL     1       4.701 -21.686 -11.512  1.00  0.00    -0.550 OA
ENDBRANCH  21  22
ENDBRANCH  20  21
ENDBRANCH  19  20
ENDBRANCH  18  19
ENDBRANCH  17  18
ENDBRANCH  16  17
ENDBRANCH  15  16
ENDBRANCH  14  15
ENDBRANCH  13  14
ENDBRANCH   1  13
TORSDOF 20
ENDMDL
MODEL 7
REMARK VINA RESULT:    -4.211     11.039     14.183
REMARK INTER + INTRA:         -12.198
REMARK INTER:                  -9.274
REMARK INTRA:                  -2.924
REMARK UNBOUND:                -3.064
REMARK SMILES CCCCCCCCCCCCCCCCCCCCCC(=O)[O-]
REMARK SMILES IDX 12 1 11 2 10 3 9 4 8 5 7 6 6 7 5 8 4 9 3 10 2 11 1 12 13 13
REMARK SMILES IDX 14 14 15 15 16 16 17 17 18 18 19 19 20 20 21 21 22 22 23 23
REMARK SMILES IDX 24 24
REMARK H PARENT
REMARK Flexibility Score: inf
ROOT
ATOM      1  C   UNL     1       2.642 -26.501  -0.145  1.00  0.00     0.000 C 
ENDROOT
BRANCH   1   2
ATOM      2  C   UNL     1       3.672 -27.383   0.578  1.00  0.00     0.000 C 
BRANCH   2   3
ATOM      3  C   UNL     1       4.468 -28.231  -0.421  1.00  0.00     0.000 C 
BRANCH   3   4
ATOM      4  C   UNL     1       3.958 -28.019  -1.855  1.00  0.00    -0.000 C 
BRANCH   4   5
ATOM      5  C   UNL     1       3.715 -29.343  -2.601  1.00  0.00    -0.000 C 
BRANCH   5   6
ATOM      6  C   UNL     1       3.928 -30.614  -1.756  1.00  0.00    -0.000 C 
BRANCH   6   7
ATOM      7  C   UNL     1       3.368 -31.910  -2.371  1.00  0.00    -0.000 C 
BRANCH   7   8
ATOM      8  C   UNL     1       2.347 -32.607  -1.458  1.00  0.00    -0.000 C 
BRANCH   8   9
ATOM      9  C   UNL     1       0.935 -32.552  -2.062  1.00  0.00    -0.000 C 
BRANCH   9  10
ATOM     10  C   UNL     1       0.393 -31.109  -2.138  1.00  0.00    -0.000 C 
BRANCH  10  11
ATOM     11  C   UNL     1      -0.192 -30.601  -0.809  1.00  0.00    -0.003 C 
ATOM     12  C   UNL     1       0.723 -29.607  -0.096  1.00  0.00     0.004 C 
ENDBRANCH  10  11
ENDBRANCH   9  10
ENDBRANCH   8   9
ENDBRANCH   7   8
ENDBRANCH   6   7
ENDBRANCH   5   6
ENDBRANCH   4   5
ENDBRANCH   3   4
ENDBRANCH   2   3
ENDBRANCH   1   2
BRANCH   1  13
ATOM     13  C   UNL     1       2.627 -25.050   0.377  1.00  0.00     0.000 C 
BRANCH  13  14
ATOM     14  C   UNL     1       3.871 -24.231  -0.012  1.00  0.00     0.000 C 
BRANCH  14  15
ATOM     15  C   UNL     1       3.647 -23.175  -1.112  1.00  0.00     0.000 C 
BRANCH  15  16
ATOM     16  C   UNL     1       3.331 -23.739  -2.510  1.00  0.00     0.000 C 
BRANCH  16  17
ATOM     17  C   UNL     1       4.488 -24.565  -3.097  1.00  0.00     0.000 C 
BRANCH  17  18
ATOM     18  C   UNL     1       4.919 -24.072  -4.489  1.00  0.00     0.000 C 
BRANCH  18  19
ATOM     19  C   UNL     1       3.735 -23.608  -5.352  1.00  0.00     0.000 C 
BRANCH  19  20
ATOM     20  C   UNL     1       3.363 -24.679  -6.389  1.00  0.00     0.006 C 
BRANCH  20  21
ATOM     21  C   UNL     1       2.085 -25.437  -6.010  1.00  0.00     0.053 C 
BRANCH  21  22
ATOM     22  C   UNL     1       2.390 -26.738  -5.332  1.00  0.00     0.041 C 
ATOM     23  O   UNL     1       3.558 -27.208  -5.360  1.00  0.00    -0.550 OA
ATOM     24  O   UNL     1       1.393 -27.413  -4.639  1.00  0.00    -0.550 OA
ENDBRANCH  21  22
ENDBRANCH  20  21
ENDBRANCH  19  20
ENDBRANCH  18  19
ENDBRANCH  17  18
ENDBRANCH  16  17
ENDBRANCH  15  16
ENDBRANCH  14  15
ENDBRANCH  13  14
ENDBRANCH   1  13
TORSDOF 20
ENDMDL
MODEL 8
REMARK VINA RESULT:    -4.186     11.545     14.382
REMARK INTER + INTRA:         -12.145
REMARK INTER:                  -8.546
REMARK INTRA:                  -3.600
REMARK UNBOUND:                -3.064
REMARK SMILES CCCCCCCCCCCCCCCCCCCCCC(=O)[O-]
REMARK SMILES IDX 12 1 11 2 10 3 9 4 8 5 7 6 6 7 5 8 4 9 3 10 2 11 1 12 13 13
REMARK SMILES IDX 14 14 15 15 16 16 17 17 18 18 19 19 20 20 21 21 22 22 23 23
REMARK SMILES IDX 24 24
REMARK H PARENT
REMARK Flexibility Score: inf
ROOT
ATOM      1  C   UNL     1       3.356 -30.648  -0.655  1.00  0.00     0.000 C 
ENDROOT
BRANCH   1   2
ATOM      2  C   UNL     1       3.833 -30.803  -2.108  1.00  0.00     0.000 C 
BRANCH   2   3
ATOM      3  C   UNL     1       4.064 -29.434  -2.759  1.00  0.00     0.000 C 
BRANCH   3   4
ATOM      4  C   UNL     1       4.081 -29.547  -4.292  1.00  0.00    -0.000 C 
BRANCH   4   5
ATOM      5  C   UNL     1       2.686 -29.363  -4.916  1.00  0.00    -0.000 C 
BRANCH   5   6
ATOM      6  C   UNL     1       1.602 -28.853  -3.947  1.00  0.00    -0.000 C 
BRANCH   6   7
ATOM      7  C   UNL     1       0.428 -29.821  -3.713  1.00  0.00    -0.000 C 
BRANCH   7   8
ATOM      8  C   UNL     1       0.761 -31.267  -4.113  1.00  0.00    -0.000 C 
BRANCH   8   9
ATOM      9  C   UNL     1      -0.378 -32.225  -3.730  1.00  0.00    -0.000 C 
BRANCH   9  10
ATOM     10  C   UNL     1       0.132 -33.439  -2.925  1.00  0.00    -0.000 C 
BRANCH  10  11
ATOM     11  C   UNL     1      -0.476 -33.540  -1.515  1.00  0.00    -0.003 C 
ATOM     12  C   UNL     1      -1.410 -32.377  -1.183  1.00  0.00     0.004 C 
ENDBRANCH  10  11
ENDBRANCH   9  10
ENDBRANCH   8   9
ENDBRANCH   7   8
ENDBRANCH   6   7
ENDBRANCH   5   6
ENDBRANCH   4   5
ENDBRANCH   3   4
ENDBRANCH   2   3
ENDBRANCH   1   2
BRANCH   1  13
ATOM     13  C   UNL     1       1.824 -30.750  -0.514  1.00  0.00     0.000 C 
BRANCH  13  14
ATOM     14  C   UNL     1       1.153 -29.458  -0.010  1.00  0.00     0.000 C 
BRANCH  14  15
ATOM     15  C   UNL     1       1.852 -28.149  -0.424  1.00  0.00     0.000 C 
BRANCH  15  16
ATOM     16  C   UNL     1       2.337 -27.266   0.741  1.00  0.00     0.000 C 
BRANCH  16  17
ATOM     17  C   UNL     1       3.866 -27.285   0.911  1.00  0.00     0.000 C 
BRANCH  17  18
ATOM     18  C   UNL     1       4.603 -26.710  -0.311  1.00  0.00     0.000 C 
BRANCH  18  19
ATOM     19  C   UNL     1       3.968 -25.411  -0.834  1.00  0.00     0.000 C 
BRANCH  19  20
ATOM     20  C   UNL     1       4.438 -25.113  -2.267  1.00  0.00     0.006 C 
BRANCH  20  21
ATOM     21  C   UNL     1       3.508 -25.727  -3.322  1.00  0.00     0.053 C 
BRANCH  21  22
ATOM     22  C   UNL     1       3.960 -25.407  -4.714  1.00  0.00     0.041 C 
ATOM     23  O   UNL     1       3.633 -26.153  -5.674  1.00  0.00    -0.550 OA
ATOM     24  O   UNL     1       4.713 -24.264  -4.956  1.00  0.00    -0.550 OA
ENDBRANCH  21  22
ENDBRANCH  20  21
ENDBRANCH  19  20
ENDBRANCH  18  19
ENDBRANCH  17  18
ENDBRANCH  16  17
ENDBRANCH  15  16
ENDBRANCH  14  15
ENDBRANCH  13  14
ENDBRANCH   1  13
TORSDOF 20
ENDMDL
MODEL 9
REMARK VINA RESULT:    -4.175      6.601      9.290
REMARK INTER + INTRA:         -12.122
REMARK INTER:                  -9.611
REMARK INTRA:                  -2.511
REMARK UNBOUND:                -3.064
REMARK SMILES CCCCCCCCCCCCCCCCCCCCCC(=O)[O-]
REMARK SMILES IDX 12 1 11 2 10 3 9 4 8 5 7 6 6 7 5 8 4 9 3 10 2 11 1 12 13 13
REMARK SMILES IDX 14 14 15 15 16 16 17 17 18 18 19 19 20 20 21 21 22 22 23 23
REMARK SMILES IDX 24 24
REMARK H PARENT
REMARK Flexibility Score: inf
ROOT
ATOM      1  C   UNL     1      -7.428 -25.139 -17.865  1.00  0.00     0.000 C 
ENDROOT
BRANCH   1   2
ATOM      2  C   UNL     1      -8.253 -25.445 -19.125  1.00  0.00     0.000 C 
BRANCH   2   3
ATOM      3  C   UNL     1      -9.752 -25.484 -18.806  1.00  0.00     0.000 C 
BRANCH   3   4
ATOM      4  C   UNL     1     -10.341 -26.875 -19.087  1.00  0.00    -0.000 C 
BRANCH   4   5
ATOM      5  C   UNL     1      -9.810 -27.951 -18.124  1.00  0.00    -0.000 C 
BRANCH   5   6
ATOM      6  C   UNL     1     -10.857 -28.524 -17.148  1.00  0.00    -0.000 C 
BRANCH   6   7
ATOM      7  C   UNL     1     -10.302 -28.976 -15.785  1.00  0.00    -0.000 C 
BRANCH   7   8
ATOM      8  C   UNL     1      -9.174 -28.066 -15.273  1.00  0.00    -0.000 C 
BRANCH   8   9
ATOM      9  C   UNL     1      -9.582 -27.356 -13.972  1.00  0.00    -0.000 C 
BRANCH   9  10
ATOM     10  C   UNL     1     -10.454 -26.111 -14.240  1.00  0.00    -0.000 C 
BRANCH  10  11
ATOM     11  C   UNL     1     -10.357 -25.043 -13.137  1.00  0.00    -0.003 C 
ATOM     12  C   UNL     1      -9.313 -25.379 -12.072  1.00  0.00     0.004 C 
ENDBRANCH  10  11
ENDBRANCH   9  10
ENDBRANCH   8   9
ENDBRANCH   7   8
ENDBRANCH   6   7
ENDBRANCH   5   6
ENDBRANCH   4   5
ENDBRANCH   3   4
ENDBRANCH   2   3
ENDBRANCH   1   2
BRANCH   1  13
ATOM     13  C   UNL     1      -8.307 -24.780 -16.649  1.00  0.00     0.000 C 
BRANCH  13  14
ATOM     14  C   UNL     1      -7.709 -23.688 -15.744  1.00  0.00     0.000 C 
BRANCH  14  15
ATOM     15  C   UNL     1      -6.781 -24.196 -14.623  1.00  0.00     0.000 C 
BRANCH  15  16
ATOM     16  C   UNL     1      -5.326 -23.697 -14.698  1.00  0.00     0.000 C 
BRANCH  16  17
ATOM     17  C   UNL     1      -4.883 -23.354 -16.130  1.00  0.00     0.000 C 
BRANCH  17  18
ATOM     18  C   UNL     1      -4.312 -21.931 -16.247  1.00  0.00     0.000 C 
BRANCH  18  19
ATOM     19  C   UNL     1      -5.283 -20.854 -15.737  1.00  0.00     0.000 C 
BRANCH  19  20
ATOM     20  C   UNL     1      -5.091 -19.538 -16.507  1.00  0.00     0.006 C 
BRANCH  20  21
ATOM     21  C   UNL     1      -5.846 -18.370 -15.858  1.00  0.00     0.053 C 
BRANCH  21  22
ATOM     22  C   UNL     1      -6.707 -17.646 -16.848  1.00  0.00     0.041 C 
ATOM     23  O   UNL     1      -6.180 -16.972 -17.773  1.00  0.00    -0.550 OA
ATOM     24  O   UNL     1      -8.091 -17.744 -16.771  1.00  0.00    -0.550 OA
ENDBRANCH  21  22
ENDBRANCH  20  21
ENDBRANCH  19  20
ENDBRANCH  18  19
ENDBRANCH  17  18
ENDBRANCH  16  17
ENDBRANCH  15  16
ENDBRANCH  14  15
ENDBRANCH  13  14
ENDBRANCH   1  13
TORSDOF 20
ENDMDL
