MODEL 1
REMARK VINA RESULT:    -6.094      0.000      0.000
REMARK INTER + INTRA:          -6.633
REMARK INTER:                  -6.450
REMARK INTRA:                  -0.183
REMARK UNBOUND:                -0.183
REMARK SMILES CC(C)[C@@H]1CC[C@H](C)[C@@H]2C=C[C@@H](C)C[C@@H]21
REMARK SMILES IDX 8 1 7 2 6 3 5 4 4 5 15 6 9 7 10 8 11 9 12 10 14 11 13 12
REMARK SMILES IDX 2 13 1 14 3 15
REMARK H PARENT
REMARK Flexibility Score: inf
ROOT
ATOM      1  C   UNL     1     104.877 111.612 129.201  1.00  0.00     0.008 C 
ATOM      2  C   UNL     1     106.279 111.850 128.602  1.00  0.00    -0.007 C 
ATOM      3  C   UNL     1     107.383 111.382 129.568  1.00  0.00     0.004 C 
ATOM      4  C   UNL     1     107.563 109.861 129.548  1.00  0.00     0.004 C 
ATOM      5  C   UNL     1     107.923 109.371 128.130  1.00  0.00    -0.005 C 
ATOM      6  C   UNL     1     106.842 109.771 127.078  1.00  0.00    -0.000 C 
ATOM      7  C   UNL     1     106.506 111.289 127.162  1.00  0.00     0.018 C 
ATOM      8  C   UNL     1     105.375 111.681 126.238  1.00  0.00    -0.027 C 
ATOM      9  C   UNL     1     104.466 110.807 125.779  1.00  0.00    -0.028 C 
ATOM     10  C   UNL     1     104.581 109.311 125.960  1.00  0.00     0.008 C 
ATOM     11  C   UNL     1     105.565 108.904 127.081  1.00  0.00     0.012 C 
ATOM     12  C   UNL     1     104.952 108.666 124.619  1.00  0.00     0.012 C 
ENDROOT
BRANCH   5  13
ATOM     13  C   UNL     1     108.348 107.862 128.071  1.00  0.00    -0.014 C 
ATOM     14  C   UNL     1     107.671 106.967 129.128  1.00  0.00     0.007 C 
ATOM     15  C   UNL     1     109.873 107.714 128.189  1.00  0.00     0.007 C 
ENDBRANCH   5  13
TORSDOF 1
ENDMDL
MODEL 2
REMARK VINA RESULT:    -6.090      4.349      5.915
REMARK INTER + INTRA:          -6.629
REMARK INTER:                  -6.458
REMARK INTRA:                  -0.171
REMARK UNBOUND:                -0.183
REMARK SMILES CC(C)[C@@H]1CC[C@H](C)[C@@H]2C=C[C@@H](C)C[C@@H]21
REMARK SMILES IDX 8 1 7 2 6 3 5 4 4 5 15 6 9 7 10 8 11 9 12 10 14 11 13 12
REMARK SMILES IDX 2 13 1 14 3 15
REMARK H PARENT
REMARK Flexibility Score: inf
ROOT
ATOM      1  C   UNL     1     100.805 104.880 129.205  1.00  0.00     0.008 C 
ATOM      2  C   UNL     1     100.605 106.298 128.629  1.00  0.00    -0.007 C 
ATOM      3  C   UNL     1     101.104 107.373 129.612  1.00  0.00     0.004 C 
ATOM      4  C   UNL     1     102.630 107.511 129.592  1.00  0.00     0.004 C 
ATOM      5  C   UNL     1     103.128 107.879 128.180  1.00  0.00    -0.005 C 
ATOM      6  C   UNL     1     102.698 106.826 127.111  1.00  0.00    -0.000 C 
ATOM      7  C   UNL     1     101.171 106.531 127.191  1.00  0.00     0.018 C 
ATOM      8  C   UNL     1     100.748 105.426 126.250  1.00  0.00    -0.027 C 
ATOM      9  C   UNL     1     101.596 104.500 125.776  1.00  0.00    -0.028 C 
ATOM     10  C   UNL     1     103.095 104.571 125.958  1.00  0.00     0.008 C 
ATOM     11  C   UNL     1     103.530 105.526 127.094  1.00  0.00     0.012 C 
ATOM     12  C   UNL     1     103.750 104.944 124.622  1.00  0.00     0.012 C 
ENDROOT
BRANCH   5  13
ATOM     13  C   UNL     1     104.649 108.263 128.125  1.00  0.00    -0.014 C 
ATOM     14  C   UNL     1     105.530 107.525 129.153  1.00  0.00     0.007 C 
ATOM     15  C   UNL     1     104.841 109.779 128.295  1.00  0.00     0.007 C 
ENDBRANCH   5  13
TORSDOF 1
ENDMDL
MODEL 3
REMARK VINA RESULT:    -6.073      4.364      5.930
REMARK INTER + INTRA:          -6.611
REMARK INTER:                  -6.428
REMARK INTRA:                  -0.183
REMARK UNBOUND:                -0.183
REMARK SMILES CC(C)[C@@H]1CC[C@H](C)[C@@H]2C=C[C@@H](C)C[C@@H]21
REMARK SMILES IDX 8 1 7 2 6 3 5 4 4 5 15 6 9 7 10 8 11 9 12 10 14 11 13 12
REMARK SMILES IDX 2 13 1 14 3 15
REMARK H PARENT
REMARK Flexibility Score: inf
ROOT
ATOM      1  C   UNL     1     111.558 107.568 129.240  1.00  0.00     0.008 C 
ATOM      2  C   UNL     1     111.797 106.158 128.661  1.00  0.00    -0.007 C 
ATOM      3  C   UNL     1     111.303 105.068 129.629  1.00  0.00     0.004 C 
ATOM      4  C   UNL     1     109.781 104.899 129.581  1.00  0.00     0.004 C 
ATOM      5  C   UNL     1     109.316 104.527 128.159  1.00  0.00    -0.005 C 
ATOM      6  C   UNL     1     109.744 105.594 127.103  1.00  0.00    -0.000 C 
ATOM      7  C   UNL     1     111.262 105.920 127.212  1.00  0.00     0.018 C 
ATOM      8  C   UNL     1     111.680 107.038 126.284  1.00  0.00    -0.027 C 
ATOM      9  C   UNL     1     110.822 107.948 125.799  1.00  0.00    -0.028 C 
ATOM     10  C   UNL     1     109.322 107.846 125.952  1.00  0.00     0.008 C 
ATOM     11  C   UNL     1     108.886 106.877 127.076  1.00  0.00     0.012 C 
ATOM     12  C   UNL     1     108.699 107.465 124.603  1.00  0.00     0.012 C 
ENDROOT
BRANCH   5  13
ATOM     13  C   UNL     1     107.805 104.111 128.074  1.00  0.00    -0.014 C 
ATOM     14  C   UNL     1     106.896 104.804 129.108  1.00  0.00     0.007 C 
ATOM     15  C   UNL     1     107.644 102.588 128.204  1.00  0.00     0.007 C 
ENDBRANCH   5  13
TORSDOF 1
ENDMDL
MODEL 4
REMARK VINA RESULT:    -6.049      5.473      8.330
REMARK INTER + INTRA:          -6.586
REMARK INTER:                  -6.395
REMARK INTRA:                  -0.191
REMARK UNBOUND:                -0.183
REMARK SMILES CC(C)[C@@H]1CC[C@H](C)[C@@H]2C=C[C@@H](C)C[C@@H]21
REMARK SMILES IDX 8 1 7 2 6 3 5 4 4 5 15 6 9 7 10 8 11 9 12 10 14 11 13 12
REMARK SMILES IDX 2 13 1 14 3 15
REMARK H PARENT
REMARK Flexibility Score: inf
ROOT
ATOM      1  C   UNL     1     107.617 100.991 129.215  1.00  0.00     0.008 C 
ATOM      2  C   UNL     1     106.210 100.719 128.642  1.00  0.00    -0.007 C 
ATOM      3  C   UNL     1     105.114 101.227 129.597  1.00  0.00     0.004 C 
ATOM      4  C   UNL     1     104.926 102.745 129.507  1.00  0.00     0.004 C 
ATOM      5  C   UNL     1     104.550 103.166 128.072  1.00  0.00    -0.005 C 
ATOM      6  C   UNL     1     105.623 102.722 127.029  1.00  0.00    -0.000 C 
ATOM      7  C   UNL     1     105.967 101.211 127.180  1.00  0.00     0.018 C 
ATOM      8  C   UNL     1     107.091 100.782 126.264  1.00  0.00    -0.027 C 
ATOM      9  C   UNL     1     107.991 101.637 125.755  1.00  0.00    -0.028 C 
ATOM     10  C   UNL     1     107.870 103.140 125.868  1.00  0.00     0.008 C 
ATOM     11  C   UNL     1     106.895 103.594 126.979  1.00  0.00     0.012 C 
ATOM     12  C   UNL     1     107.483 103.720 124.502  1.00  0.00     0.012 C 
ENDROOT
BRANCH   5  13
ATOM     13  C   UNL     1     104.117 104.669 127.946  1.00  0.00    -0.014 C 
ATOM     14  C   UNL     1     104.781 105.611 128.971  1.00  0.00     0.007 C 
ATOM     15  C   UNL     1     102.590 104.813 128.047  1.00  0.00     0.007 C 
ENDBRANCH   5  13
TORSDOF 1
ENDMDL
MODEL 5
REMARK VINA RESULT:    -5.923      3.793      5.922
REMARK INTER + INTRA:          -6.452
REMARK INTER:                  -6.197
REMARK INTRA:                  -0.254
REMARK UNBOUND:                -0.183
REMARK SMILES CC(C)[C@@H]1CC[C@H](C)[C@@H]2C=C[C@@H](C)C[C@@H]21
REMARK SMILES IDX 8 1 7 2 6 3 5 4 4 5 15 6 9 7 10 8 11 9 12 10 14 11 13 12
REMARK SMILES IDX 2 13 1 14 3 15
REMARK H PARENT
REMARK Flexibility Score: inf
ROOT
ATOM      1  C   UNL     1     101.602 107.290 124.437  1.00  0.00     0.008 C 
ATOM      2  C   UNL     1     102.918 106.550 124.756  1.00  0.00    -0.007 C 
ATOM      3  C   UNL     1     104.119 107.513 124.727  1.00  0.00     0.004 C 
ATOM      4  C   UNL     1     104.212 108.360 126.001  1.00  0.00     0.004 C 
ATOM      5  C   UNL     1     104.343 107.461 127.248  1.00  0.00    -0.005 C 
ATOM      6  C   UNL     1     103.149 106.466 127.383  1.00  0.00    -0.000 C 
ATOM      7  C   UNL     1     102.910 105.685 126.058  1.00  0.00     0.018 C 
ATOM      8  C   UNL     1     101.684 104.803 126.121  1.00  0.00    -0.027 C 
ATOM      9  C   UNL     1     100.674 105.010 126.980  1.00  0.00    -0.028 C 
ATOM     10  C   UNL     1     100.732 106.012 128.110  1.00  0.00     0.008 C 
ATOM     11  C   UNL     1     101.840 107.076 127.929  1.00  0.00     0.012 C 
ATOM     12  C   UNL     1     100.877 105.265 129.442  1.00  0.00     0.012 C 
ENDROOT
BRANCH   5  13
ATOM     13  C   UNL     1     104.674 108.249 128.564  1.00  0.00    -0.014 C 
ATOM     14  C   UNL     1     104.637 109.783 128.415  1.00  0.00     0.007 C 
ATOM     15  C   UNL     1     106.042 107.832 129.126  1.00  0.00     0.007 C 
ENDBRANCH   5  13
TORSDOF 1
ENDMDL
MODEL 6
REMARK VINA RESULT:    -5.892      1.999      4.518
REMARK INTER + INTRA:          -6.419
REMARK INTER:                  -6.165
REMARK INTRA:                  -0.254
REMARK UNBOUND:                -0.183
REMARK SMILES CC(C)[C@@H]1CC[C@H](C)[C@@H]2C=C[C@@H](C)C[C@@H]21
REMARK SMILES IDX 8 1 7 2 6 3 5 4 4 5 15 6 9 7 10 8 11 9 12 10 14 11 13 12
REMARK SMILES IDX 2 13 1 14 3 15
REMARK H PARENT
REMARK Flexibility Score: inf
ROOT
ATOM      1  C   UNL     1     106.381 105.813 126.677  1.00  0.00     0.008 C 
ATOM      2  C   UNL     1     107.029 105.606 128.062  1.00  0.00    -0.007 C 
ATOM      3  C   UNL     1     108.357 104.837 127.946  1.00  0.00     0.004 C 
ATOM      4  C   UNL     1     109.505 105.734 127.473  1.00  0.00     0.004 C 
ATOM      5  C   UNL     1     109.714 106.914 128.444  1.00  0.00    -0.005 C 
ATOM      6  C   UNL     1     108.425 107.778 128.604  1.00  0.00    -0.000 C 
ATOM      7  C   UNL     1     107.188 106.893 128.934  1.00  0.00     0.018 C 
ATOM      8  C   UNL     1     105.903 107.689 128.975  1.00  0.00    -0.027 C 
ATOM      9  C   UNL     1     105.749 108.866 128.352  1.00  0.00    -0.028 C 
ATOM     10  C   UNL     1     106.889 109.628 127.714  1.00  0.00     0.008 C 
ATOM     11  C   UNL     1     108.134 108.752 127.443  1.00  0.00     0.012 C 
ATOM     12  C   UNL     1     107.230 110.847 128.580  1.00  0.00     0.012 C 
ENDROOT
BRANCH   5  13
ATOM     13  C   UNL     1     111.013 107.747 128.158  1.00  0.00    -0.014 C 
ATOM     14  C   UNL     1     111.743 107.363 126.856  1.00  0.00     0.007 C 
ATOM     15  C   UNL     1     111.999 107.650 129.333  1.00  0.00     0.007 C 
ENDBRANCH   5  13
TORSDOF 1
ENDMDL
MODEL 7
REMARK VINA RESULT:    -5.886      4.269      6.716
REMARK INTER + INTRA:          -6.413
REMARK INTER:                  -6.159
REMARK INTRA:                  -0.253
REMARK UNBOUND:                -0.183
REMARK SMILES CC(C)[C@@H]1CC[C@H](C)[C@@H]2C=C[C@@H](C)C[C@@H]21
REMARK SMILES IDX 8 1 7 2 6 3 5 4 4 5 15 6 9 7 10 8 11 9 12 10 14 11 13 12
REMARK SMILES IDX 2 13 1 14 3 15
REMARK H PARENT
REMARK Flexibility Score: inf
ROOT
ATOM      1  C   UNL     1     105.987 107.098 126.973  1.00  0.00     0.008 C 
ATOM      2  C   UNL     1     105.236 107.203 128.317  1.00  0.00    -0.007 C 
ATOM      3  C   UNL     1     103.872 107.893 128.139  1.00  0.00     0.004 C 
ATOM      4  C   UNL     1     102.818 106.948 127.552  1.00  0.00     0.004 C 
ATOM      5  C   UNL     1     102.621 105.716 128.459  1.00  0.00    -0.005 C 
ATOM      6  C   UNL     1     103.951 104.927 128.674  1.00  0.00    -0.000 C 
ATOM      7  C   UNL     1     105.103 105.872 129.124  1.00  0.00     0.018 C 
ATOM      8  C   UNL     1     106.431 105.156 129.223  1.00  0.00    -0.027 C 
ATOM      9  C   UNL     1     106.702 104.019 128.565  1.00  0.00    -0.028 C 
ATOM     10  C   UNL     1     105.660 103.217 127.820  1.00  0.00     0.008 C 
ATOM     11  C   UNL     1     104.381 104.025 127.498  1.00  0.00     0.012 C 
ATOM     12  C   UNL     1     105.340 101.942 128.611  1.00  0.00     0.012 C 
ENDROOT
BRANCH   5  13
ATOM     13  C   UNL     1     101.401 104.818 128.051  1.00  0.00    -0.014 C 
ATOM     14  C   UNL     1     100.803 105.145 126.668  1.00  0.00     0.007 C 
ATOM     15  C   UNL     1     100.288 104.887 129.109  1.00  0.00     0.007 C 
ENDBRANCH   5  13
TORSDOF 1
ENDMDL
MODEL 8
REMARK VINA RESULT:    -5.859      4.017      6.769
REMARK INTER + INTRA:          -6.384
REMARK INTER:                  -6.130
REMARK INTRA:                  -0.254
REMARK UNBOUND:                -0.183
REMARK SMILES CC(C)[C@@H]1CC[C@H](C)[C@@H]2C=C[C@@H](C)C[C@@H]21
REMARK SMILES IDX 8 1 7 2 6 3 5 4 4 5 15 6 9 7 10 8 11 9 12 10 14 11 13 12
REMARK SMILES IDX 2 13 1 14 3 15
REMARK H PARENT
REMARK Flexibility Score: inf
ROOT
ATOM      1  C   UNL     1     105.848 106.060 126.561  1.00  0.00     0.008 C 
ATOM      2  C   UNL     1     105.556 105.399 127.925  1.00  0.00    -0.007 C 
ATOM      3  C   UNL     1     104.804 104.067 127.747  1.00  0.00     0.004 C 
ATOM      4  C   UNL     1     105.736 102.928 127.323  1.00  0.00     0.004 C 
ATOM      5  C   UNL     1     106.853 102.717 128.366  1.00  0.00    -0.005 C 
ATOM      6  C   UNL     1     107.697 104.009 128.593  1.00  0.00    -0.000 C 
ATOM      7  C   UNL     1     106.785 105.239 128.877  1.00  0.00     0.018 C 
ATOM      8  C   UNL     1     107.569 106.527 128.980  1.00  0.00    -0.027 C 
ATOM      9  C   UNL     1     108.783 106.693 128.434  1.00  0.00    -0.028 C 
ATOM     10  C   UNL     1     109.591 105.564 127.837  1.00  0.00     0.008 C 
ATOM     11  C   UNL     1     108.742 104.316 127.499  1.00  0.00     0.012 C 
ATOM     12  C   UNL     1     110.754 105.220 128.776  1.00  0.00     0.012 C 
ENDROOT
BRANCH   5  13
ATOM     13  C   UNL     1     107.710 101.425 128.123  1.00  0.00    -0.014 C 
ATOM     14  C   UNL     1     107.457 100.738 126.766  1.00  0.00     0.007 C 
ATOM     15  C   UNL     1     107.498 100.403 129.251  1.00  0.00     0.007 C 
ENDBRANCH   5  13
TORSDOF 1
ENDMDL
MODEL 9
REMARK VINA RESULT:    -5.847      2.197      4.673
REMARK INTER + INTRA:          -6.371
REMARK INTER:                  -6.118
REMARK INTRA:                  -0.254
REMARK UNBOUND:                -0.183
REMARK SMILES CC(C)[C@@H]1CC[C@H](C)[C@@H]2C=C[C@@H](C)C[C@@H]21
REMARK SMILES IDX 8 1 7 2 6 3 5 4 4 5 15 6 9 7 10 8 11 9 12 10 14 11 13 12
REMARK SMILES IDX 2 13 1 14 3 15
REMARK H PARENT
REMARK Flexibility Score: inf
ROOT
ATOM      1  C   UNL     1     107.152 106.460 126.980  1.00  0.00     0.008 C 
ATOM      2  C   UNL     1     107.244 107.193 128.334  1.00  0.00    -0.007 C 
ATOM      3  C   UNL     1     107.913 108.571 128.176  1.00  0.00     0.004 C 
ATOM      4  C   UNL     1     106.952 109.618 127.602  1.00  0.00     0.004 C 
ATOM      5  C   UNL     1     105.716 109.783 128.509  1.00  0.00    -0.005 C 
ATOM      6  C   UNL     1     104.947 108.439 128.706  1.00  0.00    -0.000 C 
ATOM      7  C   UNL     1     105.910 107.295 129.142  1.00  0.00     0.018 C 
ATOM      8  C   UNL     1     105.214 105.955 129.221  1.00  0.00    -0.027 C 
ATOM      9  C   UNL     1     104.083 105.675 128.558  1.00  0.00    -0.028 C 
ATOM     10  C   UNL     1     103.265 106.715 127.825  1.00  0.00     0.008 C 
ATOM     11  C   UNL     1     104.054 108.011 127.522  1.00  0.00     0.012 C 
ATOM     12  C   UNL     1     101.985 107.004 128.619  1.00  0.00     0.012 C 
ENDROOT
BRANCH   5  13
ATOM     13  C   UNL     1     104.799 110.994 128.117  1.00  0.00    -0.014 C 
ATOM     14  C   UNL     1     105.136 111.633 126.755  1.00  0.00     0.007 C 
ATOM     15  C   UNL     1     104.828 112.082 129.203  1.00  0.00     0.007 C 
ENDBRANCH   5  13
TORSDOF 1
ENDMDL
