MODEL 1
REMARK VINA RESULT:    -3.485      0.000      0.000
REMARK INTER + INTRA:          -8.534
REMARK INTER:                  -6.337
REMARK INTRA:                  -2.198
REMARK UNBOUND:                -2.198
REMARK SMILES CCCCCCCCCCCCCCCC(=O)[O-]
REMARK SMILES IDX 9 1 10 2 11 3 12 4 13 5 14 6 15 7 16 8 17 9 18 10 8 11 7 12
REMARK SMILES IDX 6 13 5 14 4 15 3 16 2 17 1 18
REMARK H PARENT
REMARK Flexibility Score: inf
ROOT
ATOM      1  C   UNL     1       3.479  18.595   7.856  1.00  0.00     0.000 C 
ENDROOT
BRANCH   1   2
ATOM      2  C   UNL     1       2.097  18.183   8.384  1.00  0.00     0.000 C 
BRANCH   2   3
ATOM      3  C   UNL     1       2.125  16.835   9.122  1.00  0.00     0.000 C 
BRANCH   3   4
ATOM      4  C   UNL     1       3.424  16.624   9.918  1.00  0.00     0.000 C 
BRANCH   4   5
ATOM      5  C   UNL     1       3.811  15.139  10.046  1.00  0.00     0.000 C 
BRANCH   5   6
ATOM      6  C   UNL     1       4.210  14.692  11.468  1.00  0.00     0.006 C 
BRANCH   6   7
ATOM      7  C   UNL     1       4.716  15.825  12.375  1.00  0.00     0.053 C 
BRANCH   7   8
ATOM      8  C   UNL     1       5.229  15.310  13.684  1.00  0.00     0.041 C 
ATOM      9  O   UNL     1       6.408  15.566  14.046  1.00  0.00    -0.550 OA
ATOM     10  O   UNL     1       4.417  14.521  14.489  1.00  0.00    -0.550 OA
ENDBRANCH   7   8
ENDBRANCH   6   7
ENDBRANCH   5   6
ENDBRANCH   4   5
ENDBRANCH   3   4
ENDBRANCH   2   3
ENDBRANCH   1   2
BRANCH   1  11
ATOM     11  C   UNL     1       3.378  19.158   6.433  1.00  0.00     0.000 C 
BRANCH  11  12
ATOM     12  C   UNL     1       2.162  18.576   5.696  1.00  0.00    -0.000 C 
BRANCH  12  13
ATOM     13  C   UNL     1       2.517  18.044   4.299  1.00  0.00    -0.000 C 
BRANCH  13  14
ATOM     14  C   UNL     1       3.296  16.718   4.352  1.00  0.00    -0.000 C 
BRANCH  14  15
ATOM     15  C   UNL     1       2.685  15.715   5.343  1.00  0.00    -0.000 C 
BRANCH  15  16
ATOM     16  C   UNL     1       3.725  15.151   6.328  1.00  0.00    -0.000 C 
BRANCH  16  17
ATOM     17  C   UNL     1       5.163  15.534   5.948  1.00  0.00    -0.003 C 
ATOM     18  C   UNL     1       6.007  15.934   7.158  1.00  0.00     0.004 C 
ENDBRANCH  16  17
ENDBRANCH  15  16
ENDBRANCH  14  15
ENDBRANCH  13  14
ENDBRANCH  12  13
ENDBRANCH  11  12
ENDBRANCH   1  11
TORSDOF 14
ENDMDL
MODEL 2
REMARK VINA RESULT:    -3.418      3.275      6.749
REMARK INTER + INTRA:          -8.413
REMARK INTER:                  -7.016
REMARK INTRA:                  -1.396
REMARK UNBOUND:                -2.198
REMARK SMILES CCCCCCCCCCCCCCCC(=O)[O-]
REMARK SMILES IDX 9 1 10 2 11 3 12 4 13 5 14 6 15 7 16 8 17 9 18 10 8 11 7 12
REMARK SMILES IDX 6 13 5 14 4 15 3 16 2 17 1 18
REMARK H PARENT
REMARK Flexibility Score: inf
ROOT
ATOM      1  C   UNL     1       4.463  17.696   8.478  1.00  0.00     0.000 C 
ENDROOT
BRANCH   1   2
ATOM      2  C   UNL     1       3.367  18.733   8.191  1.00  0.00     0.000 C 
BRANCH   2   3
ATOM      3  C   UNL     1       3.355  19.189   6.723  1.00  0.00     0.000 C 
BRANCH   3   4
ATOM      4  C   UNL     1       2.169  18.610   5.934  1.00  0.00     0.000 C 
BRANCH   4   5
ATOM      5  C   UNL     1       2.611  17.792   4.706  1.00  0.00     0.000 C 
BRANCH   5   6
ATOM      6  C   UNL     1       4.036  17.208   4.793  1.00  0.00     0.006 C 
BRANCH   6   7
ATOM      7  C   UNL     1       4.091  15.687   5.008  1.00  0.00     0.053 C 
BRANCH   7   8
ATOM      8  C   UNL     1       5.478  15.147   4.846  1.00  0.00     0.041 C 
ATOM      9  O   UNL     1       5.875  14.749   3.719  1.00  0.00    -0.550 OA
ATOM     10  O   UNL     1       6.321  15.052   5.946  1.00  0.00    -0.550 OA
ENDBRANCH   7   8
ENDBRANCH   6   7
ENDBRANCH   5   6
ENDBRANCH   4   5
ENDBRANCH   3   4
ENDBRANCH   2   3
ENDBRANCH   1   2
BRANCH   1  11
ATOM     11  C   UNL     1       3.872  16.284   8.577  1.00  0.00     0.000 C 
BRANCH  11  12
ATOM     12  C   UNL     1       2.525  16.302   9.314  1.00  0.00    -0.000 C 
BRANCH  12  13
ATOM     13  C   UNL     1       2.669  16.016  10.817  1.00  0.00    -0.000 C 
BRANCH  13  14
ATOM     14  C   UNL     1       3.998  15.320  11.160  1.00  0.00    -0.000 C 
BRANCH  14  15
ATOM     15  C   UNL     1       4.842  16.124  12.162  1.00  0.00    -0.000 C 
BRANCH  15  16
ATOM     16  C   UNL     1       5.158  15.327  13.441  1.00  0.00    -0.000 C 
BRANCH  16  17
ATOM     17  C   UNL     1       6.220  16.013  14.313  1.00  0.00    -0.003 C 
ATOM     18  C   UNL     1       5.761  16.210  15.757  1.00  0.00     0.004 C 
ENDBRANCH  16  17
ENDBRANCH  15  16
ENDBRANCH  14  15
ENDBRANCH  13  14
ENDBRANCH  12  13
ENDBRANCH  11  12
ENDBRANCH   1  11
TORSDOF 14
ENDMDL
MODEL 3
REMARK VINA RESULT:    -3.333      1.364      2.165
REMARK INTER + INTRA:          -8.259
REMARK INTER:                  -6.761
REMARK INTRA:                  -1.498
REMARK UNBOUND:                -2.198
REMARK SMILES CCCCCCCCCCCCCCCC(=O)[O-]
REMARK SMILES IDX 9 1 10 2 11 3 12 4 13 5 14 6 15 7 16 8 17 9 18 10 8 11 7 12
REMARK SMILES IDX 6 13 5 14 4 15 3 16 2 17 1 18
REMARK H PARENT
REMARK Flexibility Score: inf
ROOT
ATOM      1  C   UNL     1       4.520  17.643   8.586  1.00  0.00     0.000 C 
ENDROOT
BRANCH   1   2
ATOM      2  C   UNL     1       4.165  16.446   9.480  1.00  0.00     0.000 C 
BRANCH   2   3
ATOM      3  C   UNL     1       3.052  16.774  10.489  1.00  0.00     0.000 C 
BRANCH   3   4
ATOM      4  C   UNL     1       3.437  16.409  11.933  1.00  0.00     0.000 C 
BRANCH   4   5
ATOM      5  C   UNL     1       4.594  15.394  12.005  1.00  0.00     0.000 C 
BRANCH   5   6
ATOM      6  C   UNL     1       4.922  14.884  13.423  1.00  0.00     0.006 C 
BRANCH   6   7
ATOM      7  C   UNL     1       6.084  15.617  14.113  1.00  0.00     0.053 C 
BRANCH   7   8
ATOM      8  C   UNL     1       5.605  16.538  15.192  1.00  0.00     0.041 C 
ATOM      9  O   UNL     1       5.761  16.229  16.403  1.00  0.00    -0.550 OA
ATOM     10  O   UNL     1       4.958  17.722  14.861  1.00  0.00    -0.550 OA
ENDBRANCH   7   8
ENDBRANCH   6   7
ENDBRANCH   5   6
ENDBRANCH   4   5
ENDBRANCH   3   4
ENDBRANCH   2   3
ENDBRANCH   1   2
BRANCH   1  11
ATOM     11  C   UNL     1       3.282  18.500   8.296  1.00  0.00     0.000 C 
BRANCH  11  12
ATOM     12  C   UNL     1       3.346  19.100   6.884  1.00  0.00    -0.000 C 
BRANCH  12  13
ATOM     13  C   UNL     1       2.133  18.716   6.022  1.00  0.00    -0.000 C 
BRANCH  13  14
ATOM     14  C   UNL     1       2.487  17.699   4.923  1.00  0.00    -0.000 C 
BRANCH  14  15
ATOM     15  C   UNL     1       4.002  17.585   4.692  1.00  0.00    -0.000 C 
BRANCH  15  16
ATOM     16  C   UNL     1       4.450  16.138   4.415  1.00  0.00    -0.000 C 
BRANCH  16  17
ATOM     17  C   UNL     1       4.841  15.388   5.696  1.00  0.00    -0.003 C 
ATOM     18  C   UNL     1       3.713  14.506   6.231  1.00  0.00     0.004 C 
ENDBRANCH  16  17
ENDBRANCH  15  16
ENDBRANCH  14  15
ENDBRANCH  13  14
ENDBRANCH  12  13
ENDBRANCH  11  12
ENDBRANCH   1  11
TORSDOF 14
ENDMDL
MODEL 4
REMARK VINA RESULT:    -3.324      3.343      7.409
REMARK INTER + INTRA:          -8.243
REMARK INTER:                  -6.551
REMARK INTRA:                  -1.692
REMARK UNBOUND:                -2.198
REMARK SMILES CCCCCCCCCCCCCCCC(=O)[O-]
REMARK SMILES IDX 9 1 10 2 11 3 12 4 13 5 14 6 15 7 16 8 17 9 18 10 8 11 7 12
REMARK SMILES IDX 6 13 5 14 4 15 3 16 2 17 1 18
REMARK H PARENT
REMARK Flexibility Score: inf
ROOT
ATOM      1  C   UNL     1       2.666  17.924  12.620  1.00  0.00     0.000 C 
ENDROOT
BRANCH   1   2
ATOM      2  C   UNL     1       2.405  16.648  11.805  1.00  0.00     0.000 C 
BRANCH   2   3
ATOM      3  C   UNL     1       2.172  16.937  10.314  1.00  0.00     0.000 C 
BRANCH   3   4
ATOM      4  C   UNL     1       2.285  18.434   9.977  1.00  0.00     0.000 C 
BRANCH   4   5
ATOM      5  C   UNL     1       3.133  18.701   8.720  1.00  0.00     0.000 C 
BRANCH   5   6
ATOM      6  C   UNL     1       4.204  17.632   8.420  1.00  0.00     0.006 C 
BRANCH   6   7
ATOM      7  C   UNL     1       4.233  17.150   6.961  1.00  0.00     0.053 C 
BRANCH   7   8
ATOM      8  C   UNL     1       5.128  15.963   6.779  1.00  0.00     0.041 C 
ATOM      9  O   UNL     1       4.693  14.923   6.215  1.00  0.00    -0.550 OA
ATOM     10  O   UNL     1       6.430  15.992   7.260  1.00  0.00    -0.550 OA
ENDBRANCH   7   8
ENDBRANCH   6   7
ENDBRANCH   5   6
ENDBRANCH   4   5
ENDBRANCH   3   4
ENDBRANCH   2   3
ENDBRANCH   1   2
BRANCH   1  11
ATOM     11  C   UNL     1       2.163  17.768  14.060  1.00  0.00     0.000 C 
BRANCH  11  12
ATOM     12  C   UNL     1       2.900  18.727  15.007  1.00  0.00    -0.000 C 
BRANCH  12  13
ATOM     13  C   UNL     1       4.423  18.533  14.977  1.00  0.00    -0.000 C 
BRANCH  13  14
ATOM     14  C   UNL     1       4.935  17.686  16.156  1.00  0.00    -0.000 C 
BRANCH  14  15
ATOM     15  C   UNL     1       5.647  16.404  15.695  1.00  0.00    -0.000 C 
BRANCH  15  16
ATOM     16  C   UNL     1       5.765  16.313  14.163  1.00  0.00    -0.000 C 
BRANCH  16  17
ATOM     17  C   UNL     1       5.326  14.945  13.621  1.00  0.00    -0.003 C 
ATOM     18  C   UNL     1       4.025  14.449  14.250  1.00  0.00     0.004 C 
ENDBRANCH  16  17
ENDBRANCH  15  16
ENDBRANCH  14  15
ENDBRANCH  13  14
ENDBRANCH  12  13
ENDBRANCH  11  12
ENDBRANCH   1  11
TORSDOF 14
ENDMDL
MODEL 5
REMARK VINA RESULT:    -3.295      3.501      8.089
REMARK INTER + INTRA:          -8.188
REMARK INTER:                  -6.335
REMARK INTRA:                  -1.853
REMARK UNBOUND:                -2.198
REMARK SMILES CCCCCCCCCCCCCCCC(=O)[O-]
REMARK SMILES IDX 9 1 10 2 11 3 12 4 13 5 14 6 15 7 16 8 17 9 18 10 8 11 7 12
REMARK SMILES IDX 6 13 5 14 4 15 3 16 2 17 1 18
REMARK H PARENT
REMARK Flexibility Score: inf
ROOT
ATOM      1  C   UNL     1       4.922  16.289  12.667  1.00  0.00     0.000 C 
ENDROOT
BRANCH   1   2
ATOM      2  C   UNL     1       3.388  16.340  12.718  1.00  0.00     0.000 C 
BRANCH   2   3
ATOM      3  C   UNL     1       2.737  15.852  11.414  1.00  0.00     0.000 C 
BRANCH   3   4
ATOM      4  C   UNL     1       3.757  15.251  10.433  1.00  0.00     0.000 C 
BRANCH   4   5
ATOM      5  C   UNL     1       3.279  15.298   8.970  1.00  0.00     0.000 C 
BRANCH   5   6
ATOM      6  C   UNL     1       4.184  16.109   8.018  1.00  0.00     0.006 C 
BRANCH   6   7
ATOM      7  C   UNL     1       4.607  17.485   8.556  1.00  0.00     0.053 C 
BRANCH   7   8
ATOM      8  C   UNL     1       3.525  18.508   8.393  1.00  0.00     0.041 C 
ATOM      9  O   UNL     1       3.418  19.149   7.314  1.00  0.00    -0.550 OA
ATOM     10  O   UNL     1       2.658  18.777   9.444  1.00  0.00    -0.550 OA
ENDBRANCH   7   8
ENDBRANCH   6   7
ENDBRANCH   5   6
ENDBRANCH   4   5
ENDBRANCH   3   4
ENDBRANCH   2   3
ENDBRANCH   1   2
BRANCH   1  11
ATOM     11  C   UNL     1       5.483  15.459  13.828  1.00  0.00     0.000 C 
BRANCH  11  12
ATOM     12  C   UNL     1       4.350  14.878  14.687  1.00  0.00    -0.000 C 
BRANCH  12  13
ATOM     13  C   UNL     1       4.413  15.351  16.147  1.00  0.00    -0.000 C 
BRANCH  13  14
ATOM     14  C   UNL     1       5.664  16.200  16.440  1.00  0.00    -0.000 C 
BRANCH  14  15
ATOM     15  C   UNL     1       5.324  17.533  17.125  1.00  0.00    -0.000 C 
BRANCH  15  16
ATOM     16  C   UNL     1       3.940  18.070  16.716  1.00  0.00    -0.000 C 
BRANCH  16  17
ATOM     17  C   UNL     1       3.990  18.898  15.423  1.00  0.00    -0.003 C 
ATOM     18  C   UNL     1       2.603  19.310  14.932  1.00  0.00     0.004 C 
ENDBRANCH  16  17
ENDBRANCH  15  16
ENDBRANCH  14  15
ENDBRANCH  13  14
ENDBRANCH  12  13
ENDBRANCH  11  12
ENDBRANCH   1  11
TORSDOF 14
ENDMDL
MODEL 6
REMARK VINA RESULT:    -3.251      0.863      2.821
REMARK INTER + INTRA:          -8.109
REMARK INTER:                  -6.571
REMARK INTRA:                  -1.538
REMARK UNBOUND:                -2.198
REMARK SMILES CCCCCCCCCCCCCCCC(=O)[O-]
REMARK SMILES IDX 9 1 10 2 11 3 12 4 13 5 14 6 15 7 16 8 17 9 18 10 8 11 7 12
REMARK SMILES IDX 6 13 5 14 4 15 3 16 2 17 1 18
REMARK H PARENT
REMARK Flexibility Score: inf
ROOT
ATOM      1  C   UNL     1       5.876  15.746   6.862  1.00  0.00     0.000 C 
ENDROOT
BRANCH   1   2
ATOM      2  C   UNL     1       5.123  16.132   8.143  1.00  0.00     0.000 C 
BRANCH   2   3
ATOM      3  C   UNL     1       3.769  15.416   8.271  1.00  0.00     0.000 C 
BRANCH   3   4
ATOM      4  C   UNL     1       3.144  15.579   9.667  1.00  0.00     0.000 C 
BRANCH   4   5
ATOM      5  C   UNL     1       3.781  14.652  10.719  1.00  0.00     0.000 C 
BRANCH   5   6
ATOM      6  C   UNL     1       3.712  15.173  12.170  1.00  0.00     0.006 C 
BRANCH   6   7
ATOM      7  C   UNL     1       4.940  15.981  12.617  1.00  0.00     0.053 C 
BRANCH   7   8
ATOM      8  C   UNL     1       5.458  15.527  13.947  1.00  0.00     0.041 C 
ATOM      9  O   UNL     1       6.678  15.661  14.230  1.00  0.00    -0.550 OA
ATOM     10  O   UNL     1       4.602  14.926  14.860  1.00  0.00    -0.550 OA
ENDBRANCH   7   8
ENDBRANCH   6   7
ENDBRANCH   5   6
ENDBRANCH   4   5
ENDBRANCH   3   4
ENDBRANCH   2   3
ENDBRANCH   1   2
BRANCH   1  11
ATOM     11  C   UNL     1       4.948  15.030   5.874  1.00  0.00     0.000 C 
BRANCH  11  12
ATOM     12  C   UNL     1       5.359  15.320   4.423  1.00  0.00    -0.000 C 
BRANCH  12  13
ATOM     13  C   UNL     1       4.420  16.319   3.730  1.00  0.00    -0.000 C 
BRANCH  13  14
ATOM     14  C   UNL     1       3.133  16.576   4.536  1.00  0.00    -0.000 C 
BRANCH  14  15
ATOM     15  C   UNL     1       2.629  18.021   4.394  1.00  0.00    -0.000 C 
BRANCH  15  16
ATOM     16  C   UNL     1       2.169  18.620   5.736  1.00  0.00    -0.000 C 
BRANCH  16  17
ATOM     17  C   UNL     1       3.344  19.122   6.588  1.00  0.00    -0.003 C 
ATOM     18  C   UNL     1       3.070  19.024   8.088  1.00  0.00     0.004 C 
ENDBRANCH  16  17
ENDBRANCH  15  16
ENDBRANCH  14  15
ENDBRANCH  13  14
ENDBRANCH  12  13
ENDBRANCH  11  12
ENDBRANCH   1  11
TORSDOF 14
ENDMDL
MODEL 7
REMARK VINA RESULT:    -3.235      4.009      7.354
REMARK INTER + INTRA:          -8.080
REMARK INTER:                  -6.563
REMARK INTRA:                  -1.517
REMARK UNBOUND:                -2.198
REMARK SMILES CCCCCCCCCCCCCCCC(=O)[O-]
REMARK SMILES IDX 9 1 10 2 11 3 12 4 13 5 14 6 15 7 16 8 17 9 18 10 8 11 7 12
REMARK SMILES IDX 6 13 5 14 4 15 3 16 2 17 1 18
REMARK H PARENT
REMARK Flexibility Score: inf
ROOT
ATOM      1  C   UNL     1       4.649  16.095   8.553  1.00  0.00     0.000 C 
ENDROOT
BRANCH   1   2
ATOM      2  C   UNL     1       4.797  17.621   8.643  1.00  0.00     0.000 C 
BRANCH   2   3
ATOM      3  C   UNL     1       3.457  18.356   8.478  1.00  0.00     0.000 C 
BRANCH   3   4
ATOM      4  C   UNL     1       3.367  19.131   7.153  1.00  0.00     0.000 C 
BRANCH   4   5
ATOM      5  C   UNL     1       2.134  18.745   6.316  1.00  0.00     0.000 C 
BRANCH   5   6
ATOM      6  C   UNL     1       2.451  18.081   4.960  1.00  0.00     0.006 C 
BRANCH   6   7
ATOM      7  C   UNL     1       3.771  17.294   4.927  1.00  0.00     0.053 C 
BRANCH   7   8
ATOM      8  C   UNL     1       4.018  16.665   3.591  1.00  0.00     0.041 C 
ATOM      9  O   UNL     1       5.191  16.378   3.233  1.00  0.00    -0.550 OA
ATOM     10  O   UNL     1       2.957  16.426   2.727  1.00  0.00    -0.550 OA
ENDBRANCH   7   8
ENDBRANCH   6   7
ENDBRANCH   5   6
ENDBRANCH   4   5
ENDBRANCH   3   4
ENDBRANCH   2   3
ENDBRANCH   1   2
BRANCH   1  11
ATOM     11  C   UNL     1       3.219  15.661   8.899  1.00  0.00     0.000 C 
BRANCH  11  12
ATOM     12  C   UNL     1       3.179  14.924  10.246  1.00  0.00    -0.000 C 
BRANCH  12  13
ATOM     13  C   UNL     1       2.492  15.744  11.348  1.00  0.00    -0.000 C 
BRANCH  13  14
ATOM     14  C   UNL     1       3.456  16.719  12.048  1.00  0.00    -0.000 C 
BRANCH  14  15
ATOM     15  C   UNL     1       4.839  16.099  12.299  1.00  0.00    -0.000 C 
BRANCH  15  16
ATOM     16  C   UNL     1       5.638  16.855  13.377  1.00  0.00    -0.000 C 
BRANCH  16  17
ATOM     17  C   UNL     1       6.239  15.913  14.431  1.00  0.00    -0.003 C 
ATOM     18  C   UNL     1       5.655  16.138  15.825  1.00  0.00     0.004 C 
ENDBRANCH  16  17
ENDBRANCH  15  16
ENDBRANCH  14  15
ENDBRANCH  13  14
ENDBRANCH  12  13
ENDBRANCH  11  12
ENDBRANCH   1  11
TORSDOF 14
ENDMDL
MODEL 8
REMARK VINA RESULT:    -3.059     11.133     12.659
REMARK INTER + INTRA:          -7.760
REMARK INTER:                  -6.015
REMARK INTRA:                  -1.744
REMARK UNBOUND:                -2.198
REMARK SMILES CCCCCCCCCCCCCCCC(=O)[O-]
REMARK SMILES IDX 9 1 10 2 11 3 12 4 13 5 14 6 15 7 16 8 17 9 18 10 8 11 7 12
REMARK SMILES IDX 6 13 5 14 4 15 3 16 2 17 1 18
REMARK H PARENT
REMARK Flexibility Score: inf
ROOT
ATOM      1  C   UNL     1       3.080  27.531  11.169  1.00  0.00     0.000 C 
ENDROOT
BRANCH   1   2
ATOM      2  C   UNL     1       2.669  26.089  11.501  1.00  0.00     0.000 C 
BRANCH   2   3
ATOM      3  C   UNL     1       1.879  25.987  12.816  1.00  0.00     0.000 C 
BRANCH   3   4
ATOM      4  C   UNL     1       2.270  24.753  13.646  1.00  0.00     0.000 C 
BRANCH   4   5
ATOM      5  C   UNL     1       1.977  24.926  15.148  1.00  0.00     0.000 C 
BRANCH   5   6
ATOM      6  C   UNL     1       2.817  26.011  15.853  1.00  0.00     0.006 C 
BRANCH   6   7
ATOM      7  C   UNL     1       1.994  27.061  16.615  1.00  0.00     0.053 C 
BRANCH   7   8
ATOM      8  C   UNL     1       2.781  28.308  16.880  1.00  0.00     0.041 C 
ATOM      9  O   UNL     1       4.015  28.237  17.122  1.00  0.00    -0.550 OA
ATOM     10  O   UNL     1       2.146  29.542  16.894  1.00  0.00    -0.550 OA
ENDBRANCH   7   8
ENDBRANCH   6   7
ENDBRANCH   5   6
ENDBRANCH   4   5
ENDBRANCH   3   4
ENDBRANCH   2   3
ENDBRANCH   1   2
BRANCH   1  11
ATOM     11  C   UNL     1       2.500  28.517  12.191  1.00  0.00     0.000 C 
BRANCH  11  12
ATOM     12  C   UNL     1       3.506  28.797  13.317  1.00  0.00    -0.000 C 
BRANCH  12  13
ATOM     13  C   UNL     1       4.903  29.154  12.787  1.00  0.00    -0.000 C 
BRANCH  13  14
ATOM     14  C   UNL     1       6.000  28.227  13.341  1.00  0.00    -0.000 C 
BRANCH  14  15
ATOM     15  C   UNL     1       5.427  27.063  14.163  1.00  0.00    -0.000 C 
BRANCH  15  16
ATOM     16  C   UNL     1       6.457  25.943  14.398  1.00  0.00    -0.000 C 
BRANCH  16  17
ATOM     17  C   UNL     1       7.378  26.232  15.592  1.00  0.00    -0.003 C 
ATOM     18  C   UNL     1       6.728  25.899  16.934  1.00  0.00     0.004 C 
ENDBRANCH  16  17
ENDBRANCH  15  16
ENDBRANCH  14  15
ENDBRANCH  13  14
ENDBRANCH  12  13
ENDBRANCH  11  12
ENDBRANCH   1  11
TORSDOF 14
ENDMDL
MODEL 9
REMARK VINA RESULT:    -1.033      3.534      7.595
REMARK INTER + INTRA:          -4.077
REMARK INTER:                  -2.430
REMARK INTRA:                  -1.647
REMARK UNBOUND:                -2.198
REMARK SMILES CCCCCCCCCCCCCCCC(=O)[O-]
REMARK SMILES IDX 9 1 10 2 11 3 12 4 13 5 14 6 15 7 16 8 17 9 18 10 8 11 7 12
REMARK SMILES IDX 6 13 5 14 4 15 3 16 2 17 1 18
REMARK H PARENT
REMARK Flexibility Score: inf
ROOT
ATOM      1  C   UNL     1       2.739  16.738  12.036  1.00  0.00     0.000 C 
ENDROOT
BRANCH   1   2
ATOM      2  C   UNL     1       1.875  16.807  10.769  1.00  0.00     0.000 C 
BRANCH   2   3
ATOM      3  C   UNL     1       1.996  18.158  10.045  1.00  0.00     0.000 C 
BRANCH   3   4
ATOM      4  C   UNL     1       2.510  18.012   8.603  1.00  0.00     0.000 C 
BRANCH   4   5
ATOM      5  C   UNL     1       4.012  18.323   8.469  1.00  0.00     0.000 C 
BRANCH   5   6
ATOM      6  C   UNL     1       4.938  17.090   8.531  1.00  0.00     0.006 C 
BRANCH   6   7
ATOM      7  C   UNL     1       4.468  15.895   7.688  1.00  0.00     0.053 C 
BRANCH   7   8
ATOM      8  C   UNL     1       5.068  15.905   6.316  1.00  0.00     0.041 C 
ATOM      9  O   UNL     1       4.572  16.631   5.414  1.00  0.00    -0.550 OA
ATOM     10  O   UNL     1       6.152  15.088   6.024  1.00  0.00    -0.550 OA
ENDBRANCH   7   8
ENDBRANCH   6   7
ENDBRANCH   5   6
ENDBRANCH   4   5
ENDBRANCH   3   4
ENDBRANCH   2   3
ENDBRANCH   1   2
BRANCH   1  11
ATOM     11  C   UNL     1       3.956  15.829  11.822  1.00  0.00     0.000 C 
BRANCH  11  12
ATOM     12  C   UNL     1       5.153  16.306  12.657  1.00  0.00    -0.000 C 
BRANCH  12  13
ATOM     13  C   UNL     1       5.460  15.374  13.839  1.00  0.00    -0.000 C 
BRANCH  13  14
ATOM     14  C   UNL     1       6.048  16.124  15.047  1.00  0.00    -0.000 C 
BRANCH  14  15
ATOM     15  C   UNL     1       4.963  16.636  16.007  1.00  0.00    -0.000 C 
BRANCH  15  16
ATOM     16  C   UNL     1       5.149  18.121  16.370  1.00  0.00    -0.000 C 
BRANCH  16  17
ATOM     17  C   UNL     1       4.494  19.062  15.349  1.00  0.00    -0.003 C 
ATOM     18  C   UNL     1       3.038  18.697  15.058  1.00  0.00     0.004 C 
ENDBRANCH  16  17
ENDBRANCH  15  16
ENDBRANCH  14  15
ENDBRANCH  13  14
ENDBRANCH  12  13
ENDBRANCH  11  12
ENDBRANCH   1  11
TORSDOF 14
ENDMDL
