MODEL 1
REMARK VINA RESULT:    -5.881      0.000      0.000
REMARK INTER + INTRA:          -6.423
REMARK INTER:                  -6.225
REMARK INTRA:                  -0.199
REMARK UNBOUND:                -0.199
REMARK SMILES C=C1CC[C@]2(C(C)C)C[C@H]12
REMARK SMILES IDX 5 1 4 2 3 3 2 4 1 5 10 6 9 7 6 8 7 9 8 10
REMARK H PARENT
REMARK Flexibility Score: inf
ROOT
ATOM      1  C   UNL     1     137.668 136.025 123.627  1.00  0.00    -0.020 C 
ATOM      2  C   UNL     1     137.900 136.865 122.360  1.00  0.00     0.012 C 
ATOM      3  C   UNL     1     137.207 138.214 122.570  1.00  0.00     0.031 C 
ATOM      4  C   UNL     1     136.545 138.106 123.902  1.00  0.00    -0.074 C 
ATOM      5  C   UNL     1     135.790 139.074 124.426  1.00  0.00     0.008 C 
ATOM      6  C   UNL     1     136.785 136.808 124.588  1.00  0.00     0.021 C 
ATOM      7  C   UNL     1     136.225 135.579 123.876  1.00  0.00     0.016 C 
ENDROOT
BRANCH   1   8
ATOM      8  C   UNL     1     138.811 135.095 124.133  1.00  0.00    -0.011 C 
ATOM      9  C   UNL     1     139.236 135.516 125.545  1.00  0.00     0.008 C 
ATOM     10  C   UNL     1     140.042 134.984 123.216  1.00  0.00     0.008 C 
ENDBRANCH   1   8
TORSDOF 1
ENDMDL
MODEL 2
REMARK VINA RESULT:    -5.766     14.540     16.768
REMARK INTER + INTRA:          -6.302
REMARK INTER:                  -6.103
REMARK INTRA:                  -0.199
REMARK UNBOUND:                -0.199
REMARK SMILES C=C1CC[C@]2(C(C)C)C[C@H]12
REMARK SMILES IDX 5 1 4 2 3 3 2 4 1 5 10 6 9 7 6 8 7 9 8 10
REMARK H PARENT
REMARK Flexibility Score: inf
ROOT
ATOM      1  C   UNL     1     135.984 153.105 123.709  1.00  0.00    -0.020 C 
ATOM      2  C   UNL     1     136.845 152.881 122.455  1.00  0.00     0.012 C 
ATOM      3  C   UNL     1     138.196 153.558 122.699  1.00  0.00     0.031 C 
ATOM      4  C   UNL     1     138.069 154.205 124.036  1.00  0.00    -0.074 C 
ATOM      5  C   UNL     1     139.035 154.945 124.588  1.00  0.00     0.008 C 
ATOM      6  C   UNL     1     136.756 153.970 124.695  1.00  0.00     0.021 C 
ATOM      7  C   UNL     1     135.546 154.549 123.968  1.00  0.00     0.016 C 
ENDROOT
BRANCH   1   8
ATOM      8  C   UNL     1     135.034 151.965 124.184  1.00  0.00    -0.011 C 
ATOM      9  C   UNL     1     135.426 151.517 125.596  1.00  0.00     0.008 C 
ATOM     10  C   UNL     1     134.926 150.748 123.248  1.00  0.00     0.008 C 
ENDBRANCH   1   8
TORSDOF 1
ENDMDL
MODEL 3
REMARK VINA RESULT:    -5.510      1.073      3.990
REMARK INTER + INTRA:          -6.031
REMARK INTER:                  -5.750
REMARK INTRA:                  -0.281
REMARK UNBOUND:                -0.199
REMARK SMILES C=C1CC[C@]2(C(C)C)C[C@H]12
REMARK SMILES IDX 5 1 4 2 3 3 2 4 1 5 10 6 9 7 6 8 7 9 8 10
REMARK H PARENT
REMARK Flexibility Score: inf
ROOT
ATOM      1  C   UNL     1     136.751 137.551 123.536  1.00  0.00    -0.020 C 
ATOM      2  C   UNL     1     135.794 136.367 123.751  1.00  0.00     0.012 C 
ATOM      3  C   UNL     1     136.592 135.249 124.426  1.00  0.00     0.031 C 
ATOM      4  C   UNL     1     137.984 135.773 124.526  1.00  0.00    -0.074 C 
ATOM      5  C   UNL     1     139.002 135.063 125.020  1.00  0.00     0.008 C 
ATOM      6  C   UNL     1     138.144 137.156 124.003  1.00  0.00     0.021 C 
ATOM      7  C   UNL     1     137.867 137.328 122.512  1.00  0.00     0.016 C 
ENDROOT
BRANCH   1   8
ATOM      8  C   UNL     1     136.206 139.001 123.707  1.00  0.00    -0.011 C 
ATOM      9  C   UNL     1     136.106 139.344 125.198  1.00  0.00     0.008 C 
ATOM     10  C   UNL     1     134.875 139.306 122.998  1.00  0.00     0.008 C 
ENDBRANCH   1   8
TORSDOF 1
ENDMDL
MODEL 4
REMARK VINA RESULT:    -5.377     14.032     16.316
REMARK INTER + INTRA:          -5.890
REMARK INTER:                  -5.868
REMARK INTRA:                  -0.022
REMARK UNBOUND:                -0.199
REMARK SMILES C=C1CC[C@]2(C(C)C)C[C@H]12
REMARK SMILES IDX 5 1 4 2 3 3 2 4 1 5 10 6 9 7 6 8 7 9 8 10
REMARK H PARENT
REMARK Flexibility Score: inf
ROOT
ATOM      1  C   UNL     1     154.272 137.558 123.658  1.00  0.00    -0.020 C 
ATOM      2  C   UNL     1     153.411 137.719 122.394  1.00  0.00     0.012 C 
ATOM      3  C   UNL     1     152.115 136.936 122.620  1.00  0.00     0.031 C 
ATOM      4  C   UNL     1     152.277 136.296 123.956  1.00  0.00    -0.074 C 
ATOM      5  C   UNL     1     151.366 135.480 124.494  1.00  0.00     0.008 C 
ATOM      6  C   UNL     1     153.559 136.631 124.632  1.00  0.00     0.021 C 
ATOM      7  C   UNL     1     154.819 136.152 123.917  1.00  0.00     0.016 C 
ENDROOT
BRANCH   1   8
ATOM      8  C   UNL     1     155.124 138.767 124.148  1.00  0.00    -0.011 C 
ATOM      9  C   UNL     1     155.067 138.856 125.678  1.00  0.00     0.008 C 
ATOM     10  C   UNL     1     154.778 140.129 123.522  1.00  0.00     0.008 C 
ENDBRANCH   1   8
TORSDOF 1
ENDMDL
MODEL 5
REMARK VINA RESULT:    -5.363     22.399     23.413
REMARK INTER + INTRA:          -5.875
REMARK INTER:                  -5.848
REMARK INTRA:                  -0.027
REMARK UNBOUND:                -0.199
REMARK SMILES C=C1CC[C@]2(C(C)C)C[C@H]12
REMARK SMILES IDX 5 1 4 2 3 3 2 4 1 5 10 6 9 7 6 8 7 9 8 10
REMARK H PARENT
REMARK Flexibility Score: inf
ROOT
ATOM      1  C   UNL     1     153.162 154.252 123.717  1.00  0.00    -0.020 C 
ATOM      2  C   UNL     1     153.077 153.398 122.441  1.00  0.00     0.012 C 
ATOM      3  C   UNL     1     153.819 152.088 122.716  1.00  0.00     0.031 C 
ATOM      4  C   UNL     1     154.364 152.233 124.095  1.00  0.00    -0.074 C 
ATOM      5  C   UNL     1     155.123 151.306 124.686  1.00  0.00     0.008 C 
ATOM      6  C   UNL     1     154.004 153.519 124.751  1.00  0.00     0.021 C 
ATOM      7  C   UNL     1     154.555 154.773 124.079  1.00  0.00     0.016 C 
ENDROOT
BRANCH   1   8
ATOM      8  C   UNL     1     151.935 155.124 124.123  1.00  0.00    -0.011 C 
ATOM      9  C   UNL     1     151.727 155.052 125.640  1.00  0.00     0.008 C 
ATOM     10  C   UNL     1     150.619 154.813 123.389  1.00  0.00     0.008 C 
ENDBRANCH   1   8
TORSDOF 1
ENDMDL
MODEL 6
REMARK VINA RESULT:    -5.030     14.015     15.997
REMARK INTER + INTRA:          -5.522
REMARK INTER:                  -5.464
REMARK INTRA:                  -0.059
REMARK UNBOUND:                -0.199
REMARK SMILES C=C1CC[C@]2(C(C)C)C[C@H]12
REMARK SMILES IDX 5 1 4 2 3 3 2 4 1 5 10 6 9 7 6 8 7 9 8 10
REMARK H PARENT
REMARK Flexibility Score: inf
ROOT
ATOM      1  C   UNL     1     153.128 136.920 123.616  1.00  0.00    -0.020 C 
ATOM      2  C   UNL     1     154.286 136.477 124.525  1.00  0.00     0.012 C 
ATOM      3  C   UNL     1     155.111 137.724 124.856  1.00  0.00     0.031 C 
ATOM      4  C   UNL     1     154.465 138.830 124.094  1.00  0.00    -0.074 C 
ATOM      5  C   UNL     1     154.928 140.083 124.084  1.00  0.00     0.008 C 
ATOM      6  C   UNL     1     153.264 138.407 123.324  1.00  0.00     0.021 C 
ATOM      7  C   UNL     1     153.523 137.392 122.215  1.00  0.00     0.016 C 
ENDROOT
BRANCH   1   8
ATOM      8  C   UNL     1     151.736 136.239 123.785  1.00  0.00    -0.011 C 
ATOM      9  C   UNL     1     151.399 136.109 125.275  1.00  0.00     0.008 C 
ATOM     10  C   UNL     1     151.563 134.883 123.078  1.00  0.00     0.008 C 
ENDBRANCH   1   8
TORSDOF 1
ENDMDL
MODEL 7
REMARK VINA RESULT:    -4.968      0.919      3.993
REMARK INTER + INTRA:          -5.457
REMARK INTER:                  -5.679
REMARK INTRA:                   0.222
REMARK UNBOUND:                -0.199
REMARK SMILES C=C1CC[C@]2(C(C)C)C[C@H]12
REMARK SMILES IDX 5 1 4 2 3 3 2 4 1 5 10 6 9 7 6 8 7 9 8 10
REMARK H PARENT
REMARK Flexibility Score: inf
ROOT
ATOM      1  C   UNL     1     136.597 136.851 124.145  1.00  0.00    -0.020 C 
ATOM      2  C   UNL     1     137.105 136.376 125.516  1.00  0.00     0.012 C 
ATOM      3  C   UNL     1     138.537 135.869 125.324  1.00  0.00     0.031 C 
ATOM      4  C   UNL     1     138.800 135.997 123.862  1.00  0.00    -0.074 C 
ATOM      5  C   UNL     1     139.940 135.606 123.285  1.00  0.00     0.008 C 
ATOM      6  C   UNL     1     137.667 136.581 123.097  1.00  0.00     0.021 C 
ATOM      7  C   UNL     1     136.383 135.756 123.097  1.00  0.00     0.016 C 
ENDROOT
BRANCH   1   8
ATOM      8  C   UNL     1     135.677 138.108 124.076  1.00  0.00    -0.011 C 
ATOM      9  C   UNL     1     135.670 138.669 122.649  1.00  0.00     0.008 C 
ATOM     10  C   UNL     1     135.991 139.224 125.087  1.00  0.00     0.008 C 
ENDBRANCH   1   8
TORSDOF 1
ENDMDL
MODEL 8
REMARK VINA RESULT:    -4.927     14.637     17.230
REMARK INTER + INTRA:          -5.414
REMARK INTER:                  -5.635
REMARK INTRA:                   0.222
REMARK UNBOUND:                -0.199
REMARK SMILES C=C1CC[C@]2(C(C)C)C[C@H]12
REMARK SMILES IDX 5 1 4 2 3 3 2 4 1 5 10 6 9 7 6 8 7 9 8 10
REMARK H PARENT
REMARK Flexibility Score: inf
ROOT
ATOM      1  C   UNL     1     136.824 154.152 124.245  1.00  0.00    -0.020 C 
ATOM      2  C   UNL     1     136.345 153.601 125.599  1.00  0.00     0.012 C 
ATOM      3  C   UNL     1     135.830 152.179 125.359  1.00  0.00     0.031 C 
ATOM      4  C   UNL     1     135.958 151.964 123.889  1.00  0.00    -0.074 C 
ATOM      5  C   UNL     1     135.561 150.847 123.274  1.00  0.00     0.008 C 
ATOM      6  C   UNL     1     136.548 153.119 123.162  1.00  0.00     0.021 C 
ATOM      7  C   UNL     1     135.730 154.407 123.205  1.00  0.00     0.016 C 
ENDROOT
BRANCH   1   8
ATOM      8  C   UNL     1     138.085 155.067 124.208  1.00  0.00    -0.011 C 
ATOM      9  C   UNL     1     138.648 155.117 122.782  1.00  0.00     0.008 C 
ATOM     10  C   UNL     1     139.199 154.713 125.209  1.00  0.00     0.008 C 
ENDBRANCH   1   8
TORSDOF 1
ENDMDL
