MODEL 1
REMARK VINA RESULT:    -2.454      0.000      0.000
REMARK INTER + INTRA:          -2.454
REMARK INTER:                  -2.454
REMARK INTRA:                   0.000
REMARK UNBOUND:                 0.000
REMARK SMILES CC(=O)[O-]
REMARK SMILES IDX 1 1 2 2 3 3 4 4
REMARK H PARENT
REMARK Flexibility Score: inf
ROOT
ATOM      1  C   UNL     1     -12.966   8.480   0.475  1.00  0.00     0.063 C 
ATOM      2  C   UNL     1     -14.064   7.475   0.389  1.00  0.00     0.038 C 
ATOM      3  O   UNL     1     -13.846   6.344  -0.121  1.00  0.00    -0.550 OA
ATOM      4  O   UNL     1     -15.343   7.801   0.822  1.00  0.00    -0.550 OA
ENDROOT
TORSDOF 0
ENDMDL
MODEL 2
REMARK VINA RESULT:    -2.436      0.306      1.631
REMARK INTER + INTRA:          -2.436
REMARK INTER:                  -2.436
REMARK INTRA:                   0.000
REMARK UNBOUND:                 0.000
REMARK SMILES CC(=O)[O-]
REMARK SMILES IDX 1 1 2 2 3 3 4 4
REMARK H PARENT
REMARK Flexibility Score: inf
ROOT
ATOM      1  C   UNL     1     -12.686   8.490   0.368  1.00  0.00     0.063 C 
ATOM      2  C   UNL     1     -13.895   7.619   0.415  1.00  0.00     0.038 C 
ATOM      3  O   UNL     1     -14.943   8.024   0.981  1.00  0.00    -0.550 OA
ATOM      4  O   UNL     1     -13.850   6.337  -0.118  1.00  0.00    -0.550 OA
ENDROOT
TORSDOF 0
ENDMDL
MODEL 3
REMARK VINA RESULT:    -2.400      1.404      2.151
REMARK INTER + INTRA:          -2.400
REMARK INTER:                  -2.400
REMARK INTRA:                   0.000
REMARK UNBOUND:                 0.000
REMARK SMILES CC(=O)[O-]
REMARK SMILES IDX 1 1 2 2 3 3 4 4
REMARK H PARENT
REMARK Flexibility Score: inf
ROOT
ATOM      1  C   UNL     1     -13.815   6.211  -0.356  1.00  0.00     0.063 C 
ATOM      2  C   UNL     1     -13.862   7.517   0.363  1.00  0.00     0.038 C 
ATOM      3  O   UNL     1     -14.935   7.906   0.895  1.00  0.00    -0.550 OA
ATOM      4  O   UNL     1     -12.738   8.331   0.402  1.00  0.00    -0.550 OA
ENDROOT
TORSDOF 0
ENDMDL
MODEL 4
REMARK VINA RESULT:    -2.352      1.408      1.731
REMARK INTER + INTRA:          -2.352
REMARK INTER:                  -2.352
REMARK INTRA:                   0.000
REMARK UNBOUND:                 0.000
REMARK SMILES CC(=O)[O-]
REMARK SMILES IDX 1 1 2 2 3 3 4 4
REMARK H PARENT
REMARK Flexibility Score: inf
ROOT
ATOM      1  C   UNL     1     -13.741   6.277  -0.338  1.00  0.00     0.063 C 
ATOM      2  C   UNL     1     -13.732   7.596   0.357  1.00  0.00     0.038 C 
ATOM      3  O   UNL     1     -12.690   8.302   0.356  1.00  0.00    -0.550 OA
ATOM      4  O   UNL     1     -14.856   8.026   1.050  1.00  0.00    -0.550 OA
ENDROOT
TORSDOF 0
ENDMDL
MODEL 5
REMARK VINA RESULT:    -2.185     17.315     17.826
REMARK INTER + INTRA:          -2.185
REMARK INTER:                  -2.185
REMARK INTRA:                   0.000
REMARK UNBOUND:                 0.000
REMARK SMILES CC(=O)[O-]
REMARK SMILES IDX 1 1 2 2 3 3 4 4
REMARK H PARENT
REMARK Flexibility Score: inf
ROOT
ATOM      1  C   UNL     1       1.856  13.657  -0.456  1.00  0.00     0.063 C 
ATOM      2  C   UNL     1       2.039  14.931  -1.209  1.00  0.00     0.038 C 
ATOM      3  O   UNL     1       3.124  15.162  -1.803  1.00  0.00    -0.550 OA
ATOM      4  O   UNL     1       1.032  15.887  -1.214  1.00  0.00    -0.550 OA
ENDROOT
TORSDOF 0
ENDMDL
MODEL 6
REMARK VINA RESULT:    -2.168      1.852      2.377
REMARK INTER + INTRA:          -2.168
REMARK INTER:                  -2.168
REMARK INTRA:                   0.000
REMARK UNBOUND:                 0.000
REMARK SMILES CC(=O)[O-]
REMARK SMILES IDX 1 1 2 2 3 3 4 4
REMARK H PARENT
REMARK Flexibility Score: inf
ROOT
ATOM      1  C   UNL     1     -15.573   5.540  -0.340  1.00  0.00     0.063 C 
ATOM      2  C   UNL     1     -14.200   6.120  -0.341  1.00  0.00     0.038 C 
ATOM      3  O   UNL     1     -13.263   5.525  -0.934  1.00  0.00    -0.550 OA
ATOM      4  O   UNL     1     -13.939   7.292   0.358  1.00  0.00    -0.550 OA
ENDROOT
TORSDOF 0
ENDMDL
MODEL 7
REMARK VINA RESULT:    -2.163     17.364     17.774
REMARK INTER + INTRA:          -2.163
REMARK INTER:                  -2.163
REMARK INTRA:                   0.000
REMARK UNBOUND:                 0.000
REMARK SMILES CC(=O)[O-]
REMARK SMILES IDX 1 1 2 2 3 3 4 4
REMARK H PARENT
REMARK Flexibility Score: inf
ROOT
ATOM      1  C   UNL     1       3.125  15.328  -1.871  1.00  0.00     0.063 C 
ATOM      2  C   UNL     1       1.862  15.023  -1.140  1.00  0.00     0.038 C 
ATOM      3  O   UNL     1       0.933  15.872  -1.103  1.00  0.00    -0.550 OA
ATOM      4  O   UNL     1       1.726  13.823  -0.455  1.00  0.00    -0.550 OA
ENDROOT
TORSDOF 0
ENDMDL
MODEL 8
REMARK VINA RESULT:    -2.151      9.353      9.949
REMARK INTER + INTRA:          -2.151
REMARK INTER:                  -2.151
REMARK INTRA:                   0.000
REMARK UNBOUND:                 0.000
REMARK SMILES CC(=O)[O-]
REMARK SMILES IDX 1 1 2 2 3 3 4 4
REMARK H PARENT
REMARK Flexibility Score: inf
ROOT
ATOM      1  C   UNL     1     -13.505  13.601   7.159  1.00  0.00     0.063 C 
ATOM      2  C   UNL     1     -14.145  13.204   8.446  1.00  0.00     0.038 C 
ATOM      3  O   UNL     1     -14.025  13.935   9.463  1.00  0.00    -0.550 OA
ATOM      4  O   UNL     1     -14.832  12.000   8.540  1.00  0.00    -0.550 OA
ENDROOT
TORSDOF 0
ENDMDL
MODEL 9
REMARK VINA RESULT:    -2.133      8.941      9.377
REMARK INTER + INTRA:          -2.133
REMARK INTER:                  -2.133
REMARK INTRA:                   0.000
REMARK UNBOUND:                 0.000
REMARK SMILES CC(=O)[O-]
REMARK SMILES IDX 1 1 2 2 3 3 4 4
REMARK H PARENT
REMARK Flexibility Score: inf
ROOT
ATOM      1  C   UNL     1     -14.474  12.950   9.059  1.00  0.00     0.063 C 
ATOM      2  C   UNL     1     -14.314  13.245   7.607  1.00  0.00     0.038 C 
ATOM      3  O   UNL     1     -13.209  13.652   7.163  1.00  0.00    -0.550 OA
ATOM      4  O   UNL     1     -15.399  13.122   6.748  1.00  0.00    -0.550 OA
ENDROOT
TORSDOF 0
ENDMDL
