MODEL 1
REMARK VINA RESULT:    -3.862      0.000      0.000
REMARK INTER + INTRA:          -4.569
REMARK INTER:                  -4.539
REMARK INTRA:                  -0.029
REMARK UNBOUND:                -0.029
REMARK SMILES CCCCC(=O)[O-]
REMARK SMILES IDX 4 1 5 2 6 3 7 4 3 5 2 6 1 7
REMARK H PARENT
REMARK Flexibility Score: inf
ROOT
ATOM      1  C   UNL     1      11.186   1.590 -34.273  1.00  0.00     0.053 C 
ENDROOT
BRANCH   1   2
ATOM      2  C   UNL     1       9.780   1.452 -34.767  1.00  0.00     0.041 C 
ATOM      3  O   UNL     1       9.546   1.391 -36.003  1.00  0.00    -0.550 OA
ATOM      4  O   UNL     1       8.733   1.340 -33.861  1.00  0.00    -0.550 OA
ENDBRANCH   1   2
BRANCH   1   5
ATOM      5  C   UNL     1      12.025   2.403 -35.266  1.00  0.00     0.006 C 
BRANCH   5   6
ATOM      6  C   UNL     1      13.526   2.092 -35.164  1.00  0.00    -0.003 C 
ATOM      7  C   UNL     1      14.066   2.250 -33.743  1.00  0.00     0.004 C 
ENDBRANCH   5   6
ENDBRANCH   1   5
TORSDOF 3
ENDMDL
MODEL 2
REMARK VINA RESULT:    -3.819      3.410      4.510
REMARK INTER + INTRA:          -4.518
REMARK INTER:                  -4.397
REMARK INTRA:                  -0.121
REMARK UNBOUND:                -0.029
REMARK SMILES CCCCC(=O)[O-]
REMARK SMILES IDX 4 1 5 2 6 3 7 4 3 5 2 6 1 7
REMARK H PARENT
REMARK Flexibility Score: inf
ROOT
ATOM      1  C   UNL     1       8.356   2.274 -36.541  1.00  0.00     0.053 C 
ENDROOT
BRANCH   1   2
ATOM      2  C   UNL     1       8.623   1.534 -35.268  1.00  0.00     0.041 C 
ATOM      3  O   UNL     1       7.665   1.127 -34.559  1.00  0.00    -0.550 OA
ATOM      4  O   UNL     1       9.929   1.249 -34.891  1.00  0.00    -0.550 OA
ENDBRANCH   1   2
BRANCH   1   5
ATOM      5  C   UNL     1       7.767   1.329 -37.596  1.00  0.00     0.006 C 
BRANCH   5   6
ATOM      6  C   UNL     1       8.825   0.397 -38.208  1.00  0.00    -0.003 C 
ATOM      7  C   UNL     1       8.507  -1.081 -37.988  1.00  0.00     0.004 C 
ENDBRANCH   5   6
ENDBRANCH   1   5
TORSDOF 3
ENDMDL
MODEL 3
REMARK VINA RESULT:    -3.819      2.613      4.082
REMARK INTER + INTRA:          -4.518
REMARK INTER:                  -4.443
REMARK INTRA:                  -0.075
REMARK UNBOUND:                -0.029
REMARK SMILES CCCCC(=O)[O-]
REMARK SMILES IDX 4 1 5 2 6 3 7 4 3 5 2 6 1 7
REMARK H PARENT
REMARK Flexibility Score: inf
ROOT
ATOM      1  C   UNL     1       9.770   1.792 -36.111  1.00  0.00     0.053 C 
ENDROOT
BRANCH   1   2
ATOM      2  C   UNL     1       9.794   1.436 -34.658  1.00  0.00     0.041 C 
ATOM      3  O   UNL     1      10.892   1.294 -34.058  1.00  0.00    -0.550 OA
ATOM      4  O   UNL     1       8.603   1.312 -33.953  1.00  0.00    -0.550 OA
ENDBRANCH   1   2
BRANCH   1   5
ATOM      5  C   UNL     1       8.343   2.136 -36.556  1.00  0.00     0.006 C 
BRANCH   5   6
ATOM      6  C   UNL     1       7.819   1.183 -37.642  1.00  0.00    -0.003 C 
ATOM      7  C   UNL     1       8.934   0.386 -38.317  1.00  0.00     0.004 C 
ENDBRANCH   5   6
ENDBRANCH   1   5
TORSDOF 3
ENDMDL
MODEL 4
REMARK VINA RESULT:    -3.799      3.363      4.395
REMARK INTER + INTRA:          -4.494
REMARK INTER:                  -4.403
REMARK INTRA:                  -0.091
REMARK UNBOUND:                -0.029
REMARK SMILES CCCCC(=O)[O-]
REMARK SMILES IDX 4 1 5 2 6 3 7 4 3 5 2 6 1 7
REMARK H PARENT
REMARK Flexibility Score: inf
ROOT
ATOM      1  C   UNL     1       8.345   2.250 -36.497  1.00  0.00     0.053 C 
ENDROOT
BRANCH   1   2
ATOM      2  C   UNL     1       8.674   1.508 -35.239  1.00  0.00     0.041 C 
ATOM      3  O   UNL     1       9.873   1.253 -34.950  1.00  0.00    -0.550 OA
ATOM      4  O   UNL     1       7.661   1.143 -34.362  1.00  0.00    -0.550 OA
ENDBRANCH   1   2
BRANCH   1   5
ATOM      5  C   UNL     1       7.791   1.289 -37.556  1.00  0.00     0.006 C 
BRANCH   5   6
ATOM      6  C   UNL     1       8.874   0.375 -38.148  1.00  0.00    -0.003 C 
ATOM      7  C   UNL     1       8.549  -1.109 -37.987  1.00  0.00     0.004 C 
ENDBRANCH   5   6
ENDBRANCH   1   5
TORSDOF 3
ENDMDL
MODEL 5
REMARK VINA RESULT:    -3.768      2.354      4.198
REMARK INTER + INTRA:          -4.457
REMARK INTER:                  -4.386
REMARK INTRA:                  -0.072
REMARK UNBOUND:                -0.029
REMARK SMILES CCCCC(=O)[O-]
REMARK SMILES IDX 4 1 5 2 6 3 7 4 3 5 2 6 1 7
REMARK H PARENT
REMARK Flexibility Score: inf
ROOT
ATOM      1  C   UNL     1       9.018   1.231 -35.224  1.00  0.00     0.053 C 
ENDROOT
BRANCH   1   2
ATOM      2  C   UNL     1      10.362   1.609 -34.687  1.00  0.00     0.041 C 
ATOM      3  O   UNL     1      10.651   1.378 -33.482  1.00  0.00    -0.550 OA
ATOM      4  O   UNL     1      11.314   2.171 -35.527  1.00  0.00    -0.550 OA
ENDBRANCH   1   2
BRANCH   1   5
ATOM      5  C   UNL     1       8.672   2.083 -36.451  1.00  0.00     0.006 C 
BRANCH   5   6
ATOM      6  C   UNL     1       8.017   1.263 -37.573  1.00  0.00    -0.003 C 
ATOM      7  C   UNL     1       9.012   0.367 -38.309  1.00  0.00     0.004 C 
ENDBRANCH   5   6
ENDBRANCH   1   5
TORSDOF 3
ENDMDL
MODEL 6
REMARK VINA RESULT:    -3.710      1.467      1.658
REMARK INTER + INTRA:          -4.389
REMARK INTER:                  -4.374
REMARK INTRA:                  -0.016
REMARK UNBOUND:                -0.029
REMARK SMILES CCCCC(=O)[O-]
REMARK SMILES IDX 4 1 5 2 6 3 7 4 3 5 2 6 1 7
REMARK H PARENT
REMARK Flexibility Score: inf
ROOT
ATOM      1  C   UNL     1      10.031   1.471 -34.960  1.00  0.00     0.053 C 
ENDROOT
BRANCH   1   2
ATOM      2  C   UNL     1       8.994   1.341 -36.031  1.00  0.00     0.041 C 
ATOM      3  O   UNL     1       8.676   0.204 -36.470  1.00  0.00    -0.550 OA
ATOM      4  O   UNL     1       8.341   2.470 -36.508  1.00  0.00    -0.550 OA
ENDBRANCH   1   2
BRANCH   1   5
ATOM      5  C   UNL     1      11.262   2.214 -35.494  1.00  0.00     0.006 C 
BRANCH   5   6
ATOM      6  C   UNL     1      12.395   2.296 -34.460  1.00  0.00    -0.003 C 
ATOM      7  C   UNL     1      13.755   1.915 -35.043  1.00  0.00     0.004 C 
ENDBRANCH   5   6
ENDBRANCH   1   5
TORSDOF 3
ENDMDL
MODEL 7
REMARK VINA RESULT:    -3.634      2.138      2.686
REMARK INTER + INTRA:          -4.300
REMARK INTER:                  -4.204
REMARK INTRA:                  -0.096
REMARK UNBOUND:                -0.029
REMARK SMILES CCCCC(=O)[O-]
REMARK SMILES IDX 4 1 5 2 6 3 7 4 3 5 2 6 1 7
REMARK H PARENT
REMARK Flexibility Score: inf
ROOT
ATOM      1  C   UNL     1      11.560   1.772 -33.841  1.00  0.00     0.053 C 
ENDROOT
BRANCH   1   2
ATOM      2  C   UNL     1      11.261   2.195 -32.437  1.00  0.00     0.041 C 
ATOM      3  O   UNL     1      12.073   2.927 -31.809  1.00  0.00    -0.550 OA
ATOM      4  O   UNL     1      10.064   1.825 -31.839  1.00  0.00    -0.550 OA
ENDBRANCH   1   2
BRANCH   1   5
ATOM      5  C   UNL     1      12.973   1.181 -33.933  1.00  0.00     0.006 C 
BRANCH   5   6
ATOM      6  C   UNL     1      13.855   1.918 -34.952  1.00  0.00    -0.003 C 
ATOM      7  C   UNL     1      13.124   3.068 -35.643  1.00  0.00     0.004 C 
ENDBRANCH   5   6
ENDBRANCH   1   5
TORSDOF 3
ENDMDL
MODEL 8
REMARK VINA RESULT:    -3.633      2.962      3.921
REMARK INTER + INTRA:          -4.299
REMARK INTER:                  -4.201
REMARK INTRA:                  -0.098
REMARK UNBOUND:                -0.029
REMARK SMILES CCCCC(=O)[O-]
REMARK SMILES IDX 4 1 5 2 6 3 7 4 3 5 2 6 1 7
REMARK H PARENT
REMARK Flexibility Score: inf
ROOT
ATOM      1  C   UNL     1       7.847   1.372 -37.638  1.00  0.00     0.053 C 
ENDROOT
BRANCH   1   2
ATOM      2  C   UNL     1       8.327  -0.045 -37.667  1.00  0.00     0.041 C 
ATOM      3  O   UNL     1       9.190  -0.404 -38.512  1.00  0.00    -0.550 OA
ATOM      4  O   UNL     1       7.861  -0.957 -36.729  1.00  0.00    -0.550 OA
ENDBRANCH   1   2
BRANCH   1   5
ATOM      5  C   UNL     1       8.253   2.049 -36.322  1.00  0.00     0.006 C 
BRANCH   5   6
ATOM      6  C   UNL     1       9.747   1.876 -36.008  1.00  0.00    -0.003 C 
ATOM      7  C   UNL     1      10.000   1.423 -34.571  1.00  0.00     0.004 C 
ENDBRANCH   5   6
ENDBRANCH   1   5
TORSDOF 3
ENDMDL
MODEL 9
REMARK VINA RESULT:    -3.508      2.842      4.034
REMARK INTER + INTRA:          -4.152
REMARK INTER:                  -4.132
REMARK INTRA:                  -0.020
REMARK UNBOUND:                -0.029
REMARK SMILES CCCCC(=O)[O-]
REMARK SMILES IDX 4 1 5 2 6 3 7 4 3 5 2 6 1 7
REMARK H PARENT
REMARK Flexibility Score: inf
ROOT
ATOM      1  C   UNL     1      11.881   1.536 -33.930  1.00  0.00     0.053 C 
ENDROOT
BRANCH   1   2
ATOM      2  C   UNL     1      13.336   1.869 -34.042  1.00  0.00     0.041 C 
ATOM      3  O   UNL     1      13.936   1.721 -35.140  1.00  0.00    -0.550 OA
ATOM      4  O   UNL     1      14.016   2.389 -32.949  1.00  0.00    -0.550 OA
ENDBRANCH   1   2
BRANCH   1   5
ATOM      5  C   UNL     1      11.141   1.926 -35.216  1.00  0.00     0.006 C 
BRANCH   5   6
ATOM      6  C   UNL     1       9.683   1.443 -35.227  1.00  0.00    -0.003 C 
ATOM      7  C   UNL     1       9.120   1.294 -36.639  1.00  0.00     0.004 C 
ENDBRANCH   5   6
ENDBRANCH   1   5
TORSDOF 3
ENDMDL
