MODEL 1
REMARK VINA RESULT:    -4.633      0.000      0.000
REMARK INTER + INTRA:          -7.473
REMARK INTER:                  -6.259
REMARK INTRA:                  -1.214
REMARK UNBOUND:                -1.214
REMARK SMILES C=CC(C)=CCC=C(C)CCC=C(C)C
REMARK SMILES IDX 8 1 7 2 9 3 10 4 11 5 12 6 14 7 13 8 15 9 6 10 5 11 3 12
REMARK SMILES IDX 4 13 2 14 1 15
REMARK H PARENT
REMARK Flexibility Score: inf
ROOT
ATOM      1  C   UNL     1       0.534  16.016  17.203  1.00  0.00    -0.077 C 
ATOM      2  C   UNL     1      -0.130  16.528  16.143  1.00  0.00    -0.024 C 
ATOM      3  C   UNL     1       1.793  16.662  17.729  1.00  0.00     0.039 C 
ENDROOT
BRANCH   1   4
ATOM      4  C   UNL     1       0.008  14.764  17.870  1.00  0.00     0.034 C 
BRANCH   4   5
ATOM      5  C   UNL     1       1.052  13.642  17.821  1.00  0.00     0.032 C 
BRANCH   5   6
ATOM      6  C   UNL     1       0.836  12.764  16.614  1.00  0.00    -0.028 C 
ATOM      7  C   UNL     1       1.197  11.925  14.332  1.00  0.00     0.039 C 
ATOM      8  C   UNL     1       1.553  12.845  15.471  1.00  0.00    -0.080 C 
ATOM      9  C   UNL     1       2.703  13.813  15.315  1.00  0.00     0.039 C 
ENDBRANCH   5   6
ENDBRANCH   4   5
ENDBRANCH   1   4
BRANCH   2  10
ATOM     10  C   UNL     1       0.319  17.770  15.412  1.00  0.00     0.055 C 
BRANCH  10  11
ATOM     11  C   UNL     1       1.163  17.421  14.216  1.00  0.00    -0.020 C 
ATOM     12  C   UNL     1       0.703  17.343  12.951  1.00  0.00    -0.055 C 
ATOM     13  C   UNL     1      -0.752  17.590  12.614  1.00  0.00     0.044 C 
BRANCH  12  14
ATOM     14  C   UNL     1       1.658  16.930  11.889  1.00  0.00    -0.005 C 
ATOM     15  C   UNL     1       2.958  17.226  11.910  1.00  0.00     0.009 C 
ENDBRANCH  12  14
ENDBRANCH  10  11
ENDBRANCH   2  10
TORSDOF 6
ENDMDL
MODEL 2
REMARK VINA RESULT:    -4.406      1.362      3.675
REMARK INTER + INTRA:          -7.165
REMARK INTER:                  -5.423
REMARK INTRA:                  -1.742
REMARK UNBOUND:                -1.214
REMARK SMILES C=CC(C)=CCC=C(C)CCC=C(C)C
REMARK SMILES IDX 8 1 7 2 9 3 10 4 11 5 12 6 14 7 13 8 15 9 6 10 5 11 3 12
REMARK SMILES IDX 4 13 2 14 1 15
REMARK H PARENT
REMARK Flexibility Score: inf
ROOT
ATOM      1  C   UNL     1       1.777  13.641  14.199  1.00  0.00    -0.077 C 
ATOM      2  C   UNL     1       0.612  13.998  13.618  1.00  0.00    -0.024 C 
ATOM      3  C   UNL     1       3.091  14.247  13.766  1.00  0.00     0.039 C 
ENDROOT
BRANCH   1   4
ATOM      4  C   UNL     1       1.767  12.605  15.302  1.00  0.00     0.034 C 
BRANCH   4   5
ATOM      5  C   UNL     1       1.104  13.164  16.567  1.00  0.00     0.032 C 
BRANCH   5   6
ATOM      6  C   UNL     1       1.747  14.467  16.975  1.00  0.00    -0.028 C 
ATOM      7  C   UNL     1       1.868  16.867  17.489  1.00  0.00     0.039 C 
ATOM      8  C   UNL     1       1.084  15.637  17.111  1.00  0.00    -0.080 C 
ATOM      9  C   UNL     1      -0.411  15.738  16.913  1.00  0.00     0.039 C 
ENDBRANCH   5   6
ENDBRANCH   4   5
ENDBRANCH   1   4
BRANCH   2  10
ATOM     10  C   UNL     1       0.522  15.020  12.510  1.00  0.00     0.055 C 
BRANCH  10  11
ATOM     11  C   UNL     1      -0.313  16.201  12.926  1.00  0.00    -0.020 C 
ATOM     12  C   UNL     1       0.185  17.391  13.316  1.00  0.00    -0.055 C 
ATOM     13  C   UNL     1       1.675  17.648  13.390  1.00  0.00     0.044 C 
BRANCH  12  14
ATOM     14  C   UNL     1      -0.777  18.438  13.750  1.00  0.00    -0.005 C 
ATOM     15  C   UNL     1      -1.125  18.639  15.021  1.00  0.00     0.009 C 
ENDBRANCH  12  14
ENDBRANCH  10  11
ENDBRANCH   2  10
TORSDOF 6
ENDMDL
MODEL 3
REMARK VINA RESULT:    -4.389      1.228      5.390
REMARK INTER + INTRA:          -7.142
REMARK INTER:                  -5.389
REMARK INTRA:                  -1.753
REMARK UNBOUND:                -1.214
REMARK SMILES C=CC(C)=CCC=C(C)CCC=C(C)C
REMARK SMILES IDX 8 1 7 2 9 3 10 4 11 5 12 6 14 7 13 8 15 9 6 10 5 11 3 12
REMARK SMILES IDX 4 13 2 14 1 15
REMARK H PARENT
REMARK Flexibility Score: inf
ROOT
ATOM      1  C   UNL     1       1.712  15.594  12.987  1.00  0.00    -0.077 C 
ATOM      2  C   UNL     1       2.570  15.043  13.873  1.00  0.00    -0.024 C 
ATOM      3  C   UNL     1       0.652  14.767  12.300  1.00  0.00     0.039 C 
ENDROOT
BRANCH   1   4
ATOM      4  C   UNL     1       1.822  17.069  12.670  1.00  0.00     0.034 C 
BRANCH   4   5
ATOM      5  C   UNL     1       1.416  17.917  13.881  1.00  0.00     0.032 C 
BRANCH   5   6
ATOM      6  C   UNL     1       0.192  17.341  14.550  1.00  0.00    -0.028 C 
ATOM      7  C   UNL     1      -1.124  16.282  16.334  1.00  0.00     0.039 C 
ATOM      8  C   UNL     1       0.165  16.863  15.813  1.00  0.00    -0.080 C 
ATOM      9  C   UNL     1       1.377  16.911  16.714  1.00  0.00     0.039 C 
ENDBRANCH   5   6
ENDBRANCH   4   5
ENDBRANCH   1   4
BRANCH   2  10
ATOM     10  C   UNL     1       2.540  13.582  14.251  1.00  0.00     0.055 C 
BRANCH  10  11
ATOM     11  C   UNL     1       1.981  13.390  15.635  1.00  0.00    -0.020 C 
ATOM     12  C   UNL     1       0.783  12.836  15.907  1.00  0.00    -0.055 C 
ATOM     13  C   UNL     1      -0.144  12.359  14.810  1.00  0.00     0.044 C 
BRANCH  12  14
ATOM     14  C   UNL     1       0.354  12.772  17.329  1.00  0.00    -0.005 C 
ATOM     15  C   UNL     1       0.969  13.424  18.316  1.00  0.00     0.009 C 
ENDBRANCH  12  14
ENDBRANCH  10  11
ENDBRANCH   2  10
TORSDOF 6
ENDMDL
MODEL 4
REMARK VINA RESULT:    -4.382      1.504      6.019
REMARK INTER + INTRA:          -7.134
REMARK INTER:                  -6.150
REMARK INTRA:                  -0.984
REMARK UNBOUND:                -1.214
REMARK SMILES C=CC(C)=CCC=C(C)CCC=C(C)C
REMARK SMILES IDX 8 1 7 2 9 3 10 4 11 5 12 6 14 7 13 8 15 9 6 10 5 11 3 12
REMARK SMILES IDX 4 13 2 14 1 15
REMARK H PARENT
REMARK Flexibility Score: inf
ROOT
ATOM      1  C   UNL     1       2.730  14.705  13.171  1.00  0.00    -0.077 C 
ATOM      2  C   UNL     1       1.924  14.300  14.176  1.00  0.00    -0.024 C 
ATOM      3  C   UNL     1       4.124  14.146  13.007  1.00  0.00     0.039 C 
ENDROOT
BRANCH   1   4
ATOM      4  C   UNL     1       2.229  15.745  12.194  1.00  0.00     0.034 C 
BRANCH   4   5
ATOM      5  C   UNL     1       2.244  17.140  12.830  1.00  0.00     0.032 C 
BRANCH   5   6
ATOM      6  C   UNL     1       0.838  17.623  13.089  1.00  0.00    -0.028 C 
ATOM      7  C   UNL     1      -1.124  18.267  14.422  1.00  0.00     0.039 C 
ATOM      8  C   UNL     1       0.311  17.818  14.318  1.00  0.00    -0.080 C 
ATOM      9  C   UNL     1       1.120  17.614  15.578  1.00  0.00     0.039 C 
ENDBRANCH   5   6
ENDBRANCH   4   5
ENDBRANCH   1   4
BRANCH   2  10
ATOM     10  C   UNL     1       2.336  13.269  15.199  1.00  0.00     0.055 C 
BRANCH  10  11
ATOM     11  C   UNL     1       1.153  12.796  16.001  1.00  0.00    -0.020 C 
ATOM     12  C   UNL     1       0.768  13.322  17.181  1.00  0.00    -0.055 C 
ATOM     13  C   UNL     1       1.526  14.458  17.834  1.00  0.00     0.044 C 
BRANCH  12  14
ATOM     14  C   UNL     1      -0.392  12.701  17.873  1.00  0.00    -0.005 C 
ATOM     15  C   UNL     1      -0.387  12.360  19.162  1.00  0.00     0.009 C 
ENDBRANCH  12  14
ENDBRANCH  10  11
ENDBRANCH   2  10
TORSDOF 6
ENDMDL
MODEL 5
REMARK VINA RESULT:    -4.367      1.228      2.301
REMARK INTER + INTRA:          -7.113
REMARK INTER:                  -5.560
REMARK INTRA:                  -1.552
REMARK UNBOUND:                -1.214
REMARK SMILES C=CC(C)=CCC=C(C)CCC=C(C)C
REMARK SMILES IDX 8 1 7 2 9 3 10 4 11 5 12 6 14 7 13 8 15 9 6 10 5 11 3 12
REMARK SMILES IDX 4 13 2 14 1 15
REMARK H PARENT
REMARK Flexibility Score: inf
ROOT
ATOM      1  C   UNL     1       0.336  14.463  17.659  1.00  0.00    -0.077 C 
ATOM      2  C   UNL     1       1.346  15.340  17.469  1.00  0.00    -0.024 C 
ATOM      3  C   UNL     1      -1.069  14.933  17.950  1.00  0.00     0.039 C 
ENDROOT
BRANCH   1   4
ATOM      4  C   UNL     1       0.622  12.979  17.586  1.00  0.00     0.034 C 
BRANCH   4   5
ATOM      5  C   UNL     1       0.600  12.492  16.132  1.00  0.00     0.032 C 
BRANCH   5   6
ATOM      6  C   UNL     1       1.868  12.887  15.417  1.00  0.00    -0.028 C 
ATOM      7  C   UNL     1       3.255  13.968  13.700  1.00  0.00     0.039 C 
ATOM      8  C   UNL     1       1.916  13.691  14.332  1.00  0.00    -0.080 C 
ATOM      9  C   UNL     1       0.673  14.326  13.751  1.00  0.00     0.039 C 
ENDBRANCH   5   6
ENDBRANCH   4   5
ENDBRANCH   1   4
BRANCH   2  10
ATOM     10  C   UNL     1       1.159  16.837  17.524  1.00  0.00     0.055 C 
BRANCH  10  11
ATOM     11  C   UNL     1       1.559  17.483  16.225  1.00  0.00    -0.020 C 
ATOM     12  C   UNL     1       0.709  17.763  15.217  1.00  0.00    -0.055 C 
ATOM     13  C   UNL     1      -0.765  17.428  15.298  1.00  0.00     0.044 C 
BRANCH  12  14
ATOM     14  C   UNL     1       1.275  18.352  13.975  1.00  0.00    -0.005 C 
ATOM     15  C   UNL     1       1.875  17.635  13.024  1.00  0.00     0.009 C 
ENDBRANCH  12  14
ENDBRANCH  10  11
ENDBRANCH   2  10
TORSDOF 6
ENDMDL
MODEL 6
REMARK VINA RESULT:    -4.360      0.986      4.643
REMARK INTER + INTRA:          -7.103
REMARK INTER:                  -5.274
REMARK INTRA:                  -1.830
REMARK UNBOUND:                -1.214
REMARK SMILES C=CC(C)=CCC=C(C)CCC=C(C)C
REMARK SMILES IDX 8 1 7 2 9 3 10 4 11 5 12 6 14 7 13 8 15 9 6 10 5 11 3 12
REMARK SMILES IDX 4 13 2 14 1 15
REMARK H PARENT
REMARK Flexibility Score: inf
ROOT
ATOM      1  C   UNL     1       0.246  16.845  16.044  1.00  0.00    -0.077 C 
ATOM      2  C   UNL     1      -0.375  15.646  16.034  1.00  0.00    -0.024 C 
ATOM      3  C   UNL     1       1.538  17.056  16.797  1.00  0.00     0.039 C 
ENDROOT
BRANCH   1   4
ATOM      4  C   UNL     1      -0.370  18.004  15.291  1.00  0.00     0.034 C 
BRANCH   4   5
ATOM      5  C   UNL     1      -0.397  17.720  13.784  1.00  0.00     0.032 C 
BRANCH   5   6
ATOM      6  C   UNL     1       1.003  17.561  13.245  1.00  0.00    -0.028 C 
ATOM      7  C   UNL     1       2.901  16.421  12.179  1.00  0.00     0.039 C 
ATOM      8  C   UNL     1       1.464  16.449  12.632  1.00  0.00    -0.080 C 
ATOM      9  C   UNL     1       0.579  15.251  12.375  1.00  0.00     0.039 C 
ENDBRANCH   5   6
ENDBRANCH   4   5
ENDBRANCH   1   4
BRANCH   2  10
ATOM     10  C   UNL     1       0.162  14.434  16.757  1.00  0.00     0.055 C 
BRANCH  10  11
ATOM     11  C   UNL     1       0.312  13.265  15.820  1.00  0.00    -0.020 C 
ATOM     12  C   UNL     1       1.441  12.964  15.147  1.00  0.00    -0.055 C 
ATOM     13  C   UNL     1       2.691  13.810  15.265  1.00  0.00     0.044 C 
BRANCH  12  14
ATOM     14  C   UNL     1       1.406  11.806  14.217  1.00  0.00    -0.005 C 
ATOM     15  C   UNL     1       0.281  11.292  13.719  1.00  0.00     0.009 C 
ENDBRANCH  12  14
ENDBRANCH  10  11
ENDBRANCH   2  10
TORSDOF 6
ENDMDL
MODEL 7
REMARK VINA RESULT:    -4.347      1.484      4.938
REMARK INTER + INTRA:          -7.086
REMARK INTER:                  -5.724
REMARK INTRA:                  -1.361
REMARK UNBOUND:                -1.214
REMARK SMILES C=CC(C)=CCC=C(C)CCC=C(C)C
REMARK SMILES IDX 8 1 7 2 9 3 10 4 11 5 12 6 14 7 13 8 15 9 6 10 5 11 3 12
REMARK SMILES IDX 4 13 2 14 1 15
REMARK H PARENT
REMARK Flexibility Score: inf
ROOT
ATOM      1  C   UNL     1       0.850  17.129  15.430  1.00  0.00    -0.077 C 
ATOM      2  C   UNL     1      -0.051  16.232  15.887  1.00  0.00    -0.024 C 
ATOM      3  C   UNL     1       1.550  18.087  16.364  1.00  0.00     0.039 C 
ENDROOT
BRANCH   1   4
ATOM      4  C   UNL     1       1.158  17.178  13.950  1.00  0.00     0.034 C 
BRANCH   4   5
ATOM      5  C   UNL     1       1.049  15.783  13.324  1.00  0.00     0.032 C 
BRANCH   5   6
ATOM      6  C   UNL     1       2.416  15.228  13.012  1.00  0.00    -0.028 C 
ATOM      7  C   UNL     1       4.394  13.795  13.287  1.00  0.00     0.039 C 
ATOM      8  C   UNL     1       3.004  14.217  13.690  1.00  0.00    -0.080 C 
ATOM      9  C   UNL     1       2.304  13.496  14.818  1.00  0.00     0.039 C 
ENDBRANCH   5   6
ENDBRANCH   4   5
ENDBRANCH   1   4
BRANCH   2  10
ATOM     10  C   UNL     1      -0.425  16.109  17.345  1.00  0.00     0.055 C 
BRANCH  10  11
ATOM     11  C   UNL     1      -0.363  14.677  17.803  1.00  0.00    -0.020 C 
ATOM     12  C   UNL     1       0.764  14.044  18.188  1.00  0.00    -0.055 C 
ATOM     13  C   UNL     1       2.110  14.735  18.177  1.00  0.00     0.044 C 
BRANCH  12  14
ATOM     14  C   UNL     1       0.662  12.609  18.559  1.00  0.00    -0.005 C 
ATOM     15  C   UNL     1      -0.496  11.976  18.749  1.00  0.00     0.009 C 
ENDBRANCH  12  14
ENDBRANCH  10  11
ENDBRANCH   2  10
TORSDOF 6
ENDMDL
MODEL 8
REMARK VINA RESULT:    -4.248      1.300      4.907
REMARK INTER + INTRA:          -6.952
REMARK INTER:                  -5.238
REMARK INTRA:                  -1.714
REMARK UNBOUND:                -1.214
REMARK SMILES C=CC(C)=CCC=C(C)CCC=C(C)C
REMARK SMILES IDX 8 1 7 2 9 3 10 4 11 5 12 6 14 7 13 8 15 9 6 10 5 11 3 12
REMARK SMILES IDX 4 13 2 14 1 15
REMARK H PARENT
REMARK Flexibility Score: inf
ROOT
ATOM      1  C   UNL     1       0.742  17.305  12.977  1.00  0.00    -0.077 C 
ATOM      2  C   UNL     1       0.239  16.082  12.704  1.00  0.00    -0.024 C 
ATOM      3  C   UNL     1       2.189  17.639  12.706  1.00  0.00     0.039 C 
ENDROOT
BRANCH   1   4
ATOM      4  C   UNL     1      -0.163  18.361  13.574  1.00  0.00     0.034 C 
BRANCH   4   5
ATOM      5  C   UNL     1      -0.698  17.910  14.939  1.00  0.00     0.032 C 
BRANCH   5   6
ATOM      6  C   UNL     1       0.438  17.634  15.893  1.00  0.00    -0.028 C 
ATOM      7  C   UNL     1       1.774  16.353  17.510  1.00  0.00     0.039 C 
ATOM      8  C   UNL     1       0.611  16.471  16.558  1.00  0.00    -0.080 C 
ATOM      9  C   UNL     1      -0.312  15.291  16.362  1.00  0.00     0.039 C 
ENDBRANCH   5   6
ENDBRANCH   4   5
ENDBRANCH   1   4
BRANCH   2  10
ATOM     10  C   UNL     1       1.064  14.965  12.111  1.00  0.00     0.055 C 
BRANCH  10  11
ATOM     11  C   UNL     1       0.873  13.684  12.877  1.00  0.00    -0.020 C 
ATOM     12  C   UNL     1       1.626  13.302  13.929  1.00  0.00    -0.055 C 
ATOM     13  C   UNL     1       2.775  14.146  14.437  1.00  0.00     0.044 C 
BRANCH  12  14
ATOM     14  C   UNL     1       1.343  11.977  14.541  1.00  0.00    -0.005 C 
ATOM     15  C   UNL     1       1.114  10.870  13.832  1.00  0.00     0.009 C 
ENDBRANCH  12  14
ENDBRANCH  10  11
ENDBRANCH   2  10
TORSDOF 6
ENDMDL
MODEL 9
REMARK VINA RESULT:    -4.166      1.013      4.714
REMARK INTER + INTRA:          -6.841
REMARK INTER:                  -5.181
REMARK INTRA:                  -1.661
REMARK UNBOUND:                -1.214
REMARK SMILES C=CC(C)=CCC=C(C)CCC=C(C)C
REMARK SMILES IDX 8 1 7 2 9 3 10 4 11 5 12 6 14 7 13 8 15 9 6 10 5 11 3 12
REMARK SMILES IDX 4 13 2 14 1 15
REMARK H PARENT
REMARK Flexibility Score: inf
ROOT
ATOM      1  C   UNL     1       0.832  17.478  13.091  1.00  0.00    -0.077 C 
ATOM      2  C   UNL     1       1.128  17.715  14.387  1.00  0.00    -0.024 C 
ATOM      3  C   UNL     1      -0.598  17.426  12.607  1.00  0.00     0.039 C 
ENDROOT
BRANCH   1   4
ATOM      4  C   UNL     1       1.957  17.251  12.105  1.00  0.00     0.034 C 
BRANCH   4   5
ATOM      5  C   UNL     1       2.184  15.752  11.875  1.00  0.00     0.032 C 
BRANCH   5   6
ATOM      6  C   UNL     1       2.843  15.121  13.077  1.00  0.00    -0.028 C 
ATOM      7  C   UNL     1       2.999  13.765  15.121  1.00  0.00     0.039 C 
ATOM      8  C   UNL     1       2.221  14.288  13.941  1.00  0.00    -0.080 C 
ATOM      9  C   UNL     1       0.785  13.859  13.745  1.00  0.00     0.039 C 
ENDBRANCH   5   6
ENDBRANCH   4   5
ENDBRANCH   1   4
BRANCH   2  10
ATOM     10  C   UNL     1       0.076  17.951  15.443  1.00  0.00     0.055 C 
BRANCH  10  11
ATOM     11  C   UNL     1      -0.358  16.656  16.076  1.00  0.00    -0.020 C 
ATOM     12  C   UNL     1       0.333  16.001  17.030  1.00  0.00    -0.055 C 
ATOM     13  C   UNL     1       1.657  16.516  17.553  1.00  0.00     0.044 C 
BRANCH  12  14
ATOM     14  C   UNL     1      -0.207  14.702  17.510  1.00  0.00    -0.005 C 
ATOM     15  C   UNL     1       0.559  13.696  17.935  1.00  0.00     0.009 C 
ENDBRANCH  12  14
ENDBRANCH  10  11
ENDBRANCH   2  10
TORSDOF 6
ENDMDL
