MODEL 1
REMARK VINA RESULT:    -1.381      0.000      0.000
REMARK INTER + INTRA:          -3.155
REMARK INTER:                  -3.479
REMARK INTRA:                   0.324
REMARK UNBOUND:                 0.324
REMARK SMILES CCCCCCCCCCCCCCCCCCCCCCCCCCCC(=O)[O-]
REMARK SMILES IDX 15 1 16 2 17 3 18 4 19 5 20 6 21 7 22 8 23 9 24 10 25 11
REMARK SMILES IDX 26 12 27 13 28 14 29 15 30 16 14 17 13 18 12 19 11 20 10 21
REMARK SMILES IDX 9 22 8 23 7 24 6 25 5 26 4 27 3 28 2 29 1 30
REMARK H PARENT
REMARK Flexibility Score: inf
ROOT
ATOM      1  C   UNL     1      -0.044  24.239  10.453  1.00  0.00     0.000 C 
ENDROOT
BRANCH   1   2
ATOM      2  C   UNL     1       0.158  24.092  11.973  1.00  0.00     0.000 C 
BRANCH   2   3
ATOM      3  C   UNL     1      -0.415  25.243  12.824  1.00  0.00     0.000 C 
BRANCH   3   4
ATOM      4  C   UNL     1      -1.038  24.813  14.167  1.00  0.00     0.000 C 
BRANCH   4   5
ATOM      5  C   UNL     1      -0.110  23.997  15.087  1.00  0.00     0.000 C 
BRANCH   5   6
ATOM      6  C   UNL     1       0.698  24.883  16.051  1.00  0.00     0.000 C 
BRANCH   6   7
ATOM      7  C   UNL     1       2.143  25.128  15.578  1.00  0.00     0.000 C 
BRANCH   7   8
ATOM      8  C   UNL     1       2.666  24.140  14.520  1.00  0.00     0.000 C 
BRANCH   8   9
ATOM      9  C   UNL     1       4.200  24.094  14.441  1.00  0.00     0.000 C 
BRANCH   9  10
ATOM     10  C   UNL     1       4.673  23.881  12.998  1.00  0.00     0.000 C 
BRANCH  10  11
ATOM     11  C   UNL     1       3.531  23.984  11.972  1.00  0.00     0.000 C 
BRANCH  11  12
ATOM     12  C   UNL     1       3.913  24.769  10.698  1.00  0.00     0.006 C 
BRANCH  12  13
ATOM     13  C   UNL     1       3.968  26.284  10.945  1.00  0.00     0.053 C 
BRANCH  13  14
ATOM     14  C   UNL     1       3.358  26.623  12.269  1.00  0.00     0.041 C 
ATOM     15  O   UNL     1       2.126  26.448  12.461  1.00  0.00    -0.550 OA
ATOM     16  O   UNL     1       4.143  27.169  13.277  1.00  0.00    -0.550 OA
ENDBRANCH  13  14
ENDBRANCH  12  13
ENDBRANCH  11  12
ENDBRANCH  10  11
ENDBRANCH   9  10
ENDBRANCH   8   9
ENDBRANCH   7   8
ENDBRANCH   6   7
ENDBRANCH   5   6
ENDBRANCH   4   5
ENDBRANCH   3   4
ENDBRANCH   2   3
ENDBRANCH   1   2
BRANCH   1  17
ATOM     17  C   UNL     1       1.179  24.761   9.676  1.00  0.00     0.000 C 
BRANCH  17  18
ATOM     18  C   UNL     1       0.812  25.829   8.629  1.00  0.00     0.000 C 
BRANCH  18  19
ATOM     19  C   UNL     1      -0.618  25.669   8.088  1.00  0.00     0.000 C 
BRANCH  19  20
ATOM     20  C   UNL     1      -0.955  26.518   6.846  1.00  0.00     0.000 C 
BRANCH  20  21
ATOM     21  C   UNL     1      -1.123  25.700   5.548  1.00  0.00     0.000 C 
BRANCH  21  22
ATOM     22  C   UNL     1      -1.054  26.573   4.282  1.00  0.00    -0.000 C 
BRANCH  22  23
ATOM     23  C   UNL     1      -0.945  25.744   2.989  1.00  0.00    -0.000 C 
BRANCH  23  24
ATOM     24  C   UNL     1       0.278  24.812   2.919  1.00  0.00    -0.000 C 
BRANCH  24  25
ATOM     25  C   UNL     1       0.504  24.024   4.221  1.00  0.00    -0.000 C 
BRANCH  25  26
ATOM     26  C   UNL     1       1.991  23.928   4.600  1.00  0.00    -0.000 C 
BRANCH  26  27
ATOM     27  C   UNL     1       2.219  23.941   6.118  1.00  0.00    -0.000 C 
BRANCH  27  28
ATOM     28  C   UNL     1       3.042  25.164   6.541  1.00  0.00    -0.000 C 
BRANCH  28  29
ATOM     29  C   UNL     1       4.543  24.908   6.358  1.00  0.00    -0.003 C 
ATOM     30  C   UNL     1       5.100  24.058   7.496  1.00  0.00     0.004 C 
ENDBRANCH  28  29
ENDBRANCH  27  28
ENDBRANCH  26  27
ENDBRANCH  25  26
ENDBRANCH  24  25
ENDBRANCH  23  24
ENDBRANCH  22  23
ENDBRANCH  21  22
ENDBRANCH  20  21
ENDBRANCH  19  20
ENDBRANCH  18  19
ENDBRANCH  17  18
ENDBRANCH   1  17
TORSDOF 26
ENDMDL
MODEL 2
REMARK VINA RESULT:     0.039      2.301      7.791
REMARK INTER + INTRA:           0.423
REMARK INTER:                  -1.169
REMARK INTRA:                   1.591
REMARK UNBOUND:                 0.324
REMARK SMILES CCCCCCCCCCCCCCCCCCCCCCCCCCCC(=O)[O-]
REMARK SMILES IDX 15 1 16 2 17 3 18 4 19 5 20 6 21 7 22 8 23 9 24 10 25 11
REMARK SMILES IDX 26 12 27 13 28 14 29 15 30 16 14 17 13 18 12 19 11 20 10 21
REMARK SMILES IDX 9 22 8 23 7 24 6 25 5 26 4 27 3 28 2 29 1 30
REMARK H PARENT
REMARK Flexibility Score: inf
ROOT
ATOM      1  C   UNL     1       2.481  25.864  10.181  1.00  0.00     0.000 C 
ENDROOT
BRANCH   1   2
ATOM      2  C   UNL     1       2.085  25.068   8.923  1.00  0.00     0.000 C 
BRANCH   2   3
ATOM      3  C   UNL     1       1.075  23.928   9.162  1.00  0.00     0.000 C 
BRANCH   3   4
ATOM      4  C   UNL     1      -0.101  23.879   8.166  1.00  0.00     0.000 C 
BRANCH   4   5
ATOM      5  C   UNL     1      -1.123  25.023   8.305  1.00  0.00     0.000 C 
BRANCH   5   6
ATOM      6  C   UNL     1      -0.476  26.414   8.179  1.00  0.00     0.000 C 
BRANCH   6   7
ATOM      7  C   UNL     1       0.325  26.590   6.876  1.00  0.00     0.000 C 
BRANCH   7   8
ATOM      8  C   UNL     1      -0.520  26.777   5.603  1.00  0.00     0.000 C 
BRANCH   8   9
ATOM      9  C   UNL     1      -1.004  25.449   4.998  1.00  0.00     0.000 C 
BRANCH   9  10
ATOM     10  C   UNL     1      -0.728  25.397   3.490  1.00  0.00     0.000 C 
BRANCH  10  11
ATOM     11  C   UNL     1      -0.079  24.074   3.046  1.00  0.00     0.000 C 
BRANCH  11  12
ATOM     12  C   UNL     1       1.419  23.969   3.409  1.00  0.00     0.006 C 
BRANCH  12  13
ATOM     13  C   UNL     1       1.643  23.876   4.926  1.00  0.00     0.053 C 
BRANCH  13  14
ATOM     14  C   UNL     1       2.757  24.781   5.348  1.00  0.00     0.041 C 
ATOM     15  O   UNL     1       3.820  24.300   5.821  1.00  0.00    -0.550 OA
ATOM     16  O   UNL     1       2.605  26.159   5.257  1.00  0.00    -0.550 OA
ENDBRANCH  13  14
ENDBRANCH  12  13
ENDBRANCH  11  12
ENDBRANCH  10  11
ENDBRANCH   9  10
ENDBRANCH   8   9
ENDBRANCH   7   8
ENDBRANCH   6   7
ENDBRANCH   5   6
ENDBRANCH   4   5
ENDBRANCH   3   4
ENDBRANCH   2   3
ENDBRANCH   1   2
BRANCH   1  17
ATOM     17  C   UNL     1       1.933  25.309  11.509  1.00  0.00     0.000 C 
BRANCH  17  18
ATOM     18  C   UNL     1       1.152  23.994  11.332  1.00  0.00     0.000 C 
BRANCH  18  19
ATOM     19  C   UNL     1      -0.048  23.879  12.286  1.00  0.00     0.000 C 
BRANCH  19  20
ATOM     20  C   UNL     1      -0.881  25.164  12.459  1.00  0.00     0.000 C 
BRANCH  20  21
ATOM     21  C   UNL     1      -0.826  25.768  13.879  1.00  0.00     0.000 C 
BRANCH  21  22
ATOM     22  C   UNL     1       0.246  25.107  14.764  1.00  0.00    -0.000 C 
BRANCH  22  23
ATOM     23  C   UNL     1       1.618  25.795  14.658  1.00  0.00    -0.000 C 
BRANCH  23  24
ATOM     24  C   UNL     1       2.817  24.835  14.545  1.00  0.00    -0.000 C 
BRANCH  24  25
ATOM     25  C   UNL     1       4.139  25.562  14.245  1.00  0.00    -0.000 C 
BRANCH  25  26
ATOM     26  C   UNL     1       5.240  24.605  13.760  1.00  0.00    -0.000 C 
BRANCH  26  27
ATOM     27  C   UNL     1       4.871  23.887  12.455  1.00  0.00    -0.000 C 
BRANCH  27  28
ATOM     28  C   UNL     1       5.107  24.794  11.241  1.00  0.00    -0.000 C 
BRANCH  28  29
ATOM     29  C   UNL     1       5.595  23.984  10.034  1.00  0.00    -0.003 C 
ATOM     30  C   UNL     1       5.814  24.880   8.819  1.00  0.00     0.004 C 
ENDBRANCH  28  29
ENDBRANCH  27  28
ENDBRANCH  26  27
ENDBRANCH  25  26
ENDBRANCH  24  25
ENDBRANCH  23  24
ENDBRANCH  22  23
ENDBRANCH  21  22
ENDBRANCH  20  21
ENDBRANCH  19  20
ENDBRANCH  18  19
ENDBRANCH  17  18
ENDBRANCH   1  17
TORSDOF 26
ENDMDL
MODEL 3
REMARK VINA RESULT:     0.267      1.700      7.782
REMARK INTER + INTRA:           0.996
REMARK INTER:                   0.230
REMARK INTRA:                   0.765
REMARK UNBOUND:                 0.324
REMARK SMILES CCCCCCCCCCCCCCCCCCCCCCCCCCCC(=O)[O-]
REMARK SMILES IDX 15 1 16 2 17 3 18 4 19 5 20 6 21 7 22 8 23 9 24 10 25 11
REMARK SMILES IDX 26 12 27 13 28 14 29 15 30 16 14 17 13 18 12 19 11 20 10 21
REMARK SMILES IDX 9 22 8 23 7 24 6 25 5 26 4 27 3 28 2 29 1 30
REMARK H PARENT
REMARK Flexibility Score: inf
ROOT
ATOM      1  C   UNL     1       2.580  25.313   9.267  1.00  0.00     0.000 C 
ENDROOT
BRANCH   1   2
ATOM      2  C   UNL     1       1.371  26.099   8.727  1.00  0.00     0.000 C 
BRANCH   2   3
ATOM      3  C   UNL     1       0.939  25.731   7.293  1.00  0.00     0.000 C 
BRANCH   3   4
ATOM      4  C   UNL     1      -0.585  25.665   7.068  1.00  0.00     0.000 C 
BRANCH   4   5
ATOM      5  C   UNL     1      -1.045  25.948   5.625  1.00  0.00     0.000 C 
BRANCH   5   6
ATOM      6  C   UNL     1      -1.117  24.675   4.765  1.00  0.00     0.000 C 
BRANCH   6   7
ATOM      7  C   UNL     1       0.204  24.363   4.037  1.00  0.00     0.000 C 
BRANCH   7   8
ATOM      8  C   UNL     1       1.451  25.065   4.604  1.00  0.00     0.000 C 
BRANCH   8   9
ATOM      9  C   UNL     1       2.346  24.130   5.433  1.00  0.00     0.000 C 
BRANCH   9  10
ATOM     10  C   UNL     1       3.763  24.062   4.849  1.00  0.00     0.000 C 
BRANCH  10  11
ATOM     11  C   UNL     1       4.849  23.913   5.929  1.00  0.00     0.000 C 
BRANCH  11  12
ATOM     12  C   UNL     1       4.628  24.824   7.157  1.00  0.00     0.006 C 
BRANCH  12  13
ATOM     13  C   UNL     1       5.894  25.610   7.531  1.00  0.00     0.053 C 
BRANCH  13  14
ATOM     14  C   UNL     1       6.353  25.243   8.907  1.00  0.00     0.041 C 
ATOM     15  O   UNL     1       7.411  25.739   9.374  1.00  0.00    -0.550 OA
ATOM     16  O   UNL     1       5.632  24.324   9.659  1.00  0.00    -0.550 OA
ENDBRANCH  13  14
ENDBRANCH  12  13
ENDBRANCH  11  12
ENDBRANCH  10  11
ENDBRANCH   9  10
ENDBRANCH   8   9
ENDBRANCH   7   8
ENDBRANCH   6   7
ENDBRANCH   5   6
ENDBRANCH   4   5
ENDBRANCH   3   4
ENDBRANCH   2   3
ENDBRANCH   1   2
BRANCH   1  17
ATOM     17  C   UNL     1       2.266  23.892   9.775  1.00  0.00     0.000 C 
BRANCH  17  18
ATOM     18  C   UNL     1       1.250  23.881  10.932  1.00  0.00     0.000 C 
BRANCH  18  19
ATOM     19  C   UNL     1      -0.050  24.628  10.593  1.00  0.00     0.000 C 
BRANCH  19  20
ATOM     20  C   UNL     1      -0.540  25.622  11.665  1.00  0.00     0.000 C 
BRANCH  20  21
ATOM     21  C   UNL     1      -0.163  25.231  13.110  1.00  0.00     0.000 C 
BRANCH  21  22
ATOM     22  C   UNL     1      -1.125  24.192  13.714  1.00  0.00    -0.000 C 
BRANCH  22  23
ATOM     23  C   UNL     1      -0.832  23.897  15.196  1.00  0.00    -0.000 C 
BRANCH  23  24
ATOM     24  C   UNL     1       0.163  24.863  15.864  1.00  0.00    -0.000 C 
BRANCH  24  25
ATOM     25  C   UNL     1       1.569  24.258  16.021  1.00  0.00    -0.000 C 
BRANCH  25  26
ATOM     26  C   UNL     1       2.222  23.928  14.670  1.00  0.00    -0.000 C 
BRANCH  26  27
ATOM     27  C   UNL     1       3.491  24.751  14.406  1.00  0.00    -0.000 C 
BRANCH  27  28
ATOM     28  C   UNL     1       3.755  24.891  12.902  1.00  0.00    -0.000 C 
BRANCH  28  29
ATOM     29  C   UNL     1       3.929  26.363  12.508  1.00  0.00    -0.003 C 
ATOM     30  C   UNL     1       2.734  26.864  11.702  1.00  0.00     0.004 C 
ENDBRANCH  28  29
ENDBRANCH  27  28
ENDBRANCH  26  27
ENDBRANCH  25  26
ENDBRANCH  24  25
ENDBRANCH  23  24
ENDBRANCH  22  23
ENDBRANCH  21  22
ENDBRANCH  20  21
ENDBRANCH  19  20
ENDBRANCH  18  19
ENDBRANCH  17  18
ENDBRANCH   1  17
TORSDOF 26
ENDMDL
MODEL 4
REMARK VINA RESULT:     0.289      1.047      2.075
REMARK INTER + INTRA:           1.052
REMARK INTER:                   0.648
REMARK INTRA:                   0.404
REMARK UNBOUND:                 0.324
REMARK SMILES CCCCCCCCCCCCCCCCCCCCCCCCCCCC(=O)[O-]
REMARK SMILES IDX 15 1 16 2 17 3 18 4 19 5 20 6 21 7 22 8 23 9 24 10 25 11
REMARK SMILES IDX 26 12 27 13 28 14 29 15 30 16 14 17 13 18 12 19 11 20 10 21
REMARK SMILES IDX 9 22 8 23 7 24 6 25 5 26 4 27 3 28 2 29 1 30
REMARK H PARENT
REMARK Flexibility Score: inf
ROOT
ATOM      1  C   UNL     1       1.845  25.036   8.543  1.00  0.00     0.000 C 
ENDROOT
BRANCH   1   2
ATOM      2  C   UNL     1       1.440  24.687   9.988  1.00  0.00     0.000 C 
BRANCH   2   3
ATOM      3  C   UNL     1       0.050  24.037  10.139  1.00  0.00     0.000 C 
BRANCH   3   4
ATOM      4  C   UNL     1      -0.934  24.806  11.042  1.00  0.00     0.000 C 
BRANCH   4   5
ATOM      5  C   UNL     1      -1.124  24.216  12.453  1.00  0.00     0.000 C 
BRANCH   5   6
ATOM      6  C   UNL     1       0.209  24.007  13.192  1.00  0.00     0.000 C 
BRANCH   6   7
ATOM      7  C   UNL     1       0.439  25.028  14.322  1.00  0.00     0.000 C 
BRANCH   7   8
ATOM      8  C   UNL     1       0.996  24.445  15.633  1.00  0.00     0.000 C 
BRANCH   8   9
ATOM      9  C   UNL     1       2.496  24.119  15.561  1.00  0.00     0.000 C 
BRANCH   9  10
ATOM     10  C   UNL     1       2.976  24.043  14.107  1.00  0.00     0.000 C 
BRANCH  10  11
ATOM     11  C   UNL     1       4.501  23.879  13.987  1.00  0.00     0.000 C 
BRANCH  11  12
ATOM     12  C   UNL     1       5.075  24.394  12.649  1.00  0.00     0.006 C 
BRANCH  12  13
ATOM     13  C   UNL     1       4.012  25.099  11.794  1.00  0.00     0.053 C 
BRANCH  13  14
ATOM     14  C   UNL     1       3.817  26.509  12.256  1.00  0.00     0.041 C 
ATOM     15  O   UNL     1       4.477  26.952  13.232  1.00  0.00    -0.550 OA
ATOM     16  O   UNL     1       2.878  27.320  11.633  1.00  0.00    -0.550 OA
ENDBRANCH  13  14
ENDBRANCH  12  13
ENDBRANCH  11  12
ENDBRANCH  10  11
ENDBRANCH   9  10
ENDBRANCH   8   9
ENDBRANCH   7   8
ENDBRANCH   6   7
ENDBRANCH   5   6
ENDBRANCH   4   5
ENDBRANCH   3   4
ENDBRANCH   2   3
ENDBRANCH   1   2
BRANCH   1  17
ATOM     17  C   UNL     1       0.683  25.109   7.535  1.00  0.00     0.000 C 
BRANCH  17  18
ATOM     18  C   UNL     1      -0.332  26.216   7.869  1.00  0.00     0.000 C 
BRANCH  18  19
ATOM     19  C   UNL     1      -1.123  26.693   6.640  1.00  0.00     0.000 C 
BRANCH  19  20
ATOM     20  C   UNL     1      -0.290  27.395   5.549  1.00  0.00     0.000 C 
BRANCH  20  21
ATOM     21  C   UNL     1       0.246  26.448   4.456  1.00  0.00     0.000 C 
BRANCH  21  22
ATOM     22  C   UNL     1      -0.702  25.269   4.172  1.00  0.00    -0.000 C 
BRANCH  22  23
ATOM     23  C   UNL     1       0.038  23.929   4.014  1.00  0.00    -0.000 C 
BRANCH  23  24
ATOM     24  C   UNL     1       1.161  23.931   2.961  1.00  0.00    -0.000 C 
BRANCH  24  25
ATOM     25  C   UNL     1       2.566  23.876   3.584  1.00  0.00    -0.000 C 
BRANCH  25  26
ATOM     26  C   UNL     1       2.691  24.762   4.834  1.00  0.00    -0.000 C 
BRANCH  26  27
ATOM     27  C   UNL     1       3.180  23.988   6.066  1.00  0.00    -0.000 C 
BRANCH  27  28
ATOM     28  C   UNL     1       4.709  24.036   6.176  1.00  0.00    -0.000 C 
BRANCH  28  29
ATOM     29  C   UNL     1       5.157  25.152   7.129  1.00  0.00    -0.003 C 
ATOM     30  C   UNL     1       5.071  24.702   8.584  1.00  0.00     0.004 C 
ENDBRANCH  28  29
ENDBRANCH  27  28
ENDBRANCH  26  27
ENDBRANCH  25  26
ENDBRANCH  24  25
ENDBRANCH  23  24
ENDBRANCH  22  23
ENDBRANCH  21  22
ENDBRANCH  20  21
ENDBRANCH  19  20
ENDBRANCH  18  19
ENDBRANCH  17  18
ENDBRANCH   1  17
TORSDOF 26
ENDMDL
MODEL 5
REMARK VINA RESULT:     0.449      1.325      3.466
REMARK INTER + INTRA:           1.455
REMARK INTER:                   1.920
REMARK INTRA:                  -0.466
REMARK UNBOUND:                 0.324
REMARK SMILES CCCCCCCCCCCCCCCCCCCCCCCCCCCC(=O)[O-]
REMARK SMILES IDX 15 1 16 2 17 3 18 4 19 5 20 6 21 7 22 8 23 9 24 10 25 11
REMARK SMILES IDX 26 12 27 13 28 14 29 15 30 16 14 17 13 18 12 19 11 20 10 21
REMARK SMILES IDX 9 22 8 23 7 24 6 25 5 26 4 27 3 28 2 29 1 30
REMARK H PARENT
REMARK Flexibility Score: inf
ROOT
ATOM      1  C   UNL     1      -0.732  26.440   9.273  1.00  0.00     0.000 C 
ENDROOT
BRANCH   1   2
ATOM      2  C   UNL     1       0.747  26.130   9.570  1.00  0.00     0.000 C 
BRANCH   2   3
ATOM      3  C   UNL     1       1.387  25.062   8.660  1.00  0.00     0.000 C 
BRANCH   3   4
ATOM      4  C   UNL     1       2.063  23.893   9.404  1.00  0.00     0.000 C 
BRANCH   4   5
ATOM      5  C   UNL     1       1.991  23.967  10.941  1.00  0.00     0.000 C 
BRANCH   5   6
ATOM      6  C   UNL     1       0.547  23.947  11.469  1.00  0.00     0.000 C 
BRANCH   6   7
ATOM      7  C   UNL     1       0.426  24.458  12.917  1.00  0.00     0.000 C 
BRANCH   7   8
ATOM      8  C   UNL     1      -0.932  24.201  13.595  1.00  0.00     0.000 C 
BRANCH   8   9
ATOM      9  C   UNL     1      -0.841  24.147  15.129  1.00  0.00     0.000 C 
BRANCH   9  10
ATOM     10  C   UNL     1       0.018  25.295  15.672  1.00  0.00     0.000 C 
BRANCH  10  11
ATOM     11  C   UNL     1       1.323  24.808  16.325  1.00  0.00     0.000 C 
BRANCH  11  12
ATOM     12  C   UNL     1       2.475  24.590  15.319  1.00  0.00     0.006 C 
BRANCH  12  13
ATOM     13  C   UNL     1       2.886  25.893  14.617  1.00  0.00     0.053 C 
BRANCH  13  14
ATOM     14  C   UNL     1       3.926  25.623  13.576  1.00  0.00     0.041 C 
ATOM     15  O   UNL     1       3.841  26.163  12.441  1.00  0.00    -0.550 OA
ATOM     16  O   UNL     1       4.969  24.746  13.846  1.00  0.00    -0.550 OA
ENDBRANCH  13  14
ENDBRANCH  12  13
ENDBRANCH  11  12
ENDBRANCH  10  11
ENDBRANCH   9  10
ENDBRANCH   8   9
ENDBRANCH   7   8
ENDBRANCH   6   7
ENDBRANCH   5   6
ENDBRANCH   4   5
ENDBRANCH   3   4
ENDBRANCH   2   3
ENDBRANCH   1   2
BRANCH   1  17
ATOM     17  C   UNL     1      -1.124  26.409   7.783  1.00  0.00     0.000 C 
BRANCH  17  18
ATOM     18  C   UNL     1      -0.267  27.352   6.919  1.00  0.00     0.000 C 
BRANCH  18  19
ATOM     19  C   UNL     1       0.375  26.642   5.716  1.00  0.00     0.000 C 
BRANCH  19  20
ATOM     20  C   UNL     1      -0.139  25.215   5.439  1.00  0.00     0.000 C 
BRANCH  20  21
ATOM     21  C   UNL     1      -0.741  25.023   4.031  1.00  0.00     0.000 C 
BRANCH  21  22
ATOM     22  C   UNL     1       0.318  25.096   2.916  1.00  0.00    -0.000 C 
BRANCH  22  23
ATOM     23  C   UNL     1       1.256  23.876   2.900  1.00  0.00    -0.000 C 
BRANCH  23  24
ATOM     24  C   UNL     1       2.655  24.127   3.491  1.00  0.00    -0.000 C 
BRANCH  24  25
ATOM     25  C   UNL     1       2.669  24.096   5.029  1.00  0.00    -0.000 C 
BRANCH  25  26
ATOM     26  C   UNL     1       4.093  24.114   5.605  1.00  0.00    -0.000 C 
BRANCH  26  27
ATOM     27  C   UNL     1       4.217  24.996   6.855  1.00  0.00    -0.000 C 
BRANCH  27  28
ATOM     28  C   UNL     1       4.658  24.171   8.071  1.00  0.00    -0.000 C 
BRANCH  28  29
ATOM     29  C   UNL     1       5.763  24.890   8.854  1.00  0.00    -0.003 C 
ATOM     30  C   UNL     1       6.379  26.017   8.031  1.00  0.00     0.004 C 
ENDBRANCH  28  29
ENDBRANCH  27  28
ENDBRANCH  26  27
ENDBRANCH  25  26
ENDBRANCH  24  25
ENDBRANCH  23  24
ENDBRANCH  22  23
ENDBRANCH  21  22
ENDBRANCH  20  21
ENDBRANCH  19  20
ENDBRANCH  18  19
ENDBRANCH  17  18
ENDBRANCH   1  17
TORSDOF 26
ENDMDL
MODEL 6
REMARK VINA RESULT:     0.623      1.718      8.127
REMARK INTER + INTRA:           1.893
REMARK INTER:                  -0.037
REMARK INTRA:                   1.930
REMARK UNBOUND:                 0.324
REMARK SMILES CCCCCCCCCCCCCCCCCCCCCCCCCCCC(=O)[O-]
REMARK SMILES IDX 15 1 16 2 17 3 18 4 19 5 20 6 21 7 22 8 23 9 24 10 25 11
REMARK SMILES IDX 26 12 27 13 28 14 29 15 30 16 14 17 13 18 12 19 11 20 10 21
REMARK SMILES IDX 9 22 8 23 7 24 6 25 5 26 4 27 3 28 2 29 1 30
REMARK H PARENT
REMARK Flexibility Score: inf
ROOT
ATOM      1  C   UNL     1       0.981  25.563   7.867  1.00  0.00     0.000 C 
ENDROOT
BRANCH   1   2
ATOM      2  C   UNL     1       0.105  26.634   7.189  1.00  0.00     0.000 C 
BRANCH   2   3
ATOM      3  C   UNL     1      -0.743  26.131   6.005  1.00  0.00     0.000 C 
BRANCH   3   4
ATOM      4  C   UNL     1      -0.268  26.602   4.616  1.00  0.00     0.000 C 
BRANCH   4   5
ATOM      5  C   UNL     1      -1.033  25.996   3.424  1.00  0.00     0.000 C 
BRANCH   5   6
ATOM      6  C   UNL     1      -1.003  24.458   3.421  1.00  0.00     0.000 C 
BRANCH   6   7
ATOM      7  C   UNL     1       0.220  23.876   4.153  1.00  0.00     0.000 C 
BRANCH   7   8
ATOM      8  C   UNL     1       1.588  24.280   3.573  1.00  0.00     0.000 C 
BRANCH   8   9
ATOM      9  C   UNL     1       2.561  24.815   4.635  1.00  0.00     0.000 C 
BRANCH   9  10
ATOM     10  C   UNL     1       3.903  24.074   4.580  1.00  0.00     0.000 C 
BRANCH  10  11
ATOM     11  C   UNL     1       4.560  23.922   5.962  1.00  0.00     0.000 C 
BRANCH  11  12
ATOM     12  C   UNL     1       3.668  24.403   7.128  1.00  0.00     0.006 C 
BRANCH  12  13
ATOM     13  C   UNL     1       4.293  25.580   7.890  1.00  0.00     0.053 C 
BRANCH  13  14
ATOM     14  C   UNL     1       5.383  25.100   8.795  1.00  0.00     0.041 C 
ATOM     15  O   UNL     1       6.524  25.632   8.750  1.00  0.00    -0.550 OA
ATOM     16  O   UNL     1       5.151  24.040   9.662  1.00  0.00    -0.550 OA
ENDBRANCH  13  14
ENDBRANCH  12  13
ENDBRANCH  11  12
ENDBRANCH  10  11
ENDBRANCH   9  10
ENDBRANCH   8   9
ENDBRANCH   7   8
ENDBRANCH   6   7
ENDBRANCH   5   6
ENDBRANCH   4   5
ENDBRANCH   3   4
ENDBRANCH   2   3
ENDBRANCH   1   2
BRANCH   1  17
ATOM     17  C   UNL     1       0.261  24.245   8.207  1.00  0.00     0.000 C 
BRANCH  17  18
ATOM     18  C   UNL     1      -1.098  24.465   8.897  1.00  0.00     0.000 C 
BRANCH  18  19
ATOM     19  C   UNL     1      -1.108  23.993  10.360  1.00  0.00     0.000 C 
BRANCH  19  20
ATOM     20  C   UNL     1       0.277  23.875  11.027  1.00  0.00     0.000 C 
BRANCH  20  21
ATOM     21  C   UNL     1       1.456  24.254  10.107  1.00  0.00     0.000 C 
BRANCH  21  22
ATOM     22  C   UNL     1       2.747  24.560  10.888  1.00  0.00    -0.000 C 
BRANCH  22  23
ATOM     23  C   UNL     1       2.491  24.842  12.379  1.00  0.00    -0.000 C 
BRANCH  23  24
ATOM     24  C   UNL     1       3.423  25.894  13.008  1.00  0.00    -0.000 C 
BRANCH  24  25
ATOM     25  C   UNL     1       3.064  26.214  14.469  1.00  0.00    -0.000 C 
BRANCH  25  26
ATOM     26  C   UNL     1       2.407  25.025  15.188  1.00  0.00    -0.000 C 
BRANCH  26  27
ATOM     27  C   UNL     1       0.914  25.250  15.466  1.00  0.00    -0.000 C 
BRANCH  27  28
ATOM     28  C   UNL     1       0.153  23.919  15.501  1.00  0.00    -0.000 C 
BRANCH  28  29
ATOM     29  C   UNL     1      -0.963  23.894  14.449  1.00  0.00    -0.003 C 
ATOM     30  C   UNL     1      -1.019  25.206  13.672  1.00  0.00     0.004 C 
ENDBRANCH  28  29
ENDBRANCH  27  28
ENDBRANCH  26  27
ENDBRANCH  25  26
ENDBRANCH  24  25
ENDBRANCH  23  24
ENDBRANCH  22  23
ENDBRANCH  21  22
ENDBRANCH  20  21
ENDBRANCH  19  20
ENDBRANCH  18  19
ENDBRANCH  17  18
ENDBRANCH   1  17
TORSDOF 26
ENDMDL
