MODEL 1
REMARK VINA RESULT:    -3.157      0.000      0.000
REMARK INTER + INTRA:          -4.079
REMARK INTER:                  -3.803
REMARK INTRA:                  -0.276
REMARK UNBOUND:                -0.276
REMARK SMILES NC(=O)C[C@H]([NH3+])C(=O)[O-]
REMARK SMILES IDX 4 1 5 2 6 3 7 7 8 8 9 9 2 10 3 11 1 12
REMARK H PARENT 6 4 6 5 6 6 1 13 1 14
REMARK Flexibility Score: inf
ROOT
ATOM      1  C   UNL     1      -0.002  -3.804  56.796  1.00  0.00     0.171 C 
ENDROOT
BRANCH   1   2
ATOM      2  C   UNL     1      -0.277  -5.319  56.682  1.00  0.00     0.237 C 
BRANCH   2   3
ATOM      3  N   UNL     1       0.554  -6.096  57.613  1.00  0.00    -0.350 N 
ATOM      4  H   UNL     1       0.057  -6.260  58.518  1.00  0.00     0.345 HD
ATOM      5  H   UNL     1       0.799  -7.018  57.185  1.00  0.00     0.345 HD
ATOM      6  H   UNL     1       1.443  -5.578  57.804  1.00  0.00     0.345 HD
ENDBRANCH   2   3
BRANCH   2   7
ATOM      7  C   UNL     1      -0.106  -5.805  55.264  1.00  0.00     0.100 C 
ATOM      8  O   UNL     1      -0.051  -7.040  55.026  1.00  0.00    -0.544 OA
ATOM      9  O   UNL     1      -0.060  -4.902  54.208  1.00  0.00    -0.544 OA
ENDBRANCH   2   7
ENDBRANCH   1   2
BRANCH   1  10
ATOM     10  C   UNL     1       0.311  -3.362  58.199  1.00  0.00     0.223 C 
ATOM     11  O   UNL     1      -0.537  -3.534  59.115  1.00  0.00    -0.275 OA
ATOM     12  N   UNL     1       1.556  -2.730  58.499  1.00  0.00    -0.369 N 
ATOM     13  H   UNL     1       2.268  -2.572  57.751  1.00  0.00     0.159 HD
ATOM     14  H   UNL     1       1.766  -2.416  59.473  1.00  0.00     0.159 HD
ENDBRANCH   1  10
TORSDOF 4
ENDMDL
MODEL 2
REMARK VINA RESULT:    -3.039     12.320     13.238
REMARK INTER + INTRA:          -3.936
REMARK INTER:                  -3.665
REMARK INTRA:                  -0.271
REMARK UNBOUND:                -0.276
REMARK SMILES NC(=O)C[C@H]([NH3+])C(=O)[O-]
REMARK SMILES IDX 4 1 5 2 6 3 7 7 8 8 9 9 2 10 3 11 1 12
REMARK H PARENT 6 4 6 5 6 6 1 13 1 14
REMARK Flexibility Score: inf
ROOT
ATOM      1  C   UNL     1       0.619  -2.094  44.963  1.00  0.00     0.171 C 
ENDROOT
BRANCH   1   2
ATOM      2  C   UNL     1       1.185  -2.120  43.526  1.00  0.00     0.237 C 
BRANCH   2   3
ATOM      3  N   UNL     1       0.386  -1.295  42.610  1.00  0.00    -0.350 N 
ATOM      4  H   UNL     1      -0.579  -1.683  42.493  1.00  0.00     0.345 HD
ATOM      5  H   UNL     1       0.319  -0.318  42.979  1.00  0.00     0.345 HD
ATOM      6  H   UNL     1       0.852  -1.259  41.674  1.00  0.00     0.345 HD
ENDBRANCH   2   3
BRANCH   2   7
ATOM      7  C   UNL     1       1.317  -3.532  43.012  1.00  0.00     0.100 C 
ATOM      8  O   UNL     1       2.002  -3.764  41.981  1.00  0.00    -0.544 OA
ATOM      9  O   UNL     1       0.731  -4.592  43.695  1.00  0.00    -0.544 OA
ENDBRANCH   2   7
ENDBRANCH   1   2
BRANCH   1  10
ATOM     10  C   UNL     1       0.207  -0.720  45.413  1.00  0.00     0.223 C 
ATOM     11  O   UNL     1       1.020   0.239  45.324  1.00  0.00    -0.275 OA
ATOM     12  N   UNL     1      -1.094  -0.495  45.958  1.00  0.00    -0.369 N 
ATOM     13  H   UNL     1      -1.778  -1.279  46.046  1.00  0.00     0.159 HD
ATOM     14  H   UNL     1      -1.372   0.459  46.279  1.00  0.00     0.159 HD
ENDBRANCH   1  10
TORSDOF 4
ENDMDL
MODEL 3
REMARK VINA RESULT:    -2.973     12.098     13.425
REMARK INTER + INTRA:          -3.857
REMARK INTER:                  -3.449
REMARK INTRA:                  -0.408
REMARK UNBOUND:                -0.276
REMARK SMILES NC(=O)C[C@H]([NH3+])C(=O)[O-]
REMARK SMILES IDX 4 1 5 2 6 3 7 7 8 8 9 9 2 10 3 11 1 12
REMARK H PARENT 6 4 6 5 6 6 1 13 1 14
REMARK Flexibility Score: inf
ROOT
ATOM      1  C   UNL     1       0.554  -0.312  43.399  1.00  0.00     0.171 C 
ENDROOT
BRANCH   1   2
ATOM      2  C   UNL     1       0.770  -0.166  44.921  1.00  0.00     0.237 C 
BRANCH   2   3
ATOM      3  N   UNL     1       2.152  -0.481  45.308  1.00  0.00    -0.350 N 
ATOM      4  H   UNL     1       2.807   0.290  45.038  1.00  0.00     0.345 HD
ATOM      5  H   UNL     1       2.206  -0.629  46.342  1.00  0.00     0.345 HD
ATOM      6  H   UNL     1       2.456  -1.363  44.835  1.00  0.00     0.345 HD
ENDBRANCH   2   3
BRANCH   2   7
ATOM      7  C   UNL     1      -0.217  -0.999  45.699  1.00  0.00     0.100 C 
ATOM      8  O   UNL     1      -1.431  -0.666  45.734  1.00  0.00    -0.544 OA
ATOM      9  O   UNL     1       0.190  -2.164  46.339  1.00  0.00    -0.544 OA
ENDBRANCH   2   7
ENDBRANCH   1   2
BRANCH   1  10
ATOM     10  C   UNL     1       0.570  -1.741  42.931  1.00  0.00     0.223 C 
ATOM     11  O   UNL     1       1.626  -2.421  43.030  1.00  0.00    -0.275 OA
ATOM     12  N   UNL     1      -0.598  -2.330  42.358  1.00  0.00    -0.369 N 
ATOM     13  H   UNL     1      -1.480  -1.779  42.261  1.00  0.00     0.159 HD
ATOM     14  H   UNL     1      -0.579  -3.319  42.026  1.00  0.00     0.159 HD
ENDBRANCH   1  10
TORSDOF 4
ENDMDL
MODEL 4
REMARK VINA RESULT:    -2.959     12.249     13.529
REMARK INTER + INTRA:          -3.841
REMARK INTER:                  -3.615
REMARK INTRA:                  -0.225
REMARK UNBOUND:                -0.276
REMARK SMILES NC(=O)C[C@H]([NH3+])C(=O)[O-]
REMARK SMILES IDX 4 1 5 2 6 3 7 7 8 8 9 9 2 10 3 11 1 12
REMARK H PARENT 6 4 6 5 6 6 1 13 1 14
REMARK Flexibility Score: inf
ROOT
ATOM      1  C   UNL     1       1.313  -2.321  43.301  1.00  0.00     0.171 C 
ENDROOT
BRANCH   1   2
ATOM      2  C   UNL     1       0.675  -2.074  44.686  1.00  0.00     0.237 C 
BRANCH   2   3
ATOM      3  N   UNL     1      -0.778  -1.878  44.589  1.00  0.00    -0.350 N 
ATOM      4  H   UNL     1      -1.109  -1.152  45.266  1.00  0.00     0.345 HD
ATOM      5  H   UNL     1      -1.033  -1.583  43.619  1.00  0.00     0.345 HD
ATOM      6  H   UNL     1      -1.267  -2.780  44.796  1.00  0.00     0.345 HD
ENDBRANCH   2   3
BRANCH   2   7
ATOM      7  C   UNL     1       1.334  -0.919  45.398  1.00  0.00     0.100 C 
ATOM      8  O   UNL     1       0.913   0.253  45.217  1.00  0.00    -0.544 OA
ATOM      9  O   UNL     1       2.373  -1.142  46.295  1.00  0.00    -0.544 OA
ENDBRANCH   2   7
ENDBRANCH   1   2
BRANCH   1  10
ATOM     10  C   UNL     1       1.334  -3.772  42.908  1.00  0.00     0.223 C 
ATOM     11  O   UNL     1       0.622  -4.602  43.535  1.00  0.00    -0.275 OA
ATOM     12  N   UNL     1       2.168  -4.222  41.840  1.00  0.00    -0.369 N 
ATOM     13  H   UNL     1       2.770  -3.550  41.314  1.00  0.00     0.159 HD
ATOM     14  H   UNL     1       2.187  -5.232  41.576  1.00  0.00     0.159 HD
ENDBRANCH   1  10
TORSDOF 4
ENDMDL
MODEL 5
REMARK VINA RESULT:    -2.903     12.550     13.938
REMARK INTER + INTRA:          -3.773
REMARK INTER:                  -3.488
REMARK INTRA:                  -0.285
REMARK UNBOUND:                -0.276
REMARK SMILES NC(=O)C[C@H]([NH3+])C(=O)[O-]
REMARK SMILES IDX 4 1 5 2 6 3 7 7 8 8 9 9 2 10 3 11 1 12
REMARK H PARENT 6 4 6 5 6 6 1 13 1 14
REMARK Flexibility Score: inf
ROOT
ATOM      1  C   UNL     1       1.370  -1.867  43.423  1.00  0.00     0.171 C 
ENDROOT
BRANCH   1   2
ATOM      2  C   UNL     1       0.175  -2.034  44.387  1.00  0.00     0.237 C 
BRANCH   2   3
ATOM      3  N   UNL     1      -1.072  -2.323  43.665  1.00  0.00    -0.350 N 
ATOM      4  H   UNL     1      -1.091  -3.311  43.322  1.00  0.00     0.345 HD
ATOM      5  H   UNL     1      -1.892  -2.164  44.294  1.00  0.00     0.345 HD
ATOM      6  H   UNL     1      -1.159  -1.679  42.845  1.00  0.00     0.345 HD
ENDBRANCH   2   3
BRANCH   2   7
ATOM      7  C   UNL     1       0.018  -0.831  45.284  1.00  0.00     0.100 C 
ATOM      8  O   UNL     1      -1.020  -0.701  45.985  1.00  0.00    -0.544 OA
ATOM      9  O   UNL     1       1.034   0.112  45.385  1.00  0.00    -0.544 OA
ENDBRANCH   2   7
ENDBRANCH   1   2
BRANCH   1  10
ATOM     10  C   UNL     1       1.352  -2.844  42.281  1.00  0.00     0.223 C 
ATOM     11  O   UNL     1       0.728  -2.562  41.223  1.00  0.00    -0.275 OA
ATOM     12  N   UNL     1       2.021  -4.101  42.391  1.00  0.00    -0.369 N 
ATOM     13  H   UNL     1       2.536  -4.356  43.263  1.00  0.00     0.159 HD
ATOM     14  H   UNL     1       1.998  -4.781  41.599  1.00  0.00     0.159 HD
ENDBRANCH   1  10
TORSDOF 4
ENDMDL
MODEL 6
REMARK VINA RESULT:    -2.867     13.189     14.202
REMARK INTER + INTRA:          -3.729
REMARK INTER:                  -3.457
REMARK INTRA:                  -0.272
REMARK UNBOUND:                -0.276
REMARK SMILES NC(=O)C[C@H]([NH3+])C(=O)[O-]
REMARK SMILES IDX 4 1 5 2 6 3 7 7 8 8 9 9 2 10 3 11 1 12
REMARK H PARENT 6 4 6 5 6 6 1 13 1 14
REMARK Flexibility Score: inf
ROOT
ATOM      1  C   UNL     1       0.549  -0.380  43.493  1.00  0.00     0.171 C 
ENDROOT
BRANCH   1   2
ATOM      2  C   UNL     1       0.352  -1.747  42.802  1.00  0.00     0.237 C 
BRANCH   2   3
ATOM      3  N   UNL     1       1.298  -2.753  43.303  1.00  0.00    -0.350 N 
ATOM      4  H   UNL     1       1.387  -3.555  42.638  1.00  0.00     0.345 HD
ATOM      5  H   UNL     1       2.239  -2.318  43.442  1.00  0.00     0.345 HD
ATOM      6  H   UNL     1       0.966  -3.116  44.227  1.00  0.00     0.345 HD
ENDBRANCH   2   3
BRANCH   2   7
ATOM      7  C   UNL     1       0.433  -1.623  41.301  1.00  0.00     0.100 C 
ATOM      8  O   UNL     1       0.043  -0.567  40.736  1.00  0.00    -0.544 OA
ATOM      9  O   UNL     1       0.985  -2.643  40.535  1.00  0.00    -0.544 OA
ENDBRANCH   2   7
ENDBRANCH   1   2
BRANCH   1  10
ATOM     10  C   UNL     1       0.621  -0.478  44.991  1.00  0.00     0.223 C 
ATOM     11  O   UNL     1       1.738  -0.619  45.558  1.00  0.00    -0.275 OA
ATOM     12  N   UNL     1      -0.569  -0.430  45.779  1.00  0.00    -0.369 N 
ATOM     13  H   UNL     1      -1.504  -0.322  45.327  1.00  0.00     0.159 HD
ATOM     14  H   UNL     1      -0.515  -0.508  46.819  1.00  0.00     0.159 HD
ENDBRANCH   1  10
TORSDOF 4
ENDMDL
MODEL 7
REMARK VINA RESULT:    -2.850     11.185     12.390
REMARK INTER + INTRA:          -3.709
REMARK INTER:                  -3.210
REMARK INTRA:                  -0.500
REMARK UNBOUND:                -0.276
REMARK SMILES NC(=O)C[C@H]([NH3+])C(=O)[O-]
REMARK SMILES IDX 4 1 5 2 6 3 7 7 8 8 9 9 2 10 3 11 1 12
REMARK H PARENT 6 4 6 5 6 6 1 13 1 14
REMARK Flexibility Score: inf
ROOT
ATOM      1  C   UNL     1       1.016  -1.978  46.175  1.00  0.00     0.171 C 
ENDROOT
BRANCH   1   2
ATOM      2  C   UNL     1       0.525  -0.720  45.425  1.00  0.00     0.237 C 
BRANCH   2   3
ATOM      3  N   UNL     1      -0.907  -0.478  45.645  1.00  0.00    -0.350 N 
ATOM      4  H   UNL     1      -1.244  -0.955  46.513  1.00  0.00     0.345 HD
ATOM      5  H   UNL     1      -1.085   0.549  45.728  1.00  0.00     0.345 HD
ATOM      6  H   UNL     1      -1.452  -0.839  44.828  1.00  0.00     0.345 HD
ENDBRANCH   2   3
BRANCH   2   7
ATOM      7  C   UNL     1       0.846  -0.796  43.954  1.00  0.00     0.100 C 
ATOM      8  O   UNL     1       0.636   0.200  43.213  1.00  0.00    -0.544 OA
ATOM      9  O   UNL     1       1.421  -1.940  43.413  1.00  0.00    -0.544 OA
ENDBRANCH   2   7
ENDBRANCH   1   2
BRANCH   1  10
ATOM     10  C   UNL     1      -0.020  -3.065  46.249  1.00  0.00     0.223 C 
ATOM     11  O   UNL     1      -0.822  -3.103  47.220  1.00  0.00    -0.275 OA
ATOM     12  N   UNL     1      -0.090  -4.070  45.236  1.00  0.00    -0.369 N 
ATOM     13  H   UNL     1       0.571  -4.060  44.428  1.00  0.00     0.159 HD
ATOM     14  H   UNL     1      -0.805  -4.829  45.297  1.00  0.00     0.159 HD
ENDBRANCH   1  10
TORSDOF 4
ENDMDL
MODEL 8
REMARK VINA RESULT:    -2.765     12.290     13.166
REMARK INTER + INTRA:          -3.606
REMARK INTER:                  -3.316
REMARK INTRA:                  -0.290
REMARK UNBOUND:                -0.276
REMARK SMILES NC(=O)C[C@H]([NH3+])C(=O)[O-]
REMARK SMILES IDX 4 1 5 2 6 3 7 7 8 8 9 9 2 10 3 11 1 12
REMARK H PARENT 6 4 6 5 6 6 1 13 1 14
REMARK Flexibility Score: inf
ROOT
ATOM      1  C   UNL     1       1.321  -1.602  43.786  1.00  0.00     0.171 C 
ENDROOT
BRANCH   1   2
ATOM      2  C   UNL     1       0.709  -3.019  43.726  1.00  0.00     0.237 C 
BRANCH   2   3
ATOM      3  N   UNL     1       1.548  -3.943  42.950  1.00  0.00    -0.350 N 
ATOM      4  H   UNL     1       1.042  -4.296  42.105  1.00  0.00     0.345 HD
ATOM      5  H   UNL     1       2.423  -3.457  42.646  1.00  0.00     0.345 HD
ATOM      6  H   UNL     1       1.817  -4.758  43.548  1.00  0.00     0.345 HD
ENDBRANCH   2   3
BRANCH   2   7
ATOM      7  C   UNL     1      -0.702  -2.987  43.194  1.00  0.00     0.100 C 
ATOM      8  O   UNL     1      -0.960  -3.486  42.067  1.00  0.00    -0.544 OA
ATOM      9  O   UNL     1      -1.735  -2.458  43.960  1.00  0.00    -0.544 OA
ENDBRANCH   2   7
ENDBRANCH   1   2
BRANCH   1  10
ATOM     10  C   UNL     1       1.207  -0.964  45.142  1.00  0.00     0.223 C 
ATOM     11  O   UNL     1       2.182  -1.007  45.940  1.00  0.00    -0.275 OA
ATOM     12  N   UNL     1      -0.005  -0.325  45.545  1.00  0.00    -0.369 N 
ATOM     13  H   UNL     1      -0.826  -0.287  44.901  1.00  0.00     0.159 HD
ATOM     14  H   UNL     1      -0.083   0.108  46.491  1.00  0.00     0.159 HD
ENDBRANCH   1  10
TORSDOF 4
ENDMDL
MODEL 9
REMARK VINA RESULT:    -2.754      1.631      4.042
REMARK INTER + INTRA:          -3.593
REMARK INTER:                  -3.490
REMARK INTRA:                  -0.103
REMARK UNBOUND:                -0.276
REMARK SMILES NC(=O)C[C@H]([NH3+])C(=O)[O-]
REMARK SMILES IDX 4 1 5 2 6 3 7 7 8 8 9 9 2 10 3 11 1 12
REMARK H PARENT 6 4 6 5 6 6 1 13 1 14
REMARK Flexibility Score: inf
ROOT
ATOM      1  C   UNL     1      -0.842  -5.105  55.972  1.00  0.00     0.171 C 
ENDROOT
BRANCH   1   2
ATOM      2  C   UNL     1       0.125  -4.700  57.107  1.00  0.00     0.237 C 
BRANCH   2   3
ATOM      3  N   UNL     1      -0.192  -5.389  58.365  1.00  0.00    -0.350 N 
ATOM      4  H   UNL     1       0.210  -4.882  59.187  1.00  0.00     0.345 HD
ATOM      5  H   UNL     1      -1.229  -5.458  58.480  1.00  0.00     0.345 HD
ATOM      6  H   UNL     1       0.200  -6.359  58.342  1.00  0.00     0.345 HD
ENDBRANCH   2   3
BRANCH   2   7
ATOM      7  C   UNL     1       0.156  -3.204  57.296  1.00  0.00     0.100 C 
ATOM      8  O   UNL     1      -0.544  -2.463  56.557  1.00  0.00    -0.544 OA
ATOM      9  O   UNL     1       0.910  -2.636  58.317  1.00  0.00    -0.544 OA
ENDBRANCH   2   7
ENDBRANCH   1   2
BRANCH   1  10
ATOM     10  C   UNL     1      -0.169  -5.859  54.860  1.00  0.00     0.223 C 
ATOM     11  O   UNL     1       0.125  -5.266  53.787  1.00  0.00    -0.275 OA
ATOM     12  N   UNL     1       0.125  -7.250  55.000  1.00  0.00    -0.369 N 
ATOM     13  H   UNL     1      -0.118  -7.760  55.878  1.00  0.00     0.159 HD
ATOM     14  H   UNL     1       0.584  -7.772  54.221  1.00  0.00     0.159 HD
ENDBRANCH   1  10
TORSDOF 4
ENDMDL
