MODEL 1
REMARK VINA RESULT:    16.387      0.000      0.000
REMARK INTER + INTRA:          39.689
REMARK INTER:                  41.295
REMARK INTRA:                  -1.606
REMARK UNBOUND:                -1.606
REMARK SMILES CCCCCCCCCCCCCCCCCCCCCCCCCCCC(=O)[O-]
REMARK SMILES IDX 15 1 16 2 17 3 18 4 19 5 20 6 21 7 22 8 23 9 24 10 25 11
REMARK SMILES IDX 26 12 27 13 28 14 29 15 30 16 14 17 13 18 12 19 11 20 10 21
REMARK SMILES IDX 9 22 8 23 7 24 6 25 5 26 4 27 3 28 2 29 1 30
REMARK H PARENT
REMARK Flexibility Score: inf
ROOT
ATOM      1  C   UNL     1      -8.793  24.017 -13.125  1.00  0.00     0.000 C 
ENDROOT
BRANCH   1   2
ATOM      2  C   UNL     1      -8.561  23.154 -11.874  1.00  0.00     0.000 C 
BRANCH   2   3
ATOM      3  C   UNL     1      -9.176  23.765 -10.606  1.00  0.00     0.000 C 
BRANCH   3   4
ATOM      4  C   UNL     1      -9.032  22.820  -9.409  1.00  0.00     0.000 C 
BRANCH   4   5
ATOM      5  C   UNL     1      -9.006  23.609  -8.092  1.00  0.00     0.000 C 
BRANCH   5   6
ATOM      6  C   UNL     1      -8.455  22.784  -6.918  1.00  0.00     0.000 C 
BRANCH   6   7
ATOM      7  C   UNL     1      -7.149  23.372  -6.354  1.00  0.00     0.000 C 
BRANCH   7   8
ATOM      8  C   UNL     1      -7.396  24.581  -5.438  1.00  0.00     0.000 C 
BRANCH   8   9
ATOM      9  C   UNL     1      -8.513  24.327  -4.414  1.00  0.00     0.000 C 
BRANCH   9  10
ATOM     10  C   UNL     1      -9.723  25.256  -4.607  1.00  0.00     0.000 C 
BRANCH  10  11
ATOM     11  C   UNL     1      -9.420  26.498  -5.474  1.00  0.00     0.000 C 
BRANCH  11  12
ATOM     12  C   UNL     1      -9.900  27.804  -4.816  1.00  0.00     0.006 C 
BRANCH  12  13
ATOM     13  C   UNL     1     -11.160  27.597  -3.964  1.00  0.00     0.053 C 
BRANCH  13  14
ATOM     14  C   UNL     1     -12.404  27.512  -4.796  1.00  0.00     0.041 C 
ATOM     15  O   UNL     1     -12.790  26.405  -5.256  1.00  0.00    -0.550 OA
ATOM     16  O   UNL     1     -13.158  28.656  -5.036  1.00  0.00    -0.550 OA
ENDBRANCH  13  14
ENDBRANCH  12  13
ENDBRANCH  11  12
ENDBRANCH  10  11
ENDBRANCH   9  10
ENDBRANCH   8   9
ENDBRANCH   7   8
ENDBRANCH   6   7
ENDBRANCH   5   6
ENDBRANCH   4   5
ENDBRANCH   3   4
ENDBRANCH   2   3
ENDBRANCH   1   2
BRANCH   1  17
ATOM     17  C   UNL     1      -7.822  25.204 -13.292  1.00  0.00     0.000 C 
BRANCH  17  18
ATOM     18  C   UNL     1      -7.377  25.460 -14.750  1.00  0.00     0.000 C 
BRANCH  18  19
ATOM     19  C   UNL     1      -6.909  26.903 -15.039  1.00  0.00     0.000 C 
BRANCH  19  20
ATOM     20  C   UNL     1      -7.895  28.015 -14.626  1.00  0.00     0.000 C 
BRANCH  20  21
ATOM     21  C   UNL     1      -7.682  29.378 -15.310  1.00  0.00     0.000 C 
BRANCH  21  22
ATOM     22  C   UNL     1      -8.958  30.224 -15.498  1.00  0.00    -0.000 C 
BRANCH  22  23
ATOM     23  C   UNL     1      -9.250  30.658 -16.947  1.00  0.00    -0.000 C 
BRANCH  23  24
ATOM     24  C   UNL     1      -9.196  29.492 -17.948  1.00  0.00    -0.000 C 
BRANCH  24  25
ATOM     25  C   UNL     1      -8.075  29.664 -18.987  1.00  0.00    -0.000 C 
BRANCH  25  26
ATOM     26  C   UNL     1      -6.863  28.758 -18.705  1.00  0.00    -0.000 C 
BRANCH  26  27
ATOM     27  C   UNL     1      -6.005  28.512 -19.956  1.00  0.00    -0.000 C 
BRANCH  27  28
ATOM     28  C   UNL     1      -6.858  28.261 -21.212  1.00  0.00    -0.000 C 
BRANCH  28  29
ATOM     29  C   UNL     1      -6.013  28.183 -22.495  1.00  0.00    -0.003 C 
ATOM     30  C   UNL     1      -4.963  27.072 -22.446  1.00  0.00     0.004 C 
ENDBRANCH  28  29
ENDBRANCH  27  28
ENDBRANCH  26  27
ENDBRANCH  25  26
ENDBRANCH  24  25
ENDBRANCH  23  24
ENDBRANCH  22  23
ENDBRANCH  21  22
ENDBRANCH  20  21
ENDBRANCH  19  20
ENDBRANCH  18  19
ENDBRANCH  17  18
ENDBRANCH   1  17
TORSDOF 26
ENDMDL
MODEL 2
REMARK VINA RESULT:    16.844      1.615      2.190
REMARK INTER + INTRA:          40.841
REMARK INTER:                  42.062
REMARK INTRA:                  -1.221
REMARK UNBOUND:                -1.606
REMARK SMILES CCCCCCCCCCCCCCCCCCCCCCCCCCCC(=O)[O-]
REMARK SMILES IDX 15 1 16 2 17 3 18 4 19 5 20 6 21 7 22 8 23 9 24 10 25 11
REMARK SMILES IDX 26 12 27 13 28 14 29 15 30 16 14 17 13 18 12 19 11 20 10 21
REMARK SMILES IDX 9 22 8 23 7 24 6 25 5 26 4 27 3 28 2 29 1 30
REMARK H PARENT
REMARK Flexibility Score: inf
ROOT
ATOM      1  C   UNL     1      -9.202  26.594  -9.567  1.00  0.00     0.000 C 
ENDROOT
BRANCH   1   2
ATOM      2  C   UNL     1      -8.515  25.518 -10.423  1.00  0.00     0.000 C 
BRANCH   2   3
ATOM      3  C   UNL     1      -9.481  24.417 -10.887  1.00  0.00     0.000 C 
BRANCH   3   4
ATOM      4  C   UNL     1      -8.902  23.023 -10.622  1.00  0.00     0.000 C 
BRANCH   4   5
ATOM      5  C   UNL     1      -9.935  22.129  -9.921  1.00  0.00     0.000 C 
BRANCH   5   6
ATOM      6  C   UNL     1      -9.859  22.225  -8.389  1.00  0.00     0.000 C 
BRANCH   6   7
ATOM      7  C   UNL     1      -8.417  22.420  -7.887  1.00  0.00     0.000 C 
BRANCH   7   8
ATOM      8  C   UNL     1      -8.354  22.717  -6.381  1.00  0.00     0.000 C 
BRANCH   8   9
ATOM      9  C   UNL     1      -7.542  23.983  -6.063  1.00  0.00     0.000 C 
BRANCH   9  10
ATOM     10  C   UNL     1      -8.120  24.782  -4.882  1.00  0.00     0.000 C 
BRANCH  10  11
ATOM     11  C   UNL     1      -9.434  25.521  -5.217  1.00  0.00     0.000 C 
BRANCH  11  12
ATOM     12  C   UNL     1      -9.595  26.824  -4.415  1.00  0.00     0.006 C 
BRANCH  12  13
ATOM     13  C   UNL     1     -10.634  27.767  -5.039  1.00  0.00     0.053 C 
BRANCH  13  14
ATOM     14  C   UNL     1     -12.039  27.370  -4.703  1.00  0.00     0.041 C 
ATOM     15  O   UNL     1     -12.698  28.015  -3.845  1.00  0.00    -0.550 OA
ATOM     16  O   UNL     1     -12.636  26.303  -5.367  1.00  0.00    -0.550 OA
ENDBRANCH  13  14
ENDBRANCH  12  13
ENDBRANCH  11  12
ENDBRANCH  10  11
ENDBRANCH   9  10
ENDBRANCH   8   9
ENDBRANCH   7   8
ENDBRANCH   6   7
ENDBRANCH   5   6
ENDBRANCH   4   5
ENDBRANCH   3   4
ENDBRANCH   2   3
ENDBRANCH   1   2
BRANCH   1  17
ATOM     17  C   UNL     1      -8.523  27.979  -9.585  1.00  0.00     0.000 C 
BRANCH  17  18
ATOM     18  C   UNL     1      -7.487  28.164 -10.716  1.00  0.00     0.000 C 
BRANCH  18  19
ATOM     19  C   UNL     1      -7.790  29.325 -11.688  1.00  0.00     0.000 C 
BRANCH  19  20
ATOM     20  C   UNL     1      -7.563  29.015 -13.182  1.00  0.00     0.000 C 
BRANCH  20  21
ATOM     21  C   UNL     1      -8.486  29.762 -14.163  1.00  0.00     0.000 C 
BRANCH  21  22
ATOM     22  C   UNL     1      -8.370  29.323 -15.637  1.00  0.00    -0.000 C 
BRANCH  22  23
ATOM     23  C   UNL     1      -8.542  30.451 -16.672  1.00  0.00    -0.000 C 
BRANCH  23  24
ATOM     24  C   UNL     1      -9.358  30.021 -17.903  1.00  0.00    -0.000 C 
BRANCH  24  25
ATOM     25  C   UNL     1      -8.536  29.163 -18.880  1.00  0.00    -0.000 C 
BRANCH  25  26
ATOM     26  C   UNL     1      -7.090  28.943 -18.402  1.00  0.00    -0.000 C 
BRANCH  26  27
ATOM     27  C   UNL     1      -6.088  28.862 -19.565  1.00  0.00    -0.000 C 
BRANCH  27  28
ATOM     28  C   UNL     1      -6.614  28.009 -20.733  1.00  0.00    -0.000 C 
BRANCH  28  29
ATOM     29  C   UNL     1      -6.051  28.458 -22.093  1.00  0.00    -0.003 C 
ATOM     30  C   UNL     1      -4.984  27.506 -22.634  1.00  0.00     0.004 C 
ENDBRANCH  28  29
ENDBRANCH  27  28
ENDBRANCH  26  27
ENDBRANCH  25  26
ENDBRANCH  24  25
ENDBRANCH  23  24
ENDBRANCH  22  23
ENDBRANCH  21  22
ENDBRANCH  20  21
ENDBRANCH  19  20
ENDBRANCH  18  19
ENDBRANCH  17  18
ENDBRANCH   1  17
TORSDOF 26
ENDMDL
MODEL 3
REMARK VINA RESULT:    17.255      5.095     12.886
REMARK INTER + INTRA:          41.876
REMARK INTER:                  43.110
REMARK INTRA:                  -1.234
REMARK UNBOUND:                -1.606
REMARK SMILES CCCCCCCCCCCCCCCCCCCCCCCCCCCC(=O)[O-]
REMARK SMILES IDX 15 1 16 2 17 3 18 4 19 5 20 6 21 7 22 8 23 9 24 10 25 11
REMARK SMILES IDX 26 12 27 13 28 14 29 15 30 16 14 17 13 18 12 19 11 20 10 21
REMARK SMILES IDX 9 22 8 23 7 24 6 25 5 26 4 27 3 28 2 29 1 30
REMARK H PARENT
REMARK Flexibility Score: inf
ROOT
ATOM      1  C   UNL     1      -9.269  27.070  -9.335  1.00  0.00     0.000 C 
ENDROOT
BRANCH   1   2
ATOM      2  C   UNL     1      -9.284  28.124 -10.454  1.00  0.00     0.000 C 
BRANCH   2   3
ATOM      3  C   UNL     1      -7.946  28.865 -10.593  1.00  0.00     0.000 C 
BRANCH   3   4
ATOM      4  C   UNL     1      -7.470  28.883 -12.049  1.00  0.00     0.000 C 
BRANCH   4   5
ATOM      5  C   UNL     1      -8.178  29.992 -12.840  1.00  0.00     0.000 C 
BRANCH   5   6
ATOM      6  C   UNL     1      -8.399  29.620 -14.315  1.00  0.00     0.000 C 
BRANCH   6   7
ATOM      7  C   UNL     1      -8.952  30.797 -15.137  1.00  0.00     0.000 C 
BRANCH   7   8
ATOM      8  C   UNL     1      -9.388  30.374 -16.548  1.00  0.00     0.000 C 
BRANCH   8   9
ATOM      9  C   UNL     1      -8.716  29.071 -17.008  1.00  0.00     0.000 C 
BRANCH   9  10
ATOM     10  C   UNL     1      -7.181  29.131 -16.931  1.00  0.00     0.000 C 
BRANCH  10  11
ATOM     11  C   UNL     1      -6.472  28.248 -17.982  1.00  0.00     0.000 C 
BRANCH  11  12
ATOM     12  C   UNL     1      -6.580  28.826 -19.403  1.00  0.00     0.006 C 
BRANCH  12  13
ATOM     13  C   UNL     1      -6.678  27.728 -20.472  1.00  0.00     0.053 C 
BRANCH  13  14
ATOM     14  C   UNL     1      -6.199  28.194 -21.814  1.00  0.00     0.041 C 
ATOM     15  O   UNL     1      -6.343  27.466 -22.832  1.00  0.00    -0.550 OA
ATOM     16  O   UNL     1      -5.620  29.452 -21.946  1.00  0.00    -0.550 OA
ENDBRANCH  13  14
ENDBRANCH  12  13
ENDBRANCH  11  12
ENDBRANCH  10  11
ENDBRANCH   9  10
ENDBRANCH   8   9
ENDBRANCH   7   8
ENDBRANCH   6   7
ENDBRANCH   5   6
ENDBRANCH   4   5
ENDBRANCH   3   4
ENDBRANCH   2   3
ENDBRANCH   1   2
BRANCH   1  17
ATOM     17  C   UNL     1      -8.596  25.732  -9.703  1.00  0.00     0.000 C 
BRANCH  17  18
ATOM     18  C   UNL     1      -9.444  24.826 -10.624  1.00  0.00     0.000 C 
BRANCH  18  19
ATOM     19  C   UNL     1      -8.906  23.388 -10.792  1.00  0.00     0.000 C 
BRANCH  19  20
ATOM     20  C   UNL     1      -9.675  22.298 -10.017  1.00  0.00     0.000 C 
BRANCH  20  21
ATOM     21  C   UNL     1      -9.052  21.876  -8.673  1.00  0.00     0.000 C 
BRANCH  21  22
ATOM     22  C   UNL     1      -9.093  22.949  -7.566  1.00  0.00    -0.000 C 
BRANCH  22  23
ATOM     23  C   UNL     1      -8.159  22.690  -6.368  1.00  0.00    -0.000 C 
BRANCH  23  24
ATOM     24  C   UNL     1      -7.445  23.960  -5.875  1.00  0.00    -0.000 C 
BRANCH  24  25
ATOM     25  C   UNL     1      -8.389  24.903  -5.109  1.00  0.00    -0.000 C 
BRANCH  25  26
ATOM     26  C   UNL     1      -8.868  26.087  -5.967  1.00  0.00    -0.000 C 
BRANCH  26  27
ATOM     27  C   UNL     1      -9.420  27.246  -5.120  1.00  0.00    -0.000 C 
BRANCH  27  28
ATOM     28  C   UNL     1     -10.575  26.804  -4.204  1.00  0.00    -0.000 C 
BRANCH  28  29
ATOM     29  C   UNL     1     -11.935  27.358  -4.659  1.00  0.00    -0.003 C 
ATOM     30  C   UNL     1     -12.740  26.352  -5.483  1.00  0.00     0.004 C 
ENDBRANCH  28  29
ENDBRANCH  27  28
ENDBRANCH  26  27
ENDBRANCH  25  26
ENDBRANCH  24  25
ENDBRANCH  23  24
ENDBRANCH  22  23
ENDBRANCH  21  22
ENDBRANCH  20  21
ENDBRANCH  19  20
ENDBRANCH  18  19
ENDBRANCH  17  18
ENDBRANCH   1  17
TORSDOF 26
ENDMDL
MODEL 4
REMARK VINA RESULT:    17.454      2.952     12.521
REMARK INTER + INTRA:          42.379
REMARK INTER:                  43.722
REMARK INTRA:                  -1.343
REMARK UNBOUND:                -1.606
REMARK SMILES CCCCCCCCCCCCCCCCCCCCCCCCCCCC(=O)[O-]
REMARK SMILES IDX 15 1 16 2 17 3 18 4 19 5 20 6 21 7 22 8 23 9 24 10 25 11
REMARK SMILES IDX 26 12 27 13 28 14 29 15 30 16 14 17 13 18 12 19 11 20 10 21
REMARK SMILES IDX 9 22 8 23 7 24 6 25 5 26 4 27 3 28 2 29 1 30
REMARK H PARENT
REMARK Flexibility Score: inf
ROOT
ATOM      1  C   UNL     1      -7.752  25.428 -14.121  1.00  0.00     0.000 C 
ENDROOT
BRANCH   1   2
ATOM      2  C   UNL     1      -6.957  26.709 -14.422  1.00  0.00     0.000 C 
BRANCH   2   3
ATOM      3  C   UNL     1      -7.257  27.284 -15.814  1.00  0.00     0.000 C 
BRANCH   3   4
ATOM      4  C   UNL     1      -5.973  27.743 -16.513  1.00  0.00     0.000 C 
BRANCH   4   5
ATOM      5  C   UNL     1      -6.299  28.639 -17.717  1.00  0.00     0.000 C 
BRANCH   5   6
ATOM      6  C   UNL     1      -6.377  27.853 -19.035  1.00  0.00     0.000 C 
BRANCH   6   7
ATOM      7  C   UNL     1      -5.800  28.646 -20.222  1.00  0.00     0.000 C 
BRANCH   7   8
ATOM      8  C   UNL     1      -6.866  29.487 -20.940  1.00  0.00     0.000 C 
BRANCH   8   9
ATOM      9  C   UNL     1      -8.296  29.100 -20.533  1.00  0.00     0.000 C 
BRANCH   9  10
ATOM     10  C   UNL     1      -8.976  30.164 -19.654  1.00  0.00     0.000 C 
BRANCH  10  11
ATOM     11  C   UNL     1      -9.838  29.571 -18.518  1.00  0.00     0.000 C 
BRANCH  11  12
ATOM     12  C   UNL     1      -9.174  29.723 -17.138  1.00  0.00     0.006 C 
BRANCH  12  13
ATOM     13  C   UNL     1      -9.023  31.194 -16.724  1.00  0.00     0.053 C 
BRANCH  13  14
ATOM     14  C   UNL     1      -8.968  31.365 -15.236  1.00  0.00     0.041 C 
ATOM     15  O   UNL     1      -8.963  30.360 -14.477  1.00  0.00    -0.550 OA
ATOM     16  O   UNL     1      -8.888  32.641 -14.687  1.00  0.00    -0.550 OA
ENDBRANCH  13  14
ENDBRANCH  12  13
ENDBRANCH  11  12
ENDBRANCH  10  11
ENDBRANCH   9  10
ENDBRANCH   8   9
ENDBRANCH   7   8
ENDBRANCH   6   7
ENDBRANCH   5   6
ENDBRANCH   4   5
ENDBRANCH   3   4
ENDBRANCH   2   3
ENDBRANCH   1   2
BRANCH   1  17
ATOM     17  C   UNL     1      -7.646  24.915 -12.670  1.00  0.00     0.000 C 
BRANCH  17  18
ATOM     18  C   UNL     1      -8.588  23.734 -12.344  1.00  0.00     0.000 C 
BRANCH  18  19
ATOM     19  C   UNL     1      -9.003  23.629 -10.860  1.00  0.00     0.000 C 
BRANCH  19  20
ATOM     20  C   UNL     1      -9.532  22.249 -10.416  1.00  0.00     0.000 C 
BRANCH  20  21
ATOM     21  C   UNL     1      -9.653  22.043  -8.894  1.00  0.00     0.000 C 
BRANCH  21  22
ATOM     22  C   UNL     1      -8.919  23.090  -8.031  1.00  0.00    -0.000 C 
BRANCH  22  23
ATOM     23  C   UNL     1      -8.589  22.640  -6.596  1.00  0.00    -0.000 C 
BRANCH  23  24
ATOM     24  C   UNL     1      -7.180  23.060  -6.141  1.00  0.00    -0.000 C 
BRANCH  24  25
ATOM     25  C   UNL     1      -7.150  24.488  -5.571  1.00  0.00    -0.000 C 
BRANCH  25  26
ATOM     26  C   UNL     1      -8.409  24.826  -4.754  1.00  0.00    -0.000 C 
BRANCH  26  27
ATOM     27  C   UNL     1      -9.172  26.037  -5.315  1.00  0.00    -0.000 C 
BRANCH  27  28
ATOM     28  C   UNL     1     -10.599  26.145  -4.748  1.00  0.00    -0.000 C 
BRANCH  28  29
ATOM     29  C   UNL     1     -10.972  27.585  -4.358  1.00  0.00    -0.003 C 
ATOM     30  C   UNL     1     -12.473  27.857  -4.466  1.00  0.00     0.004 C 
ENDBRANCH  28  29
ENDBRANCH  27  28
ENDBRANCH  26  27
ENDBRANCH  25  26
ENDBRANCH  24  25
ENDBRANCH  23  24
ENDBRANCH  22  23
ENDBRANCH  21  22
ENDBRANCH  20  21
ENDBRANCH  19  20
ENDBRANCH  18  19
ENDBRANCH  17  18
ENDBRANCH   1  17
TORSDOF 26
ENDMDL
MODEL 5
REMARK VINA RESULT:    17.491      3.053     12.288
REMARK INTER + INTRA:          42.471
REMARK INTER:                  41.102
REMARK INTRA:                   1.369
REMARK UNBOUND:                -1.606
REMARK SMILES CCCCCCCCCCCCCCCCCCCCCCCCCCCC(=O)[O-]
REMARK SMILES IDX 15 1 16 2 17 3 18 4 19 5 20 6 21 7 22 8 23 9 24 10 25 11
REMARK SMILES IDX 26 12 27 13 28 14 29 15 30 16 14 17 13 18 12 19 11 20 10 21
REMARK SMILES IDX 9 22 8 23 7 24 6 25 5 26 4 27 3 28 2 29 1 30
REMARK H PARENT
REMARK Flexibility Score: inf
ROOT
ATOM      1  C   UNL     1      -8.901  24.241 -12.088  1.00  0.00     0.000 C 
ENDROOT
BRANCH   1   2
ATOM      2  C   UNL     1      -7.662  24.688 -12.881  1.00  0.00     0.000 C 
BRANCH   2   3
ATOM      3  C   UNL     1      -8.020  25.427 -14.180  1.00  0.00     0.000 C 
BRANCH   3   4
ATOM      4  C   UNL     1      -6.770  26.003 -14.853  1.00  0.00     0.000 C 
BRANCH   4   5
ATOM      5  C   UNL     1      -7.130  27.211 -15.728  1.00  0.00     0.000 C 
BRANCH   5   6
ATOM      6  C   UNL     1      -5.963  27.668 -16.618  1.00  0.00     0.000 C 
BRANCH   6   7
ATOM      7  C   UNL     1      -6.397  28.717 -17.657  1.00  0.00     0.000 C 
BRANCH   7   8
ATOM      8  C   UNL     1      -6.117  28.267 -19.098  1.00  0.00     0.000 C 
BRANCH   8   9
ATOM      9  C   UNL     1      -7.008  28.986 -20.124  1.00  0.00     0.000 C 
BRANCH   9  10
ATOM     10  C   UNL     1      -8.357  29.432 -19.535  1.00  0.00     0.000 C 
BRANCH  10  11
ATOM     11  C   UNL     1      -8.399  29.408 -17.992  1.00  0.00     0.000 C 
BRANCH  11  12
ATOM     12  C   UNL     1      -9.677  30.054 -17.430  1.00  0.00     0.006 C 
BRANCH  12  13
ATOM     13  C   UNL     1      -9.442  31.495 -16.956  1.00  0.00     0.053 C 
BRANCH  13  14
ATOM     14  C   UNL     1      -9.051  31.564 -15.510  1.00  0.00     0.041 C 
ATOM     15  O   UNL     1      -8.680  32.654 -15.001  1.00  0.00    -0.550 OA
ATOM     16  O   UNL     1      -9.131  30.426 -14.715  1.00  0.00    -0.550 OA
ENDBRANCH  13  14
ENDBRANCH  12  13
ENDBRANCH  11  12
ENDBRANCH  10  11
ENDBRANCH   9  10
ENDBRANCH   8   9
ENDBRANCH   7   8
ENDBRANCH   6   7
ENDBRANCH   5   6
ENDBRANCH   4   5
ENDBRANCH   3   4
ENDBRANCH   2   3
ENDBRANCH   1   2
BRANCH   1  17
ATOM     17  C   UNL     1      -8.872  22.779 -11.596  1.00  0.00     0.000 C 
BRANCH  17  18
ATOM     18  C   UNL     1      -9.768  22.505 -10.367  1.00  0.00     0.000 C 
BRANCH  18  19
ATOM     19  C   UNL     1      -9.014  22.005  -9.116  1.00  0.00     0.000 C 
BRANCH  19  20
ATOM     20  C   UNL     1      -9.726  22.255  -7.770  1.00  0.00     0.000 C 
BRANCH  20  21
ATOM     21  C   UNL     1      -8.798  22.509  -6.566  1.00  0.00     0.000 C 
BRANCH  21  22
ATOM     22  C   UNL     1      -7.964  23.803  -6.644  1.00  0.00    -0.000 C 
BRANCH  22  23
ATOM     23  C   UNL     1      -7.657  24.468  -5.289  1.00  0.00    -0.000 C 
BRANCH  23  24
ATOM     24  C   UNL     1      -8.842  25.274  -4.730  1.00  0.00    -0.000 C 
BRANCH  24  25
ATOM     25  C   UNL     1      -9.293  26.391  -5.687  1.00  0.00    -0.000 C 
BRANCH  25  26
ATOM     26  C   UNL     1      -9.597  27.710  -4.956  1.00  0.00    -0.000 C 
BRANCH  26  27
ATOM     27  C   UNL     1     -10.661  27.545  -3.858  1.00  0.00    -0.000 C 
BRANCH  27  28
ATOM     28  C   UNL     1     -12.091  27.733  -4.394  1.00  0.00    -0.000 C 
BRANCH  28  29
ATOM     29  C   UNL     1     -12.393  26.829  -5.602  1.00  0.00    -0.003 C 
ATOM     30  C   UNL     1     -12.474  25.349  -5.228  1.00  0.00     0.004 C 
ENDBRANCH  28  29
ENDBRANCH  27  28
ENDBRANCH  26  27
ENDBRANCH  25  26
ENDBRANCH  24  25
ENDBRANCH  23  24
ENDBRANCH  22  23
ENDBRANCH  21  22
ENDBRANCH  20  21
ENDBRANCH  19  20
ENDBRANCH  18  19
ENDBRANCH  17  18
ENDBRANCH   1  17
TORSDOF 26
ENDMDL
MODEL 6
REMARK VINA RESULT:    17.551      1.226      3.796
REMARK INTER + INTRA:          42.622
REMARK INTER:                  43.583
REMARK INTRA:                  -0.962
REMARK UNBOUND:                -1.606
REMARK SMILES CCCCCCCCCCCCCCCCCCCCCCCCCCCC(=O)[O-]
REMARK SMILES IDX 15 1 16 2 17 3 18 4 19 5 20 6 21 7 22 8 23 9 24 10 25 11
REMARK SMILES IDX 26 12 27 13 28 14 29 15 30 16 14 17 13 18 12 19 11 20 10 21
REMARK SMILES IDX 9 22 8 23 7 24 6 25 5 26 4 27 3 28 2 29 1 30
REMARK H PARENT
REMARK Flexibility Score: inf
ROOT
ATOM      1  C   UNL     1      -7.469  25.552 -13.491  1.00  0.00     0.000 C 
ENDROOT
BRANCH   1   2
ATOM      2  C   UNL     1      -8.659  24.613 -13.236  1.00  0.00     0.000 C 
BRANCH   2   3
ATOM      3  C   UNL     1      -8.632  23.983 -11.835  1.00  0.00     0.000 C 
BRANCH   3   4
ATOM      4  C   UNL     1      -9.080  22.518 -11.877  1.00  0.00     0.000 C 
BRANCH   4   5
ATOM      5  C   UNL     1      -9.838  22.144 -10.595  1.00  0.00     0.000 C 
BRANCH   5   6
ATOM      6  C   UNL     1      -9.052  22.489  -9.320  1.00  0.00     0.000 C 
BRANCH   6   7
ATOM      7  C   UNL     1      -9.798  22.063  -8.042  1.00  0.00     0.000 C 
BRANCH   7   8
ATOM      8  C   UNL     1      -9.050  22.468  -6.763  1.00  0.00     0.000 C 
BRANCH   8   9
ATOM      9  C   UNL     1      -8.193  23.729  -6.955  1.00  0.00     0.000 C 
BRANCH   9  10
ATOM     10  C   UNL     1      -7.173  23.936  -5.822  1.00  0.00     0.000 C 
BRANCH  10  11
ATOM     11  C   UNL     1      -7.683  24.851  -4.687  1.00  0.00     0.000 C 
BRANCH  11  12
ATOM     12  C   UNL     1      -8.714  25.880  -5.182  1.00  0.00     0.006 C 
BRANCH  12  13
ATOM     13  C   UNL     1     -10.122  25.603  -4.635  1.00  0.00     0.053 C 
BRANCH  13  14
ATOM     14  C   UNL     1     -11.007  26.811  -4.701  1.00  0.00     0.041 C 
ATOM     15  O   UNL     1     -12.209  26.703  -5.062  1.00  0.00    -0.550 OA
ATOM     16  O   UNL     1     -10.511  28.056  -4.328  1.00  0.00    -0.550 OA
ENDBRANCH  13  14
ENDBRANCH  12  13
ENDBRANCH  11  12
ENDBRANCH  10  11
ENDBRANCH   9  10
ENDBRANCH   8   9
ENDBRANCH   7   8
ENDBRANCH   6   7
ENDBRANCH   5   6
ENDBRANCH   4   5
ENDBRANCH   3   4
ENDBRANCH   2   3
ENDBRANCH   1   2
BRANCH   1  17
ATOM     17  C   UNL     1      -7.060  25.707 -14.970  1.00  0.00     0.000 C 
BRANCH  17  18
ATOM     18  C   UNL     1      -7.104  27.161 -15.492  1.00  0.00     0.000 C 
BRANCH  18  19
ATOM     19  C   UNL     1      -5.952  27.540 -16.447  1.00  0.00     0.000 C 
BRANCH  19  20
ATOM     20  C   UNL     1      -6.321  28.534 -17.569  1.00  0.00     0.000 C 
BRANCH  20  21
ATOM     21  C   UNL     1      -6.237  27.977 -19.002  1.00  0.00     0.000 C 
BRANCH  21  22
ATOM     22  C   UNL     1      -5.902  29.016 -20.091  1.00  0.00    -0.000 C 
BRANCH  22  23
ATOM     23  C   UNL     1      -6.980  29.202 -21.175  1.00  0.00    -0.000 C 
BRANCH  23  24
ATOM     24  C   UNL     1      -8.413  29.080 -20.627  1.00  0.00    -0.000 C 
BRANCH  24  25
ATOM     25  C   UNL     1      -8.741  30.176 -19.598  1.00  0.00    -0.000 C 
BRANCH  25  26
ATOM     26  C   UNL     1      -9.453  29.623 -18.351  1.00  0.00    -0.000 C 
BRANCH  26  27
ATOM     27  C   UNL     1      -8.724  29.982 -17.046  1.00  0.00    -0.000 C 
BRANCH  27  28
ATOM     28  C   UNL     1      -9.205  31.319 -16.456  1.00  0.00    -0.000 C 
BRANCH  28  29
ATOM     29  C   UNL     1      -9.346  31.272 -14.925  1.00  0.00    -0.003 C 
ATOM     30  C   UNL     1      -8.676  30.045 -14.305  1.00  0.00     0.004 C 
ENDBRANCH  28  29
ENDBRANCH  27  28
ENDBRANCH  26  27
ENDBRANCH  25  26
ENDBRANCH  24  25
ENDBRANCH  23  24
ENDBRANCH  22  23
ENDBRANCH  21  22
ENDBRANCH  20  21
ENDBRANCH  19  20
ENDBRANCH  18  19
ENDBRANCH  17  18
ENDBRANCH   1  17
TORSDOF 26
ENDMDL
MODEL 7
REMARK VINA RESULT:    17.590      1.985      3.010
REMARK INTER + INTRA:          42.721
REMARK INTER:                  42.382
REMARK INTRA:                   0.339
REMARK UNBOUND:                -1.606
REMARK SMILES CCCCCCCCCCCCCCCCCCCCCCCCCCCC(=O)[O-]
REMARK SMILES IDX 15 1 16 2 17 3 18 4 19 5 20 6 21 7 22 8 23 9 24 10 25 11
REMARK SMILES IDX 26 12 27 13 28 14 29 15 30 16 14 17 13 18 12 19 11 20 10 21
REMARK SMILES IDX 9 22 8 23 7 24 6 25 5 26 4 27 3 28 2 29 1 30
REMARK H PARENT
REMARK Flexibility Score: inf
ROOT
ATOM      1  C   UNL     1      -8.663  29.108 -12.224  1.00  0.00     0.000 C 
ENDROOT
BRANCH   1   2
ATOM      2  C   UNL     1      -7.820  29.088 -10.939  1.00  0.00     0.000 C 
BRANCH   2   3
ATOM      3  C   UNL     1      -7.809  27.712 -10.255  1.00  0.00     0.000 C 
BRANCH   3   4
ATOM      4  C   UNL     1      -9.178  27.381  -9.654  1.00  0.00     0.000 C 
BRANCH   4   5
ATOM      5  C   UNL     1      -9.025  26.519  -8.392  1.00  0.00     0.000 C 
BRANCH   5   6
ATOM      6  C   UNL     1      -8.225  25.232  -8.647  1.00  0.00     0.000 C 
BRANCH   6   7
ATOM      7  C   UNL     1      -7.174  24.972  -7.554  1.00  0.00     0.000 C 
BRANCH   7   8
ATOM      8  C   UNL     1      -7.696  24.046  -6.445  1.00  0.00     0.000 C 
BRANCH   8   9
ATOM      9  C   UNL     1      -8.151  24.818  -5.197  1.00  0.00     0.000 C 
BRANCH   9  10
ATOM     10  C   UNL     1      -9.531  24.368  -4.686  1.00  0.00     0.000 C 
BRANCH  10  11
ATOM     11  C   UNL     1     -10.445  25.537  -4.257  1.00  0.00     0.000 C 
BRANCH  11  12
ATOM     12  C   UNL     1      -9.729  26.896  -4.322  1.00  0.00     0.006 C 
BRANCH  12  13
ATOM     13  C   UNL     1     -10.674  28.033  -4.735  1.00  0.00     0.053 C 
BRANCH  13  14
ATOM     14  C   UNL     1     -12.104  27.590  -4.804  1.00  0.00     0.041 C 
ATOM     15  O   UNL     1     -13.039  28.430  -4.717  1.00  0.00    -0.550 OA
ATOM     16  O   UNL     1     -12.405  26.246  -4.998  1.00  0.00    -0.550 OA
ENDBRANCH  13  14
ENDBRANCH  12  13
ENDBRANCH  11  12
ENDBRANCH  10  11
ENDBRANCH   9  10
ENDBRANCH   8   9
ENDBRANCH   7   8
ENDBRANCH   6   7
ENDBRANCH   5   6
ENDBRANCH   4   5
ENDBRANCH   3   4
ENDBRANCH   2   3
ENDBRANCH   1   2
BRANCH   1  17
ATOM     17  C   UNL     1      -7.963  29.713 -13.459  1.00  0.00     0.000 C 
BRANCH  17  18
ATOM     18  C   UNL     1      -8.921  30.400 -14.458  1.00  0.00     0.000 C 
BRANCH  18  19
ATOM     19  C   UNL     1      -8.574  31.870 -14.780  1.00  0.00     0.000 C 
BRANCH  19  20
ATOM     20  C   UNL     1      -9.228  32.441 -16.056  1.00  0.00     0.000 C 
BRANCH  20  21
ATOM     21  C   UNL     1      -9.042  31.597 -17.331  1.00  0.00     0.000 C 
BRANCH  21  22
ATOM     22  C   UNL     1      -9.512  30.132 -17.222  1.00  0.00    -0.000 C 
BRANCH  22  23
ATOM     23  C   UNL     1      -8.692  29.118 -18.041  1.00  0.00    -0.000 C 
BRANCH  23  24
ATOM     24  C   UNL     1      -7.388  28.693 -17.344  1.00  0.00    -0.000 C 
BRANCH  24  25
ATOM     25  C   UNL     1      -6.142  29.012 -18.189  1.00  0.00    -0.000 C 
BRANCH  25  26
ATOM     26  C   UNL     1      -6.042  28.136 -19.450  1.00  0.00    -0.000 C 
BRANCH  26  27
ATOM     27  C   UNL     1      -5.801  28.961 -20.725  1.00  0.00    -0.000 C 
BRANCH  27  28
ATOM     28  C   UNL     1      -6.738  28.550 -21.874  1.00  0.00    -0.000 C 
BRANCH  28  29
ATOM     29  C   UNL     1      -5.976  27.978 -23.082  1.00  0.00    -0.003 C 
ATOM     30  C   UNL     1      -4.898  26.971 -22.679  1.00  0.00     0.004 C 
ENDBRANCH  28  29
ENDBRANCH  27  28
ENDBRANCH  26  27
ENDBRANCH  25  26
ENDBRANCH  24  25
ENDBRANCH  23  24
ENDBRANCH  22  23
ENDBRANCH  21  22
ENDBRANCH  20  21
ENDBRANCH  19  20
ENDBRANCH  18  19
ENDBRANCH  17  18
ENDBRANCH   1  17
TORSDOF 26
ENDMDL
MODEL 8
REMARK VINA RESULT:    17.602      1.047      2.197
REMARK INTER + INTRA:          42.751
REMARK INTER:                  43.638
REMARK INTRA:                  -0.887
REMARK UNBOUND:                -1.606
REMARK SMILES CCCCCCCCCCCCCCCCCCCCCCCCCCCC(=O)[O-]
REMARK SMILES IDX 15 1 16 2 17 3 18 4 19 5 20 6 21 7 22 8 23 9 24 10 25 11
REMARK SMILES IDX 26 12 27 13 28 14 29 15 30 16 14 17 13 18 12 19 11 20 10 21
REMARK SMILES IDX 9 22 8 23 7 24 6 25 5 26 4 27 3 28 2 29 1 30
REMARK H PARENT
REMARK Flexibility Score: inf
ROOT
ATOM      1  C   UNL     1      -7.575  26.007 -14.005  1.00  0.00     0.000 C 
ENDROOT
BRANCH   1   2
ATOM      2  C   UNL     1      -8.074  24.571 -13.778  1.00  0.00     0.000 C 
BRANCH   2   3
ATOM      3  C   UNL     1      -9.140  24.478 -12.676  1.00  0.00     0.000 C 
BRANCH   3   4
ATOM      4  C   UNL     1      -8.615  23.708 -11.459  1.00  0.00     0.000 C 
BRANCH   4   5
ATOM      5  C   UNL     1      -9.392  22.399 -11.266  1.00  0.00     0.000 C 
BRANCH   5   6
ATOM      6  C   UNL     1      -9.982  22.263  -9.853  1.00  0.00     0.000 C 
BRANCH   6   7
ATOM      7  C   UNL     1      -8.903  21.964  -8.796  1.00  0.00     0.000 C 
BRANCH   7   8
ATOM      8  C   UNL     1      -9.262  22.528  -7.414  1.00  0.00     0.000 C 
BRANCH   8   9
ATOM      9  C   UNL     1      -8.072  22.509  -6.442  1.00  0.00     0.000 C 
BRANCH   9  10
ATOM     10  C   UNL     1      -7.398  23.885  -6.296  1.00  0.00     0.000 C 
BRANCH  10  11
ATOM     11  C   UNL     1      -7.899  24.695  -5.080  1.00  0.00     0.000 C 
BRANCH  11  12
ATOM     12  C   UNL     1      -9.338  25.206  -5.268  1.00  0.00     0.006 C 
BRANCH  12  13
ATOM     13  C   UNL     1      -9.492  26.677  -4.855  1.00  0.00     0.053 C 
BRANCH  13  14
ATOM     14  C   UNL     1     -10.919  27.047  -4.587  1.00  0.00     0.041 C 
ATOM     15  O   UNL     1     -11.858  26.335  -5.030  1.00  0.00    -0.550 OA
ATOM     16  O   UNL     1     -11.212  28.166  -3.814  1.00  0.00    -0.550 OA
ENDBRANCH  13  14
ENDBRANCH  12  13
ENDBRANCH  11  12
ENDBRANCH  10  11
ENDBRANCH   9  10
ENDBRANCH   8   9
ENDBRANCH   7   8
ENDBRANCH   6   7
ENDBRANCH   5   6
ENDBRANCH   4   5
ENDBRANCH   3   4
ENDBRANCH   2   3
ENDBRANCH   1   2
BRANCH   1  17
ATOM     17  C   UNL     1      -6.344  26.136 -14.926  1.00  0.00     0.000 C 
BRANCH  17  18
ATOM     18  C   UNL     1      -6.454  27.261 -15.980  1.00  0.00     0.000 C 
BRANCH  18  19
ATOM     19  C   UNL     1      -7.715  28.144 -15.854  1.00  0.00     0.000 C 
BRANCH  19  20
ATOM     20  C   UNL     1      -7.577  29.367 -14.924  1.00  0.00     0.000 C 
BRANCH  20  21
ATOM     21  C   UNL     1      -8.873  30.163 -14.679  1.00  0.00     0.000 C 
BRANCH  21  22
ATOM     22  C   UNL     1      -9.389  30.965 -15.891  1.00  0.00    -0.000 C 
BRANCH  22  23
ATOM     23  C   UNL     1      -9.745  30.123 -17.130  1.00  0.00    -0.000 C 
BRANCH  23  24
ATOM     24  C   UNL     1      -9.042  30.607 -18.410  1.00  0.00    -0.000 C 
BRANCH  24  25
ATOM     25  C   UNL     1      -8.960  29.509 -19.484  1.00  0.00    -0.000 C 
BRANCH  25  26
ATOM     26  C   UNL     1      -7.572  29.428 -20.143  1.00  0.00    -0.000 C 
BRANCH  26  27
ATOM     27  C   UNL     1      -6.603  28.515 -19.373  1.00  0.00    -0.000 C 
BRANCH  27  28
ATOM     28  C   UNL     1      -5.809  27.584 -20.305  1.00  0.00    -0.000 C 
BRANCH  28  29
ATOM     29  C   UNL     1      -5.654  28.159 -21.723  1.00  0.00    -0.003 C 
ATOM     30  C   UNL     1      -6.774  27.718 -22.667  1.00  0.00     0.004 C 
ENDBRANCH  28  29
ENDBRANCH  27  28
ENDBRANCH  26  27
ENDBRANCH  25  26
ENDBRANCH  24  25
ENDBRANCH  23  24
ENDBRANCH  22  23
ENDBRANCH  21  22
ENDBRANCH  20  21
ENDBRANCH  19  20
ENDBRANCH  18  19
ENDBRANCH  17  18
ENDBRANCH   1  17
TORSDOF 26
ENDMDL
