MODEL 1
REMARK VINA RESULT:    -3.368      0.000      0.000
REMARK INTER + INTRA:          -3.578
REMARK INTER:                  -3.565
REMARK INTRA:                  -0.012
REMARK UNBOUND:                -0.012
REMARK SMILES O=Cc1ccccc1
REMARK SMILES IDX 6 1 5 2 4 3 3 4 8 5 7 6 2 7 1 8
REMARK H PARENT
REMARK Flexibility Score: inf
ROOT
ATOM      1  C   UNL     1      -6.514  41.897   5.805  1.00  0.00     0.000 A 
ATOM      2  C   UNL     1      -5.121  41.775   5.776  1.00  0.00     0.001 A 
ATOM      3  C   UNL     1      -4.363  42.137   6.895  1.00  0.00     0.011 A 
ATOM      4  C   UNL     1      -4.993  42.622   8.052  1.00  0.00     0.014 A 
ATOM      5  C   UNL     1      -6.395  42.741   8.073  1.00  0.00     0.011 A 
ATOM      6  C   UNL     1      -7.150  42.379   6.952  1.00  0.00     0.001 A 
ENDROOT
BRANCH   4   7
ATOM      7  C   UNL     1      -4.179  42.998   9.222  1.00  0.00     0.260 C 
ATOM      8  O   UNL     1      -4.666  42.989  10.384  1.00  0.00    -0.298 OA
ENDBRANCH   4   7
TORSDOF 1
ENDMDL
MODEL 2
REMARK VINA RESULT:    -3.317     23.947     24.919
REMARK INTER + INTRA:          -3.523
REMARK INTER:                  -3.512
REMARK INTRA:                  -0.011
REMARK UNBOUND:                -0.012
REMARK SMILES O=Cc1ccccc1
REMARK SMILES IDX 6 1 5 2 4 3 3 4 8 5 7 6 2 7 1 8
REMARK H PARENT
REMARK Flexibility Score: inf
ROOT
ATOM      1  C   UNL     1     -23.320  24.391  11.203  1.00  0.00     0.000 A 
ATOM      2  C   UNL     1     -23.773  23.793  10.024  1.00  0.00     0.001 A 
ATOM      3  C   UNL     1     -23.855  24.543   8.845  1.00  0.00     0.011 A 
ATOM      4  C   UNL     1     -23.484  25.897   8.838  1.00  0.00     0.014 A 
ATOM      5  C   UNL     1     -23.028  26.491  10.030  1.00  0.00     0.011 A 
ATOM      6  C   UNL     1     -22.948  25.738  11.207  1.00  0.00     0.001 A 
ENDROOT
BRANCH   4   7
ATOM      7  C   UNL     1     -23.575  26.671   7.588  1.00  0.00     0.260 C 
ATOM      8  O   UNL     1     -23.989  27.861   7.587  1.00  0.00    -0.298 OA
ENDBRANCH   4   7
TORSDOF 1
ENDMDL
MODEL 3
REMARK VINA RESULT:    -3.143     24.072     24.900
REMARK INTER + INTRA:          -3.339
REMARK INTER:                  -3.331
REMARK INTRA:                  -0.009
REMARK UNBOUND:                -0.012
REMARK SMILES O=Cc1ccccc1
REMARK SMILES IDX 6 1 5 2 4 3 3 4 8 5 7 6 2 7 1 8
REMARK H PARENT
REMARK Flexibility Score: inf
ROOT
ATOM      1  C   UNL     1     -23.939  25.817   8.222  1.00  0.00     0.000 A 
ATOM      2  C   UNL     1     -23.451  26.734   9.158  1.00  0.00     0.001 A 
ATOM      3  C   UNL     1     -22.943  26.282  10.381  1.00  0.00     0.011 A 
ATOM      4  C   UNL     1     -22.919  24.910  10.676  1.00  0.00     0.014 A 
ATOM      5  C   UNL     1     -23.411  23.994   9.728  1.00  0.00     0.011 A 
ATOM      6  C   UNL     1     -23.918  24.450   8.506  1.00  0.00     0.001 A 
ENDROOT
BRANCH   4   7
ATOM      7  C   UNL     1     -22.380  24.452  11.969  1.00  0.00     0.260 C 
ATOM      8  O   UNL     1     -21.203  24.013  12.065  1.00  0.00    -0.298 OA
ENDBRANCH   4   7
TORSDOF 1
ENDMDL
MODEL 4
REMARK VINA RESULT:    -3.126     23.312     23.960
REMARK INTER + INTRA:          -3.321
REMARK INTER:                  -3.307
REMARK INTRA:                  -0.014
REMARK UNBOUND:                -0.012
REMARK SMILES O=Cc1ccccc1
REMARK SMILES IDX 6 1 5 2 4 3 3 4 8 5 7 6 2 7 1 8
REMARK H PARENT
REMARK Flexibility Score: inf
ROOT
ATOM      1  C   UNL     1     -20.493  28.500  19.424  1.00  0.00     0.000 A 
ATOM      2  C   UNL     1     -19.885  29.596  20.044  1.00  0.00     0.001 A 
ATOM      3  C   UNL     1     -19.085  29.405  21.176  1.00  0.00     0.011 A 
ATOM      4  C   UNL     1     -18.886  28.117  21.695  1.00  0.00     0.014 A 
ATOM      5  C   UNL     1     -19.501  27.019  21.064  1.00  0.00     0.011 A 
ATOM      6  C   UNL     1     -20.301  27.214  19.933  1.00  0.00     0.001 A 
ENDROOT
BRANCH   4   7
ATOM      7  C   UNL     1     -18.039  27.934  22.887  1.00  0.00     0.260 C 
ATOM      8  O   UNL     1     -17.267  28.847  23.283  1.00  0.00    -0.298 OA
ENDBRANCH   4   7
TORSDOF 1
ENDMDL
MODEL 5
REMARK VINA RESULT:    -3.116     23.328     23.967
REMARK INTER + INTRA:          -3.310
REMARK INTER:                  -3.298
REMARK INTRA:                  -0.013
REMARK UNBOUND:                -0.012
REMARK SMILES O=Cc1ccccc1
REMARK SMILES IDX 6 1 5 2 4 3 3 4 8 5 7 6 2 7 1 8
REMARK H PARENT
REMARK Flexibility Score: inf
ROOT
ATOM      1  C   UNL     1     -20.521  28.482  19.438  1.00  0.00     0.000 A 
ATOM      2  C   UNL     1     -20.310  27.193  19.938  1.00  0.00     0.001 A 
ATOM      3  C   UNL     1     -19.487  27.001  21.053  1.00  0.00     0.011 A 
ATOM      4  C   UNL     1     -18.870  28.096  21.677  1.00  0.00     0.014 A 
ATOM      5  C   UNL     1     -19.089  29.390  21.168  1.00  0.00     0.011 A 
ATOM      6  C   UNL     1     -19.912  29.578  20.053  1.00  0.00     0.001 A 
ENDROOT
BRANCH   4   7
ATOM      7  C   UNL     1     -18.008  27.875  22.852  1.00  0.00     0.260 C 
ATOM      8  O   UNL     1     -17.268  28.792  23.298  1.00  0.00    -0.298 OA
ENDBRANCH   4   7
TORSDOF 1
ENDMDL
MODEL 6
REMARK VINA RESULT:    -3.053     24.542     25.475
REMARK INTER + INTRA:          -3.244
REMARK INTER:                  -3.233
REMARK INTRA:                  -0.011
REMARK UNBOUND:                -0.012
REMARK SMILES O=Cc1ccccc1
REMARK SMILES IDX 6 1 5 2 4 3 3 4 8 5 7 6 2 7 1 8
REMARK H PARENT
REMARK Flexibility Score: inf
ROOT
ATOM      1  C   UNL     1     -23.403  25.838   9.021  1.00  0.00     0.000 A 
ATOM      2  C   UNL     1     -23.876  24.522   9.008  1.00  0.00     0.001 A 
ATOM      3  C   UNL     1     -23.902  23.776  10.191  1.00  0.00     0.011 A 
ATOM      4  C   UNL     1     -23.457  24.340  11.396  1.00  0.00     0.014 A 
ATOM      5  C   UNL     1     -22.984  25.666  11.401  1.00  0.00     0.011 A 
ATOM      6  C   UNL     1     -22.958  26.409  10.216  1.00  0.00     0.001 A 
ENDROOT
BRANCH   4   7
ATOM      7  C   UNL     1     -23.494  23.540  12.633  1.00  0.00     0.260 C 
ATOM      8  O   UNL     1     -22.572  23.619  13.488  1.00  0.00    -0.298 OA
ENDBRANCH   4   7
TORSDOF 1
ENDMDL
MODEL 7
REMARK VINA RESULT:    -3.010     24.481     25.363
REMARK INTER + INTRA:          -3.198
REMARK INTER:                  -3.189
REMARK INTRA:                  -0.009
REMARK UNBOUND:                -0.012
REMARK SMILES O=Cc1ccccc1
REMARK SMILES IDX 6 1 5 2 4 3 3 4 8 5 7 6 2 7 1 8
REMARK H PARENT
REMARK Flexibility Score: inf
ROOT
ATOM      1  C   UNL     1     -20.330  23.642  15.637  1.00  0.00     0.000 A 
ATOM      2  C   UNL     1     -21.649  23.256  15.382  1.00  0.00     0.001 A 
ATOM      3  C   UNL     1     -22.130  23.232  14.068  1.00  0.00     0.011 A 
ATOM      4  C   UNL     1     -21.295  23.595  13.000  1.00  0.00     0.014 A 
ATOM      5  C   UNL     1     -19.968  23.982  13.266  1.00  0.00     0.011 A 
ATOM      6  C   UNL     1     -19.491  24.004  14.581  1.00  0.00     0.001 A 
ENDROOT
BRANCH   4   7
ATOM      7  C   UNL     1     -21.818  23.563  11.623  1.00  0.00     0.260 C 
ATOM      8  O   UNL     1     -21.875  24.609  10.923  1.00  0.00    -0.298 OA
ENDBRANCH   4   7
TORSDOF 1
ENDMDL
MODEL 8
REMARK VINA RESULT:    -3.007     23.185     23.897
REMARK INTER + INTRA:          -3.194
REMARK INTER:                  -3.183
REMARK INTRA:                  -0.011
REMARK UNBOUND:                -0.012
REMARK SMILES O=Cc1ccccc1
REMARK SMILES IDX 6 1 5 2 4 3 3 4 8 5 7 6 2 7 1 8
REMARK H PARENT
REMARK Flexibility Score: inf
ROOT
ATOM      1  C   UNL     1     -21.768  28.817  19.221  1.00  0.00     0.000 A 
ATOM      2  C   UNL     1     -22.514  29.472  20.204  1.00  0.00     0.001 A 
ATOM      3  C   UNL     1     -21.865  30.137  21.250  1.00  0.00     0.011 A 
ATOM      4  C   UNL     1     -20.463  30.151  21.319  1.00  0.00     0.014 A 
ATOM      5  C   UNL     1     -19.719  29.490  20.325  1.00  0.00     0.011 A 
ATOM      6  C   UNL     1     -20.372  28.826  19.281  1.00  0.00     0.001 A 
ENDROOT
BRANCH   4   7
ATOM      7  C   UNL     1     -19.795  30.857  22.427  1.00  0.00     0.260 C 
ATOM      8  O   UNL     1     -20.185  31.995  22.804  1.00  0.00    -0.298 OA
ENDBRANCH   4   7
TORSDOF 1
ENDMDL
