MODEL 1
REMARK VINA RESULT:    -3.681      0.000      0.000
REMARK INTER + INTRA:         -16.063
REMARK INTER:                  -9.706
REMARK INTRA:                  -6.357
REMARK UNBOUND:                -6.357
REMARK SMILES CCCCCCCCCCCCCCCCCCCCCCCCCCCCCC(=O)[O-]
REMARK SMILES IDX 16 1 17 2 18 3 19 4 20 5 21 6 22 7 23 8 24 9 25 10 26 11
REMARK SMILES IDX 27 12 28 13 29 14 30 15 31 16 32 17 15 18 14 19 13 20 12 21
REMARK SMILES IDX 11 22 10 23 9 24 8 25 7 26 6 27 5 28 4 29 3 30 2 31 1 32
REMARK H PARENT
REMARK Flexibility Score: inf
ROOT
ATOM      1  C   UNL     1     131.061 146.363 106.296  1.00  0.00     0.000 C 
ENDROOT
BRANCH   1   2
ATOM      2  C   UNL     1     132.577 146.103 106.190  1.00  0.00     0.000 C 
BRANCH   2   3
ATOM      3  C   UNL     1     132.965 144.750 105.560  1.00  0.00     0.000 C 
BRANCH   3   4
ATOM      4  C   UNL     1     134.354 144.716 104.894  1.00  0.00     0.000 C 
BRANCH   4   5
ATOM      5  C   UNL     1     135.074 146.073 104.964  1.00  0.00     0.000 C 
BRANCH   5   6
ATOM      6  C   UNL     1     136.189 146.103 106.022  1.00  0.00     0.000 C 
BRANCH   6   7
ATOM      7  C   UNL     1     136.575 144.700 106.518  1.00  0.00     0.000 C 
BRANCH   7   8
ATOM      8  C   UNL     1     136.276 144.491 108.015  1.00  0.00     0.000 C 
BRANCH   8   9
ATOM      9  C   UNL     1     135.316 145.521 108.647  1.00  0.00     0.000 C 
BRANCH   9  10
ATOM     10  C   UNL     1     134.054 144.927 109.298  1.00  0.00     0.000 C 
BRANCH  10  11
ATOM     11  C   UNL     1     133.785 143.479 108.856  1.00  0.00     0.000 C 
BRANCH  11  12
ATOM     12  C   UNL     1     132.432 142.952 109.359  1.00  0.00     0.000 C 
BRANCH  12  13
ATOM     13  C   UNL     1     131.510 142.509 108.207  1.00  0.00     0.006 C 
BRANCH  13  14
ATOM     14  C   UNL     1     132.009 141.229 107.524  1.00  0.00     0.053 C 
BRANCH  14  15
ATOM     15  C   UNL     1     131.259 140.941 106.259  1.00  0.00     0.041 C 
ATOM     16  O   UNL     1     130.491 139.944 106.189  1.00  0.00    -0.550 OA
ATOM     17  O   UNL     1     131.380 141.794 105.168  1.00  0.00    -0.550 OA
ENDBRANCH  14  15
ENDBRANCH  13  14
ENDBRANCH  12  13
ENDBRANCH  11  12
ENDBRANCH  10  11
ENDBRANCH   9  10
ENDBRANCH   8   9
ENDBRANCH   7   8
ENDBRANCH   6   7
ENDBRANCH   5   6
ENDBRANCH   4   5
ENDBRANCH   3   4
ENDBRANCH   2   3
ENDBRANCH   1   2
BRANCH   1  18
ATOM     18  C   UNL     1     130.171 145.136 106.018  1.00  0.00     0.000 C 
BRANCH  18  19
ATOM     19  C   UNL     1     128.726 145.467 105.591  1.00  0.00     0.000 C 
BRANCH  19  20
ATOM     20  C   UNL     1     127.951 144.296 104.951  1.00  0.00     0.000 C 
BRANCH  20  21
ATOM     21  C   UNL     1     128.042 142.958 105.706  1.00  0.00     0.000 C 
BRANCH  21  22
ATOM     22  C   UNL     1     127.141 142.913 106.951  1.00  0.00     0.000 C 
BRANCH  22  23
ATOM     23  C   UNL     1     127.884 142.431 108.211  1.00  0.00     0.000 C 
BRANCH  23  24
ATOM     24  C   UNL     1     128.050 143.486 109.324  1.00  0.00    -0.000 C 
BRANCH  24  25
ATOM     25  C   UNL     1     127.492 144.881 108.990  1.00  0.00    -0.000 C 
BRANCH  25  26
ATOM     26  C   UNL     1     128.497 146.010 109.263  1.00  0.00    -0.000 C 
BRANCH  26  27
ATOM     27  C   UNL     1     129.866 145.439 109.665  1.00  0.00    -0.000 C 
BRANCH  27  28
ATOM     28  C   UNL     1     130.681 146.405 110.539  1.00  0.00    -0.000 C 
BRANCH  28  29
ATOM     29  C   UNL     1     130.864 145.895 111.977  1.00  0.00    -0.000 C 
BRANCH  29  30
ATOM     30  C   UNL     1     130.212 144.515 112.154  1.00  0.00    -0.000 C 
BRANCH  30  31
ATOM     31  C   UNL     1     129.192 144.486 113.303  1.00  0.00    -0.003 C 
ATOM     32  C   UNL     1     127.746 144.474 112.809  1.00  0.00     0.004 C 
ENDBRANCH  30  31
ENDBRANCH  29  30
ENDBRANCH  28  29
ENDBRANCH  27  28
ENDBRANCH  26  27
ENDBRANCH  25  26
ENDBRANCH  24  25
ENDBRANCH  23  24
ENDBRANCH  22  23
ENDBRANCH  21  22
ENDBRANCH  20  21
ENDBRANCH  19  20
ENDBRANCH  18  19
ENDBRANCH   1  18
TORSDOF 28
ENDMDL
MODEL 2
REMARK VINA RESULT:    -3.536      2.062      6.729
REMARK INTER + INTRA:         -15.681
REMARK INTER:                 -10.114
REMARK INTRA:                  -5.567
REMARK UNBOUND:                -6.357
REMARK SMILES CCCCCCCCCCCCCCCCCCCCCCCCCCCCCC(=O)[O-]
REMARK SMILES IDX 16 1 17 2 18 3 19 4 20 5 21 6 22 7 23 8 24 9 25 10 26 11
REMARK SMILES IDX 27 12 28 13 29 14 30 15 31 16 32 17 15 18 14 19 13 20 12 21
REMARK SMILES IDX 11 22 10 23 9 24 8 25 7 26 6 27 5 28 4 29 3 30 2 31 1 32
REMARK H PARENT
REMARK Flexibility Score: inf
ROOT
ATOM      1  C   UNL     1     129.450 143.867 112.635  1.00  0.00     0.000 C 
ENDROOT
BRANCH   1   2
ATOM      2  C   UNL     1     127.986 144.025 112.179  1.00  0.00     0.000 C 
BRANCH   2   3
ATOM      3  C   UNL     1     127.612 143.251 110.899  1.00  0.00     0.000 C 
BRANCH   3   4
ATOM      4  C   UNL     1     127.965 143.964 109.580  1.00  0.00     0.000 C 
BRANCH   4   5
ATOM      5  C   UNL     1     127.219 145.297 109.414  1.00  0.00     0.000 C 
BRANCH   5   6
ATOM      6  C   UNL     1     127.506 145.978 108.064  1.00  0.00     0.000 C 
BRANCH   6   7
ATOM      7  C   UNL     1     128.901 145.638 107.514  1.00  0.00     0.000 C 
BRANCH   7   8
ATOM      8  C   UNL     1     128.957 145.652 105.975  1.00  0.00     0.000 C 
BRANCH   8   9
ATOM      9  C   UNL     1     127.663 145.205 105.263  1.00  0.00     0.000 C 
BRANCH   9  10
ATOM     10  C   UNL     1     127.599 143.712 104.896  1.00  0.00     0.000 C 
BRANCH  10  11
ATOM     11  C   UNL     1     127.095 142.838 106.057  1.00  0.00     0.000 C 
BRANCH  11  12
ATOM     12  C   UNL     1     128.077 141.711 106.415  1.00  0.00     0.000 C 
BRANCH  12  13
ATOM     13  C   UNL     1     127.376 140.348 106.566  1.00  0.00     0.006 C 
BRANCH  13  14
ATOM     14  C   UNL     1     128.332 139.172 106.319  1.00  0.00     0.053 C 
BRANCH  14  15
ATOM     15  C   UNL     1     127.666 137.851 106.557  1.00  0.00     0.041 C 
ATOM     16  O   UNL     1     127.804 136.913 105.728  1.00  0.00    -0.550 OA
ATOM     17  O   UNL     1     126.923 137.645 107.713  1.00  0.00    -0.550 OA
ENDBRANCH  14  15
ENDBRANCH  13  14
ENDBRANCH  12  13
ENDBRANCH  11  12
ENDBRANCH  10  11
ENDBRANCH   9  10
ENDBRANCH   8   9
ENDBRANCH   7   8
ENDBRANCH   6   7
ENDBRANCH   5   6
ENDBRANCH   4   5
ENDBRANCH   3   4
ENDBRANCH   2   3
ENDBRANCH   1   2
BRANCH   1  18
ATOM     18  C   UNL     1     130.134 145.173 113.086  1.00  0.00     0.000 C 
BRANCH  18  19
ATOM     19  C   UNL     1     131.258 145.669 112.154  1.00  0.00     0.000 C 
BRANCH  19  20
ATOM     20  C   UNL     1     130.797 146.093 110.744  1.00  0.00     0.000 C 
BRANCH  20  21
ATOM     21  C   UNL     1     131.707 145.634 109.590  1.00  0.00     0.000 C 
BRANCH  21  22
ATOM     22  C   UNL     1     133.002 146.456 109.487  1.00  0.00     0.000 C 
BRANCH  22  23
ATOM     23  C   UNL     1     133.417 146.741 108.032  1.00  0.00     0.000 C 
BRANCH  23  24
ATOM     24  C   UNL     1     132.491 146.144 106.953  1.00  0.00    -0.000 C 
BRANCH  24  25
ATOM     25  C   UNL     1     133.207 145.620 105.695  1.00  0.00    -0.000 C 
BRANCH  25  26
ATOM     26  C   UNL     1     133.573 144.131 105.789  1.00  0.00    -0.000 C 
BRANCH  26  27
ATOM     27  C   UNL     1     132.642 143.282 104.909  1.00  0.00    -0.000 C 
BRANCH  27  28
ATOM     28  C   UNL     1     131.386 142.806 105.656  1.00  0.00    -0.000 C 
BRANCH  28  29
ATOM     29  C   UNL     1     131.716 142.051 106.952  1.00  0.00    -0.000 C 
BRANCH  29  30
ATOM     30  C   UNL     1     130.984 142.676 108.150  1.00  0.00    -0.000 C 
BRANCH  30  31
ATOM     31  C   UNL     1     131.042 141.792 109.405  1.00  0.00    -0.003 C 
ATOM     32  C   UNL     1     130.168 140.544 109.290  1.00  0.00     0.004 C 
ENDBRANCH  30  31
ENDBRANCH  29  30
ENDBRANCH  28  29
ENDBRANCH  27  28
ENDBRANCH  26  27
ENDBRANCH  25  26
ENDBRANCH  24  25
ENDBRANCH  23  24
ENDBRANCH  22  23
ENDBRANCH  21  22
ENDBRANCH  20  21
ENDBRANCH  19  20
ENDBRANCH  18  19
ENDBRANCH   1  18
TORSDOF 28
ENDMDL
MODEL 3
REMARK VINA RESULT:    -3.473      2.660      4.933
REMARK INTER + INTRA:         -15.516
REMARK INTER:                  -9.033
REMARK INTRA:                  -6.483
REMARK UNBOUND:                -6.357
REMARK SMILES CCCCCCCCCCCCCCCCCCCCCCCCCCCCCC(=O)[O-]
REMARK SMILES IDX 16 1 17 2 18 3 19 4 20 5 21 6 22 7 23 8 24 9 25 10 26 11
REMARK SMILES IDX 27 12 28 13 29 14 30 15 31 16 32 17 15 18 14 19 13 20 12 21
REMARK SMILES IDX 11 22 10 23 9 24 8 25 7 26 6 27 5 28 4 29 3 30 2 31 1 32
REMARK H PARENT
REMARK Flexibility Score: inf
ROOT
ATOM      1  C   UNL     1     129.071 143.053 105.756  1.00  0.00     0.000 C 
ENDROOT
BRANCH   1   2
ATOM      2  C   UNL     1     130.518 143.498 105.458  1.00  0.00     0.000 C 
BRANCH   2   3
ATOM      3  C   UNL     1     131.095 144.541 106.435  1.00  0.00     0.000 C 
BRANCH   3   4
ATOM      4  C   UNL     1     130.786 146.007 106.080  1.00  0.00     0.000 C 
BRANCH   4   5
ATOM      5  C   UNL     1     132.057 146.825 105.798  1.00  0.00     0.000 C 
BRANCH   5   6
ATOM      6  C   UNL     1     133.341 145.983 105.887  1.00  0.00     0.000 C 
BRANCH   6   7
ATOM      7  C   UNL     1     134.192 146.061 104.608  1.00  0.00     0.000 C 
BRANCH   7   8
ATOM      8  C   UNL     1     134.690 144.682 104.136  1.00  0.00     0.000 C 
BRANCH   8   9
ATOM      9  C   UNL     1     134.199 143.480 104.971  1.00  0.00     0.000 C 
BRANCH   9  10
ATOM     10  C   UNL     1     135.305 142.677 105.677  1.00  0.00     0.000 C 
BRANCH  10  11
ATOM     11  C   UNL     1     136.666 143.395 105.653  1.00  0.00     0.000 C 
BRANCH  11  12
ATOM     12  C   UNL     1     136.989 144.089 106.986  1.00  0.00     0.000 C 
BRANCH  12  13
ATOM     13  C   UNL     1     136.988 145.624 106.863  1.00  0.00     0.006 C 
BRANCH  13  14
ATOM     14  C   UNL     1     136.869 146.316 108.228  1.00  0.00     0.053 C 
BRANCH  14  15
ATOM     15  C   UNL     1     137.651 145.601 109.288  1.00  0.00     0.041 C 
ATOM     16  O   UNL     1     138.902 145.738 109.354  1.00  0.00    -0.550 OA
ATOM     17  O   UNL     1     136.994 144.812 110.224  1.00  0.00    -0.550 OA
ENDBRANCH  14  15
ENDBRANCH  13  14
ENDBRANCH  12  13
ENDBRANCH  11  12
ENDBRANCH  10  11
ENDBRANCH   9  10
ENDBRANCH   8   9
ENDBRANCH   7   8
ENDBRANCH   6   7
ENDBRANCH   5   6
ENDBRANCH   4   5
ENDBRANCH   3   4
ENDBRANCH   2   3
ENDBRANCH   1   2
BRANCH   1  18
ATOM     18  C   UNL     1     127.983 143.827 104.986  1.00  0.00     0.000 C 
BRANCH  18  19
ATOM     19  C   UNL     1     127.240 144.895 105.815  1.00  0.00     0.000 C 
BRANCH  19  20
ATOM     20  C   UNL     1     127.229 144.647 107.338  1.00  0.00     0.000 C 
BRANCH  20  21
ATOM     21  C   UNL     1     127.180 145.915 108.209  1.00  0.00     0.000 C 
BRANCH  21  22
ATOM     22  C   UNL     1     128.461 146.121 109.035  1.00  0.00     0.000 C 
BRANCH  22  23
ATOM     23  C   UNL     1     129.208 144.805 109.318  1.00  0.00     0.000 C 
BRANCH  23  24
ATOM     24  C   UNL     1     130.467 144.937 110.199  1.00  0.00    -0.000 C 
BRANCH  24  25
ATOM     25  C   UNL     1     131.180 146.299 110.119  1.00  0.00    -0.000 C 
BRANCH  25  26
ATOM     26  C   UNL     1     132.579 146.208 109.492  1.00  0.00    -0.000 C 
BRANCH  26  27
ATOM     27  C   UNL     1     133.335 144.979 110.018  1.00  0.00    -0.000 C 
BRANCH  27  28
ATOM     28  C   UNL     1     133.787 144.032 108.895  1.00  0.00    -0.000 C 
BRANCH  28  29
ATOM     29  C   UNL     1     133.679 142.551 109.287  1.00  0.00    -0.000 C 
BRANCH  29  30
ATOM     30  C   UNL     1     132.806 141.782 108.284  1.00  0.00    -0.000 C 
BRANCH  30  31
ATOM     31  C   UNL     1     131.335 141.703 108.720  1.00  0.00    -0.003 C 
ATOM     32  C   UNL     1     131.040 140.481 109.589  1.00  0.00     0.004 C 
ENDBRANCH  30  31
ENDBRANCH  29  30
ENDBRANCH  28  29
ENDBRANCH  27  28
ENDBRANCH  26  27
ENDBRANCH  25  26
ENDBRANCH  24  25
ENDBRANCH  23  24
ENDBRANCH  22  23
ENDBRANCH  21  22
ENDBRANCH  20  21
ENDBRANCH  19  20
ENDBRANCH  18  19
ENDBRANCH   1  18
TORSDOF 28
ENDMDL
MODEL 4
REMARK VINA RESULT:    -3.405      1.825      3.000
REMARK INTER + INTRA:         -15.337
REMARK INTER:                  -8.778
REMARK INTRA:                  -6.559
REMARK UNBOUND:                -6.357
REMARK SMILES CCCCCCCCCCCCCCCCCCCCCCCCCCCCCC(=O)[O-]
REMARK SMILES IDX 16 1 17 2 18 3 19 4 20 5 21 6 22 7 23 8 24 9 25 10 26 11
REMARK SMILES IDX 27 12 28 13 29 14 30 15 31 16 32 17 15 18 14 19 13 20 12 21
REMARK SMILES IDX 11 22 10 23 9 24 8 25 7 26 6 27 5 28 4 29 3 30 2 31 1 32
REMARK H PARENT
REMARK Flexibility Score: inf
ROOT
ATOM      1  C   UNL     1     129.725 145.607 105.750  1.00  0.00     0.000 C 
ENDROOT
BRANCH   1   2
ATOM      2  C   UNL     1     130.694 145.418 106.934  1.00  0.00     0.000 C 
BRANCH   2   3
ATOM      3  C   UNL     1     131.938 146.330 106.913  1.00  0.00     0.000 C 
BRANCH   3   4
ATOM      4  C   UNL     1     132.732 146.319 105.594  1.00  0.00     0.000 C 
BRANCH   4   5
ATOM      5  C   UNL     1     134.224 146.019 105.807  1.00  0.00     0.000 C 
BRANCH   5   6
ATOM      6  C   UNL     1     134.490 145.178 107.067  1.00  0.00     0.000 C 
BRANCH   6   7
ATOM      7  C   UNL     1     134.723 143.691 106.750  1.00  0.00     0.000 C 
BRANCH   7   8
ATOM      8  C   UNL     1     133.443 142.844 106.878  1.00  0.00     0.000 C 
BRANCH   8   9
ATOM      9  C   UNL     1     132.692 142.577 105.555  1.00  0.00     0.000 C 
BRANCH   9  10
ATOM     10  C   UNL     1     131.268 142.015 105.713  1.00  0.00     0.000 C 
BRANCH  10  11
ATOM     11  C   UNL     1     131.257 140.514 106.048  1.00  0.00     0.000 C 
BRANCH  11  12
ATOM     12  C   UNL     1     130.967 140.245 107.534  1.00  0.00     0.000 C 
BRANCH  12  13
ATOM     13  C   UNL     1     129.896 139.158 107.734  1.00  0.00     0.006 C 
BRANCH  13  14
ATOM     14  C   UNL     1     129.445 138.533 106.406  1.00  0.00     0.053 C 
BRANCH  14  15
ATOM     15  C   UNL     1     127.960 138.610 106.227  1.00  0.00     0.041 C 
ATOM     16  O   UNL     1     127.222 138.958 107.187  1.00  0.00    -0.550 OA
ATOM     17  O   UNL     1     127.393 138.330 104.989  1.00  0.00    -0.550 OA
ENDBRANCH  14  15
ENDBRANCH  13  14
ENDBRANCH  12  13
ENDBRANCH  11  12
ENDBRANCH  10  11
ENDBRANCH   9  10
ENDBRANCH   8   9
ENDBRANCH   7   8
ENDBRANCH   6   7
ENDBRANCH   5   6
ENDBRANCH   4   5
ENDBRANCH   3   4
ENDBRANCH   2   3
ENDBRANCH   1   2
BRANCH   1  18
ATOM     18  C   UNL     1     128.258 145.869 106.147  1.00  0.00     0.000 C 
BRANCH  18  19
ATOM     19  C   UNL     1     127.252 144.820 105.631  1.00  0.00     0.000 C 
BRANCH  19  20
ATOM     20  C   UNL     1     127.885 143.563 104.999  1.00  0.00     0.000 C 
BRANCH  20  21
ATOM     21  C   UNL     1     127.696 142.261 105.799  1.00  0.00     0.000 C 
BRANCH  21  22
ATOM     22  C   UNL     1     127.238 142.511 107.245  1.00  0.00     0.000 C 
BRANCH  22  23
ATOM     23  C   UNL     1     128.414 142.625 108.234  1.00  0.00     0.000 C 
BRANCH  23  24
ATOM     24  C   UNL     1     128.044 142.460 109.722  1.00  0.00    -0.000 C 
BRANCH  24  25
ATOM     25  C   UNL     1     128.126 143.748 110.562  1.00  0.00    -0.000 C 
BRANCH  25  26
ATOM     26  C   UNL     1     127.899 145.020 109.731  1.00  0.00    -0.000 C 
BRANCH  26  27
ATOM     27  C   UNL     1     129.080 145.991 109.886  1.00  0.00    -0.000 C 
BRANCH  27  28
ATOM     28  C   UNL     1     130.075 145.552 110.971  1.00  0.00    -0.000 C 
BRANCH  28  29
ATOM     29  C   UNL     1     131.536 145.628 110.504  1.00  0.00    -0.000 C 
BRANCH  29  30
ATOM     30  C   UNL     1     132.284 144.328 110.834  1.00  0.00    -0.000 C 
BRANCH  30  31
ATOM     31  C   UNL     1     131.796 143.136 109.996  1.00  0.00    -0.003 C 
ATOM     32  C   UNL     1     131.517 141.894 110.842  1.00  0.00     0.004 C 
ENDBRANCH  30  31
ENDBRANCH  29  30
ENDBRANCH  28  29
ENDBRANCH  27  28
ENDBRANCH  26  27
ENDBRANCH  25  26
ENDBRANCH  24  25
ENDBRANCH  23  24
ENDBRANCH  22  23
ENDBRANCH  21  22
ENDBRANCH  20  21
ENDBRANCH  19  20
ENDBRANCH  18  19
ENDBRANCH   1  18
TORSDOF 28
ENDMDL
MODEL 5
REMARK VINA RESULT:    -3.390      2.483      6.998
REMARK INTER + INTRA:         -15.295
REMARK INTER:                 -10.321
REMARK INTRA:                  -4.974
REMARK UNBOUND:                -6.357
REMARK SMILES CCCCCCCCCCCCCCCCCCCCCCCCCCCCCC(=O)[O-]
REMARK SMILES IDX 16 1 17 2 18 3 19 4 20 5 21 6 22 7 23 8 24 9 25 10 26 11
REMARK SMILES IDX 27 12 28 13 29 14 30 15 31 16 32 17 15 18 14 19 13 20 12 21
REMARK SMILES IDX 11 22 10 23 9 24 8 25 7 26 6 27 5 28 4 29 3 30 2 31 1 32
REMARK H PARENT
REMARK Flexibility Score: inf
ROOT
ATOM      1  C   UNL     1     130.864 145.818 106.241  1.00  0.00     0.000 C 
ENDROOT
BRANCH   1   2
ATOM      2  C   UNL     1     131.275 144.572 107.052  1.00  0.00     0.000 C 
BRANCH   2   3
ATOM      3  C   UNL     1     130.384 143.331 106.840  1.00  0.00     0.000 C 
BRANCH   3   4
ATOM      4  C   UNL     1     129.738 143.222 105.446  1.00  0.00     0.000 C 
BRANCH   4   5
ATOM      5  C   UNL     1     128.202 143.234 105.507  1.00  0.00     0.000 C 
BRANCH   5   6
ATOM      6  C   UNL     1     127.588 144.476 104.840  1.00  0.00     0.000 C 
BRANCH   6   7
ATOM      7  C   UNL     1     127.189 145.560 105.856  1.00  0.00     0.000 C 
BRANCH   7   8
ATOM      8  C   UNL     1     127.155 145.037 107.305  1.00  0.00     0.000 C 
BRANCH   8   9
ATOM      9  C   UNL     1     127.258 146.120 108.400  1.00  0.00     0.000 C 
BRANCH   9  10
ATOM     10  C   UNL     1     128.569 146.113 109.206  1.00  0.00     0.000 C 
BRANCH  10  11
ATOM     11  C   UNL     1     128.528 145.139 110.396  1.00  0.00     0.000 C 
BRANCH  11  12
ATOM     12  C   UNL     1     129.614 144.054 110.306  1.00  0.00     0.000 C 
BRANCH  12  13
ATOM     13  C   UNL     1     129.077 142.656 110.662  1.00  0.00     0.006 C 
BRANCH  13  14
ATOM     14  C   UNL     1     128.001 142.179 109.677  1.00  0.00     0.053 C 
BRANCH  14  15
ATOM     15  C   UNL     1     128.347 140.854 109.068  1.00  0.00     0.041 C 
ATOM     16  O   UNL     1     128.958 139.984 109.744  1.00  0.00    -0.550 OA
ATOM     17  O   UNL     1     127.964 140.568 107.763  1.00  0.00    -0.550 OA
ENDBRANCH  14  15
ENDBRANCH  13  14
ENDBRANCH  12  13
ENDBRANCH  11  12
ENDBRANCH  10  11
ENDBRANCH   9  10
ENDBRANCH   8   9
ENDBRANCH   7   8
ENDBRANCH   6   7
ENDBRANCH   5   6
ENDBRANCH   4   5
ENDBRANCH   3   4
ENDBRANCH   2   3
ENDBRANCH   1   2
BRANCH   1  18
ATOM     18  C   UNL     1     132.038 146.679 105.735  1.00  0.00     0.000 C 
BRANCH  18  19
ATOM     19  C   UNL     1     133.437 146.156 106.120  1.00  0.00     0.000 C 
BRANCH  19  20
ATOM     20  C   UNL     1     134.378 145.875 104.930  1.00  0.00     0.000 C 
BRANCH  20  21
ATOM     21  C   UNL     1     134.345 144.431 104.395  1.00  0.00     0.000 C 
BRANCH  21  22
ATOM     22  C   UNL     1     134.518 143.380 105.504  1.00  0.00     0.000 C 
BRANCH  22  23
ATOM     23  C   UNL     1     133.753 142.075 105.216  1.00  0.00     0.000 C 
BRANCH  23  24
ATOM     24  C   UNL     1     133.191 141.352 106.458  1.00  0.00    -0.000 C 
BRANCH  24  25
ATOM     25  C   UNL     1     132.441 140.040 106.165  1.00  0.00    -0.000 C 
BRANCH  25  26
ATOM     26  C   UNL     1     131.757 139.450 107.408  1.00  0.00    -0.000 C 
BRANCH  26  27
ATOM     27  C   UNL     1     130.660 138.452 107.007  1.00  0.00    -0.000 C 
BRANCH  27  28
ATOM     28  C   UNL     1     130.148 138.673 105.575  1.00  0.00    -0.000 C 
BRANCH  28  29
ATOM     29  C   UNL     1     129.998 137.362 104.788  1.00  0.00    -0.000 C 
BRANCH  29  30
ATOM     30  C   UNL     1     128.674 137.341 104.010  1.00  0.00    -0.000 C 
BRANCH  30  31
ATOM     31  C   UNL     1     127.446 137.374 104.932  1.00  0.00    -0.003 C 
ATOM     32  C   UNL     1     127.375 136.169 105.868  1.00  0.00     0.004 C 
ENDBRANCH  30  31
ENDBRANCH  29  30
ENDBRANCH  28  29
ENDBRANCH  27  28
ENDBRANCH  26  27
ENDBRANCH  25  26
ENDBRANCH  24  25
ENDBRANCH  23  24
ENDBRANCH  22  23
ENDBRANCH  21  22
ENDBRANCH  20  21
ENDBRANCH  19  20
ENDBRANCH  18  19
ENDBRANCH   1  18
TORSDOF 28
ENDMDL
MODEL 6
REMARK VINA RESULT:    -3.366      3.376      4.728
REMARK INTER + INTRA:         -15.233
REMARK INTER:                  -9.755
REMARK INTRA:                  -5.478
REMARK UNBOUND:                -6.357
REMARK SMILES CCCCCCCCCCCCCCCCCCCCCCCCCCCCCC(=O)[O-]
REMARK SMILES IDX 16 1 17 2 18 3 19 4 20 5 21 6 22 7 23 8 24 9 25 10 26 11
REMARK SMILES IDX 27 12 28 13 29 14 30 15 31 16 32 17 15 18 14 19 13 20 12 21
REMARK SMILES IDX 11 22 10 23 9 24 8 25 7 26 6 27 5 28 4 29 3 30 2 31 1 32
REMARK H PARENT
REMARK Flexibility Score: inf
ROOT
ATOM      1  C   UNL     1     131.044 145.434 106.126  1.00  0.00     0.000 C 
ENDROOT
BRANCH   1   2
ATOM      2  C   UNL     1     132.428 146.112 106.077  1.00  0.00     0.000 C 
BRANCH   2   3
ATOM      3  C   UNL     1     133.591 145.195 105.649  1.00  0.00     0.000 C 
BRANCH   3   4
ATOM      4  C   UNL     1     134.991 145.679 106.067  1.00  0.00     0.000 C 
BRANCH   4   5
ATOM      5  C   UNL     1     135.006 146.292 107.478  1.00  0.00     0.000 C 
BRANCH   5   6
ATOM      6  C   UNL     1     135.906 145.518 108.455  1.00  0.00     0.000 C 
BRANCH   6   7
ATOM      7  C   UNL     1     135.133 144.968 109.666  1.00  0.00     0.000 C 
BRANCH   7   8
ATOM      8  C   UNL     1     134.023 143.978 109.267  1.00  0.00     0.000 C 
BRANCH   8   9
ATOM      9  C   UNL     1     132.580 144.460 109.533  1.00  0.00     0.000 C 
BRANCH   9  10
ATOM     10  C   UNL     1     132.429 145.973 109.767  1.00  0.00     0.000 C 
BRANCH  10  11
ATOM     11  C   UNL     1     131.639 146.299 111.046  1.00  0.00     0.000 C 
BRANCH  11  12
ATOM     12  C   UNL     1     132.097 145.462 112.250  1.00  0.00     0.000 C 
BRANCH  12  13
ATOM     13  C   UNL     1     132.666 146.331 113.387  1.00  0.00     0.006 C 
BRANCH  13  14
ATOM     14  C   UNL     1     131.565 147.079 114.153  1.00  0.00     0.053 C 
BRANCH  14  15
ATOM     15  C   UNL     1     131.579 146.751 115.615  1.00  0.00     0.041 C 
ATOM     16  O   UNL     1     132.667 146.724 116.249  1.00  0.00    -0.550 OA
ATOM     17  O   UNL     1     130.385 146.509 116.284  1.00  0.00    -0.550 OA
ENDBRANCH  14  15
ENDBRANCH  13  14
ENDBRANCH  12  13
ENDBRANCH  11  12
ENDBRANCH  10  11
ENDBRANCH   9  10
ENDBRANCH   8   9
ENDBRANCH   7   8
ENDBRANCH   6   7
ENDBRANCH   5   6
ENDBRANCH   4   5
ENDBRANCH   3   4
ENDBRANCH   2   3
ENDBRANCH   1   2
BRANCH   1  18
ATOM     18  C   UNL     1     131.077 143.906 106.328  1.00  0.00     0.000 C 
BRANCH  18  19
ATOM     19  C   UNL     1     130.163 143.107 105.377  1.00  0.00     0.000 C 
BRANCH  19  20
ATOM     20  C   UNL     1     128.993 142.371 106.062  1.00  0.00     0.000 C 
BRANCH  20  21
ATOM     21  C   UNL     1     127.613 143.033 105.896  1.00  0.00     0.000 C 
BRANCH  21  22
ATOM     22  C   UNL     1     127.632 144.209 104.904  1.00  0.00     0.000 C 
BRANCH  22  23
ATOM     23  C   UNL     1     127.329 145.562 105.574  1.00  0.00     0.000 C 
BRANCH  23  24
ATOM     24  C   UNL     1     126.921 145.486 107.060  1.00  0.00    -0.000 C 
BRANCH  24  25
ATOM     25  C   UNL     1     127.724 146.399 108.005  1.00  0.00    -0.000 C 
BRANCH  25  26
ATOM     26  C   UNL     1     128.056 145.730 109.347  1.00  0.00    -0.000 C 
BRANCH  26  27
ATOM     27  C   UNL     1     128.952 144.499 109.138  1.00  0.00    -0.000 C 
BRANCH  27  28
ATOM     28  C   UNL     1     128.398 143.236 109.813  1.00  0.00    -0.000 C 
BRANCH  28  29
ATOM     29  C   UNL     1     127.755 143.524 111.178  1.00  0.00    -0.000 C 
BRANCH  29  30
ATOM     30  C   UNL     1     128.822 143.588 112.282  1.00  0.00    -0.000 C 
BRANCH  30  31
ATOM     31  C   UNL     1     128.809 144.925 113.039  1.00  0.00    -0.003 C 
ATOM     32  C   UNL     1     127.851 144.922 114.229  1.00  0.00     0.004 C 
ENDBRANCH  30  31
ENDBRANCH  29  30
ENDBRANCH  28  29
ENDBRANCH  27  28
ENDBRANCH  26  27
ENDBRANCH  25  26
ENDBRANCH  24  25
ENDBRANCH  23  24
ENDBRANCH  22  23
ENDBRANCH  21  22
ENDBRANCH  20  21
ENDBRANCH  19  20
ENDBRANCH  18  19
ENDBRANCH   1  18
TORSDOF 28
ENDMDL
MODEL 7
REMARK VINA RESULT:    -3.358      1.759      6.846
REMARK INTER + INTRA:         -15.212
REMARK INTER:                  -9.563
REMARK INTRA:                  -5.649
REMARK UNBOUND:                -6.357
REMARK SMILES CCCCCCCCCCCCCCCCCCCCCCCCCCCCCC(=O)[O-]
REMARK SMILES IDX 16 1 17 2 18 3 19 4 20 5 21 6 22 7 23 8 24 9 25 10 26 11
REMARK SMILES IDX 27 12 28 13 29 14 30 15 31 16 32 17 15 18 14 19 13 20 12 21
REMARK SMILES IDX 11 22 10 23 9 24 8 25 7 26 6 27 5 28 4 29 3 30 2 31 1 32
REMARK H PARENT
REMARK Flexibility Score: inf
ROOT
ATOM      1  C   UNL     1     130.339 145.548 111.659  1.00  0.00     0.000 C 
ENDROOT
BRANCH   1   2
ATOM      2  C   UNL     1     129.875 144.300 110.881  1.00  0.00     0.000 C 
BRANCH   2   3
ATOM      3  C   UNL     1     128.904 144.580 109.716  1.00  0.00     0.000 C 
BRANCH   3   4
ATOM      4  C   UNL     1     128.947 146.016 109.162  1.00  0.00     0.000 C 
BRANCH   4   5
ATOM      5  C   UNL     1     127.576 146.493 108.655  1.00  0.00     0.000 C 
BRANCH   5   6
ATOM      6  C   UNL     1     126.875 145.453 107.764  1.00  0.00     0.000 C 
BRANCH   6   7
ATOM      7  C   UNL     1     127.082 145.722 106.264  1.00  0.00     0.000 C 
BRANCH   7   8
ATOM      8  C   UNL     1     128.318 145.003 105.692  1.00  0.00     0.000 C 
BRANCH   8   9
ATOM      9  C   UNL     1     128.039 143.644 105.015  1.00  0.00     0.000 C 
BRANCH   9  10
ATOM     10  C   UNL     1     127.697 142.492 105.976  1.00  0.00     0.000 C 
BRANCH  10  11
ATOM     11  C   UNL     1     128.786 142.263 107.038  1.00  0.00     0.000 C 
BRANCH  11  12
ATOM     12  C   UNL     1     130.068 141.657 106.445  1.00  0.00     0.000 C 
BRANCH  12  13
ATOM     13  C   UNL     1     129.892 140.178 106.057  1.00  0.00     0.006 C 
BRANCH  13  14
ATOM     14  C   UNL     1     129.400 139.322 107.233  1.00  0.00     0.053 C 
BRANCH  14  15
ATOM     15  C   UNL     1     128.113 138.622 106.916  1.00  0.00     0.041 C 
ATOM     16  O   UNL     1     127.095 138.811 107.633  1.00  0.00    -0.550 OA
ATOM     17  O   UNL     1     128.030 137.788 105.808  1.00  0.00    -0.550 OA
ENDBRANCH  14  15
ENDBRANCH  13  14
ENDBRANCH  12  13
ENDBRANCH  11  12
ENDBRANCH  10  11
ENDBRANCH   9  10
ENDBRANCH   8   9
ENDBRANCH   7   8
ENDBRANCH   6   7
ENDBRANCH   5   6
ENDBRANCH   4   5
ENDBRANCH   3   4
ENDBRANCH   2   3
ENDBRANCH   1   2
BRANCH   1  18
ATOM     18  C   UNL     1     131.850 145.842 111.571  1.00  0.00     0.000 C 
BRANCH  18  19
ATOM     19  C   UNL     1     132.240 146.924 110.543  1.00  0.00     0.000 C 
BRANCH  19  20
ATOM     20  C   UNL     1     132.833 146.386 109.224  1.00  0.00     0.000 C 
BRANCH  20  21
ATOM     21  C   UNL     1     133.278 144.912 109.257  1.00  0.00     0.000 C 
BRANCH  21  22
ATOM     22  C   UNL     1     132.557 144.048 108.210  1.00  0.00     0.000 C 
BRANCH  22  23
ATOM     23  C   UNL     1     131.718 144.880 107.222  1.00  0.00     0.000 C 
BRANCH  23  24
ATOM     24  C   UNL     1     132.113 144.738 105.738  1.00  0.00    -0.000 C 
BRANCH  24  25
ATOM     25  C   UNL     1     133.352 143.863 105.473  1.00  0.00    -0.000 C 
BRANCH  25  26
ATOM     26  C   UNL     1     134.377 144.539 104.550  1.00  0.00    -0.000 C 
BRANCH  26  27
ATOM     27  C   UNL     1     134.620 145.996 104.976  1.00  0.00    -0.000 C 
BRANCH  27  28
ATOM     28  C   UNL     1     135.361 146.109 106.317  1.00  0.00    -0.000 C 
BRANCH  28  29
ATOM     29  C   UNL     1     136.887 146.042 106.160  1.00  0.00    -0.000 C 
BRANCH  29  30
ATOM     30  C   UNL     1     137.433 144.706 106.688  1.00  0.00    -0.000 C 
BRANCH  30  31
ATOM     31  C   UNL     1     136.529 144.081 107.761  1.00  0.00    -0.003 C 
ATOM     32  C   UNL     1     136.180 142.623 107.464  1.00  0.00     0.004 C 
ENDBRANCH  30  31
ENDBRANCH  29  30
ENDBRANCH  28  29
ENDBRANCH  27  28
ENDBRANCH  26  27
ENDBRANCH  25  26
ENDBRANCH  24  25
ENDBRANCH  23  24
ENDBRANCH  22  23
ENDBRANCH  21  22
ENDBRANCH  20  21
ENDBRANCH  19  20
ENDBRANCH  18  19
ENDBRANCH   1  18
TORSDOF 28
ENDMDL
MODEL 8
REMARK VINA RESULT:    -3.347      3.065      6.932
REMARK INTER + INTRA:         -15.184
REMARK INTER:                  -9.874
REMARK INTRA:                  -5.310
REMARK UNBOUND:                -6.357
REMARK SMILES CCCCCCCCCCCCCCCCCCCCCCCCCCCCCC(=O)[O-]
REMARK SMILES IDX 16 1 17 2 18 3 19 4 20 5 21 6 22 7 23 8 24 9 25 10 26 11
REMARK SMILES IDX 27 12 28 13 29 14 30 15 31 16 32 17 15 18 14 19 13 20 12 21
REMARK SMILES IDX 11 22 10 23 9 24 8 25 7 26 6 27 5 28 4 29 3 30 2 31 1 32
REMARK H PARENT
REMARK Flexibility Score: inf
ROOT
ATOM      1  C   UNL     1     129.909 142.303 108.012  1.00  0.00     0.000 C 
ENDROOT
BRANCH   1   2
ATOM      2  C   UNL     1     129.084 141.467 109.011  1.00  0.00     0.000 C 
BRANCH   2   3
ATOM      3  C   UNL     1     128.231 142.286 110.001  1.00  0.00     0.000 C 
BRANCH   3   4
ATOM      4  C   UNL     1     127.665 143.603 109.439  1.00  0.00     0.000 C 
BRANCH   4   5
ATOM      5  C   UNL     1     127.751 144.759 110.449  1.00  0.00     0.000 C 
BRANCH   5   6
ATOM      6  C   UNL     1     127.050 144.442 111.781  1.00  0.00     0.000 C 
BRANCH   6   7
ATOM      7  C   UNL     1     128.019 144.439 112.975  1.00  0.00     0.000 C 
BRANCH   7   8
ATOM      8  C   UNL     1     129.462 144.802 112.576  1.00  0.00     0.000 C 
BRANCH   8   9
ATOM      9  C   UNL     1     130.500 143.673 112.753  1.00  0.00     0.000 C 
BRANCH   9  10
ATOM     10  C   UNL     1     131.404 143.418 111.533  1.00  0.00     0.000 C 
BRANCH  10  11
ATOM     11  C   UNL     1     131.373 144.576 110.521  1.00  0.00     0.000 C 
BRANCH  11  12
ATOM     12  C   UNL     1     132.669 145.402 110.532  1.00  0.00     0.000 C 
BRANCH  12  13
ATOM     13  C   UNL     1     132.758 146.336 111.753  1.00  0.00     0.006 C 
BRANCH  13  14
ATOM     14  C   UNL     1     133.852 145.902 112.738  1.00  0.00     0.053 C 
BRANCH  14  15
ATOM     15  C   UNL     1     133.461 146.167 114.161  1.00  0.00     0.041 C 
ATOM     16  O   UNL     1     132.256 146.388 114.457  1.00  0.00    -0.550 OA
ATOM     17  O   UNL     1     134.422 146.135 115.164  1.00  0.00    -0.550 OA
ENDBRANCH  14  15
ENDBRANCH  13  14
ENDBRANCH  12  13
ENDBRANCH  11  12
ENDBRANCH  10  11
ENDBRANCH   9  10
ENDBRANCH   8   9
ENDBRANCH   7   8
ENDBRANCH   6   7
ENDBRANCH   5   6
ENDBRANCH   4   5
ENDBRANCH   3   4
ENDBRANCH   2   3
ENDBRANCH   1   2
BRANCH   1  18
ATOM     18  C   UNL     1     129.651 141.980 106.527  1.00  0.00     0.000 C 
BRANCH  18  19
ATOM     19  C   UNL     1     128.205 141.556 106.199  1.00  0.00     0.000 C 
BRANCH  19  20
ATOM     20  C   UNL     1     127.239 142.718 105.887  1.00  0.00     0.000 C 
BRANCH  20  21
ATOM     21  C   UNL     1     127.833 143.854 105.034  1.00  0.00     0.000 C 
BRANCH  21  22
ATOM     22  C   UNL     1     127.655 145.239 105.678  1.00  0.00     0.000 C 
BRANCH  22  23
ATOM     23  C   UNL     1     128.805 145.607 106.634  1.00  0.00     0.000 C 
BRANCH  23  24
ATOM     24  C   UNL     1     130.208 145.646 105.994  1.00  0.00    -0.000 C 
BRANCH  24  25
ATOM     25  C   UNL     1     131.382 145.572 106.988  1.00  0.00    -0.000 C 
BRANCH  25  26
ATOM     26  C   UNL     1     132.668 145.017 106.357  1.00  0.00    -0.000 C 
BRANCH  26  27
ATOM     27  C   UNL     1     133.292 146.042 105.397  1.00  0.00    -0.000 C 
BRANCH  27  28
ATOM     28  C   UNL     1     134.691 145.629 104.913  1.00  0.00    -0.000 C 
BRANCH  28  29
ATOM     29  C   UNL     1     135.819 146.309 105.704  1.00  0.00    -0.000 C 
BRANCH  29  30
ATOM     30  C   UNL     1     136.387 145.360 106.770  1.00  0.00    -0.000 C 
BRANCH  30  31
ATOM     31  C   UNL     1     135.875 145.683 108.182  1.00  0.00    -0.003 C 
ATOM     32  C   UNL     1     135.830 144.455 109.090  1.00  0.00     0.004 C 
ENDBRANCH  30  31
ENDBRANCH  29  30
ENDBRANCH  28  29
ENDBRANCH  27  28
ENDBRANCH  26  27
ENDBRANCH  25  26
ENDBRANCH  24  25
ENDBRANCH  23  24
ENDBRANCH  22  23
ENDBRANCH  21  22
ENDBRANCH  20  21
ENDBRANCH  19  20
ENDBRANCH  18  19
ENDBRANCH   1  18
TORSDOF 28
ENDMDL
MODEL 9
REMARK VINA RESULT:    -3.318      2.713      6.742
REMARK INTER + INTRA:         -15.106
REMARK INTER:                  -9.121
REMARK INTRA:                  -5.984
REMARK UNBOUND:                -6.357
REMARK SMILES CCCCCCCCCCCCCCCCCCCCCCCCCCCCCC(=O)[O-]
REMARK SMILES IDX 16 1 17 2 18 3 19 4 20 5 21 6 22 7 23 8 24 9 25 10 26 11
REMARK SMILES IDX 27 12 28 13 29 14 30 15 31 16 32 17 15 18 14 19 13 20 12 21
REMARK SMILES IDX 11 22 10 23 9 24 8 25 7 26 6 27 5 28 4 29 3 30 2 31 1 32
REMARK H PARENT
REMARK Flexibility Score: inf
ROOT
ATOM      1  C   UNL     1     130.691 143.144 107.738  1.00  0.00     0.000 C 
ENDROOT
BRANCH   1   2
ATOM      2  C   UNL     1     129.746 141.929 107.822  1.00  0.00     0.000 C 
BRANCH   2   3
ATOM      3  C   UNL     1     129.354 141.311 106.464  1.00  0.00     0.000 C 
BRANCH   3   4
ATOM      4  C   UNL     1     127.845 141.315 106.157  1.00  0.00     0.000 C 
BRANCH   4   5
ATOM      5  C   UNL     1     127.194 142.683 106.420  1.00  0.00     0.000 C 
BRANCH   5   6
ATOM      6  C   UNL     1     127.565 143.734 105.360  1.00  0.00     0.000 C 
BRANCH   6   7
ATOM      7  C   UNL     1     127.437 145.174 105.882  1.00  0.00     0.000 C 
BRANCH   7   8
ATOM      8  C   UNL     1     127.090 145.239 107.381  1.00  0.00     0.000 C 
BRANCH   8   9
ATOM      9  C   UNL     1     128.105 145.998 108.262  1.00  0.00     0.000 C 
BRANCH   9  10
ATOM     10  C   UNL     1     128.430 145.331 109.610  1.00  0.00     0.000 C 
BRANCH  10  11
ATOM     11  C   UNL     1     127.623 144.042 109.843  1.00  0.00     0.000 C 
BRANCH  11  12
ATOM     12  C   UNL     1     127.630 143.602 111.316  1.00  0.00     0.000 C 
BRANCH  12  13
ATOM     13  C   UNL     1     128.903 144.052 112.057  1.00  0.00     0.006 C 
BRANCH  13  14
ATOM     14  C   UNL     1     128.606 144.524 113.487  1.00  0.00     0.053 C 
BRANCH  14  15
ATOM     15  C   UNL     1     129.613 144.005 114.468  1.00  0.00     0.041 C 
ATOM     16  O   UNL     1     130.522 143.218 114.088  1.00  0.00    -0.550 OA
ATOM     17  O   UNL     1     129.570 144.418 115.794  1.00  0.00    -0.550 OA
ENDBRANCH  14  15
ENDBRANCH  13  14
ENDBRANCH  12  13
ENDBRANCH  11  12
ENDBRANCH  10  11
ENDBRANCH   9  10
ENDBRANCH   8   9
ENDBRANCH   7   8
ENDBRANCH   6   7
ENDBRANCH   5   6
ENDBRANCH   4   5
ENDBRANCH   3   4
ENDBRANCH   2   3
ENDBRANCH   1   2
BRANCH   1  18
ATOM     18  C   UNL     1     131.108 143.545 106.309  1.00  0.00     0.000 C 
BRANCH  18  19
ATOM     19  C   UNL     1     131.014 145.054 106.006  1.00  0.00     0.000 C 
BRANCH  19  20
ATOM     20  C   UNL     1     131.565 145.977 107.114  1.00  0.00     0.000 C 
BRANCH  20  21
ATOM     21  C   UNL     1     132.931 146.619 106.813  1.00  0.00     0.000 C 
BRANCH  21  22
ATOM     22  C   UNL     1     133.442 146.300 105.398  1.00  0.00     0.000 C 
BRANCH  22  23
ATOM     23  C   UNL     1     134.932 145.910 105.373  1.00  0.00     0.000 C 
BRANCH  23  24
ATOM     24  C   UNL     1     135.222 144.402 105.515  1.00  0.00    -0.000 C 
BRANCH  24  25
ATOM     25  C   UNL     1     136.120 144.020 106.705  1.00  0.00    -0.000 C 
BRANCH  25  26
ATOM     26  C   UNL     1     135.474 142.981 107.635  1.00  0.00    -0.000 C 
BRANCH  26  27
ATOM     27  C   UNL     1     134.205 143.548 108.290  1.00  0.00    -0.000 C 
BRANCH  27  28
ATOM     28  C   UNL     1     134.383 143.830 109.789  1.00  0.00    -0.000 C 
BRANCH  28  29
ATOM     29  C   UNL     1     133.756 145.164 110.222  1.00  0.00    -0.000 C 
BRANCH  29  30
ATOM     30  C   UNL     1     132.254 144.997 110.500  1.00  0.00    -0.000 C 
BRANCH  30  31
ATOM     31  C   UNL     1     131.594 146.298 110.981  1.00  0.00    -0.003 C 
ATOM     32  C   UNL     1     131.776 146.534 112.480  1.00  0.00     0.004 C 
ENDBRANCH  30  31
ENDBRANCH  29  30
ENDBRANCH  28  29
ENDBRANCH  27  28
ENDBRANCH  26  27
ENDBRANCH  25  26
ENDBRANCH  24  25
ENDBRANCH  23  24
ENDBRANCH  22  23
ENDBRANCH  21  22
ENDBRANCH  20  21
ENDBRANCH  19  20
ENDBRANCH  18  19
ENDBRANCH   1  18
TORSDOF 28
ENDMDL
