MODEL 1
REMARK VINA RESULT:    -3.195      0.000      0.000
REMARK INTER + INTRA:          -4.347
REMARK INTER:                  -4.129
REMARK INTRA:                  -0.217
REMARK UNBOUND:                -0.217
REMARK SMILES CCCCCCC(=O)[O-]
REMARK SMILES IDX 5 1 6 2 7 3 8 4 9 5 4 6 3 7 2 8 1 9
REMARK H PARENT
REMARK Flexibility Score: inf
ROOT
ATOM      1  C   UNL     1      17.184  -9.791  13.252  1.00  0.00     0.006 C 
ENDROOT
BRANCH   1   2
ATOM      2  C   UNL     1      15.833  -9.561  13.941  1.00  0.00     0.053 C 
BRANCH   2   3
ATOM      3  C   UNL     1      15.951  -9.644  15.433  1.00  0.00     0.041 C 
ATOM      4  O   UNL     1      14.979 -10.049  16.123  1.00  0.00    -0.550 OA
ATOM      5  O   UNL     1      17.122  -9.240  16.061  1.00  0.00    -0.550 OA
ENDBRANCH   2   3
ENDBRANCH   1   2
BRANCH   1   6
ATOM      6  C   UNL     1      17.288  -9.043  11.912  1.00  0.00     0.000 C 
BRANCH   6   7
ATOM      7  C   UNL     1      17.831  -9.926  10.774  1.00  0.00    -0.000 C 
BRANCH   7   8
ATOM      8  C   UNL     1      16.864 -10.125   9.593  1.00  0.00    -0.003 C 
ATOM      9  C   UNL     1      15.395 -10.098  10.011  1.00  0.00     0.004 C 
ENDBRANCH   7   8
ENDBRANCH   6   7
ENDBRANCH   1   6
TORSDOF 5
ENDMDL
MODEL 2
REMARK VINA RESULT:    -2.903      0.828      1.841
REMARK INTER + INTRA:          -3.969
REMARK INTER:                  -3.998
REMARK INTRA:                   0.029
REMARK UNBOUND:                -0.217
REMARK SMILES CCCCCCC(=O)[O-]
REMARK SMILES IDX 5 1 6 2 7 3 8 4 9 5 4 6 3 7 2 8 1 9
REMARK H PARENT
REMARK Flexibility Score: inf
ROOT
ATOM      1  C   UNL     1      16.340  -9.868  13.053  1.00  0.00     0.006 C 
ENDROOT
BRANCH   1   2
ATOM      2  C   UNL     1      15.394  -9.361  14.149  1.00  0.00     0.053 C 
BRANCH   2   3
ATOM      3  C   UNL     1      16.016  -9.466  15.509  1.00  0.00     0.041 C 
ATOM      4  O   UNL     1      17.161  -8.989  15.720  1.00  0.00    -0.550 OA
ATOM      5  O   UNL     1      15.343 -10.122  16.532  1.00  0.00    -0.550 OA
ENDBRANCH   2   3
ENDBRANCH   1   2
BRANCH   1   6
ATOM      6  C   UNL     1      16.238  -9.031  11.766  1.00  0.00     0.000 C 
BRANCH   6   7
ATOM      7  C   UNL     1      16.559  -9.843  10.498  1.00  0.00    -0.000 C 
BRANCH   7   8
ATOM      8  C   UNL     1      18.044  -9.852  10.095  1.00  0.00    -0.003 C 
ATOM      9  C   UNL     1      18.938  -9.110  11.087  1.00  0.00     0.004 C 
ENDBRANCH   7   8
ENDBRANCH   6   7
ENDBRANCH   1   6
TORSDOF 5
ENDMDL
MODEL 3
REMARK VINA RESULT:    -2.750     22.151     23.223
REMARK INTER + INTRA:          -3.771
REMARK INTER:                  -3.609
REMARK INTRA:                  -0.162
REMARK UNBOUND:                -0.217
REMARK SMILES CCCCCCC(=O)[O-]
REMARK SMILES IDX 5 1 6 2 7 3 8 4 9 5 4 6 3 7 2 8 1 9
REMARK H PARENT
REMARK Flexibility Score: inf
ROOT
ATOM      1  C   UNL     1       2.804   6.897   2.870  1.00  0.00     0.006 C 
ENDROOT
BRANCH   1   2
ATOM      2  C   UNL     1       3.850   5.903   3.391  1.00  0.00     0.053 C 
BRANCH   2   3
ATOM      3  C   UNL     1       5.113   6.597   3.805  1.00  0.00     0.041 C 
ATOM      4  O   UNL     1       5.072   7.554   4.621  1.00  0.00    -0.550 OA
ATOM      5  O   UNL     1       6.330   6.206   3.261  1.00  0.00    -0.550 OA
ENDBRANCH   2   3
ENDBRANCH   1   2
BRANCH   1   6
ATOM      6  C   UNL     1       1.576   6.984   3.793  1.00  0.00     0.000 C 
BRANCH   6   7
ATOM      7  C   UNL     1       0.533   5.890   3.506  1.00  0.00    -0.000 C 
BRANCH   7   8
ATOM      8  C   UNL     1       0.405   4.817   4.602  1.00  0.00    -0.003 C 
ATOM      9  C   UNL     1      -0.973   4.157   4.635  1.00  0.00     0.004 C 
ENDBRANCH   7   8
ENDBRANCH   6   7
ENDBRANCH   1   6
TORSDOF 5
ENDMDL
MODEL 4
REMARK VINA RESULT:    -2.474      3.261      5.100
REMARK INTER + INTRA:          -3.415
REMARK INTER:                  -3.263
REMARK INTRA:                  -0.152
REMARK UNBOUND:                -0.217
REMARK SMILES CCCCCCC(=O)[O-]
REMARK SMILES IDX 5 1 6 2 7 3 8 4 9 5 4 6 3 7 2 8 1 9
REMARK H PARENT
REMARK Flexibility Score: inf
ROOT
ATOM      1  C   UNL     1      17.566  -9.323  12.612  1.00  0.00     0.006 C 
ENDROOT
BRANCH   1   2
ATOM      2  C   UNL     1      18.517  -9.024  11.446  1.00  0.00     0.053 C 
BRANCH   2   3
ATOM      3  C   UNL     1      18.094  -9.728  10.192  1.00  0.00     0.041 C 
ATOM      4  O   UNL     1      18.957 -10.124   9.367  1.00  0.00    -0.550 OA
ATOM      5  O   UNL     1      16.744  -9.913   9.921  1.00  0.00    -0.550 OA
ENDBRANCH   2   3
ENDBRANCH   1   2
BRANCH   1   6
ATOM      6  C   UNL     1      18.322  -9.739  13.886  1.00  0.00     0.000 C 
BRANCH   6   7
ATOM      7  C   UNL     1      17.404  -9.852  15.116  1.00  0.00    -0.000 C 
BRANCH   7   8
ATOM      8  C   UNL     1      15.951  -9.401  14.882  1.00  0.00    -0.003 C 
ATOM      9  C   UNL     1      14.955 -10.080  15.821  1.00  0.00     0.004 C 
ENDBRANCH   7   8
ENDBRANCH   6   7
ENDBRANCH   1   6
TORSDOF 5
ENDMDL
MODEL 5
REMARK VINA RESULT:    -2.408      2.917      4.506
REMARK INTER + INTRA:          -3.330
REMARK INTER:                  -3.279
REMARK INTRA:                  -0.050
REMARK UNBOUND:                -0.217
REMARK SMILES CCCCCCC(=O)[O-]
REMARK SMILES IDX 5 1 6 2 7 3 8 4 9 5 4 6 3 7 2 8 1 9
REMARK H PARENT
REMARK Flexibility Score: inf
ROOT
ATOM      1  C   UNL     1      17.914  -8.650  11.418  1.00  0.00     0.006 C 
ENDROOT
BRANCH   1   2
ATOM      2  C   UNL     1      17.477  -9.629  10.320  1.00  0.00     0.053 C 
BRANCH   2   3
ATOM      3  C   UNL     1      16.009  -9.923  10.393  1.00  0.00     0.041 C 
ATOM      4  O   UNL     1      15.349 -10.121   9.340  1.00  0.00    -0.550 OA
ATOM      5  O   UNL     1      15.365  -9.943  11.624  1.00  0.00    -0.550 OA
ENDBRANCH   2   3
ENDBRANCH   1   2
BRANCH   1   6
ATOM      6  C   UNL     1      19.118  -9.175  12.218  1.00  0.00     0.000 C 
BRANCH   6   7
ATOM      7  C   UNL     1      18.789  -9.422  13.701  1.00  0.00    -0.000 C 
BRANCH   7   8
ATOM      8  C   UNL     1      17.287  -9.494  14.026  1.00  0.00    -0.003 C 
ATOM      9  C   UNL     1      16.985  -9.296  15.511  1.00  0.00     0.004 C 
ENDBRANCH   7   8
ENDBRANCH   6   7
ENDBRANCH   1   6
TORSDOF 5
ENDMDL
MODEL 6
REMARK VINA RESULT:    -2.349     22.651     24.012
REMARK INTER + INTRA:          -3.253
REMARK INTER:                  -3.158
REMARK INTRA:                  -0.095
REMARK UNBOUND:                -0.217
REMARK SMILES CCCCCCC(=O)[O-]
REMARK SMILES IDX 5 1 6 2 7 3 8 4 9 5 4 6 3 7 2 8 1 9
REMARK H PARENT
REMARK Flexibility Score: inf
ROOT
ATOM      1  C   UNL     1       1.244   6.796  22.125  1.00  0.00     0.006 C 
ENDROOT
BRANCH   1   2
ATOM      2  C   UNL     1       0.049   7.417  21.389  1.00  0.00     0.053 C 
BRANCH   2   3
ATOM      3  C   UNL     1       0.116   8.915  21.391  1.00  0.00     0.041 C 
ATOM      4  O   UNL     1      -0.932   9.596  21.245  1.00  0.00    -0.550 OA
ATOM      5  O   UNL     1       1.343   9.555  21.517  1.00  0.00    -0.550 OA
ENDBRANCH   2   3
ENDBRANCH   1   2
BRANCH   1   6
ATOM      6  C   UNL     1       2.165   6.010  21.175  1.00  0.00     0.000 C 
BRANCH   6   7
ATOM      7  C   UNL     1       3.362   5.368  21.899  1.00  0.00    -0.000 C 
BRANCH   7   8
ATOM      8  C   UNL     1       4.493   4.886  20.974  1.00  0.00    -0.003 C 
ATOM      9  C   UNL     1       5.780   4.552  21.726  1.00  0.00     0.004 C 
ENDBRANCH   7   8
ENDBRANCH   6   7
ENDBRANCH   1   6
TORSDOF 5
ENDMDL
MODEL 7
REMARK VINA RESULT:    -2.276     22.532     23.606
REMARK INTER + INTRA:          -3.159
REMARK INTER:                  -2.992
REMARK INTRA:                  -0.167
REMARK UNBOUND:                -0.217
REMARK SMILES CCCCCCC(=O)[O-]
REMARK SMILES IDX 5 1 6 2 7 3 8 4 9 5 4 6 3 7 2 8 1 9
REMARK H PARENT
REMARK Flexibility Score: inf
ROOT
ATOM      1  C   UNL     1       1.656   6.768   2.616  1.00  0.00     0.006 C 
ENDROOT
BRANCH   1   2
ATOM      2  C   UNL     1       0.773   6.676   3.867  1.00  0.00     0.053 C 
BRANCH   2   3
ATOM      3  C   UNL     1       0.112   5.335   3.981  1.00  0.00     0.041 C 
ATOM      4  O   UNL     1       0.392   4.570   4.940  1.00  0.00    -0.550 OA
ATOM      5  O   UNL     1      -0.787   4.920   3.006  1.00  0.00    -0.550 OA
ENDBRANCH   2   3
ENDBRANCH   1   2
BRANCH   1   6
ATOM      6  C   UNL     1       3.141   6.523   2.934  1.00  0.00     0.000 C 
BRANCH   6   7
ATOM      7  C   UNL     1       3.742   7.602   3.852  1.00  0.00    -0.000 C 
BRANCH   7   8
ATOM      8  C   UNL     1       5.251   7.457   4.118  1.00  0.00    -0.003 C 
ATOM      9  C   UNL     1       5.809   6.105   3.678  1.00  0.00     0.004 C 
ENDBRANCH   7   8
ENDBRANCH   6   7
ENDBRANCH   1   6
TORSDOF 5
ENDMDL
MODEL 8
REMARK VINA RESULT:    -2.234     21.922     22.954
REMARK INTER + INTRA:          -3.104
REMARK INTER:                  -2.920
REMARK INTRA:                  -0.184
REMARK UNBOUND:                -0.217
REMARK SMILES CCCCCCC(=O)[O-]
REMARK SMILES IDX 5 1 6 2 7 3 8 4 9 5 4 6 3 7 2 8 1 9
REMARK H PARENT
REMARK Flexibility Score: inf
ROOT
ATOM      1  C   UNL     1       4.159   7.783   3.130  1.00  0.00     0.006 C 
ENDROOT
BRANCH   1   2
ATOM      2  C   UNL     1       4.805   6.626   3.903  1.00  0.00     0.053 C 
BRANCH   2   3
ATOM      3  C   UNL     1       5.892   5.968   3.108  1.00  0.00     0.041 C 
ATOM      4  O   UNL     1       5.817   4.744   2.824  1.00  0.00    -0.550 OA
ATOM      5  O   UNL     1       7.004   6.701   2.711  1.00  0.00    -0.550 OA
ENDBRANCH   2   3
ENDBRANCH   1   2
BRANCH   1   6
ATOM      6  C   UNL     1       2.643   7.590   2.956  1.00  0.00     0.000 C 
BRANCH   6   7
ATOM      7  C   UNL     1       2.161   6.200   3.408  1.00  0.00    -0.000 C 
BRANCH   7   8
ATOM      8  C   UNL     1       0.739   6.168   3.995  1.00  0.00    -0.003 C 
ATOM      9  C   UNL     1       0.362   4.806   4.576  1.00  0.00     0.004 C 
ENDBRANCH   7   8
ENDBRANCH   6   7
ENDBRANCH   1   6
TORSDOF 5
ENDMDL
