MODEL 1
REMARK VINA RESULT:    -4.071      0.000      0.000
REMARK INTER + INTRA:          -4.793
REMARK INTER:                  -4.785
REMARK INTRA:                  -0.008
REMARK UNBOUND:                -0.008
REMARK SMILES [NH3+][C@H](CO)C(=O)[O-]
REMARK SMILES IDX 3 1 2 2 1 3 5 7 6 8 7 9 4 10
REMARK H PARENT 1 4 1 5 1 6 4 11
REMARK Flexibility Score: inf
ROOT
ATOM      1  C   UNL     1      13.673  36.693  11.806  1.00  0.00     0.227 C 
ENDROOT
BRANCH   1   2
ATOM      2  C   UNL     1      13.741  36.101  13.226  1.00  0.00     0.253 C 
BRANCH   2   3
ATOM      3  N   UNL     1      12.401  35.995  13.819  1.00  0.00    -0.348 N 
ATOM      4  H   UNL     1      11.663  36.070  13.081  1.00  0.00     0.345 HD
ATOM      5  H   UNL     1      12.303  35.077  14.311  1.00  0.00     0.345 HD
ATOM      6  H   UNL     1      12.262  36.756  14.522  1.00  0.00     0.345 HD
ENDBRANCH   2   3
BRANCH   2   7
ATOM      7  C   UNL     1      14.402  34.749  13.187  1.00  0.00     0.102 C 
ATOM      8  O   UNL     1      13.736  33.729  12.868  1.00  0.00    -0.544 OA
ATOM      9  O   UNL     1      15.745  34.614  13.519  1.00  0.00    -0.544 OA
ENDBRANCH   2   7
ENDBRANCH   1   2
BRANCH   1  10
ATOM     10  O   UNL     1      12.524  37.481  11.650  1.00  0.00    -0.390 OA
ATOM     11  H   UNL     1      12.399  37.610  10.674  1.00  0.00     0.210 HD
ENDBRANCH   1  10
TORSDOF 4
ENDMDL
MODEL 2
REMARK VINA RESULT:    -3.858     10.395     10.935
REMARK INTER + INTRA:          -4.543
REMARK INTER:                  -4.294
REMARK INTRA:                  -0.250
REMARK UNBOUND:                -0.008
REMARK SMILES [NH3+][C@H](CO)C(=O)[O-]
REMARK SMILES IDX 3 1 2 2 1 3 5 7 6 8 7 9 4 10
REMARK H PARENT 1 4 1 5 1 6 4 11
REMARK Flexibility Score: inf
ROOT
ATOM      1  C   UNL     1       4.182  40.738  12.355  1.00  0.00     0.227 C 
ENDROOT
BRANCH   1   2
ATOM      2  C   UNL     1       4.435  39.243  12.625  1.00  0.00     0.253 C 
BRANCH   2   3
ATOM      3  N   UNL     1       4.987  39.035  13.970  1.00  0.00    -0.348 N 
ATOM      4  H   UNL     1       5.304  38.044  14.091  1.00  0.00     0.345 HD
ATOM      5  H   UNL     1       5.798  39.677  14.124  1.00  0.00     0.345 HD
ATOM      6  H   UNL     1       4.260  39.252  14.690  1.00  0.00     0.345 HD
ENDBRANCH   2   3
BRANCH   2   7
ATOM      7  C   UNL     1       3.155  38.469  12.461  1.00  0.00     0.102 C 
ATOM      8  O   UNL     1       2.086  38.899  12.972  1.00  0.00    -0.544 OA
ATOM      9  O   UNL     1       3.144  37.269  11.761  1.00  0.00    -0.544 OA
ENDBRANCH   2   7
ENDBRANCH   1   2
BRANCH   1  10
ATOM     10  O   UNL     1       3.299  40.907  11.280  1.00  0.00    -0.390 OA
ATOM     11  H   UNL     1       2.565  40.252  11.409  1.00  0.00     0.210 HD
ENDBRANCH   1  10
TORSDOF 4
ENDMDL
MODEL 3
REMARK VINA RESULT:    -3.755      2.399      3.722
REMARK INTER + INTRA:          -4.422
REMARK INTER:                  -4.402
REMARK INTRA:                  -0.020
REMARK UNBOUND:                -0.008
REMARK SMILES [NH3+][C@H](CO)C(=O)[O-]
REMARK SMILES IDX 3 1 2 2 1 3 5 7 6 8 7 9 4 10
REMARK H PARENT 1 4 1 5 1 6 4 11
REMARK Flexibility Score: inf
ROOT
ATOM      1  C   UNL     1      14.892  31.988  12.713  1.00  0.00     0.227 C 
ENDROOT
BRANCH   1   2
ATOM      2  C   UNL     1      13.623  32.859  12.773  1.00  0.00     0.253 C 
BRANCH   2   3
ATOM      3  N   UNL     1      12.590  32.232  13.607  1.00  0.00    -0.348 N 
ATOM      4  H   UNL     1      11.634  32.469  13.254  1.00  0.00     0.345 HD
ATOM      5  H   UNL     1      12.711  31.193  13.599  1.00  0.00     0.345 HD
ATOM      6  H   UNL     1      12.682  32.562  14.596  1.00  0.00     0.345 HD
ENDBRANCH   2   3
BRANCH   2   7
ATOM      7  C   UNL     1      13.964  34.225  13.306  1.00  0.00     0.102 C 
ATOM      8  O   UNL     1      13.048  35.003  13.685  1.00  0.00    -0.544 OA
ATOM      9  O   UNL     1      15.288  34.643  13.370  1.00  0.00    -0.544 OA
ENDBRANCH   2   7
ENDBRANCH   1   2
BRANCH   1  10
ATOM     10  O   UNL     1      14.973  31.311  11.488  1.00  0.00    -0.390 OA
ATOM     11  H   UNL     1      14.244  31.668  10.917  1.00  0.00     0.210 HD
ENDBRANCH   1  10
TORSDOF 4
ENDMDL
MODEL 4
REMARK VINA RESULT:    -3.729     14.674     15.579
REMARK INTER + INTRA:          -4.392
REMARK INTER:                  -4.194
REMARK INTRA:                  -0.198
REMARK UNBOUND:                -0.008
REMARK SMILES [NH3+][C@H](CO)C(=O)[O-]
REMARK SMILES IDX 3 1 2 2 1 3 5 7 6 8 7 9 4 10
REMARK H PARENT 1 4 1 5 1 6 4 11
REMARK Flexibility Score: inf
ROOT
ATOM      1  C   UNL     1       6.106  47.990   9.527  1.00  0.00     0.227 C 
ENDROOT
BRANCH   1   2
ATOM      2  C   UNL     1       4.998  46.924   9.434  1.00  0.00     0.253 C 
BRANCH   2   3
ATOM      3  N   UNL     1       4.461  46.603  10.763  1.00  0.00    -0.348 N 
ATOM      4  H   UNL     1       3.420  46.715  10.779  1.00  0.00     0.345 HD
ATOM      5  H   UNL     1       4.704  45.617  11.015  1.00  0.00     0.345 HD
ATOM      6  H   UNL     1       4.885  47.235  11.481  1.00  0.00     0.345 HD
ENDBRANCH   2   3
BRANCH   2   7
ATOM      7  C   UNL     1       3.896  47.408   8.530  1.00  0.00     0.102 C 
ATOM      8  O   UNL     1       4.153  48.207   7.591  1.00  0.00    -0.544 OA
ATOM      9  O   UNL     1       2.586  46.990   8.735  1.00  0.00    -0.544 OA
ENDBRANCH   2   7
ENDBRANCH   1   2
BRANCH   1  10
ATOM     10  O   UNL     1       7.087  47.773   8.549  1.00  0.00    -0.390 OA
ATOM     11  H   UNL     1       7.858  48.351   8.788  1.00  0.00     0.210 HD
ENDBRANCH   1  10
TORSDOF 4
ENDMDL
MODEL 5
REMARK VINA RESULT:    -3.721     10.109     11.536
REMARK INTER + INTRA:          -4.382
REMARK INTER:                  -4.374
REMARK INTRA:                  -0.008
REMARK UNBOUND:                -0.008
REMARK SMILES [NH3+][C@H](CO)C(=O)[O-]
REMARK SMILES IDX 3 1 2 2 1 3 5 7 6 8 7 9 4 10
REMARK H PARENT 1 4 1 5 1 6 4 11
REMARK Flexibility Score: inf
ROOT
ATOM      1  C   UNL     1       4.980  39.858  13.309  1.00  0.00     0.227 C 
ENDROOT
BRANCH   1   2
ATOM      2  C   UNL     1       3.808  39.456  12.395  1.00  0.00     0.253 C 
BRANCH   2   3
ATOM      3  N   UNL     1       3.149  38.238  12.885  1.00  0.00    -0.348 N 
ATOM      4  H   UNL     1       3.852  37.485  13.067  1.00  0.00     0.345 HD
ATOM      5  H   UNL     1       2.633  38.447  13.770  1.00  0.00     0.345 HD
ATOM      6  H   UNL     1       2.458  37.899  12.178  1.00  0.00     0.345 HD
ENDBRANCH   2   3
BRANCH   2   7
ATOM      7  C   UNL     1       2.817  40.585  12.306  1.00  0.00     0.102 C 
ATOM      8  O   UNL     1       3.022  41.548  11.520  1.00  0.00    -0.544 OA
ATOM      9  O   UNL     1       1.677  40.582  13.101  1.00  0.00    -0.544 OA
ENDBRANCH   2   7
ENDBRANCH   1   2
BRANCH   1  10
ATOM     10  O   UNL     1       5.268  38.838  14.227  1.00  0.00    -0.390 OA
ATOM     11  H   UNL     1       4.397  38.444  14.496  1.00  0.00     0.210 HD
ENDBRANCH   1  10
TORSDOF 4
ENDMDL
MODEL 6
REMARK VINA RESULT:    -3.586     12.804     13.169
REMARK INTER + INTRA:          -4.223
REMARK INTER:                  -3.830
REMARK INTRA:                  -0.393
REMARK UNBOUND:                -0.008
REMARK SMILES [NH3+][C@H](CO)C(=O)[O-]
REMARK SMILES IDX 3 1 2 2 1 3 5 7 6 8 7 9 4 10
REMARK H PARENT 1 4 1 5 1 6 4 11
REMARK Flexibility Score: inf
ROOT
ATOM      1  C   UNL     1       3.871  44.274  11.835  1.00  0.00     0.227 C 
ENDROOT
BRANCH   1   2
ATOM      2  C   UNL     1       2.682  43.315  12.036  1.00  0.00     0.253 C 
BRANCH   2   3
ATOM      3  N   UNL     1       1.409  43.982  11.732  1.00  0.00    -0.348 N 
ATOM      4  H   UNL     1       0.845  44.118  12.603  1.00  0.00     0.345 HD
ATOM      5  H   UNL     1       1.593  44.914  11.293  1.00  0.00     0.345 HD
ATOM      6  H   UNL     1       0.859  43.407  11.053  1.00  0.00     0.345 HD
ENDBRANCH   2   3
BRANCH   2   7
ATOM      7  C   UNL     1       2.853  42.098  11.166  1.00  0.00     0.102 C 
ATOM      8  O   UNL     1       3.230  41.008  11.672  1.00  0.00    -0.544 OA
ATOM      9  O   UNL     1       2.611  42.172   9.800  1.00  0.00    -0.544 OA
ENDBRANCH   2   7
ENDBRANCH   1   2
BRANCH   1  10
ATOM     10  O   UNL     1       4.918  43.632  11.158  1.00  0.00    -0.390 OA
ATOM     11  H   UNL     1       4.994  44.071  10.271  1.00  0.00     0.210 HD
ENDBRANCH   1  10
TORSDOF 4
ENDMDL
MODEL 7
REMARK VINA RESULT:    -3.573     12.603     13.324
REMARK INTER + INTRA:          -4.208
REMARK INTER:                  -3.996
REMARK INTRA:                  -0.211
REMARK UNBOUND:                -0.008
REMARK SMILES [NH3+][C@H](CO)C(=O)[O-]
REMARK SMILES IDX 3 1 2 2 1 3 5 7 6 8 7 9 4 10
REMARK H PARENT 1 4 1 5 1 6 4 11
REMARK Flexibility Score: inf
ROOT
ATOM      1  C   UNL     1       4.566  45.750  10.001  1.00  0.00     0.227 C 
ENDROOT
BRANCH   1   2
ATOM      2  C   UNL     1       3.705  44.475  10.078  1.00  0.00     0.253 C 
BRANCH   2   3
ATOM      3  N   UNL     1       3.846  43.668   8.859  1.00  0.00    -0.348 N 
ATOM      4  H   UNL     1       3.404  44.149   8.042  1.00  0.00     0.345 HD
ATOM      5  H   UNL     1       4.860  43.508   8.656  1.00  0.00     0.345 HD
ATOM      6  H   UNL     1       3.392  42.736   8.995  1.00  0.00     0.345 HD
ENDBRANCH   2   3
BRANCH   2   7
ATOM      7  C   UNL     1       4.094  43.667  11.286  1.00  0.00     0.102 C 
ATOM      8  O   UNL     1       4.044  42.409  11.248  1.00  0.00    -0.544 OA
ATOM      9  O   UNL     1       4.495  44.301  12.456  1.00  0.00    -0.544 OA
ENDBRANCH   2   7
ENDBRANCH   1   2
BRANCH   1  10
ATOM     10  O   UNL     1       4.192  46.664  10.996  1.00  0.00    -0.390 OA
ATOM     11  H   UNL     1       3.259  46.441  11.251  1.00  0.00     0.210 HD
ENDBRANCH   1  10
TORSDOF 4
ENDMDL
MODEL 8
REMARK VINA RESULT:    -3.533      2.235      2.394
REMARK INTER + INTRA:          -4.161
REMARK INTER:                  -4.139
REMARK INTRA:                  -0.021
REMARK UNBOUND:                -0.008
REMARK SMILES [NH3+][C@H](CO)C(=O)[O-]
REMARK SMILES IDX 3 1 2 2 1 3 5 7 6 8 7 9 4 10
REMARK H PARENT 1 4 1 5 1 6 4 11
REMARK Flexibility Score: inf
ROOT
ATOM      1  C   UNL     1      13.159  35.150  13.724  1.00  0.00     0.227 C 
ENDROOT
BRANCH   1   2
ATOM      2  C   UNL     1      14.249  34.399  12.937  1.00  0.00     0.253 C 
BRANCH   2   3
ATOM      3  N   UNL     1      15.573  34.606  13.539  1.00  0.00    -0.348 N 
ATOM      4  H   UNL     1      15.843  35.617  13.502  1.00  0.00     0.345 HD
ATOM      5  H   UNL     1      15.562  34.289  14.535  1.00  0.00     0.345 HD
ATOM      6  H   UNL     1      16.289  34.041  13.026  1.00  0.00     0.345 HD
ENDBRANCH   2   3
BRANCH   2   7
ATOM      7  C   UNL     1      13.925  32.931  12.885  1.00  0.00     0.102 C 
ATOM      8  O   UNL     1      12.844  32.504  13.371  1.00  0.00    -0.544 OA
ATOM      9  O   UNL     1      14.821  32.033  12.316  1.00  0.00    -0.544 OA
ENDBRANCH   2   7
ENDBRANCH   1   2
BRANCH   1  10
ATOM     10  O   UNL     1      12.757  36.305  13.039  1.00  0.00    -0.390 OA
ATOM     11  H   UNL     1      12.946  37.072  13.639  1.00  0.00     0.210 HD
ENDBRANCH   1  10
TORSDOF 4
ENDMDL
MODEL 9
REMARK VINA RESULT:    -3.477     12.082     13.056
REMARK INTER + INTRA:          -4.096
REMARK INTER:                  -3.690
REMARK INTRA:                  -0.405
REMARK UNBOUND:                -0.008
REMARK SMILES [NH3+][C@H](CO)C(=O)[O-]
REMARK SMILES IDX 3 1 2 2 1 3 5 7 6 8 7 9 4 10
REMARK H PARENT 1 4 1 5 1 6 4 11
REMARK Flexibility Score: inf
ROOT
ATOM      1  C   UNL     1       3.119  41.345  11.768  1.00  0.00     0.227 C 
ENDROOT
BRANCH   1   2
ATOM      2  C   UNL     1       2.525  42.663  11.236  1.00  0.00     0.253 C 
BRANCH   2   3
ATOM      3  N   UNL     1       1.616  43.268  12.218  1.00  0.00    -0.348 N 
ATOM      4  H   UNL     1       0.623  43.200  11.895  1.00  0.00     0.345 HD
ATOM      5  H   UNL     1       1.713  42.779  13.138  1.00  0.00     0.345 HD
ATOM      6  H   UNL     1       1.863  44.275  12.358  1.00  0.00     0.345 HD
ENDBRANCH   2   3
BRANCH   2   7
ATOM      7  C   UNL     1       3.633  43.622  10.892  1.00  0.00     0.102 C 
ATOM      8  O   UNL     1       4.119  43.637   9.730  1.00  0.00    -0.544 OA
ATOM      9  O   UNL     1       4.139  44.486  11.856  1.00  0.00    -0.544 OA
ENDBRANCH   2   7
ENDBRANCH   1   2
BRANCH   1  10
ATOM     10  O   UNL     1       4.506  41.458  11.940  1.00  0.00    -0.390 OA
ATOM     11  H   UNL     1       4.718  41.045  12.817  1.00  0.00     0.210 HD
ENDBRANCH   1  10
TORSDOF 4
ENDMDL
