MODEL 1
REMARK VINA RESULT:    -7.589      0.000      0.000
REMARK INTER + INTRA:          -8.788
REMARK INTER:                  -8.255
REMARK INTRA:                  -0.533
REMARK UNBOUND:                -0.533
REMARK SMILES C=C(C)[C@H]1CC[C@@]2(C)CC[C@@]3(C)[C@@H](CC[C@H]4[C@]5(C)CC[C@H](O)C(C)(C)[C@@H]5CC[C@@]43C)[C@H]12
REMARK SMILES IDX 4 1 5 2 6 3 7 4 31 5 13 6 14 7 15 8 16 9 17 10 19 11 20 12
REMARK SMILES IDX 21 13 23 14 26 15 27 16 28 17 29 18 11 19 10 20 9 21 12 22
REMARK SMILES IDX 30 23 24 24 25 25 18 26 8 27 2 28 3 29 1 30 22 31
REMARK H PARENT 22 32
REMARK Flexibility Score: inf
ROOT
ATOM      1  C   UNL     1     126.302 120.517 120.084  1.00  0.00     0.018 C 
ATOM      2  C   UNL     1     125.333 120.141 118.934  1.00  0.00     0.009 C 
ATOM      3  C   UNL     1     124.507 118.938 119.423  1.00  0.00     0.008 C 
ATOM      4  C   UNL     1     124.639 118.971 120.950  1.00  0.00    -0.029 C 
ATOM      5  C   UNL     1     126.113 119.388 121.114  1.00  0.00     0.006 C 
ATOM      6  C   UNL     1     126.457 119.618 122.608  1.00  0.00    -0.000 C 
ATOM      7  C   UNL     1     127.831 120.275 122.840  1.00  0.00     0.005 C 
ATOM      8  C   UNL     1     128.091 120.553 124.333  1.00  0.00     0.005 C 
ATOM      9  C   UNL     1     127.942 119.258 125.172  1.00  0.00     0.002 C 
ATOM     10  C   UNL     1     128.524 119.265 126.653  1.00  0.00    -0.026 C 
ATOM     11  C   UNL     1     129.913 119.984 126.660  1.00  0.00     0.010 C 
ATOM     12  C   UNL     1     130.749 119.736 127.916  1.00  0.00     0.033 C 
ATOM     13  C   UNL     1     130.899 118.242 128.302  1.00  0.00     0.120 C 
ATOM     14  C   UNL     1     130.108 117.216 127.417  1.00  0.00    -0.006 C 
ATOM     15  C   UNL     1     128.636 117.759 127.178  1.00  0.00     0.003 C 
ATOM     16  C   UNL     1     127.770 116.757 126.352  1.00  0.00     0.005 C 
ATOM     17  C   UNL     1     126.412 117.335 125.930  1.00  0.00     0.008 C 
ATOM     18  C   UNL     1     126.494 118.611 125.004  1.00  0.00    -0.024 C 
ATOM     19  C   UNL     1     126.268 118.267 123.438  1.00  0.00    -0.024 C 
ATOM     20  C   UNL     1     124.831 117.660 123.148  1.00  0.00     0.008 C 
ATOM     21  C   UNL     1     124.428 117.609 121.645  1.00  0.00     0.007 C 
ATOM     22  C   UNL     1     127.276 117.162 122.954  1.00  0.00     0.012 C 
ATOM     23  C   UNL     1     125.366 119.616 125.484  1.00  0.00     0.012 C 
ATOM     24  C   UNL     1     130.044 115.891 128.225  1.00  0.00     0.014 C 
ATOM     25  C   UNL     1     130.857 116.883 126.090  1.00  0.00     0.014 C 
ATOM     26  C   UNL     1     127.617 120.070 127.626  1.00  0.00     0.012 C 
ATOM     27  C   UNL     1     123.593 120.000 121.489  1.00  0.00     0.011 C 
ENDROOT
BRANCH   1  28
ATOM     28  C   UNL     1     127.738 120.683 119.586  1.00  0.00    -0.077 C 
ATOM     29  C   UNL     1     128.312 122.063 119.386  1.00  0.00     0.039 C 
ATOM     30  C   UNL     1     128.504 119.623 119.277  1.00  0.00     0.008 C 
ENDBRANCH   1  28
BRANCH  13  31
ATOM     31  O   UNL     1     132.257 117.882 128.431  1.00  0.00    -0.393 OA
ATOM     32  H   UNL     1     132.308 117.044 128.962  1.00  0.00     0.210 HD
ENDBRANCH  13  31
TORSDOF 2
ENDMDL
MODEL 2
REMARK VINA RESULT:    -7.493     11.672     14.248
REMARK INTER + INTRA:          -8.684
REMARK INTER:                  -8.174
REMARK INTRA:                  -0.510
REMARK UNBOUND:                -0.533
REMARK SMILES C=C(C)[C@H]1CC[C@@]2(C)CC[C@@]3(C)[C@@H](CC[C@H]4[C@]5(C)CC[C@H](O)C(C)(C)[C@@H]5CC[C@@]43C)[C@H]12
REMARK SMILES IDX 4 1 5 2 6 3 7 4 31 5 13 6 14 7 15 8 16 9 17 10 19 11 20 12
REMARK SMILES IDX 21 13 23 14 26 15 27 16 28 17 29 18 11 19 10 20 9 21 12 22
REMARK SMILES IDX 30 23 24 24 25 25 18 26 8 27 2 28 3 29 1 30 22 31
REMARK H PARENT 22 32
REMARK Flexibility Score: inf
ROOT
ATOM      1  C   UNL     1     117.767 128.533 130.056  1.00  0.00     0.018 C 
ATOM      2  C   UNL     1     118.803 129.555 129.523  1.00  0.00     0.009 C 
ATOM      3  C   UNL     1     120.040 128.749 129.087  1.00  0.00     0.008 C 
ATOM      4  C   UNL     1     119.524 127.317 128.898  1.00  0.00    -0.029 C 
ATOM      5  C   UNL     1     118.536 127.198 130.074  1.00  0.00     0.006 C 
ATOM      6  C   UNL     1     117.774 125.849 130.017  1.00  0.00    -0.000 C 
ATOM      7  C   UNL     1     116.596 125.754 131.006  1.00  0.00     0.005 C 
ATOM      8  C   UNL     1     115.826 124.428 130.856  1.00  0.00     0.005 C 
ATOM      9  C   UNL     1     116.779 123.214 131.004  1.00  0.00     0.002 C 
ATOM     10  C   UNL     1     116.123 121.784 131.246  1.00  0.00    -0.026 C 
ATOM     11  C   UNL     1     114.948 121.920 132.270  1.00  0.00     0.010 C 
ATOM     12  C   UNL     1     114.480 120.597 132.877  1.00  0.00     0.033 C 
ATOM     13  C   UNL     1     115.618 119.719 133.457  1.00  0.00     0.120 C 
ATOM     14  C   UNL     1     117.078 120.261 133.260  1.00  0.00    -0.006 C 
ATOM     15  C   UNL     1     117.247 120.775 131.769  1.00  0.00     0.003 C 
ATOM     16  C   UNL     1     118.697 121.274 131.483  1.00  0.00     0.005 C 
ATOM     17  C   UNL     1     118.844 121.963 130.119  1.00  0.00     0.008 C 
ATOM     18  C   UNL     1     117.959 123.258 129.933  1.00  0.00    -0.024 C 
ATOM     19  C   UNL     1     118.794 124.627 130.151  1.00  0.00    -0.024 C 
ATOM     20  C   UNL     1     119.971 124.798 129.100  1.00  0.00     0.008 C 
ATOM     21  C   UNL     1     120.601 126.220 129.042  1.00  0.00     0.007 C 
ATOM     22  C   UNL     1     119.504 124.636 131.554  1.00  0.00     0.012 C 
ATOM     23  C   UNL     1     117.384 123.228 128.456  1.00  0.00     0.012 C 
ATOM     24  C   UNL     1     118.032 119.059 133.503  1.00  0.00     0.014 C 
ATOM     25  C   UNL     1     117.454 121.340 134.323  1.00  0.00     0.014 C 
ATOM     26  C   UNL     1     115.496 121.209 129.944  1.00  0.00     0.012 C 
ATOM     27  C   UNL     1     118.880 127.234 127.477  1.00  0.00     0.011 C 
ENDROOT
BRANCH   1  28
ATOM     28  C   UNL     1     117.202 128.952 131.414  1.00  0.00    -0.077 C 
ATOM     29  C   UNL     1     118.106 129.018 132.619  1.00  0.00     0.039 C 
ATOM     30  C   UNL     1     115.896 129.225 131.581  1.00  0.00     0.008 C 
ENDBRANCH   1  28
BRANCH  13  31
ATOM     31  O   UNL     1     115.365 119.379 134.803  1.00  0.00    -0.393 OA
ATOM     32  H   UNL     1     115.432 118.392 134.893  1.00  0.00     0.210 HD
ENDBRANCH  13  31
TORSDOF 2
ENDMDL
MODEL 3
REMARK VINA RESULT:    -7.416     10.080     12.848
REMARK INTER + INTRA:          -8.600
REMARK INTER:                  -8.037
REMARK INTRA:                  -0.563
REMARK UNBOUND:                -0.533
REMARK SMILES C=C(C)[C@H]1CC[C@@]2(C)CC[C@@]3(C)[C@@H](CC[C@H]4[C@]5(C)CC[C@H](O)C(C)(C)[C@@H]5CC[C@@]43C)[C@H]12
REMARK SMILES IDX 4 1 5 2 6 3 7 4 31 5 13 6 14 7 15 8 16 9 17 10 19 11 20 12
REMARK SMILES IDX 21 13 23 14 26 15 27 16 28 17 29 18 11 19 10 20 9 21 12 22
REMARK SMILES IDX 30 23 24 24 25 25 18 26 8 27 2 28 3 29 1 30 22 31
REMARK H PARENT 22 32
REMARK Flexibility Score: inf
ROOT
ATOM      1  C   UNL     1     118.535 118.759 127.217  1.00  0.00     0.018 C 
ATOM      2  C   UNL     1     118.012 117.312 127.405  1.00  0.00     0.009 C 
ATOM      3  C   UNL     1     116.704 117.412 128.210  1.00  0.00     0.008 C 
ATOM      4  C   UNL     1     116.246 118.863 128.030  1.00  0.00    -0.029 C 
ATOM      5  C   UNL     1     117.593 119.611 128.089  1.00  0.00     0.006 C 
ATOM      6  C   UNL     1     117.396 121.121 127.795  1.00  0.00    -0.000 C 
ATOM      7  C   UNL     1     118.713 121.894 127.588  1.00  0.00     0.005 C 
ATOM      8  C   UNL     1     118.461 123.369 127.223  1.00  0.00     0.005 C 
ATOM      9  C   UNL     1     117.569 124.059 128.287  1.00  0.00     0.002 C 
ATOM     10  C   UNL     1     117.506 125.649 128.281  1.00  0.00    -0.026 C 
ATOM     11  C   UNL     1     118.942 126.224 128.048  1.00  0.00     0.010 C 
ATOM     12  C   UNL     1     119.095 127.706 128.390  1.00  0.00     0.033 C 
ATOM     13  C   UNL     1     118.564 128.099 129.793  1.00  0.00     0.120 C 
ATOM     14  C   UNL     1     117.871 126.956 130.615  1.00  0.00    -0.006 C 
ATOM     15  C   UNL     1     116.885 126.154 129.665  1.00  0.00     0.003 C 
ATOM     16  C   UNL     1     116.114 125.036 130.433  1.00  0.00     0.005 C 
ATOM     17  C   UNL     1     115.307 124.112 129.510  1.00  0.00     0.008 C 
ATOM     18  C   UNL     1     116.168 123.315 128.453  1.00  0.00    -0.024 C 
ATOM     19  C   UNL     1     116.454 121.786 128.900  1.00  0.00    -0.024 C 
ATOM     20  C   UNL     1     115.123 120.934 129.048  1.00  0.00     0.008 C 
ATOM     21  C   UNL     1     115.334 119.396 129.155  1.00  0.00     0.007 C 
ATOM     22  C   UNL     1     117.126 121.731 130.321  1.00  0.00     0.012 C 
ATOM     23  C   UNL     1     115.361 123.317 127.089  1.00  0.00     0.012 C 
ATOM     24  C   UNL     1     117.054 127.651 131.739  1.00  0.00     0.014 C 
ATOM     25  C   UNL     1     118.907 126.036 131.334  1.00  0.00     0.014 C 
ATOM     26  C   UNL     1     116.631 126.188 127.113  1.00  0.00     0.012 C 
ATOM     27  C   UNL     1     115.496 118.952 126.662  1.00  0.00     0.011 C 
ENDROOT
BRANCH   1  28
ATOM     28  C   UNL     1     120.014 118.883 127.583  1.00  0.00    -0.077 C 
ATOM     29  C   UNL     1     120.434 118.896 129.031  1.00  0.00     0.039 C 
ATOM     30  C   UNL     1     120.964 119.026 126.642  1.00  0.00     0.008 C 
ENDBRANCH   1  28
BRANCH  13  31
ATOM     31  O   UNL     1     119.557 128.757 130.550  1.00  0.00    -0.393 OA
ATOM     32  H   UNL     1     120.365 128.179 130.573  1.00  0.00     0.210 HD
ENDBRANCH  13  31
TORSDOF 2
ENDMDL
MODEL 4
REMARK VINA RESULT:    -7.186     11.571     13.993
REMARK INTER + INTRA:          -8.350
REMARK INTER:                  -7.809
REMARK INTRA:                  -0.541
REMARK UNBOUND:                -0.533
REMARK SMILES C=C(C)[C@H]1CC[C@@]2(C)CC[C@@]3(C)[C@@H](CC[C@H]4[C@]5(C)CC[C@H](O)C(C)(C)[C@@H]5CC[C@@]43C)[C@H]12
REMARK SMILES IDX 4 1 5 2 6 3 7 4 31 5 13 6 14 7 15 8 16 9 17 10 19 11 20 12
REMARK SMILES IDX 21 13 23 14 26 15 27 16 28 17 29 18 11 19 10 20 9 21 12 22
REMARK SMILES IDX 30 23 24 24 25 25 18 26 8 27 2 28 3 29 1 30 22 31
REMARK H PARENT 22 32
REMARK Flexibility Score: inf
ROOT
ATOM      1  C   UNL     1     116.732 120.123 129.814  1.00  0.00     0.018 C 
ATOM      2  C   UNL     1     115.565 119.107 129.720  1.00  0.00     0.009 C 
ATOM      3  C   UNL     1     114.357 119.868 129.145  1.00  0.00     0.008 C 
ATOM      4  C   UNL     1     114.962 121.101 128.466  1.00  0.00    -0.029 C 
ATOM      5  C   UNL     1     116.079 121.472 129.460  1.00  0.00     0.006 C 
ATOM      6  C   UNL     1     116.935 122.643 128.912  1.00  0.00    -0.000 C 
ATOM      7  C   UNL     1     118.218 122.912 129.721  1.00  0.00     0.005 C 
ATOM      8  C   UNL     1     119.071 124.031 129.092  1.00  0.00     0.005 C 
ATOM      9  C   UNL     1     118.240 125.327 128.915  1.00  0.00     0.002 C 
ATOM     10  C   UNL     1     119.031 126.679 128.632  1.00  0.00    -0.026 C 
ATOM     11  C   UNL     1     120.296 126.742 129.549  1.00  0.00     0.010 C 
ATOM     12  C   UNL     1     120.932 128.127 129.659  1.00  0.00     0.033 C 
ATOM     13  C   UNL     1     119.938 129.263 130.012  1.00  0.00     0.120 C 
ATOM     14  C   UNL     1     118.426 128.853 130.114  1.00  0.00    -0.006 C 
ATOM     15  C   UNL     1     118.055 127.919 128.886  1.00  0.00     0.003 C 
ATOM     16  C   UNL     1     116.547 127.520 128.891  1.00  0.00     0.005 C 
ATOM     17  C   UNL     1     116.198 126.459 127.838  1.00  0.00     0.008 C 
ATOM     18  C   UNL     1     116.950 125.081 128.010  1.00  0.00    -0.024 C 
ATOM     19  C   UNL     1     116.037 123.951 128.723  1.00  0.00    -0.024 C 
ATOM     20  C   UNL     1     114.743 123.590 127.878  1.00  0.00     0.008 C 
ATOM     21  C   UNL     1     113.999 122.300 128.331  1.00  0.00     0.007 C 
ATOM     22  C   UNL     1     115.486 124.460 130.104  1.00  0.00     0.012 C 
ATOM     23  C   UNL     1     117.361 124.583 126.563  1.00  0.00     0.012 C 
ATOM     24  C   UNL     1     117.603 130.168 130.030  1.00  0.00     0.014 C 
ATOM     25  C   UNL     1     118.084 128.209 131.494  1.00  0.00     0.014 C 
ATOM     26  C   UNL     1     119.556 126.745 127.169  1.00  0.00     0.012 C 
ATOM     27  C   UNL     1     115.451 120.663 127.048  1.00  0.00     0.011 C 
ENDROOT
BRANCH   1  28
ATOM     28  C   UNL     1     117.407 120.091 131.185  1.00  0.00    -0.077 C 
ATOM     29  C   UNL     1     118.811 119.561 131.321  1.00  0.00     0.039 C 
ATOM     30  C   UNL     1     116.764 120.486 132.298  1.00  0.00     0.008 C 
ENDBRANCH   1  28
BRANCH  13  31
ATOM     31  O   UNL     1     120.362 129.978 131.152  1.00  0.00    -0.393 OA
ATOM     32  H   UNL     1     120.245 130.948 130.973  1.00  0.00     0.210 HD
ENDBRANCH  13  31
TORSDOF 2
ENDMDL
MODEL 5
REMARK VINA RESULT:    -7.076     10.120     12.185
REMARK INTER + INTRA:          -8.230
REMARK INTER:                  -7.711
REMARK INTRA:                  -0.519
REMARK UNBOUND:                -0.533
REMARK SMILES C=C(C)[C@H]1CC[C@@]2(C)CC[C@@]3(C)[C@@H](CC[C@H]4[C@]5(C)CC[C@H](O)C(C)(C)[C@@H]5CC[C@@]43C)[C@H]12
REMARK SMILES IDX 4 1 5 2 6 3 7 4 31 5 13 6 14 7 15 8 16 9 17 10 19 11 20 12
REMARK SMILES IDX 21 13 23 14 26 15 27 16 28 17 29 18 11 19 10 20 9 21 12 22
REMARK SMILES IDX 30 23 24 24 25 25 18 26 8 27 2 28 3 29 1 30 22 31
REMARK H PARENT 22 32
REMARK Flexibility Score: inf
ROOT
ATOM      1  C   UNL     1     115.542 123.900 128.445  1.00  0.00     0.018 C 
ATOM      2  C   UNL     1     114.259 123.676 127.605  1.00  0.00     0.009 C 
ATOM      3  C   UNL     1     113.733 122.273 127.960  1.00  0.00     0.008 C 
ATOM      4  C   UNL     1     114.386 121.943 129.307  1.00  0.00    -0.029 C 
ATOM      5  C   UNL     1     115.796 122.534 129.108  1.00  0.00     0.006 C 
ATOM      6  C   UNL     1     116.623 122.433 130.416  1.00  0.00    -0.000 C 
ATOM      7  C   UNL     1     117.948 123.219 130.381  1.00  0.00     0.005 C 
ATOM      8  C   UNL     1     118.692 123.151 131.727  1.00  0.00     0.005 C 
ATOM      9  C   UNL     1     118.927 121.681 132.157  1.00  0.00     0.002 C 
ATOM     10  C   UNL     1     119.987 121.408 133.312  1.00  0.00    -0.026 C 
ATOM     11  C   UNL     1     121.243 122.313 133.088  1.00  0.00     0.010 C 
ATOM     12  C   UNL     1     122.478 121.893 133.886  1.00  0.00     0.033 C 
ATOM     13  C   UNL     1     122.848 120.394 133.755  1.00  0.00     0.120 C 
ATOM     14  C   UNL     1     121.864 119.510 132.909  1.00  0.00    -0.006 C 
ATOM     15  C   UNL     1     120.370 119.856 133.316  1.00  0.00     0.003 C 
ATOM     16  C   UNL     1     119.337 118.970 132.554  1.00  0.00     0.005 C 
ATOM     17  C   UNL     1     117.883 119.412 132.770  1.00  0.00     0.008 C 
ATOM     18  C   UNL     1     117.555 120.876 132.277  1.00  0.00    -0.024 C 
ATOM     19  C   UNL     1     116.821 120.904 130.834  1.00  0.00    -0.024 C 
ATOM     20  C   UNL     1     115.415 120.170 130.852  1.00  0.00     0.008 C 
ATOM     21  C   UNL     1     114.518 120.435 129.607  1.00  0.00     0.007 C 
ATOM     22  C   UNL     1     117.666 120.130 129.758  1.00  0.00     0.012 C 
ATOM     23  C   UNL     1     116.604 121.537 133.359  1.00  0.00     0.012 C 
ATOM     24  C   UNL     1     122.170 118.032 133.275  1.00  0.00     0.014 C 
ATOM     25  C   UNL     1     122.124 119.644 131.376  1.00  0.00     0.014 C 
ATOM     26  C   UNL     1     119.426 121.790 134.712  1.00  0.00     0.012 C 
ATOM     27  C   UNL     1     113.531 122.625 130.423  1.00  0.00     0.011 C 
ENDROOT
BRANCH   1  28
ATOM     28  C   UNL     1     116.702 124.410 127.590  1.00  0.00    -0.077 C 
ATOM     29  C   UNL     1     117.039 125.880 127.576  1.00  0.00     0.039 C 
ATOM     30  C   UNL     1     117.415 123.585 126.803  1.00  0.00     0.008 C 
ENDBRANCH   1  28
BRANCH  13  31
ATOM     31  O   UNL     1     124.185 120.232 133.337  1.00  0.00    -0.393 OA
ATOM     32  H   UNL     1     124.338 120.814 132.547  1.00  0.00     0.210 HD
ENDBRANCH  13  31
TORSDOF 2
ENDMDL
MODEL 6
REMARK VINA RESULT:    -7.018      9.550     12.952
REMARK INTER + INTRA:          -8.167
REMARK INTER:                  -7.643
REMARK INTRA:                  -0.524
REMARK UNBOUND:                -0.533
REMARK SMILES C=C(C)[C@H]1CC[C@@]2(C)CC[C@@]3(C)[C@@H](CC[C@H]4[C@]5(C)CC[C@H](O)C(C)(C)[C@@H]5CC[C@@]43C)[C@H]12
REMARK SMILES IDX 4 1 5 2 6 3 7 4 31 5 13 6 14 7 15 8 16 9 17 10 19 11 20 12
REMARK SMILES IDX 21 13 23 14 26 15 27 16 28 17 29 18 11 19 10 20 9 21 12 22
REMARK SMILES IDX 30 23 24 24 25 25 18 26 8 27 2 28 3 29 1 30 22 31
REMARK H PARENT 22 32
REMARK Flexibility Score: inf
ROOT
ATOM      1  C   UNL     1     116.365 119.744 133.684  1.00  0.00     0.018 C 
ATOM      2  C   UNL     1     115.114 120.086 134.533  1.00  0.00     0.009 C 
ATOM      3  C   UNL     1     114.349 121.186 133.776  1.00  0.00     0.008 C 
ATOM      4  C   UNL     1     114.860 121.093 132.334  1.00  0.00    -0.029 C 
ATOM      5  C   UNL     1     116.356 120.802 132.565  1.00  0.00     0.006 C 
ATOM      6  C   UNL     1     117.078 120.534 131.220  1.00  0.00    -0.000 C 
ATOM      7  C   UNL     1     118.512 119.992 131.376  1.00  0.00     0.005 C 
ATOM      8  C   UNL     1     119.156 119.669 130.015  1.00  0.00     0.005 C 
ATOM      9  C   UNL     1     119.125 120.905 129.080  1.00  0.00     0.002 C 
ATOM     10  C   UNL     1     120.058 120.881 127.791  1.00  0.00    -0.026 C 
ATOM     11  C   UNL     1     121.455 120.288 128.172  1.00  0.00     0.010 C 
ATOM     12  C   UNL     1     122.556 120.550 127.145  1.00  0.00     0.033 C 
ATOM     13  C   UNL     1     122.686 122.032 126.708  1.00  0.00     0.120 C 
ATOM     14  C   UNL     1     121.624 123.024 127.301  1.00  0.00    -0.006 C 
ATOM     15  C   UNL     1     120.185 122.364 127.208  1.00  0.00     0.003 C 
ATOM     16  C   UNL     1     119.068 123.322 127.727  1.00  0.00     0.005 C 
ATOM     17  C   UNL     1     117.694 122.646 127.841  1.00  0.00     0.008 C 
ATOM     18  C   UNL     1     117.637 121.427 128.844  1.00  0.00    -0.024 C 
ATOM     19  C   UNL     1     117.003 121.822 130.279  1.00  0.00    -0.024 C 
ATOM     20  C   UNL     1     115.497 122.312 130.167  1.00  0.00     0.008 C 
ATOM     21  C   UNL     1     114.729 122.397 131.518  1.00  0.00     0.007 C 
ATOM     22  C   UNL     1     117.772 123.034 130.920  1.00  0.00     0.012 C 
ATOM     23  C   UNL     1     116.743 120.304 128.170  1.00  0.00     0.012 C 
ATOM     24  C   UNL     1     121.666 124.299 126.414  1.00  0.00     0.014 C 
ATOM     25  C   UNL     1     121.992 123.484 128.746  1.00  0.00     0.014 C 
ATOM     26  C   UNL     1     119.485 119.952 126.681  1.00  0.00     0.012 C 
ATOM     27  C   UNL     1     114.063 119.952 131.626  1.00  0.00     0.011 C 
ENDROOT
BRANCH   1  28
ATOM     28  C   UNL     1     117.640 119.730 134.528  1.00  0.00    -0.077 C 
ATOM     29  C   UNL     1     118.161 121.013 135.125  1.00  0.00     0.039 C 
ATOM     30  C   UNL     1     118.346 118.603 134.722  1.00  0.00     0.008 C 
ENDBRANCH   1  28
BRANCH  13  31
ATOM     31  O   UNL     1     124.003 122.506 126.892  1.00  0.00    -0.393 OA
ATOM     32  H   UNL     1     124.002 123.489 126.756  1.00  0.00     0.210 HD
ENDBRANCH  13  31
TORSDOF 2
ENDMDL
MODEL 7
REMARK VINA RESULT:    -6.898      8.783     12.153
REMARK INTER + INTRA:          -8.037
REMARK INTER:                  -7.501
REMARK INTRA:                  -0.536
REMARK UNBOUND:                -0.533
REMARK SMILES C=C(C)[C@H]1CC[C@@]2(C)CC[C@@]3(C)[C@@H](CC[C@H]4[C@]5(C)CC[C@H](O)C(C)(C)[C@@H]5CC[C@@]43C)[C@H]12
REMARK SMILES IDX 4 1 5 2 6 3 7 4 31 5 13 6 14 7 15 8 16 9 17 10 19 11 20 12
REMARK SMILES IDX 21 13 23 14 26 15 27 16 28 17 29 18 11 19 10 20 9 21 12 22
REMARK SMILES IDX 30 23 24 24 25 25 18 26 8 27 2 28 3 29 1 30 22 31
REMARK H PARENT 22 32
REMARK Flexibility Score: inf
ROOT
ATOM      1  C   UNL     1     115.874 121.429 132.386  1.00  0.00     0.018 C 
ATOM      2  C   UNL     1     115.408 120.958 133.788  1.00  0.00     0.009 C 
ATOM      3  C   UNL     1     116.470 119.969 134.301  1.00  0.00     0.008 C 
ATOM      4  C   UNL     1     117.719 120.270 133.465  1.00  0.00    -0.029 C 
ATOM      5  C   UNL     1     117.095 120.540 132.082  1.00  0.00     0.006 C 
ATOM      6  C   UNL     1     118.176 121.003 131.072  1.00  0.00    -0.000 C 
ATOM      7  C   UNL     1     117.604 121.531 129.742  1.00  0.00     0.005 C 
ATOM      8  C   UNL     1     118.712 122.050 128.806  1.00  0.00     0.005 C 
ATOM      9  C   UNL     1     119.785 120.960 128.559  1.00  0.00     0.002 C 
ATOM     10  C   UNL     1     120.794 121.176 127.347  1.00  0.00    -0.026 C 
ATOM     11  C   UNL     1     120.009 121.721 126.109  1.00  0.00     0.010 C 
ATOM     12  C   UNL     1     120.763 121.618 124.784  1.00  0.00     0.033 C 
ATOM     13  C   UNL     1     121.353 120.215 124.489  1.00  0.00     0.120 C 
ATOM     14  C   UNL     1     121.176 119.138 125.617  1.00  0.00    -0.006 C 
ATOM     15  C   UNL     1     121.524 119.792 127.021  1.00  0.00     0.003 C 
ATOM     16  C   UNL     1     121.426 118.759 128.186  1.00  0.00     0.005 C 
ATOM     17  C   UNL     1     121.558 119.399 129.575  1.00  0.00     0.008 C 
ATOM     18  C   UNL     1     120.444 120.462 129.924  1.00  0.00    -0.024 C 
ATOM     19  C   UNL     1     119.272 119.861 130.864  1.00  0.00    -0.024 C 
ATOM     20  C   UNL     1     119.812 119.378 132.277  1.00  0.00     0.008 C 
ATOM     21  C   UNL     1     118.711 119.094 133.341  1.00  0.00     0.007 C 
ATOM     22  C   UNL     1     118.634 118.577 130.218  1.00  0.00     0.012 C 
ATOM     23  C   UNL     1     121.155 121.661 130.679  1.00  0.00     0.012 C 
ATOM     24  C   UNL     1     122.190 118.003 125.310  1.00  0.00     0.014 C 
ATOM     25  C   UNL     1     119.760 118.481 125.586  1.00  0.00     0.014 C 
ATOM     26  C   UNL     1     121.873 122.247 127.679  1.00  0.00     0.012 C 
ATOM     27  C   UNL     1     118.438 121.493 134.119  1.00  0.00     0.011 C 
ENDROOT
BRANCH   1  28
ATOM     28  C   UNL     1     114.753 121.334 131.352  1.00  0.00    -0.077 C 
ATOM     29  C   UNL     1     114.027 122.580 130.911  1.00  0.00     0.039 C 
ATOM     30  C   UNL     1     114.357 120.153 130.846  1.00  0.00     0.008 C 
ENDBRANCH   1  28
BRANCH  13  31
ATOM     31  O   UNL     1     120.922 119.732 123.235  1.00  0.00    -0.393 OA
ATOM     32  H   UNL     1     121.516 120.109 122.535  1.00  0.00     0.210 HD
ENDBRANCH  13  31
TORSDOF 2
ENDMDL
MODEL 8
REMARK VINA RESULT:    -6.797      8.916     11.998
REMARK INTER + INTRA:          -7.927
REMARK INTER:                  -7.393
REMARK INTRA:                  -0.534
REMARK UNBOUND:                -0.533
REMARK SMILES C=C(C)[C@H]1CC[C@@]2(C)CC[C@@]3(C)[C@@H](CC[C@H]4[C@]5(C)CC[C@H](O)C(C)(C)[C@@H]5CC[C@@]43C)[C@H]12
REMARK SMILES IDX 4 1 5 2 6 3 7 4 31 5 13 6 14 7 15 8 16 9 17 10 19 11 20 12
REMARK SMILES IDX 21 13 23 14 26 15 27 16 28 17 29 18 11 19 10 20 9 21 12 22
REMARK SMILES IDX 30 23 24 24 25 25 18 26 8 27 2 28 3 29 1 30 22 31
REMARK H PARENT 22 32
REMARK Flexibility Score: inf
ROOT
ATOM      1  C   UNL     1     115.874 121.519 132.636  1.00  0.00     0.018 C 
ATOM      2  C   UNL     1     114.987 120.829 133.704  1.00  0.00     0.009 C 
ATOM      3  C   UNL     1     115.856 119.750 134.375  1.00  0.00     0.008 C 
ATOM      4  C   UNL     1     117.299 120.166 134.066  1.00  0.00    -0.029 C 
ATOM      5  C   UNL     1     117.160 120.673 132.618  1.00  0.00     0.006 C 
ATOM      6  C   UNL     1     118.497 121.280 132.118  1.00  0.00    -0.000 C 
ATOM      7  C   UNL     1     118.380 122.032 130.778  1.00  0.00     0.005 C 
ATOM      8  C   UNL     1     119.714 122.681 130.365  1.00  0.00     0.005 C 
ATOM      9  C   UNL     1     120.852 121.629 130.318  1.00  0.00     0.002 C 
ATOM     10  C   UNL     1     122.197 122.027 129.567  1.00  0.00    -0.026 C 
ATOM     11  C   UNL     1     121.847 122.784 128.244  1.00  0.00     0.010 C 
ATOM     12  C   UNL     1     123.004 122.891 127.250  1.00  0.00     0.033 C 
ATOM     13  C   UNL     1     123.714 121.547 126.945  1.00  0.00     0.120 C 
ATOM     14  C   UNL     1     123.214 120.301 127.758  1.00  0.00    -0.006 C 
ATOM     15  C   UNL     1     123.049 120.705 129.283  1.00  0.00     0.003 C 
ATOM     16  C   UNL     1     122.610 119.494 130.164  1.00  0.00     0.005 C 
ATOM     17  C   UNL     1     122.246 119.890 131.601  1.00  0.00     0.008 C 
ATOM     18  C   UNL     1     121.037 120.900 131.724  1.00  0.00    -0.024 C 
ATOM     19  C   UNL     1     119.644 120.170 132.107  1.00  0.00    -0.024 C 
ATOM     20  C   UNL     1     119.702 119.448 133.520  1.00  0.00     0.008 C 
ATOM     21  C   UNL     1     118.322 119.010 134.092  1.00  0.00     0.007 C 
ATOM     22  C   UNL     1     119.310 119.023 131.084  1.00  0.00     0.012 C 
ATOM     23  C   UNL     1     121.408 121.943 132.859  1.00  0.00     0.012 C 
ATOM     24  C   UNL     1     124.318 119.216 127.628  1.00  0.00     0.014 C 
ATOM     25  C   UNL     1     121.918 119.682 127.147  1.00  0.00     0.014 C 
ATOM     26  C   UNL     1     123.060 123.009 130.411  1.00  0.00     0.012 C 
ATOM     27  C   UNL     1     117.709 121.250 135.114  1.00  0.00     0.011 C 
ENDROOT
BRANCH   1  28
ATOM     28  C   UNL     1     115.165 121.617 131.285  1.00  0.00    -0.077 C 
ATOM     29  C   UNL     1     114.787 122.967 130.729  1.00  0.00     0.039 C 
ATOM     30  C   UNL     1     114.826 120.521 130.584  1.00  0.00     0.008 C 
ENDBRANCH   1  28
BRANCH  13  31
ATOM     31  O   UNL     1     123.744 121.288 125.559  1.00  0.00    -0.393 OA
ATOM     32  H   UNL     1     124.517 121.773 125.168  1.00  0.00     0.210 HD
ENDBRANCH  13  31
TORSDOF 2
ENDMDL
MODEL 9
REMARK VINA RESULT:    -6.732      8.661     11.380
REMARK INTER + INTRA:          -7.856
REMARK INTER:                  -7.295
REMARK INTRA:                  -0.561
REMARK UNBOUND:                -0.533
REMARK SMILES C=C(C)[C@H]1CC[C@@]2(C)CC[C@@]3(C)[C@@H](CC[C@H]4[C@]5(C)CC[C@H](O)C(C)(C)[C@@H]5CC[C@@]43C)[C@H]12
REMARK SMILES IDX 4 1 5 2 6 3 7 4 31 5 13 6 14 7 15 8 16 9 17 10 19 11 20 12
REMARK SMILES IDX 21 13 23 14 26 15 27 16 28 17 29 18 11 19 10 20 9 21 12 22
REMARK SMILES IDX 30 23 24 24 25 25 18 26 8 27 2 28 3 29 1 30 22 31
REMARK H PARENT 22 32
REMARK Flexibility Score: inf
ROOT
ATOM      1  C   UNL     1     114.513 122.696 128.507  1.00  0.00     0.018 C 
ATOM      2  C   UNL     1     113.312 122.820 129.479  1.00  0.00     0.009 C 
ATOM      3  C   UNL     1     113.855 122.561 130.895  1.00  0.00     0.008 C 
ATOM      4  C   UNL     1     115.366 122.798 130.781  1.00  0.00    -0.029 C 
ATOM      5  C   UNL     1     115.660 122.185 129.398  1.00  0.00     0.006 C 
ATOM      6  C   UNL     1     117.139 122.424 128.995  1.00  0.00    -0.000 C 
ATOM      7  C   UNL     1     117.453 122.065 127.530  1.00  0.00     0.005 C 
ATOM      8  C   UNL     1     118.912 122.393 127.159  1.00  0.00     0.005 C 
ATOM      9  C   UNL     1     119.901 121.697 128.129  1.00  0.00     0.002 C 
ATOM     10  C   UNL     1     121.429 121.615 127.693  1.00  0.00    -0.026 C 
ATOM     11  C   UNL     1     121.516 121.249 126.175  1.00  0.00     0.010 C 
ATOM     12  C   UNL     1     122.894 120.771 125.716  1.00  0.00     0.033 C 
ATOM     13  C   UNL     1     123.507 119.647 126.590  1.00  0.00     0.120 C 
ATOM     14  C   UNL     1     122.682 119.229 127.857  1.00  0.00    -0.006 C 
ATOM     15  C   UNL     1     122.175 120.534 128.604  1.00  0.00     0.003 C 
ATOM     16  C   UNL     1     121.395 120.193 129.912  1.00  0.00     0.005 C 
ATOM     17  C   UNL     1     120.719 121.415 130.550  1.00  0.00     0.008 C 
ATOM     18  C   UNL     1     119.637 122.123 129.643  1.00  0.00    -0.024 C 
ATOM     19  C   UNL     1     118.122 121.710 130.032  1.00  0.00    -0.024 C 
ATOM     20  C   UNL     1     117.735 122.134 131.512  1.00  0.00     0.008 C 
ATOM     21  C   UNL     1     116.215 122.064 131.841  1.00  0.00     0.007 C 
ATOM     22  C   UNL     1     117.938 120.149 130.000  1.00  0.00     0.012 C 
ATOM     23  C   UNL     1     119.816 123.687 129.830  1.00  0.00     0.012 C 
ATOM     24  C   UNL     1     123.656 118.449 128.783  1.00  0.00     0.014 C 
ATOM     25  C   UNL     1     121.526 118.240 127.507  1.00  0.00     0.014 C 
ATOM     26  C   UNL     1     122.148 122.985 127.849  1.00  0.00     0.012 C 
ATOM     27  C   UNL     1     115.609 124.337 130.891  1.00  0.00     0.011 C 
ENDROOT
BRANCH   1  28
ATOM     28  C   UNL     1     114.191 121.793 127.316  1.00  0.00    -0.077 C 
ATOM     29  C   UNL     1     114.195 120.295 127.484  1.00  0.00     0.039 C 
ATOM     30  C   UNL     1     113.943 122.297 126.095  1.00  0.00     0.008 C 
ENDBRANCH   1  28
BRANCH  13  31
ATOM     31  O   UNL     1     123.864 118.529 125.807  1.00  0.00    -0.393 OA
ATOM     32  H   UNL     1     123.063 117.951 125.705  1.00  0.00     0.210 HD
ENDBRANCH  13  31
TORSDOF 2
ENDMDL
