MODEL 1
REMARK VINA RESULT:    -3.105      0.000      0.000
REMARK INTER + INTRA:          -4.699
REMARK INTER:                  -4.193
REMARK INTRA:                  -0.506
REMARK UNBOUND:                -0.506
REMARK SMILES CCCCCCCC(=O)[O-]
REMARK SMILES IDX 5 1 6 2 7 3 8 4 9 5 10 6 4 7 3 8 2 9 1 10
REMARK H PARENT
REMARK Flexibility Score: inf
ROOT
ATOM      1  C   UNL     1     -22.033   0.444   2.508  1.00  0.00     0.000 C 
ENDROOT
BRANCH   1   2
ATOM      2  C   UNL     1     -20.765   0.338   1.640  1.00  0.00     0.006 C 
BRANCH   2   3
ATOM      3  C   UNL     1     -20.814   1.185   0.356  1.00  0.00     0.053 C 
BRANCH   3   4
ATOM      4  C   UNL     1     -19.731   2.219   0.301  1.00  0.00     0.041 C 
ATOM      5  O   UNL     1     -19.984   3.384  -0.107  1.00  0.00    -0.550 OA
ATOM      6  O   UNL     1     -18.433   1.889   0.673  1.00  0.00    -0.550 OA
ENDBRANCH   3   4
ENDBRANCH   2   3
ENDBRANCH   1   2
BRANCH   1   7
ATOM      7  C   UNL     1     -23.273   0.873   1.711  1.00  0.00     0.000 C 
BRANCH   7   8
ATOM      8  C   UNL     1     -24.141   1.844   2.526  1.00  0.00    -0.000 C 
BRANCH   8   9
ATOM      9  C   UNL     1     -23.531   3.252   2.609  1.00  0.00    -0.003 C 
ATOM     10  C   UNL     1     -23.263   3.864   1.234  1.00  0.00     0.004 C 
ENDBRANCH   8   9
ENDBRANCH   7   8
ENDBRANCH   1   7
TORSDOF 6
ENDMDL
MODEL 2
REMARK VINA RESULT:    -3.090     15.069     16.636
REMARK INTER + INTRA:          -4.680
REMARK INTER:                  -4.209
REMARK INTRA:                  -0.471
REMARK UNBOUND:                -0.506
REMARK SMILES CCCCCCCC(=O)[O-]
REMARK SMILES IDX 5 1 6 2 7 3 8 4 9 5 10 6 4 7 3 8 2 9 1 10
REMARK H PARENT
REMARK Flexibility Score: inf
ROOT
ATOM      1  C   UNL     1     -12.418 -11.261   2.872  1.00  0.00     0.000 C 
ENDROOT
BRANCH   1   2
ATOM      2  C   UNL     1     -12.241 -12.665   3.479  1.00  0.00     0.006 C 
BRANCH   2   3
ATOM      3  C   UNL     1     -12.905 -12.839   4.856  1.00  0.00     0.053 C 
BRANCH   3   4
ATOM      4  C   UNL     1     -11.924 -12.766   5.986  1.00  0.00     0.041 C 
ATOM      5  O   UNL     1     -10.692 -12.652   5.753  1.00  0.00    -0.550 OA
ATOM      6  O   UNL     1     -12.368 -12.854   7.301  1.00  0.00    -0.550 OA
ENDBRANCH   3   4
ENDBRANCH   2   3
ENDBRANCH   1   2
BRANCH   1   7
ATOM      7  C   UNL     1     -13.668 -11.141   1.987  1.00  0.00     0.000 C 
BRANCH   7   8
ATOM      8  C   UNL     1     -14.594 -10.025   2.493  1.00  0.00    -0.000 C 
BRANCH   8   9
ATOM      9  C   UNL     1     -15.690 -10.549   3.434  1.00  0.00    -0.003 C 
ATOM     10  C   UNL     1     -16.315 -11.856   2.946  1.00  0.00     0.004 C 
ENDBRANCH   8   9
ENDBRANCH   7   8
ENDBRANCH   1   7
TORSDOF 6
ENDMDL
MODEL 3
REMARK VINA RESULT:    -2.944     14.576     16.485
REMARK INTER + INTRA:          -4.483
REMARK INTER:                  -4.217
REMARK INTRA:                  -0.266
REMARK UNBOUND:                -0.506
REMARK SMILES CCCCCCCC(=O)[O-]
REMARK SMILES IDX 5 1 6 2 7 3 8 4 9 5 10 6 4 7 3 8 2 9 1 10
REMARK H PARENT
REMARK Flexibility Score: inf
ROOT
ATOM      1  C   UNL     1     -12.823 -12.709   3.048  1.00  0.00     0.000 C 
ENDROOT
BRANCH   1   2
ATOM      2  C   UNL     1     -12.867 -11.236   2.599  1.00  0.00     0.006 C 
BRANCH   2   3
ATOM      3  C   UNL     1     -14.138 -10.859   1.817  1.00  0.00     0.053 C 
BRANCH   3   4
ATOM      4  C   UNL     1     -15.192 -10.243   2.686  1.00  0.00     0.041 C 
ATOM      5  O   UNL     1     -15.361  -8.995   2.692  1.00  0.00    -0.550 OA
ATOM      6  O   UNL     1     -15.969 -11.045   3.514  1.00  0.00    -0.550 OA
ENDBRANCH   3   4
ENDBRANCH   2   3
ENDBRANCH   1   2
BRANCH   1   7
ATOM      7  C   UNL     1     -12.910 -12.875   4.573  1.00  0.00     0.000 C 
BRANCH   7   8
ATOM      8  C   UNL     1     -11.532 -12.689   5.225  1.00  0.00    -0.000 C 
BRANCH   8   9
ATOM      9  C   UNL     1     -11.555 -12.958   6.739  1.00  0.00    -0.003 C 
ATOM     10  C   UNL     1     -12.934 -12.733   7.359  1.00  0.00     0.004 C 
ENDBRANCH   8   9
ENDBRANCH   7   8
ENDBRANCH   1   7
TORSDOF 6
ENDMDL
MODEL 4
REMARK VINA RESULT:    -2.934      2.913      4.619
REMARK INTER + INTRA:          -4.469
REMARK INTER:                  -4.134
REMARK INTRA:                  -0.335
REMARK UNBOUND:                -0.506
REMARK SMILES CCCCCCCC(=O)[O-]
REMARK SMILES IDX 5 1 6 2 7 3 8 4 9 5 10 6 4 7 3 8 2 9 1 10
REMARK H PARENT
REMARK Flexibility Score: inf
ROOT
ATOM      1  C   UNL     1     -23.286   0.762   1.726  1.00  0.00     0.000 C 
ENDROOT
BRANCH   1   2
ATOM      2  C   UNL     1     -24.104   1.830   2.475  1.00  0.00     0.006 C 
BRANCH   2   3
ATOM      3  C   UNL     1     -23.378   3.178   2.629  1.00  0.00     0.053 C 
BRANCH   3   4
ATOM      4  C   UNL     1     -24.175   4.180   3.409  1.00  0.00     0.041 C 
ATOM      5  O   UNL     1     -25.352   3.914   3.769  1.00  0.00    -0.550 OA
ATOM      6  O   UNL     1     -23.629   5.421   3.712  1.00  0.00    -0.550 OA
ENDBRANCH   3   4
ENDBRANCH   2   3
ENDBRANCH   1   2
BRANCH   1   7
ATOM      7  C   UNL     1     -22.214   0.099   2.605  1.00  0.00     0.000 C 
BRANCH   7   8
ATOM      8  C   UNL     1     -20.886  -0.035   1.845  1.00  0.00    -0.000 C 
BRANCH   8   9
ATOM      9  C   UNL     1     -20.650   1.124   0.862  1.00  0.00    -0.003 C 
ATOM     10  C   UNL     1     -19.182   1.542   0.781  1.00  0.00     0.004 C 
ENDBRANCH   8   9
ENDBRANCH   7   8
ENDBRANCH   1   7
TORSDOF 6
ENDMDL
MODEL 5
REMARK VINA RESULT:    -2.868      1.724      2.384
REMARK INTER + INTRA:          -4.379
REMARK INTER:                  -4.121
REMARK INTRA:                  -0.259
REMARK UNBOUND:                -0.506
REMARK SMILES CCCCCCCC(=O)[O-]
REMARK SMILES IDX 5 1 6 2 7 3 8 4 9 5 10 6 4 7 3 8 2 9 1 10
REMARK H PARENT
REMARK Flexibility Score: inf
ROOT
ATOM      1  C   UNL     1     -23.381   2.145   2.264  1.00  0.00     0.000 C 
ENDROOT
BRANCH   1   2
ATOM      2  C   UNL     1     -23.100   0.642   2.453  1.00  0.00     0.006 C 
BRANCH   2   3
ATOM      3  C   UNL     1     -21.604   0.285   2.488  1.00  0.00     0.053 C 
BRANCH   3   4
ATOM      4  C   UNL     1     -20.918   0.532   1.179  1.00  0.00     0.041 C 
ATOM      5  O   UNL     1     -21.495   0.250   0.096  1.00  0.00    -0.550 OA
ATOM      6  O   UNL     1     -19.626   1.044   1.155  1.00  0.00    -0.550 OA
ENDBRANCH   3   4
ENDBRANCH   2   3
ENDBRANCH   1   2
BRANCH   1   7
ATOM      7  C   UNL     1     -24.860   2.509   2.458  1.00  0.00     0.000 C 
BRANCH   7   8
ATOM      8  C   UNL     1     -25.011   3.698   3.420  1.00  0.00    -0.000 C 
BRANCH   8   9
ATOM      9  C   UNL     1     -23.692   4.458   3.629  1.00  0.00    -0.003 C 
ATOM     10  C   UNL     1     -23.691   5.835   2.966  1.00  0.00     0.004 C 
ENDBRANCH   8   9
ENDBRANCH   7   8
ENDBRANCH   1   7
TORSDOF 6
ENDMDL
MODEL 6
REMARK VINA RESULT:    -2.864      3.169      4.983
REMARK INTER + INTRA:          -4.374
REMARK INTER:                  -4.148
REMARK INTRA:                  -0.226
REMARK UNBOUND:                -0.506
REMARK SMILES CCCCCCCC(=O)[O-]
REMARK SMILES IDX 5 1 6 2 7 3 8 4 9 5 10 6 4 7 3 8 2 9 1 10
REMARK H PARENT
REMARK Flexibility Score: inf
ROOT
ATOM      1  C   UNL     1     -24.253   1.579   2.471  1.00  0.00     0.000 C 
ENDROOT
BRANCH   1   2
ATOM      2  C   UNL     1     -24.769   2.983   2.838  1.00  0.00     0.006 C 
BRANCH   2   3
ATOM      3  C   UNL     1     -23.653   4.011   3.097  1.00  0.00     0.053 C 
BRANCH   3   4
ATOM      4  C   UNL     1     -24.122   5.186   3.900  1.00  0.00     0.041 C 
ATOM      5  O   UNL     1     -23.455   6.255   3.912  1.00  0.00    -0.550 OA
ATOM      6  O   UNL     1     -25.281   5.092   4.661  1.00  0.00    -0.550 OA
ENDBRANCH   3   4
ENDBRANCH   2   3
ENDBRANCH   1   2
BRANCH   1   7
ATOM      7  C   UNL     1     -22.742   1.546   2.197  1.00  0.00     0.000 C 
BRANCH   7   8
ATOM      8  C   UNL     1     -22.148   0.177   2.561  1.00  0.00    -0.000 C 
BRANCH   8   9
ATOM      9  C   UNL     1     -20.883  -0.150   1.751  1.00  0.00    -0.003 C 
ATOM     10  C   UNL     1     -20.361   1.047   0.957  1.00  0.00     0.004 C 
ENDBRANCH   8   9
ENDBRANCH   7   8
ENDBRANCH   1   7
TORSDOF 6
ENDMDL
MODEL 7
REMARK VINA RESULT:    -2.863      1.827      3.769
REMARK INTER + INTRA:          -4.373
REMARK INTER:                  -3.964
REMARK INTRA:                  -0.409
REMARK UNBOUND:                -0.506
REMARK SMILES CCCCCCCC(=O)[O-]
REMARK SMILES IDX 5 1 6 2 7 3 8 4 9 5 10 6 4 7 3 8 2 9 1 10
REMARK H PARENT
REMARK Flexibility Score: inf
ROOT
ATOM      1  C   UNL     1     -22.299   0.340   2.536  1.00  0.00     0.000 C 
ENDROOT
BRANCH   1   2
ATOM      2  C   UNL     1     -23.547   1.197   2.252  1.00  0.00     0.006 C 
BRANCH   2   3
ATOM      3  C   UNL     1     -23.317   2.710   2.418  1.00  0.00     0.053 C 
BRANCH   3   4
ATOM      4  C   UNL     1     -23.233   3.430   1.107  1.00  0.00     0.041 C 
ATOM      5  O   UNL     1     -23.973   3.092   0.146  1.00  0.00    -0.550 OA
ATOM      6  O   UNL     1     -22.313   4.458   0.935  1.00  0.00    -0.550 OA
ENDBRANCH   3   4
ENDBRANCH   2   3
ENDBRANCH   1   2
BRANCH   1   7
ATOM      7  C   UNL     1     -21.490   0.018   1.271  1.00  0.00     0.000 C 
BRANCH   7   8
ATOM      8  C   UNL     1     -20.112   0.694   1.313  1.00  0.00    -0.000 C 
BRANCH   8   9
ATOM      9  C   UNL     1     -19.985   1.838   0.294  1.00  0.00    -0.003 C 
ATOM     10  C   UNL     1     -18.574   2.422   0.232  1.00  0.00     0.004 C 
ENDBRANCH   8   9
ENDBRANCH   7   8
ENDBRANCH   1   7
TORSDOF 6
ENDMDL
MODEL 8
REMARK VINA RESULT:    -2.823      1.088      1.710
REMARK INTER + INTRA:          -4.319
REMARK INTER:                  -3.988
REMARK INTRA:                  -0.331
REMARK UNBOUND:                -0.506
REMARK SMILES CCCCCCCC(=O)[O-]
REMARK SMILES IDX 5 1 6 2 7 3 8 4 9 5 10 6 4 7 3 8 2 9 1 10
REMARK H PARENT
REMARK Flexibility Score: inf
ROOT
ATOM      1  C   UNL     1     -22.688   1.096   2.550  1.00  0.00     0.000 C 
ENDROOT
BRANCH   1   2
ATOM      2  C   UNL     1     -22.100  -0.095   1.771  1.00  0.00     0.006 C 
BRANCH   2   3
ATOM      3  C   UNL     1     -21.486   0.287   0.413  1.00  0.00     0.053 C 
BRANCH   3   4
ATOM      4  C   UNL     1     -20.465   1.378   0.525  1.00  0.00     0.041 C 
ATOM      5  O   UNL     1     -19.385   1.178   1.140  1.00  0.00    -0.550 OA
ATOM      6  O   UNL     1     -20.720   2.629  -0.025  1.00  0.00    -0.550 OA
ENDBRANCH   3   4
ENDBRANCH   2   3
ENDBRANCH   1   2
BRANCH   1   7
ATOM      7  C   UNL     1     -24.152   1.388   2.187  1.00  0.00     0.000 C 
BRANCH   7   8
ATOM      8  C   UNL     1     -24.598   2.744   2.753  1.00  0.00    -0.000 C 
BRANCH   8   9
ATOM      9  C   UNL     1     -23.438   3.747   2.866  1.00  0.00    -0.003 C 
ATOM     10  C   UNL     1     -23.721   4.870   3.863  1.00  0.00     0.004 C 
ENDBRANCH   8   9
ENDBRANCH   7   8
ENDBRANCH   1   7
TORSDOF 6
ENDMDL
MODEL 9
REMARK VINA RESULT:    -2.803     14.298     15.900
REMARK INTER + INTRA:          -4.293
REMARK INTER:                  -3.782
REMARK INTRA:                  -0.511
REMARK UNBOUND:                -0.506
REMARK SMILES CCCCCCCC(=O)[O-]
REMARK SMILES IDX 5 1 6 2 7 3 8 4 9 5 10 6 4 7 3 8 2 9 1 10
REMARK H PARENT
REMARK Flexibility Score: inf
ROOT
ATOM      1  C   UNL     1     -14.681 -10.016   2.468  1.00  0.00     0.000 C 
ENDROOT
BRANCH   1   2
ATOM      2  C   UNL     1     -15.829 -10.589   3.322  1.00  0.00     0.006 C 
BRANCH   2   3
ATOM      3  C   UNL     1     -16.104 -12.083   3.077  1.00  0.00     0.053 C 
BRANCH   3   4
ATOM      4  C   UNL     1     -17.371 -12.322   2.315  1.00  0.00     0.041 C 
ATOM      5  O   UNL     1     -18.449 -12.543   2.928  1.00  0.00    -0.550 OA
ATOM      6  O   UNL     1     -17.358 -12.331   0.925  1.00  0.00    -0.550 OA
ENDBRANCH   3   4
ENDBRANCH   2   3
ENDBRANCH   1   2
BRANCH   1   7
ATOM      7  C   UNL     1     -13.713 -11.094   1.960  1.00  0.00     0.000 C 
BRANCH   7   8
ATOM      8  C   UNL     1     -12.505 -11.234   2.898  1.00  0.00    -0.000 C 
BRANCH   8   9
ATOM      9  C   UNL     1     -12.315 -12.673   3.405  1.00  0.00    -0.003 C 
ATOM     10  C   UNL     1     -12.864 -12.881   4.816  1.00  0.00     0.004 C 
ENDBRANCH   8   9
ENDBRANCH   7   8
ENDBRANCH   1   7
TORSDOF 6
ENDMDL
