MODEL 1
REMARK VINA RESULT:    -2.936      0.000      0.000
REMARK INTER + INTRA:          -3.563
REMARK INTER:                  -3.451
REMARK INTRA:                  -0.112
REMARK UNBOUND:                -0.112
REMARK SMILES O=C([O-])CCC(=O)[O-]
REMARK SMILES IDX 4 1 2 2 1 3 3 4 5 5 6 6 7 7 8 8
REMARK H PARENT
REMARK Flexibility Score: inf
ROOT
ATOM      1  C   UNL     1       9.127  29.646  25.868  1.00  0.00     0.059 C 
ENDROOT
BRANCH   1   2
ATOM      2  C   UNL     1      10.046  28.666  26.526  1.00  0.00     0.042 C 
ATOM      3  O   UNL     1      11.266  28.941  26.674  1.00  0.00    -0.550 OA
ATOM      4  O   UNL     1       9.546  27.469  27.023  1.00  0.00    -0.550 OA
ENDBRANCH   1   2
BRANCH   1   5
ATOM      5  C   UNL     1       7.795  29.717  26.617  1.00  0.00     0.059 C 
BRANCH   5   6
ATOM      6  C   UNL     1       6.659  29.405  25.696  1.00  0.00     0.042 C 
ATOM      7  O   UNL     1       5.625  30.125  25.698  1.00  0.00    -0.550 OA
ATOM      8  O   UNL     1       6.719  28.290  24.871  1.00  0.00    -0.550 OA
ENDBRANCH   5   6
ENDBRANCH   1   5
TORSDOF 3
ENDMDL
MODEL 2
REMARK VINA RESULT:    -2.915      0.352      3.940
REMARK INTER + INTRA:          -3.538
REMARK INTER:                  -3.424
REMARK INTRA:                  -0.114
REMARK UNBOUND:                -0.112
REMARK SMILES O=C([O-])CCC(=O)[O-]
REMARK SMILES IDX 4 1 2 2 1 3 3 4 5 5 6 6 7 7 8 8
REMARK H PARENT
REMARK Flexibility Score: inf
ROOT
ATOM      1  C   UNL     1       7.622  29.806  26.429  1.00  0.00     0.059 C 
ENDROOT
BRANCH   1   2
ATOM      2  C   UNL     1       6.394  29.327  25.721  1.00  0.00     0.042 C 
ATOM      3  O   UNL     1       5.450  30.125  25.479  1.00  0.00    -0.550 OA
ATOM      4  O   UNL     1       6.312  28.011  25.284  1.00  0.00    -0.550 OA
ENDBRANCH   1   2
BRANCH   1   5
ATOM      5  C   UNL     1       8.877  29.426  25.642  1.00  0.00     0.059 C 
BRANCH   5   6
ATOM      6  C   UNL     1       9.800  28.610  26.489  1.00  0.00     0.042 C 
ATOM      7  O   UNL     1      10.983  28.994  26.690  1.00  0.00    -0.550 OA
ATOM      8  O   UNL     1       9.371  27.399  27.017  1.00  0.00    -0.550 OA
ENDBRANCH   5   6
ENDBRANCH   1   5
TORSDOF 3
ENDMDL
MODEL 3
REMARK VINA RESULT:    -2.838     17.340     18.177
REMARK INTER + INTRA:          -3.448
REMARK INTER:                  -3.277
REMARK INTRA:                  -0.171
REMARK UNBOUND:                -0.112
REMARK SMILES O=C([O-])CCC(=O)[O-]
REMARK SMILES IDX 4 1 2 2 1 3 3 4 5 5 6 6 7 7 8 8
REMARK H PARENT
REMARK Flexibility Score: inf
ROOT
ATOM      1  C   UNL     1      10.258  13.543  19.554  1.00  0.00     0.059 C 
ENDROOT
BRANCH   1   2
ATOM      2  C   UNL     1      10.940  12.737  20.614  1.00  0.00     0.042 C 
ATOM      3  O   UNL     1      11.968  13.184  21.188  1.00  0.00    -0.550 OA
ATOM      4  O   UNL     1      10.411  11.513  21.004  1.00  0.00    -0.550 OA
ENDBRANCH   1   2
BRANCH   1   5
ATOM      5  C   UNL     1      10.237  12.778  18.230  1.00  0.00     0.059 C 
BRANCH   5   6
ATOM      6  C   UNL     1      11.614  12.692  17.652  1.00  0.00     0.042 C 
ATOM      7  O   UNL     1      12.257  13.742  17.385  1.00  0.00    -0.550 OA
ATOM      8  O   UNL     1      12.170  11.453  17.361  1.00  0.00    -0.550 OA
ENDBRANCH   5   6
ENDBRANCH   1   5
TORSDOF 3
ENDMDL
MODEL 4
REMARK VINA RESULT:    -2.833     16.698     17.905
REMARK INTER + INTRA:          -3.442
REMARK INTER:                  -3.389
REMARK INTRA:                  -0.053
REMARK UNBOUND:                -0.112
REMARK SMILES O=C([O-])CCC(=O)[O-]
REMARK SMILES IDX 4 1 2 2 1 3 3 4 5 5 6 6 7 7 8 8
REMARK H PARENT
REMARK Flexibility Score: inf
ROOT
ATOM      1  C   UNL     1       6.621  12.859  32.003  1.00  0.00     0.059 C 
ENDROOT
BRANCH   1   2
ATOM      2  C   UNL     1       5.736  11.699  32.333  1.00  0.00     0.042 C 
ATOM      3  O   UNL     1       6.180  10.523  32.263  1.00  0.00    -0.550 OA
ATOM      4  O   UNL     1       4.435  11.919  32.767  1.00  0.00    -0.550 OA
ENDBRANCH   1   2
BRANCH   1   5
ATOM      5  C   UNL     1       7.648  12.464  30.940  1.00  0.00     0.059 C 
BRANCH   5   6
ATOM      6  C   UNL     1       8.911  13.247  31.116  1.00  0.00     0.042 C 
ATOM      7  O   UNL     1       9.719  13.371  30.157  1.00  0.00    -0.550 OA
ATOM      8  O   UNL     1       9.221  13.798  32.353  1.00  0.00    -0.550 OA
ENDBRANCH   5   6
ENDBRANCH   1   5
TORSDOF 3
ENDMDL
MODEL 5
REMARK VINA RESULT:    -2.832     13.319     14.798
REMARK INTER + INTRA:          -3.440
REMARK INTER:                  -3.325
REMARK INTRA:                  -0.116
REMARK UNBOUND:                -0.112
REMARK SMILES O=C([O-])CCC(=O)[O-]
REMARK SMILES IDX 4 1 2 2 1 3 3 4 5 5 6 6 7 7 8 8
REMARK H PARENT
REMARK Flexibility Score: inf
ROOT
ATOM      1  C   UNL     1      10.653  15.339  30.172  1.00  0.00     0.059 C 
ENDROOT
BRANCH   1   2
ATOM      2  C   UNL     1      10.010  14.186  30.876  1.00  0.00     0.042 C 
ATOM      3  O   UNL     1       9.668  13.160  30.230  1.00  0.00    -0.550 OA
ATOM      4  O   UNL     1       9.834  14.222  32.253  1.00  0.00    -0.550 OA
ENDBRANCH   1   2
BRANCH   1   5
ATOM      5  C   UNL     1      11.833  15.873  30.986  1.00  0.00     0.059 C 
BRANCH   5   6
ATOM      6  C   UNL     1      11.534  17.242  31.507  1.00  0.00     0.042 C 
ATOM      7  O   UNL     1      11.045  17.391  32.658  1.00  0.00    -0.550 OA
ATOM      8  O   UNL     1      11.748  18.354  30.702  1.00  0.00    -0.550 OA
ENDBRANCH   5   6
ENDBRANCH   1   5
TORSDOF 3
ENDMDL
MODEL 6
REMARK VINA RESULT:    -2.821     13.353     14.759
REMARK INTER + INTRA:          -3.428
REMARK INTER:                  -3.313
REMARK INTRA:                  -0.115
REMARK UNBOUND:                -0.112
REMARK SMILES O=C([O-])CCC(=O)[O-]
REMARK SMILES IDX 4 1 2 2 1 3 3 4 5 5 6 6 7 7 8 8
REMARK H PARENT
REMARK Flexibility Score: inf
ROOT
ATOM      1  C   UNL     1      11.816  15.858  30.971  1.00  0.00     0.059 C 
ENDROOT
BRANCH   1   2
ATOM      2  C   UNL     1      11.509  17.208  31.537  1.00  0.00     0.042 C 
ATOM      3  O   UNL     1      11.058  17.318  32.708  1.00  0.00    -0.550 OA
ATOM      4  O   UNL     1      11.770  18.350  30.790  1.00  0.00    -0.550 OA
ENDBRANCH   1   2
BRANCH   1   5
ATOM      5  C   UNL     1      10.619  15.324  30.181  1.00  0.00     0.059 C 
BRANCH   5   6
ATOM      6  C   UNL     1      10.014  14.147  30.877  1.00  0.00     0.042 C 
ATOM      7  O   UNL     1       9.640  13.142  30.217  1.00  0.00    -0.550 OA
ATOM      8  O   UNL     1       9.817  14.179  32.252  1.00  0.00    -0.550 OA
ENDBRANCH   5   6
ENDBRANCH   1   5
TORSDOF 3
ENDMDL
MODEL 7
REMARK VINA RESULT:    -2.798     16.713     17.640
REMARK INTER + INTRA:          -3.400
REMARK INTER:                  -3.342
REMARK INTRA:                  -0.058
REMARK UNBOUND:                -0.112
REMARK SMILES O=C([O-])CCC(=O)[O-]
REMARK SMILES IDX 4 1 2 2 1 3 3 4 5 5 6 6 7 7 8 8
REMARK H PARENT
REMARK Flexibility Score: inf
ROOT
ATOM      1  C   UNL     1       7.591  12.541  30.873  1.00  0.00     0.059 C 
ENDROOT
BRANCH   1   2
ATOM      2  C   UNL     1       8.913  13.208  31.083  1.00  0.00     0.042 C 
ATOM      3  O   UNL     1       9.725  13.322  30.128  1.00  0.00    -0.550 OA
ATOM      4  O   UNL     1       9.229  13.749  32.323  1.00  0.00    -0.550 OA
ENDBRANCH   1   2
BRANCH   1   5
ATOM      5  C   UNL     1       6.632  12.877  32.016  1.00  0.00     0.059 C 
BRANCH   5   6
ATOM      6  C   UNL     1       5.797  11.687  32.368  1.00  0.00     0.042 C 
ATOM      7  O   UNL     1       4.604  11.837  32.741  1.00  0.00    -0.550 OA
ATOM      8  O   UNL     1       6.352  10.414  32.332  1.00  0.00    -0.550 OA
ENDBRANCH   5   6
ENDBRANCH   1   5
TORSDOF 3
ENDMDL
MODEL 8
REMARK VINA RESULT:    -2.791     11.240     12.920
REMARK INTER + INTRA:          -3.392
REMARK INTER:                  -3.271
REMARK INTRA:                  -0.121
REMARK UNBOUND:                -0.112
REMARK SMILES O=C([O-])CCC(=O)[O-]
REMARK SMILES IDX 4 1 2 2 1 3 3 4 5 5 6 6 7 7 8 8
REMARK H PARENT
REMARK Flexibility Score: inf
ROOT
ATOM      1  C   UNL     1      17.616  20.797  23.382  1.00  0.00     0.059 C 
ENDROOT
BRANCH   1   2
ATOM      2  C   UNL     1      16.792  22.038  23.514  1.00  0.00     0.042 C 
ATOM      3  O   UNL     1      15.760  22.193  22.808  1.00  0.00    -0.550 OA
ATOM      4  O   UNL     1      17.133  23.003  24.454  1.00  0.00    -0.550 OA
ENDBRANCH   1   2
BRANCH   1   5
ATOM      5  C   UNL     1      17.550  20.260  21.951  1.00  0.00     0.059 C 
BRANCH   5   6
ATOM      6  C   UNL     1      16.868  18.929  21.922  1.00  0.00     0.042 C 
ATOM      7  O   UNL     1      17.310  18.006  21.188  1.00  0.00    -0.550 OA
ATOM      8  O   UNL     1      15.715  18.723  22.668  1.00  0.00    -0.550 OA
ENDBRANCH   5   6
ENDBRANCH   1   5
TORSDOF 3
ENDMDL
MODEL 9
REMARK VINA RESULT:    -2.776     17.328     18.088
REMARK INTER + INTRA:          -3.375
REMARK INTER:                  -3.262
REMARK INTRA:                  -0.113
REMARK UNBOUND:                -0.112
REMARK SMILES O=C([O-])CCC(=O)[O-]
REMARK SMILES IDX 4 1 2 2 1 3 3 4 5 5 6 6 7 7 8 8
REMARK H PARENT
REMARK Flexibility Score: inf
ROOT
ATOM      1  C   UNL     1       5.416  11.362  32.470  1.00  0.00     0.059 C 
ENDROOT
BRANCH   1   2
ATOM      2  C   UNL     1       6.836  11.050  32.118  1.00  0.00     0.042 C 
ATOM      3  O   UNL     1       7.369   9.982  32.521  1.00  0.00    -0.550 OA
ATOM      4  O   UNL     1       7.556  11.914  31.304  1.00  0.00    -0.550 OA
ENDBRANCH   1   2
BRANCH   1   5
ATOM      5  C   UNL     1       5.250  12.857  32.751  1.00  0.00     0.059 C 
BRANCH   5   6
ATOM      6  C   UNL     1       4.230  13.452  31.832  1.00  0.00     0.042 C 
ATOM      7  O   UNL     1       4.128  13.042  30.646  1.00  0.00    -0.550 OA
ATOM      8  O   UNL     1       3.425  14.496  32.271  1.00  0.00    -0.550 OA
ENDBRANCH   5   6
ENDBRANCH   1   5
TORSDOF 3
ENDMDL
