MODEL 1
REMARK VINA RESULT:    12.247      0.000      0.000
REMARK INTER + INTRA:          13.472
REMARK INTER:                  13.679
REMARK INTRA:                  -0.207
REMARK UNBOUND:                -0.207
REMARK SMILES CC(C)c1ccc(C(=O)[O-])cc1
REMARK SMILES IDX 7 1 6 2 11 3 5 4 12 5 4 6 8 7 9 8 10 9 2 10 1 11 3 12
REMARK H PARENT
REMARK Flexibility Score: inf
ROOT
ATOM      1  C   UNL     1     -35.324  16.406  17.587  1.00  0.00    -0.003 A 
ATOM      2  C   UNL     1     -34.915  15.802  18.788  1.00  0.00     0.010 A 
ATOM      3  C   UNL     1     -34.952  15.816  16.368  1.00  0.00     0.010 A 
ATOM      4  C   UNL     1     -34.148  14.633  18.769  1.00  0.00     0.004 A 
ATOM      5  C   UNL     1     -34.186  14.648  16.350  1.00  0.00     0.004 A 
ATOM      6  C   UNL     1     -33.775  14.043  17.551  1.00  0.00    -0.045 A 
ENDROOT
BRANCH   1   7
ATOM      7  C   UNL     1     -36.135  17.643  17.611  1.00  0.00     0.071 C 
ATOM      8  O   UNL     1     -37.394  17.585  17.617  1.00  0.00    -0.545 OA
ATOM      9  O   UNL     1     -35.519  18.889  17.630  1.00  0.00    -0.545 OA
ENDBRANCH   1   7
BRANCH   6  10
ATOM     10  C   UNL     1     -32.943  12.773  17.546  1.00  0.00     0.013 C 
ATOM     11  C   UNL     1     -32.839  12.177  18.954  1.00  0.00     0.012 C 
ATOM     12  C   UNL     1     -31.554  13.025  16.949  1.00  0.00     0.012 C 
ENDBRANCH   6  10
TORSDOF 2
ENDMDL
MODEL 2
REMARK VINA RESULT:    12.643      3.071      5.083
REMARK INTER + INTRA:          13.914
REMARK INTER:                  14.122
REMARK INTRA:                  -0.208
REMARK UNBOUND:                -0.207
REMARK SMILES CC(C)c1ccc(C(=O)[O-])cc1
REMARK SMILES IDX 7 1 6 2 11 3 5 4 12 5 4 6 8 7 9 8 10 9 2 10 1 11 3 12
REMARK H PARENT
REMARK Flexibility Score: inf
ROOT
ATOM      1  C   UNL     1     -33.621  13.958  17.742  1.00  0.00    -0.003 A 
ATOM      2  C   UNL     1     -34.146  14.632  18.859  1.00  0.00     0.010 A 
ATOM      3  C   UNL     1     -33.959  14.408  16.455  1.00  0.00     0.010 A 
ATOM      4  C   UNL     1     -34.991  15.732  18.690  1.00  0.00     0.004 A 
ATOM      5  C   UNL     1     -34.805  15.508  16.288  1.00  0.00     0.004 A 
ATOM      6  C   UNL     1     -35.330  16.182  17.404  1.00  0.00    -0.045 A 
ENDROOT
BRANCH   1   7
ATOM      7  C   UNL     1     -32.727  12.793  17.925  1.00  0.00     0.071 C 
ATOM      8  O   UNL     1     -31.836  12.530  17.073  1.00  0.00    -0.545 OA
ATOM      9  O   UNL     1     -32.856  11.974  19.040  1.00  0.00    -0.545 OA
ENDBRANCH   1   7
BRANCH   6  10
ATOM     10  C   UNL     1     -36.249  17.379  17.237  1.00  0.00     0.013 C 
ATOM     11  C   UNL     1     -35.649  18.631  17.888  1.00  0.00     0.012 C 
ATOM     12  C   UNL     1     -37.648  17.084  17.793  1.00  0.00     0.012 C 
ENDBRANCH   6  10
TORSDOF 2
ENDMDL
MODEL 3
REMARK VINA RESULT:    14.351      3.338      5.724
REMARK INTER + INTRA:          15.822
REMARK INTER:                  16.036
REMARK INTRA:                  -0.214
REMARK UNBOUND:                -0.207
REMARK SMILES CC(C)c1ccc(C(=O)[O-])cc1
REMARK SMILES IDX 7 1 6 2 11 3 5 4 12 5 4 6 8 7 9 8 10 9 2 10 1 11 3 12
REMARK H PARENT
REMARK Flexibility Score: inf
ROOT
ATOM      1  C   UNL     1     -36.255  17.145  17.768  1.00  0.00    -0.003 A 
ATOM      2  C   UNL     1     -37.031  18.254  17.390  1.00  0.00     0.010 A 
ATOM      3  C   UNL     1     -36.905  15.948  18.118  1.00  0.00     0.010 A 
ATOM      4  C   UNL     1     -38.426  18.169  17.364  1.00  0.00     0.004 A 
ATOM      5  C   UNL     1     -38.299  15.864  18.092  1.00  0.00     0.004 A 
ATOM      6  C   UNL     1     -39.076  16.974  17.714  1.00  0.00    -0.045 A 
ENDROOT
BRANCH   1   7
ATOM      7  C   UNL     1     -34.780  17.239  17.794  1.00  0.00     0.071 C 
ATOM      8  O   UNL     1     -34.068  16.223  17.572  1.00  0.00    -0.545 OA
ATOM      9  O   UNL     1     -34.156  18.452  18.063  1.00  0.00    -0.545 OA
ENDBRANCH   1   7
BRANCH   6  10
ATOM     10  C   UNL     1     -40.591  16.896  17.681  1.00  0.00     0.013 C 
ATOM     11  C   UNL     1     -41.089  15.568  18.263  1.00  0.00     0.012 C 
ATOM     12  C   UNL     1     -41.125  17.111  16.260  1.00  0.00     0.012 C 
ENDBRANCH   6  10
TORSDOF 2
ENDMDL
