MODEL 1
REMARK VINA RESULT:    -4.684      0.000      0.000
REMARK INTER + INTRA:          -6.377
REMARK INTER:                  -6.600
REMARK INTRA:                   0.223
REMARK UNBOUND:                 0.223
REMARK SMILES CC1=CCC(=C(C)C)C(=O)CC(C)=CCC1
REMARK SMILES IDX 12 1 14 2 13 3 15 4 16 5 2 6 1 7 3 8 11 10 9 11 10 12 5 13
REMARK SMILES IDX 6 14 7 15 8 16 4 17
REMARK H PARENT
REMARK Flexibility Score: 60.00
ROOT
ATOM      1  C   UNL     1     -12.898 -20.013  31.119  1.00  0.00    -0.070 C 
ATOM      2  C   UNL     1     -12.814 -20.012  29.770  1.00  0.00    -0.027 C 
ATOM      3  C   UNL     1     -12.223 -21.130  31.872  1.00  0.00     0.039 C 
ENDROOT
BRANCH   2   4
ATOM      4  C   UNL     1     -13.547 -19.061  28.859  1.00  0.00     0.032 C 
BRANCH   4   5
ATOM      5  C   UNL     1     -12.541 -18.224  28.060  1.00  0.00     0.034 C 
BRANCH   5   6
ATOM      6  C   UNL     1     -13.029 -16.811  27.811  1.00  0.00    -0.077 C 
ATOM      7  C   UNL     1     -13.663 -16.489  26.481  1.00  0.00     0.039 C 
ATOM      8  C   UNL     1     -12.993 -15.830  28.747  1.00  0.00    -0.023 CG0
ATOM      9  G   UNL     1     -12.359 -15.892  30.125  1.00  0.00     0.000 G0
ENDBRANCH   5   6
ENDBRANCH   4   5
ENDBRANCH   2   4
BRANCH   1  10
ATOM     10  C   UNL     1     -13.618 -18.938  31.911  1.00  0.00     0.111 C 
BRANCH  10  11
ATOM     11  C   UNL     1     -12.827 -17.653  31.965  1.00  0.00     0.163 C 
ATOM     12  O   UNL     1     -11.748 -17.671  32.618  1.00  0.00    -0.294 OA
BRANCH  11  13
ATOM     13  C   UNL     1     -13.242 -16.388  31.273  1.00  0.00    -0.002 C 
ATOM     14  C   UNL     1     -14.277 -15.636  31.759  1.00  0.00    -0.069 C 
ATOM     15  C   UNL     1     -15.214 -16.174  32.817  1.00  0.00     0.039 C 
ATOM     16  C   UNL     1     -14.575 -14.249  31.236  1.00  0.00     0.039 C 
BRANCH  13  17
ATOM     17  C   UNL     1     -12.366 -15.880  30.133  1.00  0.00     0.066 CG0
ATOM     18  G   UNL     1     -13.005 -15.836  28.756  1.00  0.00     0.000 G0
ENDBRANCH  13  17
ENDBRANCH  11  13
ENDBRANCH  10  11
ENDBRANCH   1  10
TORSDOF 0
ENDMDL
MODEL 2
REMARK VINA RESULT:    -4.634      1.740      3.721
REMARK INTER + INTRA:          -6.306
REMARK INTER:                  -6.258
REMARK INTRA:                  -0.048
REMARK UNBOUND:                 0.223
REMARK SMILES CC1=CCC(=C(C)C)C(=O)CC(C)=CCC1
REMARK SMILES IDX 12 1 14 2 13 3 15 4 16 5 2 6 1 7 3 8 11 10 9 11 10 12 5 13
REMARK SMILES IDX 6 14 7 15 8 16 4 17
REMARK H PARENT
REMARK Flexibility Score: 60.00
ROOT
ATOM      1  C   UNL     1     -11.944 -16.708  32.275  1.00  0.00    -0.070 C 
ATOM      2  C   UNL     1     -12.059 -18.052  32.371  1.00  0.00    -0.027 C 
ATOM      3  C   UNL     1     -11.016 -16.005  33.231  1.00  0.00     0.039 C 
ENDROOT
BRANCH   2   4
ATOM      4  C   UNL     1     -13.044 -18.892  31.598  1.00  0.00     0.032 C 
BRANCH   4   5
ATOM      5  C   UNL     1     -12.306 -19.715  30.536  1.00  0.00     0.034 C 
BRANCH   5   6
ATOM      6  C   UNL     1     -13.062 -19.782  29.224  1.00  0.00    -0.077 C 
ATOM      7  C   UNL     1     -14.075 -20.883  29.029  1.00  0.00     0.039 C 
ATOM      8  C   UNL     1     -12.933 -18.861  28.237  1.00  0.00    -0.023 CG0
ATOM      9  G   UNL     1     -11.949 -17.706  28.174  1.00  0.00     0.000 G0
ENDBRANCH   5   6
ENDBRANCH   4   5
ENDBRANCH   2   4
BRANCH   1  10
ATOM     10  C   UNL     1     -12.684 -15.879  31.243  1.00  0.00     0.111 C 
BRANCH  10  11
ATOM     11  C   UNL     1     -11.940 -15.818  29.931  1.00  0.00     0.163 C 
ATOM     12  O   UNL     1     -10.792 -15.296  29.946  1.00  0.00    -0.294 OA
BRANCH  11  13
ATOM     13  C   UNL     1     -12.480 -16.360  28.639  1.00  0.00    -0.002 C 
ATOM     14  C   UNL     1     -13.285 -15.590  27.844  1.00  0.00    -0.069 C 
ATOM     15  C   UNL     1     -13.891 -14.299  28.349  1.00  0.00     0.039 C 
ATOM     16  C   UNL     1     -13.657 -16.005  26.439  1.00  0.00     0.039 C 
BRANCH  13  17
ATOM     17  C   UNL     1     -11.959 -17.710  28.160  1.00  0.00     0.066 CG0
ATOM     18  G   UNL     1     -12.933 -18.872  28.225  1.00  0.00     0.000 G0
ENDBRANCH  13  17
ENDBRANCH  11  13
ENDBRANCH  10  11
ENDBRANCH   1  10
TORSDOF 0
ENDMDL
MODEL 3
REMARK VINA RESULT:    -4.562      1.737      2.991
REMARK INTER + INTRA:          -6.206
REMARK INTER:                  -7.178
REMARK INTRA:                   0.973
REMARK UNBOUND:                 0.223
REMARK SMILES CC1=CCC(=C(C)C)C(=O)CC(C)=CCC1
REMARK SMILES IDX 12 1 14 2 13 3 15 4 16 5 2 6 1 7 3 8 11 10 9 11 10 12 5 13
REMARK SMILES IDX 6 14 7 15 8 16 4 17
REMARK H PARENT
REMARK Flexibility Score: 60.00
ROOT
ATOM      1  C   UNL     1     -12.229 -18.889  29.075  1.00  0.00    -0.070 C 
ATOM      2  C   UNL     1     -11.784 -17.931  28.230  1.00  0.00    -0.027 C 
ATOM      3  C   UNL     1     -13.450 -19.677  28.675  1.00  0.00     0.039 C 
ENDROOT
BRANCH   2   4
ATOM      4  C   UNL     1     -10.675 -16.957  28.535  1.00  0.00     0.032 C 
BRANCH   4   5
ATOM      5  C   UNL     1     -11.155 -15.926  29.563  1.00  0.00     0.034 C 
BRANCH   5   6
ATOM      6  C   UNL     1     -12.653 -15.704  29.506  1.00  0.00    -0.077 C 
ATOM      7  C   UNL     1     -13.276 -15.304  28.192  1.00  0.00     0.039 C 
ATOM      8  C   UNL     1     -13.482 -15.915  30.559  1.00  0.00    -0.023 CG0
ATOM      9  G   UNL     1     -13.094 -16.262  31.985  1.00  0.00     0.000 G0
ENDBRANCH   5   6
ENDBRANCH   4   5
ENDBRANCH   2   4
BRANCH   1  10
ATOM     10  C   UNL     1     -11.550 -19.223  30.389  1.00  0.00     0.111 C 
BRANCH  10  11
ATOM     11  C   UNL     1     -12.329 -18.702  31.573  1.00  0.00     0.163 C 
ATOM     12  O   UNL     1     -13.222 -19.455  32.049  1.00  0.00    -0.294 OA
BRANCH  11  13
ATOM     13  C   UNL     1     -12.081 -17.367  32.213  1.00  0.00    -0.002 C 
ATOM     14  C   UNL     1     -10.885 -17.098  32.821  1.00  0.00    -0.069 C 
ATOM     15  C   UNL     1      -9.890 -18.196  33.125  1.00  0.00     0.039 C 
ATOM     16  C   UNL     1     -10.509 -15.704  33.269  1.00  0.00     0.039 C 
BRANCH  13  17
ATOM     17  C   UNL     1     -13.123 -16.274  32.006  1.00  0.00     0.066 CG0
ATOM     18  G   UNL     1     -13.477 -15.940  30.567  1.00  0.00     0.000 G0
ENDBRANCH  13  17
ENDBRANCH  11  13
ENDBRANCH  10  11
ENDBRANCH   1  10
TORSDOF 0
ENDMDL
MODEL 4
REMARK VINA RESULT:    -4.433      1.728      3.794
REMARK INTER + INTRA:          -6.024
REMARK INTER:                  -6.751
REMARK INTRA:                   0.727
REMARK UNBOUND:                 0.223
REMARK SMILES CC1=CCC(=C(C)C)C(=O)CC(C)=CCC1
REMARK SMILES IDX 12 1 14 2 13 3 15 4 16 5 2 6 1 7 3 8 11 10 9 11 10 12 5 13
REMARK SMILES IDX 6 14 7 15 8 16 4 17
REMARK H PARENT
REMARK Flexibility Score: 60.00
ROOT
ATOM      1  C   UNL     1     -12.891 -19.343  29.502  1.00  0.00    -0.070 C 
ATOM      2  C   UNL     1     -13.266 -19.535  30.787  1.00  0.00    -0.027 C 
ATOM      3  C   UNL     1     -13.905 -19.611  28.420  1.00  0.00     0.039 C 
ENDROOT
BRANCH   2   4
ATOM      4  C   UNL     1     -12.343 -19.458  31.977  1.00  0.00     0.032 C 
BRANCH   4   5
ATOM      5  C   UNL     1     -11.962 -17.998  32.246  1.00  0.00     0.034 C 
BRANCH   5   6
ATOM      6  C   UNL     1     -13.108 -17.041  31.986  1.00  0.00    -0.077 C 
ATOM      7  C   UNL     1     -14.333 -17.125  32.863  1.00  0.00     0.039 C 
ATOM      8  C   UNL     1     -13.068 -16.059  31.052  1.00  0.00    -0.023 CG0
ATOM      9  G   UNL     1     -11.982 -15.810  30.021  1.00  0.00     0.000 G0
ENDBRANCH   5   6
ENDBRANCH   4   5
ENDBRANCH   2   4
BRANCH   1  10
ATOM     10  C   UNL     1     -11.513 -18.855  29.099  1.00  0.00     0.111 C 
BRANCH  10  11
ATOM     11  C   UNL     1     -11.586 -17.637  28.209  1.00  0.00     0.163 C 
ATOM     12  O   UNL     1     -11.055 -17.728  27.068  1.00  0.00    -0.294 OA
BRANCH  11  13
ATOM     13  C   UNL     1     -12.266 -16.357  28.599  1.00  0.00    -0.002 C 
ATOM     14  C   UNL     1     -13.224 -15.805  27.793  1.00  0.00    -0.069 C 
ATOM     15  C   UNL     1     -13.434 -16.284  26.374  1.00  0.00     0.039 C 
ATOM     16  C   UNL     1     -14.091 -14.655  28.252  1.00  0.00     0.039 C 
BRANCH  13  17
ATOM     17  C   UNL     1     -11.988 -15.800  29.990  1.00  0.00     0.066 CG0
ATOM     18  G   UNL     1     -13.050 -16.055  31.045  1.00  0.00     0.000 G0
ENDBRANCH  13  17
ENDBRANCH  11  13
ENDBRANCH  10  11
ENDBRANCH   1  10
TORSDOF 0
ENDMDL
MODEL 5
REMARK VINA RESULT:    -4.293      2.069      3.904
REMARK INTER + INTRA:          -5.826
REMARK INTER:                  -6.338
REMARK INTRA:                   0.512
REMARK UNBOUND:                 0.223
REMARK SMILES CC1=CCC(=C(C)C)C(=O)CC(C)=CCC1
REMARK SMILES IDX 12 1 14 2 13 3 15 4 16 5 2 6 1 7 3 8 11 10 9 11 10 12 5 13
REMARK SMILES IDX 6 14 7 15 8 16 4 17
REMARK H PARENT
REMARK Flexibility Score: 60.00
ROOT
ATOM      1  C   UNL     1     -10.988 -17.072  29.038  1.00  0.00    -0.070 C 
ATOM      2  C   UNL     1     -10.380 -17.925  29.893  1.00  0.00    -0.027 C 
ATOM      3  C   UNL     1     -11.055 -17.454  27.583  1.00  0.00     0.039 C 
ENDROOT
BRANCH   2   4
ATOM      4  C   UNL     1     -10.095 -17.637  31.346  1.00  0.00     0.032 C 
BRANCH   4   5
ATOM      5  C   UNL     1     -10.651 -18.767  32.220  1.00  0.00     0.034 C 
BRANCH   5   6
ATOM      6  C   UNL     1     -12.087 -19.111  31.880  1.00  0.00    -0.077 C 
ATOM      7  C   UNL     1     -12.416 -20.528  31.478  1.00  0.00     0.039 C 
ATOM      8  C   UNL     1     -13.114 -18.231  31.985  1.00  0.00    -0.023 CG0
ATOM      9  G   UNL     1     -13.031 -16.751  32.310  1.00  0.00     0.000 G0
ENDBRANCH   5   6
ENDBRANCH   4   5
ENDBRANCH   2   4
BRANCH   1  10
ATOM     10  C   UNL     1     -11.620 -15.764  29.473  1.00  0.00     0.111 C 
BRANCH  10  11
ATOM     11  C   UNL     1     -13.073 -15.938  29.845  1.00  0.00     0.163 C 
ATOM     12  O   UNL     1     -13.873 -16.229  28.914  1.00  0.00    -0.294 OA
BRANCH  11  13
ATOM     13  C   UNL     1     -13.599 -15.808  31.245  1.00  0.00    -0.002 C 
ATOM     14  C   UNL     1     -14.653 -14.980  31.518  1.00  0.00    -0.069 C 
ATOM     15  C   UNL     1     -15.142 -13.965  30.508  1.00  0.00     0.039 C 
ATOM     16  C   UNL     1     -15.358 -14.993  32.855  1.00  0.00     0.039 C 
BRANCH  13  17
ATOM     17  C   UNL     1     -13.045 -16.754  32.304  1.00  0.00     0.066 CG0
ATOM     18  G   UNL     1     -13.114 -18.237  31.989  1.00  0.00     0.000 G0
ENDBRANCH  13  17
ENDBRANCH  11  13
ENDBRANCH  10  11
ENDBRANCH   1  10
TORSDOF 0
ENDMDL
MODEL 6
REMARK VINA RESULT:    -4.139      2.016      3.549
REMARK INTER + INTRA:          -5.609
REMARK INTER:                  -5.827
REMARK INTRA:                   0.218
REMARK UNBOUND:                 0.223
REMARK SMILES CC1=CCC(=C(C)C)C(=O)CC(C)=CCC1
REMARK SMILES IDX 12 1 14 2 13 3 15 4 16 5 2 6 1 7 3 8 11 10 9 11 10 12 5 13
REMARK SMILES IDX 6 14 7 15 8 16 4 17
REMARK H PARENT
REMARK Flexibility Score: 60.00
ROOT
ATOM      1  C   UNL     1     -10.503 -16.305  29.292  1.00  0.00    -0.070 C 
ATOM      2  C   UNL     1     -11.457 -16.409  28.338  1.00  0.00    -0.027 C 
ATOM      3  C   UNL     1     -10.061 -14.925  29.705  1.00  0.00     0.039 C 
ENDROOT
BRANCH   2   4
ATOM      4  C   UNL     1     -11.908 -17.701  27.706  1.00  0.00     0.032 C 
BRANCH   4   5
ATOM      5  C   UNL     1     -13.406 -17.909  27.959  1.00  0.00     0.034 C 
BRANCH   5   6
ATOM      6  C   UNL     1     -13.678 -19.001  28.974  1.00  0.00    -0.077 C 
ATOM      7  C   UNL     1     -13.998 -20.388  28.474  1.00  0.00     0.039 C 
ATOM      8  C   UNL     1     -13.579 -18.820  30.314  1.00  0.00    -0.023 CG0
ATOM      9  G   UNL     1     -13.329 -17.518  31.054  1.00  0.00     0.000 G0
ENDBRANCH   5   6
ENDBRANCH   4   5
ENDBRANCH   2   4
BRANCH   1  10
ATOM     10  C   UNL     1      -9.875 -17.502  29.979  1.00  0.00     0.111 C 
BRANCH  10  11
ATOM     11  C   UNL     1     -10.792 -18.099  31.020  1.00  0.00     0.163 C 
ATOM     12  O   UNL     1     -10.566 -19.290  31.366  1.00  0.00    -0.294 OA
BRANCH  11  13
ATOM     13  C   UNL     1     -11.921 -17.351  31.665  1.00  0.00    -0.002 C 
ATOM     14  C   UNL     1     -11.676 -16.432  32.649  1.00  0.00    -0.069 C 
ATOM     15  C   UNL     1     -10.322 -16.336  33.319  1.00  0.00     0.039 C 
ATOM     16  C   UNL     1     -12.748 -15.497  33.159  1.00  0.00     0.039 C 
BRANCH  13  17
ATOM     17  C   UNL     1     -13.315 -17.514  31.069  1.00  0.00     0.066 CG0
ATOM     18  G   UNL     1     -13.576 -18.796  30.299  1.00  0.00     0.000 G0
ENDBRANCH  13  17
ENDBRANCH  11  13
ENDBRANCH  10  11
ENDBRANCH   1  10
TORSDOF 0
ENDMDL
MODEL 7
REMARK VINA RESULT:    -4.112      1.690      3.777
REMARK INTER + INTRA:          -5.572
REMARK INTER:                  -6.197
REMARK INTRA:                   0.625
REMARK UNBOUND:                 0.223
REMARK SMILES CC1=CCC(=C(C)C)C(=O)CC(C)=CCC1
REMARK SMILES IDX 12 1 14 2 13 3 15 4 16 5 2 6 1 7 3 8 11 10 9 11 10 12 5 13
REMARK SMILES IDX 6 14 7 15 8 16 4 17
REMARK H PARENT
REMARK Flexibility Score: 60.00
ROOT
ATOM      1  C   UNL     1     -12.945 -19.172  31.320  1.00  0.00    -0.070 C 
ATOM      2  C   UNL     1     -13.238 -18.289  32.302  1.00  0.00    -0.027 C 
ATOM      3  C   UNL     1     -12.362 -20.504  31.715  1.00  0.00     0.039 C 
ENDROOT
BRANCH   2   4
ATOM      4  C   UNL     1     -13.686 -16.867  32.079  1.00  0.00     0.032 C 
BRANCH   4   5
ATOM      5  C   UNL     1     -12.638 -15.898  32.637  1.00  0.00     0.034 C 
BRANCH   5   6
ATOM      6  C   UNL     1     -11.221 -16.322  32.307  1.00  0.00    -0.077 C 
ATOM      7  C   UNL     1     -10.368 -16.909  33.405  1.00  0.00     0.039 C 
ATOM      8  C   UNL     1     -10.694 -16.270  31.059  1.00  0.00    -0.023 CG0
ATOM      9  G   UNL     1     -11.327 -15.674  29.814  1.00  0.00     0.000 G0
ENDBRANCH   5   6
ENDBRANCH   4   5
ENDBRANCH   2   4
BRANCH   1  10
ATOM     10  C   UNL     1     -13.193 -18.898  29.850  1.00  0.00     0.111 C 
BRANCH  10  11
ATOM     11  C   UNL     1     -12.073 -18.095  29.231  1.00  0.00     0.163 C 
ATOM     12  O   UNL     1     -11.019 -18.719  28.930  1.00  0.00    -0.294 OA
BRANCH  11  13
ATOM     13  C   UNL     1     -12.161 -16.625  28.941  1.00  0.00    -0.002 C 
ATOM     14  C   UNL     1     -13.084 -16.145  28.052  1.00  0.00    -0.069 C 
ATOM     15  C   UNL     1     -13.844 -17.070  27.127  1.00  0.00     0.039 C 
ATOM     16  C   UNL     1     -13.362 -14.666  27.905  1.00  0.00     0.039 C 
BRANCH  13  17
ATOM     17  C   UNL     1     -11.323 -15.680  29.795  1.00  0.00     0.066 CG0
ATOM     18  G   UNL     1     -10.697 -16.273  31.044  1.00  0.00     0.000 G0
ENDBRANCH  13  17
ENDBRANCH  11  13
ENDBRANCH  10  11
ENDBRANCH   1  10
TORSDOF 0
ENDMDL
MODEL 8
REMARK VINA RESULT:    -4.074      1.621      3.708
REMARK INTER + INTRA:          -5.517
REMARK INTER:                  -6.530
REMARK INTRA:                   1.013
REMARK UNBOUND:                 0.223
REMARK SMILES CC1=CCC(=C(C)C)C(=O)CC(C)=CCC1
REMARK SMILES IDX 12 1 14 2 13 3 15 4 16 5 2 6 1 7 3 8 11 10 9 11 10 12 5 13
REMARK SMILES IDX 6 14 7 15 8 16 4 17
REMARK H PARENT
REMARK Flexibility Score: 60.00
ROOT
ATOM      1  C   UNL     1     -12.475 -16.937  31.866  1.00  0.00    -0.070 C 
ATOM      2  C   UNL     1     -12.123 -15.870  31.113  1.00  0.00    -0.027 C 
ATOM      3  C   UNL     1     -13.790 -16.885  32.599  1.00  0.00     0.039 C 
ENDROOT
BRANCH   2   4
ATOM      4  C   UNL     1     -10.788 -15.693  30.436  1.00  0.00     0.032 C 
BRANCH   4   5
ATOM      5  C   UNL     1     -10.989 -15.517  28.927  1.00  0.00     0.034 C 
BRANCH   5   6
ATOM      6  C   UNL     1     -12.394 -15.870  28.483  1.00  0.00    -0.077 C 
ATOM      7  C   UNL     1     -13.412 -14.764  28.357  1.00  0.00     0.039 C 
ATOM      8  C   UNL     1     -12.773 -17.121  28.120  1.00  0.00    -0.023 CG0
ATOM      9  G   UNL     1     -11.956 -18.397  28.213  1.00  0.00     0.000 G0
ENDBRANCH   5   6
ENDBRANCH   4   5
ENDBRANCH   2   4
BRANCH   1  10
ATOM     10  C   UNL     1     -11.625 -18.187  31.992  1.00  0.00     0.111 C 
BRANCH  10  11
ATOM     11  C   UNL     1     -11.125 -18.665  30.650  1.00  0.00     0.163 C 
ATOM     12  O   UNL     1      -9.877 -18.678  30.475  1.00  0.00    -0.294 OA
BRANCH  11  13
ATOM     13  C   UNL     1     -12.024 -19.139  29.545  1.00  0.00    -0.002 C 
ATOM     14  C   UNL     1     -12.971 -20.099  29.781  1.00  0.00    -0.069 C 
ATOM     15  C   UNL     1     -12.968 -20.914  31.056  1.00  0.00     0.039 C 
ATOM     16  C   UNL     1     -14.041 -20.435  28.768  1.00  0.00     0.039 C 
BRANCH  13  17
ATOM     17  C   UNL     1     -11.970 -18.396  28.216  1.00  0.00     0.066 CG0
ATOM     18  G   UNL     1     -12.779 -17.114  28.124  1.00  0.00     0.000 G0
ENDBRANCH  13  17
ENDBRANCH  11  13
ENDBRANCH  10  11
ENDBRANCH   1  10
TORSDOF 0
ENDMDL
MODEL 9
REMARK VINA RESULT:    -3.729      1.739      4.700
REMARK INTER + INTRA:          -5.032
REMARK INTER:                  -5.018
REMARK INTRA:                  -0.014
REMARK UNBOUND:                 0.223
REMARK SMILES CC1=CCC(=C(C)C)C(=O)CC(C)=CCC1
REMARK SMILES IDX 12 1 14 2 13 3 15 4 16 5 2 6 1 7 3 8 11 10 9 11 10 12 5 13
REMARK SMILES IDX 6 14 7 15 8 16 4 17
REMARK H PARENT
REMARK Flexibility Score: 60.00
ROOT
ATOM      1  C   UNL     1     -12.956 -16.383  27.635  1.00  0.00    -0.070 C 
ATOM      2  C   UNL     1     -13.278 -15.225  28.257  1.00  0.00    -0.027 C 
ATOM      3  C   UNL     1     -12.311 -16.302  26.275  1.00  0.00     0.039 C 
ENDROOT
BRANCH   2   4
ATOM      4  C   UNL     1     -14.055 -15.123  29.544  1.00  0.00     0.032 C 
BRANCH   4   5
ATOM      5  C   UNL     1     -13.092 -15.154  30.737  1.00  0.00     0.034 C 
BRANCH   5   6
ATOM      6  C   UNL     1     -13.662 -15.905  31.924  1.00  0.00    -0.077 C 
ATOM      7  C   UNL     1     -14.827 -15.303  32.670  1.00  0.00     0.039 C 
ATOM      8  C   UNL     1     -13.229 -17.130  32.313  1.00  0.00    -0.023 CG0
ATOM      9  G   UNL     1     -12.047 -17.909  31.765  1.00  0.00     0.000 G0
ENDBRANCH   5   6
ENDBRANCH   4   5
ENDBRANCH   2   4
BRANCH   1  10
ATOM     10  C   UNL     1     -13.191 -17.751  28.244  1.00  0.00     0.111 C 
BRANCH  10  11
ATOM     11  C   UNL     1     -12.079 -18.147  29.185  1.00  0.00     0.163 C 
ATOM     12  O   UNL     1     -10.898 -17.912  28.808  1.00  0.00    -0.294 OA
BRANCH  11  13
ATOM     13  C   UNL     1     -12.305 -18.774  30.530  1.00  0.00    -0.002 C 
ATOM     14  C   UNL     1     -12.579 -20.110  30.638  1.00  0.00    -0.069 C 
ATOM     15  C   UNL     1     -12.943 -20.941  29.427  1.00  0.00     0.039 C 
ATOM     16  C   UNL     1     -12.584 -20.823  31.971  1.00  0.00     0.039 C 
BRANCH  13  17
ATOM     17  C   UNL     1     -12.043 -17.921  31.766  1.00  0.00     0.066 CG0
ATOM     18  G   UNL     1     -13.223 -17.135  32.309  1.00  0.00     0.000 G0
ENDBRANCH  13  17
ENDBRANCH  11  13
ENDBRANCH  10  11
ENDBRANCH   1  10
TORSDOF 0
ENDMDL
