MODEL 1
REMARK VINA RESULT:    -7.239      0.000      0.000
REMARK INTER + INTRA:          -7.695
REMARK INTER:                  -7.662
REMARK INTRA:                  -0.033
REMARK UNBOUND:                -0.033
REMARK SMILES COc1ccc2ccc(=O)oc2c1
REMARK SMILES IDX 3 1 13 2 12 3 6 4 5 5 4 6 7 7 8 8 9 9 10 10 11 11 2 12 1 13
REMARK H PARENT
REMARK Flexibility Score: inf
ROOT
ATOM      1  C   UNL     1      12.981 -13.724  28.304  1.00  0.00     0.122 A 
ATOM      2  C   UNL     1      13.206 -12.709  29.242  1.00  0.00     0.094 A 
ATOM      3  C   UNL     1      12.237 -11.726  29.471  1.00  0.00     0.142 A 
ATOM      4  C   UNL     1      11.022 -11.757  28.753  1.00  0.00     0.018 A 
ATOM      5  C   UNL     1      10.794 -12.770  27.813  1.00  0.00     0.016 A 
ATOM      6  C   UNL     1      11.766 -13.749  27.589  1.00  0.00     0.047 A 
ATOM      7  C   UNL     1      10.073 -10.761  29.004  1.00  0.00     0.019 A 
ATOM      8  C   UNL     1      10.350  -9.775  29.949  1.00  0.00     0.094 A 
ATOM      9  C   UNL     1      11.575  -9.807  30.624  1.00  0.00     0.336 A 
ATOM     10  O   UNL     1      11.844  -8.926  31.480  1.00  0.00    -0.246 OA
ATOM     11  O   UNL     1      12.461 -10.766  30.365  1.00  0.00    -0.423 OA
ENDROOT
BRANCH   1  12
ATOM     12  O   UNL     1      13.985 -14.685  28.111  1.00  0.00    -0.497 OA
ATOM     13  C   UNL     1      13.986 -15.979  28.705  1.00  0.00     0.278 C 
ENDBRANCH   1  12
TORSDOF 1
ENDMDL
MODEL 2
REMARK VINA RESULT:    -6.850      1.600      2.319
REMARK INTER + INTRA:          -7.283
REMARK INTER:                  -7.252
REMARK INTRA:                  -0.031
REMARK UNBOUND:                -0.033
REMARK SMILES COc1ccc2ccc(=O)oc2c1
REMARK SMILES IDX 3 1 13 2 12 3 6 4 5 5 4 6 7 7 8 8 9 9 10 10 11 11 2 12 1 13
REMARK H PARENT
REMARK Flexibility Score: inf
ROOT
ATOM      1  C   UNL     1      13.120 -13.833  28.679  1.00  0.00     0.122 A 
ATOM      2  C   UNL     1      11.794 -13.427  28.487  1.00  0.00     0.094 A 
ATOM      3  C   UNL     1      11.325 -12.237  29.053  1.00  0.00     0.142 A 
ATOM      4  C   UNL     1      12.195 -11.437  29.824  1.00  0.00     0.018 A 
ATOM      5  C   UNL     1      13.523 -11.838  30.020  1.00  0.00     0.016 A 
ATOM      6  C   UNL     1      13.984 -13.029  29.451  1.00  0.00     0.047 A 
ATOM      7  C   UNL     1      11.698 -10.253  30.378  1.00  0.00     0.019 A 
ATOM      8  C   UNL     1      10.368  -9.899  30.153  1.00  0.00     0.094 A 
ATOM      9  C   UNL     1       9.563 -10.740  29.378  1.00  0.00     0.336 A 
ATOM     10  O   UNL     1       8.361 -10.438  29.164  1.00  0.00    -0.246 OA
ATOM     11  O   UNL     1      10.062 -11.861  28.864  1.00  0.00    -0.423 OA
ENDROOT
BRANCH   1  12
ATOM     12  O   UNL     1      13.540 -15.035  28.089  1.00  0.00    -0.497 OA
ATOM     13  C   UNL     1      14.001 -16.169  28.816  1.00  0.00     0.278 C 
ENDBRANCH   1  12
TORSDOF 1
ENDMDL
MODEL 3
REMARK VINA RESULT:    -6.794      1.152      4.640
REMARK INTER + INTRA:          -7.224
REMARK INTER:                  -7.182
REMARK INTRA:                  -0.041
REMARK UNBOUND:                -0.033
REMARK SMILES COc1ccc2ccc(=O)oc2c1
REMARK SMILES IDX 3 1 13 2 12 3 6 4 5 5 4 6 7 7 8 8 9 9 10 10 11 11 2 12 1 13
REMARK H PARENT
REMARK Flexibility Score: inf
ROOT
ATOM      1  C   UNL     1      11.281 -10.017  30.194  1.00  0.00     0.122 A 
ATOM      2  C   UNL     1      12.411 -10.781  29.878  1.00  0.00     0.094 A 
ATOM      3  C   UNL     1      12.318 -11.851  28.982  1.00  0.00     0.142 A 
ATOM      4  C   UNL     1      11.076 -12.165  28.391  1.00  0.00     0.018 A 
ATOM      5  C   UNL     1       9.942 -11.404  28.704  1.00  0.00     0.016 A 
ATOM      6  C   UNL     1      10.043 -10.335  29.600  1.00  0.00     0.047 A 
ATOM      7  C   UNL     1      11.014 -13.241  27.499  1.00  0.00     0.019 A 
ATOM      8  C   UNL     1      12.172 -13.966  27.222  1.00  0.00     0.094 A 
ATOM      9  C   UNL     1      13.369 -13.598  27.845  1.00  0.00     0.336 A 
ATOM     10  O   UNL     1      14.424 -14.240  27.608  1.00  0.00    -0.246 OA
ATOM     11  O   UNL     1      13.399 -12.570  28.690  1.00  0.00    -0.423 OA
ENDROOT
BRANCH   1  12
ATOM     12  O   UNL     1      11.428  -8.954  31.098  1.00  0.00    -0.497 OA
ATOM     13  C   UNL     1      12.413  -8.902  32.125  1.00  0.00     0.278 C 
ENDBRANCH   1  12
TORSDOF 1
ENDMDL
MODEL 4
REMARK VINA RESULT:    -5.938      2.076      4.487
REMARK INTER + INTRA:          -6.318
REMARK INTER:                  -6.278
REMARK INTRA:                  -0.039
REMARK UNBOUND:                -0.033
REMARK SMILES COc1ccc2ccc(=O)oc2c1
REMARK SMILES IDX 3 1 13 2 12 3 6 4 5 5 4 6 7 7 8 8 9 9 10 10 11 11 2 12 1 13
REMARK H PARENT
REMARK Flexibility Score: inf
ROOT
ATOM      1  C   UNL     1      12.841 -11.044  30.943  1.00  0.00     0.122 A 
ATOM      2  C   UNL     1      11.587 -11.066  30.320  1.00  0.00     0.094 A 
ATOM      3  C   UNL     1      11.351 -11.905  29.226  1.00  0.00     0.142 A 
ATOM      4  C   UNL     1      12.384 -12.737  28.745  1.00  0.00     0.018 A 
ATOM      5  C   UNL     1      13.640 -12.718  29.364  1.00  0.00     0.016 A 
ATOM      6  C   UNL     1      13.869 -11.877  30.457  1.00  0.00     0.047 A 
ATOM      7  C   UNL     1      12.119 -13.565  27.650  1.00  0.00     0.019 A 
ATOM      8  C   UNL     1      10.851 -13.546  27.070  1.00  0.00     0.094 A 
ATOM      9  C   UNL     1       9.875 -12.696  27.600  1.00  0.00     0.336 A 
ATOM     10  O   UNL     1       8.725 -12.664  27.090  1.00  0.00    -0.246 OA
ATOM     11  O   UNL     1      10.155 -11.918  28.642  1.00  0.00    -0.423 OA
ENDROOT
BRANCH   1  12
ATOM     12  O   UNL     1      13.025 -10.184  32.036  1.00  0.00    -0.497 OA
ATOM     13  C   UNL     1      12.488  -8.868  32.124  1.00  0.00     0.278 C 
ENDBRANCH   1  12
TORSDOF 1
ENDMDL
MODEL 5
REMARK VINA RESULT:    -5.801     10.782     12.776
REMARK INTER + INTRA:          -6.173
REMARK INTER:                  -6.139
REMARK INTRA:                  -0.034
REMARK UNBOUND:                -0.033
REMARK SMILES COc1ccc2ccc(=O)oc2c1
REMARK SMILES IDX 3 1 13 2 12 3 6 4 5 5 4 6 7 7 8 8 9 9 10 10 11 11 2 12 1 13
REMARK H PARENT
REMARK Flexibility Score: inf
ROOT
ATOM      1  C   UNL     1      14.597   0.190  26.062  1.00  0.00     0.122 A 
ATOM      2  C   UNL     1      15.985   0.004  26.048  1.00  0.00     0.094 A 
ATOM      3  C   UNL     1      16.550  -1.166  26.567  1.00  0.00     0.142 A 
ATOM      4  C   UNL     1      15.717  -2.168  27.108  1.00  0.00     0.018 A 
ATOM      5  C   UNL     1      14.328  -1.986  27.125  1.00  0.00     0.016 A 
ATOM      6  C   UNL     1      13.770  -0.815  26.605  1.00  0.00     0.047 A 
ATOM      7  C   UNL     1      16.312  -3.326  27.619  1.00  0.00     0.019 A 
ATOM      8  C   UNL     1      17.699  -3.457  27.578  1.00  0.00     0.094 A 
ATOM      9  C   UNL     1      18.463  -2.423  27.026  1.00  0.00     0.336 A 
ATOM     10  O   UNL     1      19.716  -2.523  26.981  1.00  0.00    -0.246 OA
ATOM     11  O   UNL     1      17.871  -1.332  26.548  1.00  0.00    -0.423 OA
ENDROOT
BRANCH   1  12
ATOM     12  O   UNL     1      14.080   1.381  25.530  1.00  0.00    -0.497 OA
ATOM     13  C   UNL     1      14.109   2.639  26.197  1.00  0.00     0.278 C 
ENDBRANCH   1  12
TORSDOF 1
ENDMDL
MODEL 6
REMARK VINA RESULT:    -5.592      2.063      5.129
REMARK INTER + INTRA:          -5.952
REMARK INTER:                  -5.916
REMARK INTRA:                  -0.036
REMARK UNBOUND:                -0.033
REMARK SMILES COc1ccc2ccc(=O)oc2c1
REMARK SMILES IDX 3 1 13 2 12 3 6 4 5 5 4 6 7 7 8 8 9 9 10 10 11 11 2 12 1 13
REMARK H PARENT
REMARK Flexibility Score: inf
ROOT
ATOM      1  C   UNL     1      10.223 -11.729  29.018  1.00  0.00     0.122 A 
ATOM      2  C   UNL     1      10.884 -12.384  27.971  1.00  0.00     0.094 A 
ATOM      3  C   UNL     1      12.058 -13.105  28.212  1.00  0.00     0.142 A 
ATOM      4  C   UNL     1      12.583 -13.175  29.519  1.00  0.00     0.018 A 
ATOM      5  C   UNL     1      11.926 -12.521  30.570  1.00  0.00     0.016 A 
ATOM      6  C   UNL     1      10.753 -11.803  30.323  1.00  0.00     0.047 A 
ATOM      7  C   UNL     1      13.758 -13.903  29.728  1.00  0.00     0.019 A 
ATOM      8  C   UNL     1      14.373 -14.535  28.648  1.00  0.00     0.094 A 
ATOM      9  C   UNL     1      13.796 -14.423  27.379  1.00  0.00     0.336 A 
ATOM     10  O   UNL     1      14.335 -14.985  26.391  1.00  0.00    -0.246 OA
ATOM     11  O   UNL     1      12.677 -13.723  27.208  1.00  0.00    -0.423 OA
ENDROOT
BRANCH   1  12
ATOM     12  O   UNL     1       9.049 -11.020  28.723  1.00  0.00    -0.497 OA
ATOM     13  C   UNL     1       8.332 -10.225  29.663  1.00  0.00     0.278 C 
ENDBRANCH   1  12
TORSDOF 1
ENDMDL
MODEL 7
REMARK VINA RESULT:    -5.101      1.528      5.177
REMARK INTER + INTRA:          -5.432
REMARK INTER:                  -5.398
REMARK INTRA:                  -0.034
REMARK UNBOUND:                -0.033
REMARK SMILES COc1ccc2ccc(=O)oc2c1
REMARK SMILES IDX 3 1 13 2 12 3 6 4 5 5 4 6 7 7 8 8 9 9 10 10 11 11 2 12 1 13
REMARK H PARENT
REMARK Flexibility Score: inf
ROOT
ATOM      1  C   UNL     1      12.079 -11.695  29.927  1.00  0.00     0.122 A 
ATOM      2  C   UNL     1      12.406 -12.996  30.330  1.00  0.00     0.094 A 
ATOM      3  C   UNL     1      13.062 -13.867  29.455  1.00  0.00     0.142 A 
ATOM      4  C   UNL     1      13.398 -13.435  28.155  1.00  0.00     0.018 A 
ATOM      5  C   UNL     1      13.072 -12.135  27.746  1.00  0.00     0.016 A 
ATOM      6  C   UNL     1      12.416 -11.269  28.626  1.00  0.00     0.047 A 
ATOM      7  C   UNL     1      14.053 -14.329  27.302  1.00  0.00     0.019 A 
ATOM      8  C   UNL     1      14.355 -15.612  27.758  1.00  0.00     0.094 A 
ATOM      9  C   UNL     1      13.992 -15.972  29.060  1.00  0.00     0.336 A 
ATOM     10  O   UNL     1      14.255 -17.125  29.489  1.00  0.00    -0.246 OA
ATOM     11  O   UNL     1      13.368 -15.101  29.850  1.00  0.00    -0.423 OA
ENDROOT
BRANCH   1  12
ATOM     12  O   UNL     1      11.421 -10.861  30.843  1.00  0.00    -0.497 OA
ATOM     13  C   UNL     1      11.524  -9.441  30.857  1.00  0.00     0.278 C 
ENDBRANCH   1  12
TORSDOF 1
ENDMDL
MODEL 8
REMARK VINA RESULT:    -4.385     10.468     12.604
REMARK INTER + INTRA:          -4.674
REMARK INTER:                  -4.641
REMARK INTRA:                  -0.033
REMARK UNBOUND:                -0.033
REMARK SMILES COc1ccc2ccc(=O)oc2c1
REMARK SMILES IDX 3 1 13 2 12 3 6 4 5 5 4 6 7 7 8 8 9 9 10 10 11 11 2 12 1 13
REMARK H PARENT
REMARK Flexibility Score: inf
ROOT
ATOM      1  C   UNL     1      14.820   0.276  26.131  1.00  0.00     0.122 A 
ATOM      2  C   UNL     1      14.767  -0.564  27.250  1.00  0.00     0.094 A 
ATOM      3  C   UNL     1      15.757  -1.529  27.462  1.00  0.00     0.142 A 
ATOM      4  C   UNL     1      16.819  -1.658  26.542  1.00  0.00     0.018 A 
ATOM      5  C   UNL     1      16.876  -0.820  25.420  1.00  0.00     0.016 A 
ATOM      6  C   UNL     1      15.883   0.142  25.215  1.00  0.00     0.047 A 
ATOM      7  C   UNL     1      17.794  -2.632  26.780  1.00  0.00     0.019 A 
ATOM      8  C   UNL     1      17.690  -3.440  27.911  1.00  0.00     0.094 A 
ATOM      9  C   UNL     1      16.610  -3.256  28.781  1.00  0.00     0.336 A 
ATOM     10  O   UNL     1      16.500  -3.975  29.807  1.00  0.00    -0.246 OA
ATOM     11  O   UNL     1      15.696  -2.322  28.529  1.00  0.00    -0.423 OA
ENDROOT
BRANCH   1  12
ATOM     12  O   UNL     1      13.801   1.227  25.965  1.00  0.00    -0.497 OA
ATOM     13  C   UNL     1      13.974   2.630  26.138  1.00  0.00     0.278 C 
ENDBRANCH   1  12
TORSDOF 1
ENDMDL
MODEL 9
REMARK VINA RESULT:    -4.260     10.677     11.978
REMARK INTER + INTRA:          -4.542
REMARK INTER:                  -4.511
REMARK INTRA:                  -0.031
REMARK UNBOUND:                -0.033
REMARK SMILES COc1ccc2ccc(=O)oc2c1
REMARK SMILES IDX 3 1 13 2 12 3 6 4 5 5 4 6 7 7 8 8 9 9 10 10 11 11 2 12 1 13
REMARK H PARENT
REMARK Flexibility Score: inf
ROOT
ATOM      1  C   UNL     1      18.101  -2.535  27.120  1.00  0.00     0.122 A 
ATOM      2  C   UNL     1      17.699  -1.290  26.621  1.00  0.00     0.094 A 
ATOM      3  C   UNL     1      16.345  -0.942  26.586  1.00  0.00     0.142 A 
ATOM      4  C   UNL     1      15.374  -1.850  27.058  1.00  0.00     0.018 A 
ATOM      5  C   UNL     1      15.771  -3.097  27.558  1.00  0.00     0.016 A 
ATOM      6  C   UNL     1      17.126  -3.439  27.589  1.00  0.00     0.047 A 
ATOM      7  C   UNL     1      14.028  -1.474  27.010  1.00  0.00     0.019 A 
ATOM      8  C   UNL     1      13.686  -0.221  26.503  1.00  0.00     0.094 A 
ATOM      9  C   UNL     1      14.702   0.629  26.054  1.00  0.00     0.336 A 
ATOM     10  O   UNL     1      14.413   1.764  25.593  1.00  0.00    -0.246 OA
ATOM     11  O   UNL     1      15.975   0.245  26.110  1.00  0.00    -0.423 OA
ENDROOT
BRANCH   1  12
ATOM     12  O   UNL     1      19.471  -2.835  27.132  1.00  0.00    -0.497 OA
ATOM     13  C   UNL     1      20.201  -3.218  28.293  1.00  0.00     0.278 C 
ENDBRANCH   1  12
TORSDOF 1
ENDMDL
