MODEL 1
REMARK VINA RESULT:    -4.893      0.000      0.000
REMARK INTER + INTRA:          -5.335
REMARK INTER:                  -5.322
REMARK INTRA:                  -0.013
REMARK UNBOUND:                -0.013
REMARK SMILES CC(=O)[C@H]1CC[C@@H]2[C@H]3CC=C4C[C@@H](O)CC[C@@]4(C)[C@H]3CC[C@]12C
REMARK SMILES IDX 4 1 5 2 6 3 7 4 22 5 21 6 20 7 19 8 8 9 9 10 10 11 11 12
REMARK SMILES IDX 17 13 16 14 15 15 13 16 12 17 18 18 23 19 2 20 1 21 3 22
REMARK SMILES IDX 14 23
REMARK H PARENT 14 24
REMARK Flexibility Score: inf
ROOT
ATOM      1  C   UNL     1     218.356 223.354 223.730  1.00  0.00     0.062 C 
ATOM      2  C   UNL     1     218.607 221.913 223.288  1.00  0.00     0.012 C 
ATOM      3  C   UNL     1     218.779 221.112 224.563  1.00  0.00     0.005 C 
ATOM      4  C   UNL     1     217.928 221.799 225.646  1.00  0.00    -0.001 C 
ATOM      5  C   UNL     1     217.698 223.268 225.155  1.00  0.00    -0.020 C 
ATOM      6  C   UNL     1     216.185 223.623 225.059  1.00  0.00     0.008 C 
ATOM      7  C   UNL     1     215.315 222.558 224.379  1.00  0.00     0.005 C 
ATOM      8  C   UNL     1     215.595 221.078 224.804  1.00  0.00     0.003 C 
ATOM      9  C   UNL     1     216.629 220.995 225.957  1.00  0.00     0.000 C 
ATOM     10  C   UNL     1     216.021 221.362 227.342  1.00  0.00     0.031 C 
ATOM     11  C   UNL     1     214.510 221.292 227.434  1.00  0.00    -0.027 C 
ATOM     12  C   UNL     1     213.701 220.848 226.444  1.00  0.00    -0.065 C 
ATOM     13  C   UNL     1     214.295 220.269 225.162  1.00  0.00    -0.008 C 
ATOM     14  C   UNL     1     213.287 220.310 223.960  1.00  0.00     0.014 C 
ATOM     15  C   UNL     1     211.840 219.983 224.353  1.00  0.00     0.033 C 
ATOM     16  C   UNL     1     211.359 220.888 225.494  1.00  0.00     0.118 C 
ATOM     17  C   UNL     1     212.224 220.682 226.739  1.00  0.00     0.063 C 
ATOM     18  C   UNL     1     214.634 218.776 225.431  1.00  0.00     0.016 C 
ATOM     19  C   UNL     1     218.329 224.262 226.166  1.00  0.00     0.012 C 
ENDROOT
BRANCH   1  20
ATOM     20  C   UNL     1     219.649 224.158 223.659  1.00  0.00     0.133 C 
ATOM     21  C   UNL     1     219.636 225.618 223.312  1.00  0.00     0.088 C 
ATOM     22  O   UNL     1     220.723 223.617 223.881  1.00  0.00    -0.300 OA
ENDBRANCH   1  20
BRANCH  16  23
ATOM     23  O   UNL     1     211.399 222.239 225.109  1.00  0.00    -0.393 OA
ATOM     24  H   UNL     1     212.250 222.370 224.614  1.00  0.00     0.210 HD
ENDBRANCH  16  23
TORSDOF 2
ENDMDL
MODEL 2
REMARK VINA RESULT:    -4.886      5.437      8.299
REMARK INTER + INTRA:          -5.328
REMARK INTER:                  -5.318
REMARK INTRA:                  -0.010
REMARK UNBOUND:                -0.013
REMARK SMILES CC(=O)[C@H]1CC[C@@H]2[C@H]3CC=C4C[C@@H](O)CC[C@@]4(C)[C@H]3CC[C@]12C
REMARK SMILES IDX 4 1 5 2 6 3 7 4 22 5 21 6 20 7 19 8 8 9 9 10 10 11 11 12
REMARK SMILES IDX 17 13 16 14 15 15 13 16 12 17 18 18 23 19 2 20 1 21 3 22
REMARK SMILES IDX 14 23
REMARK H PARENT 14 24
REMARK Flexibility Score: inf
ROOT
ATOM      1  C   UNL     1     223.375 216.026 223.712  1.00  0.00     0.062 C 
ATOM      2  C   UNL     1     221.928 215.782 223.285  1.00  0.00     0.012 C 
ATOM      3  C   UNL     1     221.137 215.629 224.570  1.00  0.00     0.005 C 
ATOM      4  C   UNL     1     221.840 216.485 225.637  1.00  0.00    -0.001 C 
ATOM      5  C   UNL     1     223.306 216.699 225.131  1.00  0.00    -0.020 C 
ATOM      6  C   UNL     1     223.672 218.208 225.018  1.00  0.00     0.008 C 
ATOM      7  C   UNL     1     222.608 219.080 224.339  1.00  0.00     0.005 C 
ATOM      8  C   UNL     1     221.129 218.815 224.779  1.00  0.00     0.003 C 
ATOM      9  C   UNL     1     221.049 217.794 225.943  1.00  0.00     0.000 C 
ATOM     10  C   UNL     1     221.433 218.412 227.319  1.00  0.00     0.031 C 
ATOM     11  C   UNL     1     221.376 219.925 227.396  1.00  0.00    -0.027 C 
ATOM     12  C   UNL     1     220.929 220.727 226.402  1.00  0.00    -0.065 C 
ATOM     13  C   UNL     1     220.334 220.125 225.132  1.00  0.00    -0.008 C 
ATOM     14  C   UNL     1     220.372 221.121 223.919  1.00  0.00     0.014 C 
ATOM     15  C   UNL     1     220.060 222.575 224.301  1.00  0.00     0.033 C 
ATOM     16  C   UNL     1     220.979 223.060 225.429  1.00  0.00     0.118 C 
ATOM     17  C   UNL     1     220.777 222.208 226.684  1.00  0.00     0.063 C 
ATOM     18  C   UNL     1     218.840 219.801 225.417  1.00  0.00     0.016 C 
ATOM     19  C   UNL     1     224.305 216.070 226.140  1.00  0.00     0.012 C 
ENDROOT
BRANCH   1  20
ATOM     20  C   UNL     1     224.168 214.726 223.647  1.00  0.00     0.133 C 
ATOM     21  C   UNL     1     225.625 214.725 223.288  1.00  0.00     0.088 C 
ATOM     22  O   UNL     1     223.620 213.659 223.883  1.00  0.00    -0.300 OA
ENDBRANCH   1  20
BRANCH  16  23
ATOM     23  O   UNL     1     222.326 223.005 225.032  1.00  0.00    -0.393 OA
ATOM     24  H   UNL     1     222.352 222.506 224.174  1.00  0.00     0.210 HD
ENDBRANCH  16  23
TORSDOF 2
ENDMDL
MODEL 3
REMARK VINA RESULT:    -4.877      5.432      8.256
REMARK INTER + INTRA:          -5.318
REMARK INTER:                  -5.307
REMARK INTRA:                  -0.011
REMARK UNBOUND:                -0.013
REMARK SMILES CC(=O)[C@H]1CC[C@@H]2[C@H]3CC=C4C[C@@H](O)CC[C@@]4(C)[C@H]3CC[C@]12C
REMARK SMILES IDX 4 1 5 2 6 3 7 4 22 5 21 6 20 7 19 8 8 9 9 10 10 11 11 12
REMARK SMILES IDX 17 13 16 14 15 15 13 16 12 17 18 18 23 19 2 20 1 21 3 22
REMARK SMILES IDX 14 23
REMARK H PARENT 14 24
REMARK Flexibility Score: inf
ROOT
ATOM      1  C   UNL     1     211.015 218.365 223.708  1.00  0.00     0.062 C 
ATOM      2  C   UNL     1     212.459 218.618 223.279  1.00  0.00     0.012 C 
ATOM      3  C   UNL     1     213.247 218.797 224.562  1.00  0.00     0.005 C 
ATOM      4  C   UNL     1     212.551 217.948 225.641  1.00  0.00    -0.001 C 
ATOM      5  C   UNL     1     211.088 217.712 225.136  1.00  0.00    -0.020 C 
ATOM      6  C   UNL     1     210.738 216.198 225.042  1.00  0.00     0.008 C 
ATOM      7  C   UNL     1     211.812 215.328 224.376  1.00  0.00     0.005 C 
ATOM      8  C   UNL     1     213.287 215.614 224.814  1.00  0.00     0.003 C 
ATOM      9  C   UNL     1     213.356 216.651 225.965  1.00  0.00     0.000 C 
ATOM     10  C   UNL     1     212.976 216.047 227.348  1.00  0.00     0.031 C 
ATOM     11  C   UNL     1     213.048 214.536 227.445  1.00  0.00    -0.027 C 
ATOM     12  C   UNL     1     213.504 213.725 226.463  1.00  0.00    -0.065 C 
ATOM     13  C   UNL     1     214.096 214.317 225.185  1.00  0.00    -0.008 C 
ATOM     14  C   UNL     1     214.069 213.304 223.986  1.00  0.00     0.014 C 
ATOM     15  C   UNL     1     214.395 211.859 224.387  1.00  0.00     0.033 C 
ATOM     16  C   UNL     1     213.480 211.380 225.520  1.00  0.00     0.118 C 
ATOM     17  C   UNL     1     213.671 212.250 226.765  1.00  0.00     0.063 C 
ATOM     18  C   UNL     1     215.585 214.660 225.467  1.00  0.00     0.016 C 
ATOM     19  C   UNL     1     210.082 218.344 226.135  1.00  0.00     0.012 C 
ENDROOT
BRANCH   1  20
ATOM     20  C   UNL     1     210.208 219.656 223.625  1.00  0.00     0.133 C 
ATOM     21  C   UNL     1     208.750 219.637 223.273  1.00  0.00     0.088 C 
ATOM     22  O   UNL     1     210.747 220.732 223.839  1.00  0.00    -0.300 OA
ENDBRANCH   1  20
BRANCH  16  23
ATOM     23  O   UNL     1     212.133 211.416 225.122  1.00  0.00    -0.393 OA
ATOM     24  H   UNL     1     212.126 211.639 224.154  1.00  0.00     0.210 HD
ENDBRANCH  16  23
TORSDOF 2
ENDMDL
MODEL 4
REMARK VINA RESULT:    -4.873      8.201     11.695
REMARK INTER + INTRA:          -5.313
REMARK INTER:                  -5.300
REMARK INTRA:                  -0.013
REMARK UNBOUND:                -0.013
REMARK SMILES CC(=O)[C@H]1CC[C@@H]2[C@H]3CC=C4C[C@@H](O)CC[C@@]4(C)[C@H]3CC[C@]12C
REMARK SMILES IDX 4 1 5 2 6 3 7 4 22 5 21 6 20 7 19 8 8 9 9 10 10 11 11 12
REMARK SMILES IDX 17 13 16 14 15 15 13 16 12 17 18 18 23 19 2 20 1 21 3 22
REMARK SMILES IDX 14 23
REMARK H PARENT 14 24
REMARK Flexibility Score: inf
ROOT
ATOM      1  C   UNL     1     216.019 211.018 223.706  1.00  0.00     0.062 C 
ATOM      2  C   UNL     1     215.766 212.464 223.285  1.00  0.00     0.012 C 
ATOM      3  C   UNL     1     215.589 213.247 224.572  1.00  0.00     0.005 C 
ATOM      4  C   UNL     1     216.438 212.546 225.646  1.00  0.00    -0.001 C 
ATOM      5  C   UNL     1     216.674 211.085 225.134  1.00  0.00    -0.020 C 
ATOM      6  C   UNL     1     218.188 210.735 225.038  1.00  0.00     0.008 C 
ATOM      7  C   UNL     1     219.057 211.812 224.376  1.00  0.00     0.005 C 
ATOM      8  C   UNL     1     218.772 213.285 224.822  1.00  0.00     0.003 C 
ATOM      9  C   UNL     1     217.735 213.348 225.973  1.00  0.00     0.000 C 
ATOM     10  C   UNL     1     218.340 212.962 227.354  1.00  0.00     0.031 C 
ATOM     11  C   UNL     1     219.850 213.034 227.451  1.00  0.00    -0.027 C 
ATOM     12  C   UNL     1     220.661 213.495 226.470  1.00  0.00    -0.065 C 
ATOM     13  C   UNL     1     220.069 214.092 225.196  1.00  0.00    -0.008 C 
ATOM     14  C   UNL     1     221.081 214.071 223.996  1.00  0.00     0.014 C 
ATOM     15  C   UNL     1     222.526 214.395 224.397  1.00  0.00     0.033 C 
ATOM     16  C   UNL     1     223.006 213.475 225.526  1.00  0.00     0.118 C 
ATOM     17  C   UNL     1     222.137 213.660 226.772  1.00  0.00     0.063 C 
ATOM     18  C   UNL     1     219.726 215.580 225.485  1.00  0.00     0.016 C 
ATOM     19  C   UNL     1     216.042 210.074 226.129  1.00  0.00     0.012 C 
ENDROOT
BRANCH   1  20
ATOM     20  C   UNL     1     214.728 210.212 223.620  1.00  0.00     0.133 C 
ATOM     21  C   UNL     1     214.746 208.758 223.251  1.00  0.00     0.088 C 
ATOM     22  O   UNL     1     213.653 210.747 223.848  1.00  0.00    -0.300 OA
ENDBRANCH   1  20
BRANCH  16  23
ATOM     23  O   UNL     1     222.970 212.130 225.121  1.00  0.00    -0.393 OA
ATOM     24  H   UNL     1     223.484 211.614 225.796  1.00  0.00     0.210 HD
ENDBRANCH  16  23
TORSDOF 2
ENDMDL
MODEL 5
REMARK VINA RESULT:    -4.720      4.382      6.980
REMARK INTER + INTRA:          -5.147
REMARK INTER:                  -5.124
REMARK INTRA:                  -0.024
REMARK UNBOUND:                -0.013
REMARK SMILES CC(=O)[C@H]1CC[C@@H]2[C@H]3CC=C4C[C@@H](O)CC[C@@]4(C)[C@H]3CC[C@]12C
REMARK SMILES IDX 4 1 5 2 6 3 7 4 22 5 21 6 20 7 19 8 8 9 9 10 10 11 11 12
REMARK SMILES IDX 17 13 16 14 15 15 13 16 12 17 18 18 23 19 2 20 1 21 3 22
REMARK SMILES IDX 14 23
REMARK H PARENT 14 24
REMARK Flexibility Score: inf
ROOT
ATOM      1  C   UNL     1     223.397 218.685 225.703  1.00  0.00     0.062 C 
ATOM      2  C   UNL     1     222.935 218.358 224.284  1.00  0.00     0.012 C 
ATOM      3  C   UNL     1     221.468 217.989 224.399  1.00  0.00     0.005 C 
ATOM      4  C   UNL     1     220.897 218.780 225.588  1.00  0.00    -0.001 C 
ATOM      5  C   UNL     1     222.122 219.185 226.475  1.00  0.00    -0.020 C 
ATOM      6  C   UNL     1     222.205 220.725 226.691  1.00  0.00     0.008 C 
ATOM      7  C   UNL     1     222.004 221.565 225.423  1.00  0.00     0.005 C 
ATOM      8  C   UNL     1     220.832 221.116 224.488  1.00  0.00     0.003 C 
ATOM      9  C   UNL     1     220.002 219.967 225.116  1.00  0.00     0.000 C 
ATOM     10  C   UNL     1     219.032 220.459 226.230  1.00  0.00     0.031 C 
ATOM     11  C   UNL     1     218.717 221.942 226.216  1.00  0.00    -0.027 C 
ATOM     12  C   UNL     1     219.137 222.806 225.263  1.00  0.00    -0.065 C 
ATOM     13  C   UNL     1     219.897 222.299 224.040  1.00  0.00    -0.008 C 
ATOM     14  C   UNL     1     220.746 223.424 223.350  1.00  0.00     0.014 C 
ATOM     15  C   UNL     1     220.047 224.790 223.309  1.00  0.00     0.033 C 
ATOM     16  C   UNL     1     219.606 225.228 224.710  1.00  0.00     0.118 C 
ATOM     17  C   UNL     1     218.607 224.226 225.293  1.00  0.00     0.063 C 
ATOM     18  C   UNL     1     218.849 221.808 223.002  1.00  0.00     0.016 C 
ATOM     19  C   UNL     1     221.985 218.542 227.881  1.00  0.00     0.012 C 
ENDROOT
BRANCH   1  20
ATOM     20  C   UNL     1     224.098 217.480 226.318  1.00  0.00     0.133 C 
ATOM     21  C   UNL     1     225.287 217.652 227.217  1.00  0.00     0.088 C 
ATOM     22  O   UNL     1     223.701 216.349 226.079  1.00  0.00    -0.300 OA
ENDBRANCH   1  20
BRANCH  16  23
ATOM     23  O   UNL     1     220.713 225.344 225.568  1.00  0.00    -0.393 OA
ATOM     24  H   UNL     1     220.705 226.271 225.923  1.00  0.00     0.210 HD
ENDBRANCH  16  23
TORSDOF 2
ENDMDL
MODEL 6
REMARK VINA RESULT:    -4.718      8.851     11.900
REMARK INTER + INTRA:          -5.145
REMARK INTER:                  -5.124
REMARK INTRA:                  -0.021
REMARK UNBOUND:                -0.013
REMARK SMILES CC(=O)[C@H]1CC[C@@H]2[C@H]3CC=C4C[C@@H](O)CC[C@@]4(C)[C@H]3CC[C@]12C
REMARK SMILES IDX 4 1 5 2 6 3 7 4 22 5 21 6 20 7 19 8 8 9 9 10 10 11 11 12
REMARK SMILES IDX 17 13 16 14 15 15 13 16 12 17 18 18 23 19 2 20 1 21 3 22
REMARK SMILES IDX 14 23
REMARK H PARENT 14 24
REMARK Flexibility Score: inf
ROOT
ATOM      1  C   UNL     1     218.695 210.967 225.714  1.00  0.00     0.062 C 
ATOM      2  C   UNL     1     218.373 211.416 224.290  1.00  0.00     0.012 C 
ATOM      3  C   UNL     1     218.000 212.883 224.391  1.00  0.00     0.005 C 
ATOM      4  C   UNL     1     218.787 213.466 225.577  1.00  0.00    -0.001 C 
ATOM      5  C   UNL     1     219.191 212.250 226.477  1.00  0.00    -0.020 C 
ATOM      6  C   UNL     1     220.729 212.170 226.699  1.00  0.00     0.008 C 
ATOM      7  C   UNL     1     221.574 212.361 225.432  1.00  0.00     0.005 C 
ATOM      8  C   UNL     1     221.127 213.524 224.485  1.00  0.00     0.003 C 
ATOM      9  C   UNL     1     219.975 214.359 225.101  1.00  0.00     0.000 C 
ATOM     10  C   UNL     1     220.462 215.338 226.208  1.00  0.00     0.031 C 
ATOM     11  C   UNL     1     221.944 215.656 226.196  1.00  0.00    -0.027 C 
ATOM     12  C   UNL     1     222.812 215.228 225.251  1.00  0.00    -0.065 C 
ATOM     13  C   UNL     1     222.310 214.457 224.033  1.00  0.00    -0.008 C 
ATOM     14  C   UNL     1     223.439 213.603 223.354  1.00  0.00     0.014 C 
ATOM     15  C   UNL     1     224.804 214.303 223.312  1.00  0.00     0.033 C 
ATOM     16  C   UNL     1     225.237 214.757 224.711  1.00  0.00     0.118 C 
ATOM     17  C   UNL     1     224.231 215.760 225.281  1.00  0.00     0.063 C 
ATOM     18  C   UNL     1     221.821 215.494 222.984  1.00  0.00     0.016 C 
ATOM     19  C   UNL     1     218.542 212.399 227.879  1.00  0.00     0.012 C 
ENDROOT
BRANCH   1  20
ATOM     20  C   UNL     1     217.488 210.270 226.331  1.00  0.00     0.133 C 
ATOM     21  C   UNL     1     217.658 209.088 227.240  1.00  0.00     0.088 C 
ATOM     22  O   UNL     1     216.358 210.665 226.085  1.00  0.00    -0.300 OA
ENDBRANCH   1  20
BRANCH  16  23
ATOM     23  O   UNL     1     225.350 213.658 225.579  1.00  0.00    -0.393 OA
ATOM     24  H   UNL     1     224.434 213.452 225.902  1.00  0.00     0.210 HD
ENDBRANCH  16  23
TORSDOF 2
ENDMDL
MODEL 7
REMARK VINA RESULT:    -4.717      7.186     10.122
REMARK INTER + INTRA:          -5.144
REMARK INTER:                  -5.123
REMARK INTRA:                  -0.021
REMARK UNBOUND:                -0.013
REMARK SMILES CC(=O)[C@H]1CC[C@@H]2[C@H]3CC=C4C[C@@H](O)CC[C@@]4(C)[C@H]3CC[C@]12C
REMARK SMILES IDX 4 1 5 2 6 3 7 4 22 5 21 6 20 7 19 8 8 9 9 10 10 11 11 12
REMARK SMILES IDX 17 13 16 14 15 15 13 16 12 17 18 18 23 19 2 20 1 21 3 22
REMARK SMILES IDX 14 23
REMARK H PARENT 14 24
REMARK Flexibility Score: inf
ROOT
ATOM      1  C   UNL     1     210.984 215.692 225.694  1.00  0.00     0.062 C 
ATOM      2  C   UNL     1     211.440 216.008 224.271  1.00  0.00     0.012 C 
ATOM      3  C   UNL     1     212.908 216.371 224.376  1.00  0.00     0.005 C 
ATOM      4  C   UNL     1     213.483 215.584 225.567  1.00  0.00    -0.001 C 
ATOM      5  C   UNL     1     212.260 215.190 226.462  1.00  0.00    -0.020 C 
ATOM      6  C   UNL     1     212.171 213.652 226.688  1.00  0.00     0.008 C 
ATOM      7  C   UNL     1     212.360 212.804 225.423  1.00  0.00     0.005 C 
ATOM      8  C   UNL     1     213.529 213.241 224.479  1.00  0.00     0.003 C 
ATOM      9  C   UNL     1     214.369 214.390 225.097  1.00  0.00     0.000 C 
ATOM     10  C   UNL     1     215.342 213.899 226.207  1.00  0.00     0.031 C 
ATOM     11  C   UNL     1     215.650 212.415 226.200  1.00  0.00    -0.027 C 
ATOM     12  C   UNL     1     215.220 211.547 225.255  1.00  0.00    -0.065 C 
ATOM     13  C   UNL     1     214.456 212.051 224.033  1.00  0.00    -0.008 C 
ATOM     14  C   UNL     1     213.598 210.926 223.354  1.00  0.00     0.014 C 
ATOM     15  C   UNL     1     214.290 209.557 223.317  1.00  0.00     0.033 C 
ATOM     16  C   UNL     1     214.736 209.124 224.719  1.00  0.00     0.118 C 
ATOM     17  C   UNL     1     215.743 210.125 225.290  1.00  0.00     0.063 C 
ATOM     18  C   UNL     1     215.500 212.531 222.987  1.00  0.00     0.016 C 
ATOM     19  C   UNL     1     212.408 215.841 227.864  1.00  0.00     0.012 C 
ENDROOT
BRANCH   1  20
ATOM     20  C   UNL     1     210.291 216.904 226.306  1.00  0.00     0.133 C 
ATOM     21  C   UNL     1     209.116 216.742 227.225  1.00  0.00     0.088 C 
ATOM     22  O   UNL     1     210.686 218.032 226.049  1.00  0.00    -0.300 OA
ENDBRANCH   1  20
BRANCH  16  23
ATOM     23  O   UNL     1     213.633 209.019 225.583  1.00  0.00    -0.393 OA
ATOM     24  H   UNL     1     213.288 209.940 225.720  1.00  0.00     0.210 HD
ENDBRANCH  16  23
TORSDOF 2
ENDMDL
MODEL 8
REMARK VINA RESULT:    -4.715      2.070      3.149
REMARK INTER + INTRA:          -5.142
REMARK INTER:                  -5.127
REMARK INTRA:                  -0.015
REMARK UNBOUND:                -0.013
REMARK SMILES CC(=O)[C@H]1CC[C@@H]2[C@H]3CC=C4C[C@@H](O)CC[C@@]4(C)[C@H]3CC[C@]12C
REMARK SMILES IDX 4 1 5 2 6 3 7 4 22 5 21 6 20 7 19 8 8 9 9 10 10 11 11 12
REMARK SMILES IDX 17 13 16 14 15 15 13 16 12 17 18 18 23 19 2 20 1 21 3 22
REMARK SMILES IDX 14 23
REMARK H PARENT 14 24
REMARK Flexibility Score: inf
ROOT
ATOM      1  C   UNL     1     215.649 223.412 225.679  1.00  0.00     0.062 C 
ATOM      2  C   UNL     1     215.967 222.967 224.253  1.00  0.00     0.012 C 
ATOM      3  C   UNL     1     216.348 221.502 224.350  1.00  0.00     0.005 C 
ATOM      4  C   UNL     1     215.571 220.913 225.541  1.00  0.00    -0.001 C 
ATOM      5  C   UNL     1     215.165 222.126 226.443  1.00  0.00    -0.020 C 
ATOM      6  C   UNL     1     213.627 222.196 226.674  1.00  0.00     0.008 C 
ATOM      7  C   UNL     1     212.777 222.002 225.411  1.00  0.00     0.005 C 
ATOM      8  C   UNL     1     213.226 220.843 224.461  1.00  0.00     0.003 C 
ATOM      9  C   UNL     1     214.387 220.014 225.070  1.00  0.00     0.000 C 
ATOM     10  C   UNL     1     213.911 219.030 226.178  1.00  0.00     0.031 C 
ATOM     11  C   UNL     1     212.431 218.704 226.175  1.00  0.00    -0.027 C 
ATOM     12  C   UNL     1     211.555 219.127 225.234  1.00  0.00    -0.065 C 
ATOM     13  C   UNL     1     212.046 219.903 224.014  1.00  0.00    -0.008 C 
ATOM     14  C   UNL     1     210.908 220.750 223.342  1.00  0.00     0.014 C 
ATOM     15  C   UNL     1     209.547 220.042 223.307  1.00  0.00     0.033 C 
ATOM     16  C   UNL     1     209.125 219.584 224.708  1.00  0.00     0.118 C 
ATOM     17  C   UNL     1     210.140 218.587 225.271  1.00  0.00     0.063 C 
ATOM     18  C   UNL     1     212.536 218.870 222.961  1.00  0.00     0.016 C 
ATOM     19  C   UNL     1     215.823 221.980 227.842  1.00  0.00     0.012 C 
ENDROOT
BRANCH   1  20
ATOM     20  C   UNL     1     216.855 224.117 226.291  1.00  0.00     0.133 C 
ATOM     21  C   UNL     1     216.681 225.250 227.258  1.00  0.00     0.088 C 
ATOM     22  O   UNL     1     217.987 223.767 225.992  1.00  0.00    -0.300 OA
ENDBRANCH   1  20
BRANCH  16  23
ATOM     23  O   UNL     1     209.010 220.682 225.577  1.00  0.00    -0.393 OA
ATOM     24  H   UNL     1     209.882 221.156 225.558  1.00  0.00     0.210 HD
ENDBRANCH  16  23
TORSDOF 2
ENDMDL
MODEL 9
REMARK VINA RESULT:    -4.626      6.644      9.402
REMARK INTER + INTRA:          -5.045
REMARK INTER:                  -5.021
REMARK INTRA:                  -0.024
REMARK UNBOUND:                -0.013
REMARK SMILES CC(=O)[C@H]1CC[C@@H]2[C@H]3CC=C4C[C@@H](O)CC[C@@]4(C)[C@H]3CC[C@]12C
REMARK SMILES IDX 4 1 5 2 6 3 7 4 22 5 21 6 20 7 19 8 8 9 9 10 10 11 11 12
REMARK SMILES IDX 17 13 16 14 15 15 13 16 12 17 18 18 23 19 2 20 1 21 3 22
REMARK SMILES IDX 14 23
REMARK H PARENT 14 24
REMARK Flexibility Score: inf
ROOT
ATOM      1  C   UNL     1     222.227 220.340 224.841  1.00  0.00     0.062 C 
ATOM      2  C   UNL     1     223.608 220.437 225.487  1.00  0.00     0.012 C 
ATOM      3  C   UNL     1     223.464 219.826 226.868  1.00  0.00     0.005 C 
ATOM      4  C   UNL     1     222.366 218.752 226.773  1.00  0.00    -0.001 C 
ATOM      5  C   UNL     1     221.518 219.103 225.504  1.00  0.00    -0.020 C 
ATOM      6  C   UNL     1     221.460 217.922 224.492  1.00  0.00     0.008 C 
ATOM      7  C   UNL     1     222.809 217.246 224.215  1.00  0.00     0.005 C 
ATOM      8  C   UNL     1     223.701 216.965 225.470  1.00  0.00     0.003 C 
ATOM      9  C   UNL     1     222.963 217.311 226.790  1.00  0.00     0.000 C 
ATOM     10  C   UNL     1     221.912 216.238 227.196  1.00  0.00     0.031 C 
ATOM     11  C   UNL     1     222.081 214.878 226.548  1.00  0.00    -0.027 C 
ATOM     12  C   UNL     1     223.114 214.534 225.745  1.00  0.00    -0.065 C 
ATOM     13  C   UNL     1     224.274 215.501 225.520  1.00  0.00    -0.008 C 
ATOM     14  C   UNL     1     225.071 215.189 224.205  1.00  0.00     0.014 C 
ATOM     15  C   UNL     1     225.256 213.690 223.932  1.00  0.00     0.033 C 
ATOM     16  C   UNL     1     223.909 212.957 223.936  1.00  0.00     0.118 C 
ATOM     17  C   UNL     1     223.234 213.089 225.303  1.00  0.00     0.063 C 
ATOM     18  C   UNL     1     225.262 215.339 226.709  1.00  0.00     0.016 C 
ATOM     19  C   UNL     1     220.054 219.408 225.922  1.00  0.00     0.012 C 
ENDROOT
BRANCH   1  20
ATOM     20  C   UNL     1     221.487 221.665 224.980  1.00  0.00     0.133 C 
ATOM     21  C   UNL     1     220.653 222.208 223.857  1.00  0.00     0.088 C 
ATOM     22  O   UNL     1     221.570 222.310 226.015  1.00  0.00    -0.300 OA
ENDBRANCH   1  20
BRANCH  16  23
ATOM     23  O   UNL     1     223.061 213.467 222.938  1.00  0.00    -0.393 OA
ATOM     24  H   UNL     1     222.176 213.036 223.067  1.00  0.00     0.210 HD
ENDBRANCH  16  23
TORSDOF 2
ENDMDL
