MODEL 1
REMARK VINA RESULT:    -5.184      0.000      0.000
REMARK INTER + INTRA:          -8.094
REMARK INTER:                  -7.609
REMARK INTRA:                  -0.485
REMARK UNBOUND:                -0.485
REMARK SMILES CCCOC(=O)c1ccccc1C(=O)OCCC
REMARK SMILES IDX 7 1 8 2 9 3 10 4 11 5 12 6 5 7 6 8 4 9 3 10 2 11 1 12 13 13
REMARK SMILES IDX 14 14 15 15 16 16 17 17 18 18
REMARK H PARENT
REMARK Flexibility Score: inf
ROOT
ATOM      1  C   UNL     1      15.708  -8.334  12.798  1.00  0.00     0.074 A 
ATOM      2  C   UNL     1      16.032  -9.596  12.269  1.00  0.00     0.016 A 
ATOM      3  C   UNL     1      17.250 -10.205  12.571  1.00  0.00     0.001 A 
ATOM      4  C   UNL     1      18.163  -9.564  13.405  1.00  0.00     0.001 A 
ATOM      5  C   UNL     1      17.872  -8.301  13.923  1.00  0.00     0.016 A 
ATOM      6  C   UNL     1      16.660  -7.660  13.612  1.00  0.00     0.074 A 
ENDROOT
BRANCH   1   7
ATOM      7  C   UNL     1      14.356  -7.796  12.530  1.00  0.00     0.339 C 
ATOM      8  O   UNL     1      14.216  -6.716  11.891  1.00  0.00    -0.246 OA
BRANCH   7   9
ATOM      9  O   UNL     1      13.235  -8.462  13.040  1.00  0.00    -0.462 OA
BRANCH   9  10
ATOM     10  C   UNL     1      12.507  -9.448  12.311  1.00  0.00     0.233 C 
BRANCH  10  11
ATOM     11  C   UNL     1      12.324 -10.712  13.155  1.00  0.00     0.038 C 
ATOM     12  C   UNL     1      13.182 -11.857  12.627  1.00  0.00     0.007 C 
ENDBRANCH  10  11
ENDBRANCH   9  10
ENDBRANCH   7   9
ENDBRANCH   1   7
BRANCH   6  13
ATOM     13  C   UNL     1      16.462  -6.277  14.102  1.00  0.00     0.339 C 
ATOM     14  O   UNL     1      16.693  -5.295  13.343  1.00  0.00    -0.246 OA
BRANCH  13  15
ATOM     15  O   UNL     1      16.077  -6.065  15.432  1.00  0.00    -0.462 OA
BRANCH  15  16
ATOM     16  C   UNL     1      16.991  -6.085  16.526  1.00  0.00     0.233 C 
BRANCH  16  17
ATOM     17  C   UNL     1      16.235  -6.146  17.856  1.00  0.00     0.038 C 
ATOM     18  C   UNL     1      16.671  -5.024  18.792  1.00  0.00     0.007 C 
ENDBRANCH  16  17
ENDBRANCH  15  16
ENDBRANCH  13  15
ENDBRANCH   6  13
TORSDOF 8
ENDMDL
MODEL 2
REMARK VINA RESULT:    -5.168      0.092      5.330
REMARK INTER + INTRA:          -8.070
REMARK INTER:                  -7.526
REMARK INTRA:                  -0.544
REMARK UNBOUND:                -0.485
REMARK SMILES CCCOC(=O)c1ccccc1C(=O)OCCC
REMARK SMILES IDX 7 1 8 2 9 3 10 4 11 5 12 6 5 7 6 8 4 9 3 10 2 11 1 12 13 13
REMARK SMILES IDX 14 14 15 15 16 16 17 17 18 18
REMARK H PARENT
REMARK Flexibility Score: inf
ROOT
ATOM      1  C   UNL     1      16.675  -7.685  13.629  1.00  0.00     0.074 A 
ATOM      2  C   UNL     1      17.886  -8.320  13.957  1.00  0.00     0.016 A 
ATOM      3  C   UNL     1      18.182  -9.591  13.463  1.00  0.00     0.001 A 
ATOM      4  C   UNL     1      17.274 -10.247  12.634  1.00  0.00     0.001 A 
ATOM      5  C   UNL     1      16.056  -9.644  12.314  1.00  0.00     0.016 A 
ATOM      6  C   UNL     1      15.728  -8.374  12.821  1.00  0.00     0.074 A 
ENDROOT
BRANCH   1   7
ATOM      7  C   UNL     1      16.474  -6.294  14.094  1.00  0.00     0.339 C 
ATOM      8  O   UNL     1      16.729  -5.324  13.327  1.00  0.00    -0.246 OA
BRANCH   7   9
ATOM      9  O   UNL     1      16.054  -6.061  15.409  1.00  0.00    -0.462 OA
BRANCH   9  10
ATOM     10  C   UNL     1      16.954  -5.860  16.497  1.00  0.00     0.233 C 
BRANCH  10  11
ATOM     11  C   UNL     1      16.226  -6.027  17.833  1.00  0.00     0.038 C 
ATOM     12  C   UNL     1      16.599  -4.915  18.808  1.00  0.00     0.007 C 
ENDBRANCH  10  11
ENDBRANCH   9  10
ENDBRANCH   7   9
ENDBRANCH   1   7
BRANCH   6  13
ATOM     13  C   UNL     1      14.377  -7.841  12.535  1.00  0.00     0.339 C 
ATOM     14  O   UNL     1      14.241  -6.774  11.875  1.00  0.00    -0.246 OA
BRANCH  13  15
ATOM     15  O   UNL     1      13.254  -8.496  13.056  1.00  0.00    -0.462 OA
BRANCH  15  16
ATOM     16  C   UNL     1      12.510  -9.473  12.332  1.00  0.00     0.233 C 
BRANCH  16  17
ATOM     17  C   UNL     1      12.259 -10.709  13.201  1.00  0.00     0.038 C 
ATOM     18  C   UNL     1      13.166 -11.865  12.793  1.00  0.00     0.007 C 
ENDBRANCH  16  17
ENDBRANCH  15  16
ENDBRANCH  13  15
ENDBRANCH   6  13
TORSDOF 8
ENDMDL
MODEL 3
REMARK VINA RESULT:    -5.121      1.688      2.964
REMARK INTER + INTRA:          -8.001
REMARK INTER:                  -7.370
REMARK INTRA:                  -0.632
REMARK UNBOUND:                -0.485
REMARK SMILES CCCOC(=O)c1ccccc1C(=O)OCCC
REMARK SMILES IDX 7 1 8 2 9 3 10 4 11 5 12 6 5 7 6 8 4 9 3 10 2 11 1 12 13 13
REMARK SMILES IDX 14 14 15 15 16 16 17 17 18 18
REMARK H PARENT
REMARK Flexibility Score: inf
ROOT
ATOM      1  C   UNL     1      15.991  -7.938  12.996  1.00  0.00     0.074 A 
ATOM      2  C   UNL     1      16.053  -9.163  12.309  1.00  0.00     0.016 A 
ATOM      3  C   UNL     1      17.096 -10.061  12.543  1.00  0.00     0.001 A 
ATOM      4  C   UNL     1      18.091  -9.749  13.466  1.00  0.00     0.001 A 
ATOM      5  C   UNL     1      18.061  -8.528  14.143  1.00  0.00     0.016 A 
ATOM      6  C   UNL     1      17.033  -7.600  13.904  1.00  0.00     0.074 A 
ENDROOT
BRANCH   1   7
ATOM      7  C   UNL     1      14.801  -7.084  12.784  1.00  0.00     0.339 C 
ATOM      8  O   UNL     1      13.713  -7.353  13.366  1.00  0.00    -0.246 OA
BRANCH   7   9
ATOM      9  O   UNL     1      14.873  -6.011  11.888  1.00  0.00    -0.462 OA
BRANCH   9  10
ATOM     10  C   UNL     1      14.934  -4.647  12.298  1.00  0.00     0.233 C 
BRANCH  10  11
ATOM     11  C   UNL     1      13.525  -4.090  12.518  1.00  0.00     0.038 C 
ATOM     12  C   UNL     1      13.240  -3.876  14.001  1.00  0.00     0.007 C 
ENDBRANCH  10  11
ENDBRANCH   9  10
ENDBRANCH   7   9
ENDBRANCH   1   7
BRANCH   6  13
ATOM     13  C   UNL     1      17.121  -6.280  14.570  1.00  0.00     0.339 C 
ATOM     14  O   UNL     1      17.801  -5.351  14.052  1.00  0.00    -0.246 OA
BRANCH  13  15
ATOM     15  O   UNL     1      16.496  -6.090  15.809  1.00  0.00    -0.462 OA
BRANCH  15  16
ATOM     16  C   UNL     1      17.194  -6.109  17.051  1.00  0.00     0.233 C 
BRANCH  16  17
ATOM     17  C   UNL     1      16.217  -5.941  18.218  1.00  0.00     0.038 C 
ATOM     18  C   UNL     1      16.504  -4.663  19.000  1.00  0.00     0.007 C 
ENDBRANCH  16  17
ENDBRANCH  15  16
ENDBRANCH  13  15
ENDBRANCH   6  13
TORSDOF 8
ENDMDL
MODEL 4
REMARK VINA RESULT:    -4.997      1.574      4.800
REMARK INTER + INTRA:          -7.819
REMARK INTER:                  -7.124
REMARK INTRA:                  -0.694
REMARK UNBOUND:                -0.485
REMARK SMILES CCCOC(=O)c1ccccc1C(=O)OCCC
REMARK SMILES IDX 7 1 8 2 9 3 10 4 11 5 12 6 5 7 6 8 4 9 3 10 2 11 1 12 13 13
REMARK SMILES IDX 14 14 15 15 16 16 17 17 18 18
REMARK H PARENT
REMARK Flexibility Score: inf
ROOT
ATOM      1  C   UNL     1      16.996  -7.627  13.756  1.00  0.00     0.074 A 
ATOM      2  C   UNL     1      18.031  -8.547  13.998  1.00  0.00     0.016 A 
ATOM      3  C   UNL     1      17.992  -9.827  13.442  1.00  0.00     0.001 A 
ATOM      4  C   UNL     1      16.920 -10.206  12.637  1.00  0.00     0.001 A 
ATOM      5  C   UNL     1      15.871  -9.315  12.403  1.00  0.00     0.016 A 
ATOM      6  C   UNL     1      15.880  -8.030  12.973  1.00  0.00     0.074 A 
ENDROOT
BRANCH   1   7
ATOM      7  C   UNL     1      17.155  -6.252  14.282  1.00  0.00     0.339 C 
ATOM      8  O   UNL     1      17.808  -5.392  13.628  1.00  0.00    -0.246 OA
BRANCH   7   9
ATOM      9  O   UNL     1      16.626  -5.929  15.538  1.00  0.00    -0.462 OA
BRANCH   9  10
ATOM     10  C   UNL     1      17.241  -6.303  16.769  1.00  0.00     0.233 C 
BRANCH  10  11
ATOM     11  C   UNL     1      16.255  -6.150  17.929  1.00  0.00     0.038 C 
ATOM     12  C   UNL     1      16.509  -4.861  18.704  1.00  0.00     0.007 C 
ENDBRANCH  10  11
ENDBRANCH   9  10
ENDBRANCH   7   9
ENDBRANCH   1   7
BRANCH   6  13
ATOM     13  C   UNL     1      14.686  -7.177  12.777  1.00  0.00     0.339 C 
ATOM     14  O   UNL     1      13.608  -7.445  13.376  1.00  0.00    -0.246 OA
BRANCH  13  15
ATOM     15  O   UNL     1      14.743  -6.107  11.875  1.00  0.00    -0.462 OA
BRANCH  15  16
ATOM     16  C   UNL     1      13.985  -4.909  12.029  1.00  0.00     0.233 C 
BRANCH  16  17
ATOM     17  C   UNL     1      14.295  -4.247  13.375  1.00  0.00     0.038 C 
ATOM     18  C   UNL     1      13.026  -4.041  14.195  1.00  0.00     0.007 C 
ENDBRANCH  16  17
ENDBRANCH  15  16
ENDBRANCH  13  15
ENDBRANCH   6  13
TORSDOF 8
ENDMDL
MODEL 5
REMARK VINA RESULT:    -4.820      2.228      3.599
REMARK INTER + INTRA:          -7.560
REMARK INTER:                  -7.008
REMARK INTRA:                  -0.552
REMARK UNBOUND:                -0.485
REMARK SMILES CCCOC(=O)c1ccccc1C(=O)OCCC
REMARK SMILES IDX 7 1 8 2 9 3 10 4 11 5 12 6 5 7 6 8 4 9 3 10 2 11 1 12 13 13
REMARK SMILES IDX 14 14 15 15 16 16 17 17 18 18
REMARK H PARENT
REMARK Flexibility Score: inf
ROOT
ATOM      1  C   UNL     1      16.573  -6.536  13.031  1.00  0.00     0.074 A 
ATOM      2  C   UNL     1      15.661  -6.371  11.974  1.00  0.00     0.016 A 
ATOM      3  C   UNL     1      14.390  -5.843  12.204  1.00  0.00     0.001 A 
ATOM      4  C   UNL     1      14.010  -5.472  13.491  1.00  0.00     0.001 A 
ATOM      5  C   UNL     1      14.892  -5.648  14.559  1.00  0.00     0.016 A 
ATOM      6  C   UNL     1      16.169  -6.200  14.353  1.00  0.00     0.074 A 
ENDROOT
BRANCH   1   7
ATOM      7  C   UNL     1      17.941  -6.995  12.701  1.00  0.00     0.339 C 
ATOM      8  O   UNL     1      18.907  -6.182  12.725  1.00  0.00    -0.246 OA
BRANCH   7   9
ATOM      9  O   UNL     1      18.147  -8.322  12.305  1.00  0.00    -0.462 OA
BRANCH   9  10
ATOM     10  C   UNL     1      17.572  -9.440  12.978  1.00  0.00     0.233 C 
BRANCH  10  11
ATOM     11  C   UNL     1      16.590 -10.171  12.059  1.00  0.00     0.038 C 
ATOM     12  C   UNL     1      15.148  -9.957  12.509  1.00  0.00     0.007 C 
ENDBRANCH  10  11
ENDBRANCH   9  10
ENDBRANCH   7   9
ENDBRANCH   1   7
BRANCH   6  13
ATOM     13  C   UNL     1      17.011  -6.463  15.542  1.00  0.00     0.339 C 
ATOM     14  O   UNL     1      17.724  -7.503  15.598  1.00  0.00    -0.246 OA
BRANCH  13  15
ATOM     15  O   UNL     1      16.962  -5.582  16.630  1.00  0.00    -0.462 OA
BRANCH  15  16
ATOM     16  C   UNL     1      16.462  -5.948  17.913  1.00  0.00     0.233 C 
BRANCH  16  17
ATOM     17  C   UNL     1      16.915  -4.940  18.973  1.00  0.00     0.038 C 
ATOM     18  C   UNL     1      15.818  -3.924  19.276  1.00  0.00     0.007 C 
ENDBRANCH  16  17
ENDBRANCH  15  16
ENDBRANCH  13  15
ENDBRANCH   6  13
TORSDOF 8
ENDMDL
MODEL 6
REMARK VINA RESULT:    -4.820      2.722      5.848
REMARK INTER + INTRA:          -7.560
REMARK INTER:                  -7.116
REMARK INTRA:                  -0.444
REMARK UNBOUND:                -0.485
REMARK SMILES CCCOC(=O)c1ccccc1C(=O)OCCC
REMARK SMILES IDX 7 1 8 2 9 3 10 4 11 5 12 6 5 7 6 8 4 9 3 10 2 11 1 12 13 13
REMARK SMILES IDX 14 14 15 15 16 16 17 17 18 18
REMARK H PARENT
REMARK Flexibility Score: inf
ROOT
ATOM      1  C   UNL     1      16.196  -6.001  14.637  1.00  0.00     0.074 A 
ATOM      2  C   UNL     1      14.850  -5.731  14.939  1.00  0.00     0.016 A 
ATOM      3  C   UNL     1      13.944  -5.402  13.929  1.00  0.00     0.001 A 
ATOM      4  C   UNL     1      14.369  -5.337  12.604  1.00  0.00     0.001 A 
ATOM      5  C   UNL     1      15.706  -5.579  12.285  1.00  0.00     0.016 A 
ATOM      6  C   UNL     1      16.639  -5.889  13.290  1.00  0.00     0.074 A 
ENDROOT
BRANCH   1   7
ATOM      7  C   UNL     1      17.076  -6.453  15.738  1.00  0.00     0.339 C 
ATOM      8  O   UNL     1      17.711  -7.540  15.638  1.00  0.00    -0.246 OA
BRANCH   7   9
ATOM      9  O   UNL     1      17.153  -5.698  16.914  1.00  0.00    -0.462 OA
BRANCH   9  10
ATOM     10  C   UNL     1      16.427  -6.015  18.100  1.00  0.00     0.233 C 
BRANCH  10  11
ATOM     11  C   UNL     1      15.579  -4.821  18.544  1.00  0.00     0.038 C 
ATOM     12  C   UNL     1      16.326  -3.959  19.557  1.00  0.00     0.007 C 
ENDBRANCH  10  11
ENDBRANCH   9  10
ENDBRANCH   7   9
ENDBRANCH   1   7
BRANCH   6  13
ATOM     13  C   UNL     1      18.061  -6.023  12.898  1.00  0.00     0.339 C 
ATOM     14  O   UNL     1      18.834  -5.028  12.959  1.00  0.00    -0.246 OA
BRANCH  13  15
ATOM     15  O   UNL     1      18.526  -7.247  12.400  1.00  0.00    -0.462 OA
BRANCH  15  16
ATOM     16  C   UNL     1      17.667  -8.333  12.059  1.00  0.00     0.233 C 
BRANCH  16  17
ATOM     17  C   UNL     1      17.855  -9.494  13.040  1.00  0.00     0.038 C 
ATOM     18  C   UNL     1      16.920 -10.653  12.711  1.00  0.00     0.007 C 
ENDBRANCH  16  17
ENDBRANCH  15  16
ENDBRANCH  13  15
ENDBRANCH   6  13
TORSDOF 8
ENDMDL
MODEL 7
REMARK VINA RESULT:    -4.684      2.193      3.270
REMARK INTER + INTRA:          -7.360
REMARK INTER:                  -6.902
REMARK INTRA:                  -0.459
REMARK UNBOUND:                -0.485
REMARK SMILES CCCOC(=O)c1ccccc1C(=O)OCCC
REMARK SMILES IDX 7 1 8 2 9 3 10 4 11 5 12 6 5 7 6 8 4 9 3 10 2 11 1 12 13 13
REMARK SMILES IDX 14 14 15 15 16 16 17 17 18 18
REMARK H PARENT
REMARK Flexibility Score: inf
ROOT
ATOM      1  C   UNL     1      18.099  -7.249  12.787  1.00  0.00     0.074 A 
ATOM      2  C   UNL     1      19.251  -6.913  12.055  1.00  0.00     0.016 A 
ATOM      3  C   UNL     1      19.627  -5.579  11.890  1.00  0.00     0.001 A 
ATOM      4  C   UNL     1      18.859  -4.562  12.452  1.00  0.00     0.001 A 
ATOM      5  C   UNL     1      17.699  -4.873  13.163  1.00  0.00     0.016 A 
ATOM      6  C   UNL     1      17.289  -6.209  13.321  1.00  0.00     0.074 A 
ENDROOT
BRANCH   1   7
ATOM      7  C   UNL     1      17.820  -8.685  13.020  1.00  0.00     0.339 C 
ATOM      8  O   UNL     1      18.302  -9.271  14.028  1.00  0.00    -0.246 OA
BRANCH   7   9
ATOM      9  O   UNL     1      17.066  -9.401  12.082  1.00  0.00    -0.462 OA
BRANCH   9  10
ATOM     10  C   UNL     1      16.868 -10.812  12.147  1.00  0.00     0.233 C 
BRANCH  10  11
ATOM     11  C   UNL     1      15.384 -11.136  12.339  1.00  0.00     0.038 C 
ATOM     12  C   UNL     1      15.145 -12.642  12.351  1.00  0.00     0.007 C 
ENDBRANCH  10  11
ENDBRANCH   9  10
ENDBRANCH   7   9
ENDBRANCH   1   7
BRANCH   6  13
ATOM     13  C   UNL     1      15.992  -6.462  13.989  1.00  0.00     0.339 C 
ATOM     14  O   UNL     1      15.016  -6.917  13.330  1.00  0.00    -0.246 OA
BRANCH  13  15
ATOM     15  O   UNL     1      15.837  -6.134  15.342  1.00  0.00    -0.462 OA
BRANCH  15  16
ATOM     16  C   UNL     1      16.907  -6.166  16.283  1.00  0.00     0.233 C 
BRANCH  16  17
ATOM     17  C   UNL     1      16.362  -6.233  17.713  1.00  0.00     0.038 C 
ATOM     18  C   UNL     1      17.112  -5.279  18.636  1.00  0.00     0.007 C 
ENDBRANCH  16  17
ENDBRANCH  15  16
ENDBRANCH  13  15
ENDBRANCH   6  13
TORSDOF 8
ENDMDL
MODEL 8
REMARK VINA RESULT:    -4.670      1.797      3.330
REMARK INTER + INTRA:          -7.340
REMARK INTER:                  -6.793
REMARK INTRA:                  -0.547
REMARK UNBOUND:                -0.485
REMARK SMILES CCCOC(=O)c1ccccc1C(=O)OCCC
REMARK SMILES IDX 7 1 8 2 9 3 10 4 11 5 12 6 5 7 6 8 4 9 3 10 2 11 1 12 13 13
REMARK SMILES IDX 14 14 15 15 16 16 17 17 18 18
REMARK H PARENT
REMARK Flexibility Score: inf
ROOT
ATOM      1  C   UNL     1      15.101  -9.377  12.435  1.00  0.00     0.074 A 
ATOM      2  C   UNL     1      14.315 -10.488  12.082  1.00  0.00     0.016 A 
ATOM      3  C   UNL     1      14.881 -11.760  11.987  1.00  0.00     0.001 A 
ATOM      4  C   UNL     1      16.238 -11.942  12.243  1.00  0.00     0.001 A 
ATOM      5  C   UNL     1      17.041 -10.849  12.573  1.00  0.00     0.016 A 
ATOM      6  C   UNL     1      16.495  -9.555  12.651  1.00  0.00     0.074 A 
ENDROOT
BRANCH   1   7
ATOM      7  C   UNL     1      14.417  -8.078  12.628  1.00  0.00     0.339 C 
ATOM      8  O   UNL     1      13.328  -8.020  13.263  1.00  0.00    -0.246 OA
BRANCH   7   9
ATOM      9  O   UNL     1      14.957  -6.922  12.050  1.00  0.00    -0.462 OA
BRANCH   9  10
ATOM     10  C   UNL     1      14.278  -5.669  12.017  1.00  0.00     0.233 C 
BRANCH  10  11
ATOM     11  C   UNL     1      14.669  -4.815  13.225  1.00  0.00     0.038 C 
ATOM     12  C   UNL     1      13.500  -4.657  14.192  1.00  0.00     0.007 C 
ENDBRANCH  10  11
ENDBRANCH   9  10
ENDBRANCH   7   9
ENDBRANCH   1   7
BRANCH   6  13
ATOM     13  C   UNL     1      17.422  -8.426  12.895  1.00  0.00     0.339 C 
ATOM     14  O   UNL     1      18.033  -7.886  11.932  1.00  0.00    -0.246 OA
BRANCH  13  15
ATOM     15  O   UNL     1      17.661  -8.002  14.208  1.00  0.00    -0.462 OA
BRANCH  15  16
ATOM     16  C   UNL     1      17.361  -6.690  14.676  1.00  0.00     0.233 C 
BRANCH  16  17
ATOM     17  C   UNL     1      17.335  -6.659  16.207  1.00  0.00     0.038 C 
ATOM     18  C   UNL     1      16.153  -5.846  16.724  1.00  0.00     0.007 C 
ENDBRANCH  16  17
ENDBRANCH  15  16
ENDBRANCH  13  15
ENDBRANCH   6  13
TORSDOF 8
ENDMDL
MODEL 9
REMARK VINA RESULT:    -4.651      1.517      4.241
REMARK INTER + INTRA:          -7.311
REMARK INTER:                  -6.446
REMARK INTRA:                  -0.865
REMARK UNBOUND:                -0.485
REMARK SMILES CCCOC(=O)c1ccccc1C(=O)OCCC
REMARK SMILES IDX 7 1 8 2 9 3 10 4 11 5 12 6 5 7 6 8 4 9 3 10 2 11 1 12 13 13
REMARK SMILES IDX 14 14 15 15 16 16 17 17 18 18
REMARK H PARENT
REMARK Flexibility Score: inf
ROOT
ATOM      1  C   UNL     1      15.696  -6.021  14.285  1.00  0.00     0.074 A 
ATOM      2  C   UNL     1      14.800  -5.549  15.260  1.00  0.00     0.016 A 
ATOM      3  C   UNL     1      15.154  -5.544  16.610  1.00  0.00     0.001 A 
ATOM      4  C   UNL     1      16.406  -6.009  17.006  1.00  0.00     0.001 A 
ATOM      5  C   UNL     1      17.301  -6.503  16.056  1.00  0.00     0.016 A 
ATOM      6  C   UNL     1      16.956  -6.539  14.694  1.00  0.00     0.074 A 
ENDROOT
BRANCH   1   7
ATOM      7  C   UNL     1      15.302  -5.893  12.863  1.00  0.00     0.339 C 
ATOM      8  O   UNL     1      15.507  -4.814  12.241  1.00  0.00    -0.246 OA
BRANCH   7   9
ATOM      9  O   UNL     1      14.648  -6.958  12.231  1.00  0.00    -0.462 OA
BRANCH   9  10
ATOM     10  C   UNL     1      14.254  -8.150  12.906  1.00  0.00     0.233 C 
BRANCH  10  11
ATOM     11  C   UNL     1      13.347  -8.998  12.011  1.00  0.00     0.038 C 
ATOM     12  C   UNL     1      12.594 -10.047  12.823  1.00  0.00     0.007 C 
ENDBRANCH  10  11
ENDBRANCH   9  10
ENDBRANCH   7   9
ENDBRANCH   1   7
BRANCH   6  13
ATOM     13  C   UNL     1      17.905  -7.177  13.754  1.00  0.00     0.339 C 
ATOM     14  O   UNL     1      18.559  -6.474  12.935  1.00  0.00    -0.246 OA
BRANCH  13  15
ATOM     15  O   UNL     1      18.027  -8.572  13.739  1.00  0.00    -0.462 OA
BRANCH  15  16
ATOM     16  C   UNL     1      17.660  -9.380  12.624  1.00  0.00     0.233 C 
BRANCH  16  17
ATOM     17  C   UNL     1      16.997 -10.677  13.096  1.00  0.00     0.038 C 
ATOM     18  C   UNL     1      16.275 -11.378  11.950  1.00  0.00     0.007 C 
ENDBRANCH  16  17
ENDBRANCH  15  16
ENDBRANCH  13  15
ENDBRANCH   6  13
TORSDOF 8
ENDMDL
