MODEL 1
REMARK VINA RESULT:    15.398      0.000      0.000
REMARK INTER + INTRA:          16.642
REMARK INTER:                  16.749
REMARK INTRA:                  -0.106
REMARK UNBOUND:                -0.106
REMARK SMILES CC1(C)CC[C@@]2(C(=O)[O-])CC[C@]3(C)C(=CC[C@@H]4[C@]5(C)CC[C@@H](O)C(C)(C)[C@H]5CC[C@@]43C)[C@H]2C1
REMARK SMILES IDX 6 1 5 2 10 3 32 4 4 5 11 6 14 7 33 8 2 9 12 10 15 11 1 12
REMARK SMILES IDX 3 13 13 14 30 15 16 16 17 17 29 18 31 19 18 20 28 21 27 22
REMARK SMILES IDX 20 23 19 24 24 25 21 26 22 27 25 28 26 29 7 30 8 31 9 32
REMARK SMILES IDX 23 33
REMARK H PARENT 23 34
REMARK Flexibility Score: inf
ROOT
ATOM      1  C   UNL     1      45.797  27.478   3.720  1.00  0.00     0.017 C 
ATOM      2  C   UNL     1      46.000  26.103   4.446  1.00  0.00     0.014 C 
ATOM      3  C   UNL     1      47.125  27.841   2.980  1.00  0.00     0.014 C 
ATOM      4  C   UNL     1      44.539  27.395   2.761  1.00  0.00     0.028 C 
ATOM      5  C   UNL     1      44.665  25.454   4.828  1.00  0.00     0.007 C 
ATOM      6  C   UNL     1      47.050  27.752   1.453  1.00  0.00     0.013 C 
ATOM      7  C   UNL     1      44.608  28.286   1.518  1.00  0.00    -0.064 C 
ATOM      8  C   UNL     1      44.201  25.941   2.342  1.00  0.00     0.015 C 
ATOM      9  C   UNL     1      43.852  25.035   3.565  1.00  0.00    -0.035 C 
ATOM     10  C   UNL     1      45.916  28.632   0.825  1.00  0.00    -0.006 C 
ATOM     11  C   UNL     1      43.449  28.686   0.979  1.00  0.00    -0.027 C 
ATOM     12  C   UNL     1      44.172  23.567   3.205  1.00  0.00     0.011 C 
ATOM     13  C   UNL     1      42.343  25.134   3.878  1.00  0.00     0.011 C 
ATOM     14  C   UNL     1      46.227  30.124   1.163  1.00  0.00     0.017 C 
ATOM     15  C   UNL     1      45.763  28.420  -0.769  1.00  0.00    -0.020 C 
ATOM     16  C   UNL     1      43.307  29.291  -0.384  1.00  0.00     0.032 C 
ATOM     17  C   UNL     1      44.564  29.315  -1.332  1.00  0.00     0.006 C 
ATOM     18  C   UNL     1      45.460  26.924  -1.110  1.00  0.00     0.008 C 
ATOM     19  C   UNL     1      47.119  28.810  -1.443  1.00  0.00     0.012 C 
ATOM     20  C   UNL     1      44.165  29.053  -2.866  1.00  0.00    -0.025 C 
ATOM     21  C   UNL     1      45.084  26.655  -2.580  1.00  0.00     0.005 C 
ATOM     22  C   UNL     1      43.877  27.514  -3.045  1.00  0.00     0.003 C 
ATOM     23  C   UNL     1      42.881  29.876  -3.262  1.00  0.00     0.010 C 
ATOM     24  C   UNL     1      45.306  29.577  -3.808  1.00  0.00     0.012 C 
ATOM     25  C   UNL     1      43.241  27.082  -4.430  1.00  0.00    -0.006 C 
ATOM     26  C   UNL     1      42.291  29.491  -4.627  1.00  0.00     0.033 C 
ATOM     27  C   UNL     1      41.991  27.985  -4.708  1.00  0.00     0.120 C 
ATOM     28  C   UNL     1      42.733  25.616  -4.336  1.00  0.00     0.014 C 
ATOM     29  C   UNL     1      44.246  27.136  -5.611  1.00  0.00     0.014 C 
ENDROOT
BRANCH   1  30
ATOM     30  C   UNL     1      45.550  28.567   4.766  1.00  0.00     0.048 C 
ATOM     31  O   UNL     1      45.868  28.387   5.972  1.00  0.00    -0.550 OA
ATOM     32  O   UNL     1      45.068  29.816   4.386  1.00  0.00    -0.550 OA
ENDBRANCH   1  30
BRANCH  27  33
ATOM     33  O   UNL     1      41.371  27.666  -5.932  1.00  0.00    -0.393 OA
ATOM     34  H   UNL     1      41.528  26.703  -6.118  1.00  0.00     0.210 HD
ENDBRANCH  27  33
TORSDOF 2
ENDMDL
MODEL 2
REMARK VINA RESULT:    18.362      1.885      7.649
REMARK INTER + INTRA:          19.866
REMARK INTER:                  20.090
REMARK INTRA:                  -0.225
REMARK UNBOUND:                -0.106
REMARK SMILES CC1(C)CC[C@@]2(C(=O)[O-])CC[C@]3(C)C(=CC[C@@H]4[C@]5(C)CC[C@@H](O)C(C)(C)[C@H]5CC[C@@]43C)[C@H]2C1
REMARK SMILES IDX 6 1 5 2 10 3 32 4 4 5 11 6 14 7 33 8 2 9 12 10 15 11 1 12
REMARK SMILES IDX 3 13 13 14 30 15 16 16 17 17 29 18 31 19 18 20 28 21 27 22
REMARK SMILES IDX 20 23 19 24 24 25 21 26 22 27 25 28 26 29 7 30 8 31 9 32
REMARK SMILES IDX 23 33
REMARK H PARENT 23 34
REMARK Flexibility Score: inf
ROOT
ATOM      1  C   UNL     1      44.529  28.625  -4.796  1.00  0.00     0.017 C 
ATOM      2  C   UNL     1      43.144  28.705  -5.529  1.00  0.00     0.014 C 
ATOM      3  C   UNL     1      44.779  29.988  -4.074  1.00  0.00     0.014 C 
ATOM      4  C   UNL     1      44.543  27.378  -3.819  1.00  0.00     0.028 C 
ATOM      5  C   UNL     1      42.607  27.317  -5.894  1.00  0.00     0.007 C 
ATOM      6  C   UNL     1      44.689  29.927  -2.546  1.00  0.00     0.013 C 
ATOM      7  C   UNL     1      45.420  27.536  -2.574  1.00  0.00    -0.064 C 
ATOM      8  C   UNL     1      43.120  26.929  -3.400  1.00  0.00     0.015 C 
ATOM      9  C   UNL     1      42.250  26.490  -4.621  1.00  0.00    -0.035 C 
ATOM     10  C   UNL     1      45.656  28.878  -1.899  1.00  0.00    -0.006 C 
ATOM     11  C   UNL     1      45.910  26.421  -2.018  1.00  0.00    -0.027 C 
ATOM     12  C   UNL     1      40.760  26.695  -4.270  1.00  0.00     0.011 C 
ATOM     13  C   UNL     1      42.473  24.990  -4.912  1.00  0.00     0.011 C 
ATOM     14  C   UNL     1      47.119  29.304  -2.237  1.00  0.00     0.017 C 
ATOM     15  C   UNL     1      45.451  28.730  -0.304  1.00  0.00    -0.020 C 
ATOM     16  C   UNL     1      46.520  26.348  -0.651  1.00  0.00     0.032 C 
ATOM     17  C   UNL     1      46.438  27.615   0.279  1.00  0.00     0.006 C 
ATOM     18  C   UNL     1      43.983  28.311   0.037  1.00  0.00     0.008 C 
ATOM     19  C   UNL     1      45.726  30.122   0.352  1.00  0.00     0.012 C 
ATOM     20  C   UNL     1      46.202  27.218   1.818  1.00  0.00    -0.025 C 
ATOM     21  C   UNL     1      43.739  27.935   1.511  1.00  0.00     0.005 C 
ATOM     22  C   UNL     1      44.690  26.809   1.996  1.00  0.00     0.003 C 
ATOM     23  C   UNL     1      47.125  26.011   2.235  1.00  0.00     0.010 C 
ATOM     24  C   UNL     1      46.627  28.411   2.745  1.00  0.00     0.012 C 
ATOM     25  C   UNL     1      44.305  26.159   3.389  1.00  0.00    -0.006 C 
ATOM     26  C   UNL     1      46.783  25.411   3.607  1.00  0.00     0.033 C 
ATOM     27  C   UNL     1      45.305  24.991   3.687  1.00  0.00     0.120 C 
ATOM     28  C   UNL     1      42.886  25.533   3.297  1.00  0.00     0.014 C 
ATOM     29  C   UNL     1      44.273  27.182   4.555  1.00  0.00     0.014 C 
ENDROOT
BRANCH   1  30
ATOM     30  C   UNL     1      45.638  28.452  -5.835  1.00  0.00     0.048 C 
ATOM     31  O   UNL     1      46.213  27.341  -5.986  1.00  0.00    -0.550 OA
ATOM     32  O   UNL     1      45.957  29.489  -6.706  1.00  0.00    -0.550 OA
ENDBRANCH   1  30
BRANCH  27  33
ATOM     33  O   UNL     1      45.032  24.364   4.919  1.00  0.00    -0.393 OA
ATOM     34  H   UNL     1      45.050  25.056   5.630  1.00  0.00     0.210 HD
ENDBRANCH  27  33
TORSDOF 2
ENDMDL
