MODEL 1
REMARK VINA RESULT:    -4.039      0.000      0.000
REMARK INTER + INTRA:          -4.711
REMARK INTER:                  -4.629
REMARK INTRA:                  -0.082
REMARK UNBOUND:                -0.082
REMARK SMILES C=Cc1ccc(O)c(OC)c1
REMARK SMILES IDX 8 1 6 2 5 3 4 4 3 5 11 6 9 7 10 8 7 9 2 11 1 12
REMARK H PARENT 7 10
REMARK Flexibility Score: inf
ROOT
ATOM      1  C   UNL     1     115.717 115.660 117.996  1.00  0.00     0.161 A 
ATOM      2  C   UNL     1     116.905 116.123 118.588  1.00  0.00     0.157 A 
ATOM      3  C   UNL     1     117.851 116.803 117.817  1.00  0.00     0.051 A 
ATOM      4  C   UNL     1     117.630 117.022 116.457  1.00  0.00     0.012 A 
ATOM      5  C   UNL     1     116.460 116.556 115.840  1.00  0.00    -0.022 A 
ATOM      6  C   UNL     1     115.498 115.884 116.621  1.00  0.00     0.058 A 
ENDROOT
BRANCH   1   7
ATOM      7  O   UNL     1     114.779 114.989 118.798  1.00  0.00    -0.493 OA
ATOM      8  C   UNL     1     113.637 114.297 118.304  1.00  0.00     0.278 C 
ENDBRANCH   1   7
BRANCH   2   9
ATOM      9  O   UNL     1     117.163 115.920 119.944  1.00  0.00    -0.504 OA
ATOM     10  H   UNL     1     117.759 115.170 120.274  1.00  0.00     0.293 HD
ENDBRANCH   2   9
BRANCH   5  11
ATOM     11  C   UNL     1     116.271 116.822 114.391  1.00  0.00     0.000 C 
ATOM     12  C   UNL     1     116.995 116.256 113.425  1.00  0.00     0.009 C 
ENDBRANCH   5  11
TORSDOF 3
ENDMDL
MODEL 2
REMARK VINA RESULT:    -4.039      1.937      2.255
REMARK INTER + INTRA:          -4.711
REMARK INTER:                  -4.629
REMARK INTRA:                  -0.082
REMARK UNBOUND:                -0.082
REMARK SMILES C=Cc1ccc(O)c(OC)c1
REMARK SMILES IDX 8 1 6 2 5 3 4 4 3 5 11 6 9 7 10 8 7 9 2 11 1 12
REMARK H PARENT 7 10
REMARK Flexibility Score: inf
ROOT
ATOM      1  C   UNL     1     117.563 115.717 117.984  1.00  0.00     0.161 A 
ATOM      2  C   UNL     1     117.104 116.903 118.586  1.00  0.00     0.157 A 
ATOM      3  C   UNL     1     116.405 117.845 117.828  1.00  0.00     0.051 A 
ATOM      4  C   UNL     1     116.162 117.624 116.471  1.00  0.00     0.012 A 
ATOM      5  C   UNL     1     116.623 116.456 115.845  1.00  0.00    -0.022 A 
ATOM      6  C   UNL     1     117.314 115.497 116.613  1.00  0.00     0.058 A 
ENDROOT
BRANCH   1   7
ATOM      7  O   UNL     1     118.253 114.783 118.773  1.00  0.00    -0.493 OA
ATOM      8  C   UNL     1     118.898 113.616 118.272  1.00  0.00     0.278 C 
ENDBRANCH   1   7
BRANCH   2   9
ATOM      9  O   UNL     1     117.331 117.160 119.937  1.00  0.00    -0.504 OA
ATOM     10  H   UNL     1     118.211 116.943 120.388  1.00  0.00     0.293 HD
ENDBRANCH   2   9
BRANCH   5  11
ATOM     11  C   UNL     1     116.332 116.266 114.402  1.00  0.00     0.000 C 
ATOM     12  C   UNL     1     116.865 117.004 113.427  1.00  0.00     0.009 C 
ENDBRANCH   5  11
TORSDOF 3
ENDMDL
MODEL 3
REMARK VINA RESULT:    -4.033      1.489      3.192
REMARK INTER + INTRA:          -4.704
REMARK INTER:                  -4.626
REMARK INTRA:                  -0.078
REMARK UNBOUND:                -0.082
REMARK SMILES C=Cc1ccc(O)c(OC)c1
REMARK SMILES IDX 8 1 6 2 5 3 4 4 3 5 11 6 9 7 10 8 7 9 2 11 1 12
REMARK H PARENT 7 10
REMARK Flexibility Score: inf
ROOT
ATOM      1  C   UNL     1     117.554 117.489 118.006  1.00  0.00     0.161 A 
ATOM      2  C   UNL     1     116.367 117.107 118.657  1.00  0.00     0.157 A 
ATOM      3  C   UNL     1     115.361 116.448 117.947  1.00  0.00     0.051 A 
ATOM      4  C   UNL     1     115.521 116.167 116.589  1.00  0.00     0.012 A 
ATOM      5  C   UNL     1     116.690 116.550 115.914  1.00  0.00    -0.022 A 
ATOM      6  C   UNL     1     117.711 117.202 116.634  1.00  0.00     0.058 A 
ENDROOT
BRANCH   1   7
ATOM      7  O   UNL     1     118.552 118.141 118.748  1.00  0.00    -0.493 OA
ATOM      8  C   UNL     1     119.616 118.900 118.184  1.00  0.00     0.278 C 
ENDBRANCH   1   7
BRANCH   2   9
ATOM      9  O   UNL     1     116.170 117.374 120.012  1.00  0.00    -0.504 OA
ATOM     10  H   UNL     1     116.934 117.609 120.633  1.00  0.00     0.293 HD
ENDBRANCH   2   9
BRANCH   5  11
ATOM     11  C   UNL     1     116.812 116.222 114.471  1.00  0.00     0.000 C 
ATOM     12  C   UNL     1     116.288 116.956 113.489  1.00  0.00     0.009 C 
ENDBRANCH   5  11
TORSDOF 3
ENDMDL
MODEL 4
REMARK VINA RESULT:    -4.029      1.932      2.264
REMARK INTER + INTRA:          -4.700
REMARK INTER:                  -4.625
REMARK INTRA:                  -0.075
REMARK UNBOUND:                -0.082
REMARK SMILES C=Cc1ccc(O)c(OC)c1
REMARK SMILES IDX 8 1 6 2 5 3 4 4 3 5 11 6 9 7 10 8 7 9 2 11 1 12
REMARK H PARENT 7 10
REMARK Flexibility Score: inf
ROOT
ATOM      1  C   UNL     1     115.619 117.459 117.978  1.00  0.00     0.161 A 
ATOM      2  C   UNL     1     116.134 116.337 118.652  1.00  0.00     0.157 A 
ATOM      3  C   UNL     1     116.904 115.399 117.960  1.00  0.00     0.051 A 
ATOM      4  C   UNL     1     117.164 115.563 116.599  1.00  0.00     0.012 A 
ATOM      5  C   UNL     1     116.650 116.666 115.901  1.00  0.00    -0.022 A 
ATOM      6  C   UNL     1     115.886 117.620 116.602  1.00  0.00     0.058 A 
ENDROOT
BRANCH   1   7
ATOM      7  O   UNL     1     114.857 118.391 118.701  1.00  0.00    -0.493 OA
ATOM      8  C   UNL     1     114.480 119.677 118.221  1.00  0.00     0.278 C 
ENDBRANCH   1   7
BRANCH   2   9
ATOM      9  O   UNL     1     115.891 116.138 120.011  1.00  0.00    -0.504 OA
ATOM     10  H   UNL     1     116.288 115.359 120.522  1.00  0.00     0.293 HD
ENDBRANCH   2   9
BRANCH   5  11
ATOM     11  C   UNL     1     116.963 116.796 114.456  1.00  0.00     0.000 C 
ATOM     12  C   UNL     1     116.204 116.301 113.477  1.00  0.00     0.009 C 
ENDBRANCH   5  11
TORSDOF 3
ENDMDL
MODEL 5
REMARK VINA RESULT:    -3.916      2.224      3.488
REMARK INTER + INTRA:          -4.569
REMARK INTER:                  -4.492
REMARK INTRA:                  -0.077
REMARK UNBOUND:                -0.082
REMARK SMILES C=Cc1ccc(O)c(OC)c1
REMARK SMILES IDX 8 1 6 2 5 3 4 4 3 5 11 6 9 7 10 8 7 9 2 11 1 12
REMARK H PARENT 7 10
REMARK Flexibility Score: inf
ROOT
ATOM      1  C   UNL     1     118.755 117.103 118.186  1.00  0.00     0.161 A 
ATOM      2  C   UNL     1     118.655 115.787 118.672  1.00  0.00     0.157 A 
ATOM      3  C   UNL     1     117.833 114.863 118.023  1.00  0.00     0.051 A 
ATOM      4  C   UNL     1     117.102 115.237 116.894  1.00  0.00     0.012 A 
ATOM      5  C   UNL     1     117.173 116.547 116.399  1.00  0.00    -0.022 A 
ATOM      6  C   UNL     1     118.014 117.476 117.045  1.00  0.00     0.058 A 
ENDROOT
BRANCH   1   7
ATOM      7  O   UNL     1     119.596 118.008 118.853  1.00  0.00    -0.493 OA
ATOM      8  C   UNL     1     119.765 119.375 118.493  1.00  0.00     0.278 C 
ENDBRANCH   1   7
BRANCH   2   9
ATOM      9  O   UNL     1     119.368 115.379 119.799  1.00  0.00    -0.504 OA
ATOM     10  H   UNL     1     118.957 115.374 120.725  1.00  0.00     0.293 HD
ENDBRANCH   2   9
BRANCH   5  11
ATOM     11  C   UNL     1     116.380 116.890 115.191  1.00  0.00     0.000 C 
ATOM     12  C   UNL     1     116.780 116.658 113.941  1.00  0.00     0.009 C 
ENDBRANCH   5  11
TORSDOF 3
ENDMDL
MODEL 6
REMARK VINA RESULT:    -3.909      1.682      2.014
REMARK INTER + INTRA:          -4.561
REMARK INTER:                  -4.485
REMARK INTRA:                  -0.076
REMARK UNBOUND:                -0.082
REMARK SMILES C=Cc1ccc(O)c(OC)c1
REMARK SMILES IDX 8 1 6 2 5 3 4 4 3 5 11 6 9 7 10 8 7 9 2 11 1 12
REMARK H PARENT 7 10
REMARK Flexibility Score: inf
ROOT
ATOM      1  C   UNL     1     114.486 116.027 118.166  1.00  0.00     0.161 A 
ATOM      2  C   UNL     1     114.370 117.334 118.673  1.00  0.00     0.157 A 
ATOM      3  C   UNL     1     115.086 118.378 118.084  1.00  0.00     0.051 A 
ATOM      4  C   UNL     1     115.926 118.136 116.995  1.00  0.00     0.012 A 
ATOM      5  C   UNL     1     116.070 116.839 116.481  1.00  0.00    -0.022 A 
ATOM      6  C   UNL     1     115.336 115.787 117.066  1.00  0.00     0.058 A 
ENDROOT
BRANCH   1   7
ATOM      7  O   UNL     1     113.746 114.999 118.772  1.00  0.00    -0.493 OA
ATOM      8  C   UNL     1     113.308 113.817 118.110  1.00  0.00     0.278 C 
ENDBRANCH   1   7
BRANCH   2   9
ATOM      9  O   UNL     1     113.544 117.614 119.762  1.00  0.00    -0.504 OA
ATOM     10  H   UNL     1     113.860 117.516 120.718  1.00  0.00     0.293 HD
ENDBRANCH   2   9
BRANCH   5  11
ATOM     11  C   UNL     1     116.971 116.636 115.318  1.00  0.00     0.000 C 
ATOM     12  C   UNL     1     116.564 116.630 114.048  1.00  0.00     0.009 C 
ENDBRANCH   5  11
TORSDOF 3
ENDMDL
MODEL 7
REMARK VINA RESULT:    -3.899      1.949      3.014
REMARK INTER + INTRA:          -4.551
REMARK INTER:                  -4.477
REMARK INTRA:                  -0.074
REMARK UNBOUND:                -0.082
REMARK SMILES C=Cc1ccc(O)c(OC)c1
REMARK SMILES IDX 8 1 6 2 5 3 4 4 3 5 11 6 9 7 10 8 7 9 2 11 1 12
REMARK H PARENT 7 10
REMARK Flexibility Score: inf
ROOT
ATOM      1  C   UNL     1     117.274 114.200 118.172  1.00  0.00     0.161 A 
ATOM      2  C   UNL     1     115.999 114.087 118.756  1.00  0.00     0.157 A 
ATOM      3  C   UNL     1     114.943 114.871 118.286  1.00  0.00     0.051 A 
ATOM      4  C   UNL     1     115.143 115.774 117.240  1.00  0.00     0.012 A 
ATOM      5  C   UNL     1     116.408 115.916 116.651  1.00  0.00    -0.022 A 
ATOM      6  C   UNL     1     117.470 115.114 117.115  1.00  0.00     0.058 A 
ENDROOT
BRANCH   1   7
ATOM      7  O   UNL     1     118.314 113.392 118.658  1.00  0.00    -0.493 OA
ATOM      8  C   UNL     1     119.694 113.745 118.635  1.00  0.00     0.278 C 
ENDBRANCH   1   7
BRANCH   2   9
ATOM      9  O   UNL     1     115.763 113.198 119.804  1.00  0.00    -0.504 OA
ATOM     10  H   UNL     1     114.833 112.874 120.038  1.00  0.00     0.293 HD
ENDBRANCH   2   9
BRANCH   5  11
ATOM     11  C   UNL     1     116.564 116.886 115.538  1.00  0.00     0.000 C 
ATOM     12  C   UNL     1     116.743 116.541 114.263  1.00  0.00     0.009 C 
ENDBRANCH   5  11
TORSDOF 3
ENDMDL
MODEL 8
REMARK VINA RESULT:    -3.899      2.500      2.798
REMARK INTER + INTRA:          -4.550
REMARK INTER:                  -4.476
REMARK INTRA:                  -0.074
REMARK UNBOUND:                -0.082
REMARK SMILES C=Cc1ccc(O)c(OC)c1
REMARK SMILES IDX 8 1 6 2 5 3 4 4 3 5 11 6 9 7 10 8 7 9 2 11 1 12
REMARK H PARENT 7 10
REMARK Flexibility Score: inf
ROOT
ATOM      1  C   UNL     1     116.087 118.658 118.105  1.00  0.00     0.161 A 
ATOM      2  C   UNL     1     117.378 118.593 118.658  1.00  0.00     0.157 A 
ATOM      3  C   UNL     1     118.357 117.799 118.055  1.00  0.00     0.051 A 
ATOM      4  C   UNL     1     118.062 117.062 116.906  1.00  0.00     0.012 A 
ATOM      5  C   UNL     1     116.777 117.099 116.345  1.00  0.00    -0.022 A 
ATOM      6  C   UNL     1     115.794 117.912 116.944  1.00  0.00     0.058 A 
ENDROOT
BRANCH   1   7
ATOM      7  O   UNL     1     115.126 119.473 118.726  1.00  0.00    -0.493 OA
ATOM      8  C   UNL     1     113.859 119.803 118.167  1.00  0.00     0.278 C 
ENDBRANCH   1   7
BRANCH   2   9
ATOM      9  O   UNL     1     117.709 119.312 119.806  1.00  0.00    -0.504 OA
ATOM     10  H   UNL     1     117.191 119.215 120.671  1.00  0.00     0.293 HD
ENDBRANCH   2   9
BRANCH   5  11
ATOM     11  C   UNL     1     116.519 116.301 115.119  1.00  0.00     0.000 C 
ATOM     12  C   UNL     1     116.541 116.800 113.883  1.00  0.00     0.009 C 
ENDBRANCH   5  11
TORSDOF 3
ENDMDL
