MODEL 1
REMARK VINA RESULT:    -3.767      0.000      0.000
REMARK INTER + INTRA:          -4.222
REMARK INTER:                  -4.208
REMARK INTRA:                  -0.014
REMARK UNBOUND:                -0.014
REMARK SMILES CCCC(=O)[O-]
REMARK SMILES IDX 3 1 4 2 5 3 6 4 2 5 1 6
REMARK H PARENT
REMARK Flexibility Score: inf
ROOT
ATOM      1  C   UNL     1      27.922 -12.322  20.272  1.00  0.00     0.052 C 
ENDROOT
BRANCH   1   2
ATOM      2  C   UNL     1      27.802 -10.967  20.898  1.00  0.00     0.041 C 
ATOM      3  O   UNL     1      27.064 -10.089  20.377  1.00  0.00    -0.550 OA
ATOM      4  O   UNL     1      28.532 -10.660  22.040  1.00  0.00    -0.550 OA
ENDBRANCH   1   2
BRANCH   1   5
ATOM      5  C   UNL     1      26.839 -12.554  19.211  1.00  0.00     0.003 C 
ATOM      6  C   UNL     1      27.225 -13.648  18.216  1.00  0.00     0.004 C 
ENDBRANCH   1   5
TORSDOF 2
ENDMDL
MODEL 2
REMARK VINA RESULT:    -3.735      0.182      1.323
REMARK INTER + INTRA:          -4.186
REMARK INTER:                  -4.176
REMARK INTRA:                  -0.010
REMARK UNBOUND:                -0.014
REMARK SMILES CCCC(=O)[O-]
REMARK SMILES IDX 3 1 4 2 5 3 6 4 2 5 1 6
REMARK H PARENT
REMARK Flexibility Score: inf
ROOT
ATOM      1  C   UNL     1      27.911 -12.236  20.267  1.00  0.00     0.052 C 
ENDROOT
BRANCH   1   2
ATOM      2  C   UNL     1      27.744 -10.897  20.916  1.00  0.00     0.041 C 
ATOM      3  O   UNL     1      28.195 -10.693  22.074  1.00  0.00    -0.550 OA
ATOM      4  O   UNL     1      27.060  -9.883  20.257  1.00  0.00    -0.550 OA
ENDBRANCH   1   2
BRANCH   1   5
ATOM      5  C   UNL     1      26.838 -12.486  19.200  1.00  0.00     0.003 C 
ATOM      6  C   UNL     1      27.193 -13.654  18.281  1.00  0.00     0.004 C 
ENDBRANCH   1   5
TORSDOF 2
ENDMDL
MODEL 3
REMARK VINA RESULT:    -3.730      2.592      3.692
REMARK INTER + INTRA:          -4.180
REMARK INTER:                  -4.173
REMARK INTRA:                  -0.007
REMARK UNBOUND:                -0.014
REMARK SMILES CCCC(=O)[O-]
REMARK SMILES IDX 3 1 4 2 5 3 6 4 2 5 1 6
REMARK H PARENT
REMARK Flexibility Score: inf
ROOT
ATOM      1  C   UNL     1      27.755 -12.718  19.861  1.00  0.00     0.052 C 
ENDROOT
BRANCH   1   2
ATOM      2  C   UNL     1      26.870 -13.278  18.791  1.00  0.00     0.041 C 
ATOM      3  O   UNL     1      26.665 -14.519  18.722  1.00  0.00    -0.550 OA
ATOM      4  O   UNL     1      26.298 -12.434  17.847  1.00  0.00    -0.550 OA
ENDBRANCH   1   2
BRANCH   1   5
ATOM      5  C   UNL     1      27.273 -11.341  20.332  1.00  0.00     0.003 C 
ATOM      6  C   UNL     1      28.105 -10.798  21.493  1.00  0.00     0.004 C 
ENDBRANCH   1   5
TORSDOF 2
ENDMDL
MODEL 4
REMARK VINA RESULT:    -3.540      1.450      2.157
REMARK INTER + INTRA:          -3.968
REMARK INTER:                  -3.931
REMARK INTRA:                  -0.037
REMARK UNBOUND:                -0.014
REMARK SMILES CCCC(=O)[O-]
REMARK SMILES IDX 3 1 4 2 5 3 6 4 2 5 1 6
REMARK H PARENT
REMARK Flexibility Score: inf
ROOT
ATOM      1  C   UNL     1      26.229 -11.170  20.230  1.00  0.00     0.052 C 
ENDROOT
BRANCH   1   2
ATOM      2  C   UNL     1      26.809  -9.828  19.905  1.00  0.00     0.041 C 
ATOM      3  O   UNL     1      27.808  -9.397  20.539  1.00  0.00    -0.550 OA
ATOM      4  O   UNL     1      26.225  -9.037  18.923  1.00  0.00    -0.550 OA
ENDBRANCH   1   2
BRANCH   1   5
ATOM      5  C   UNL     1      27.014 -12.304  19.560  1.00  0.00     0.003 C 
ATOM      6  C   UNL     1      26.356 -12.780  18.265  1.00  0.00     0.004 C 
ENDBRANCH   1   5
TORSDOF 2
ENDMDL
MODEL 5
REMARK VINA RESULT:    -3.245     10.603     11.338
REMARK INTER + INTRA:          -3.638
REMARK INTER:                  -3.632
REMARK INTRA:                  -0.006
REMARK UNBOUND:                -0.014
REMARK SMILES CCCC(=O)[O-]
REMARK SMILES IDX 3 1 4 2 5 3 6 4 2 5 1 6
REMARK H PARENT
REMARK Flexibility Score: inf
ROOT
ATOM      1  C   UNL     1      38.234 -11.772  21.634  1.00  0.00     0.052 C 
ENDROOT
BRANCH   1   2
ATOM      2  C   UNL     1      39.341 -12.546  20.989  1.00  0.00     0.041 C 
ATOM      3  O   UNL     1      39.389 -13.800  21.102  1.00  0.00    -0.550 OA
ATOM      4  O   UNL     1      40.341 -11.881  20.289  1.00  0.00    -0.550 OA
ENDBRANCH   1   2
BRANCH   1   5
ATOM      5  C   UNL     1      37.305 -11.136  20.593  1.00  0.00     0.003 C 
ATOM      6  C   UNL     1      36.302 -10.170  21.222  1.00  0.00     0.004 C 
ENDBRANCH   1   5
TORSDOF 2
ENDMDL
MODEL 6
REMARK VINA RESULT:    -3.244     10.634     11.362
REMARK INTER + INTRA:          -3.638
REMARK INTER:                  -3.629
REMARK INTRA:                  -0.008
REMARK UNBOUND:                -0.014
REMARK SMILES CCCC(=O)[O-]
REMARK SMILES IDX 3 1 4 2 5 3 6 4 2 5 1 6
REMARK H PARENT
REMARK Flexibility Score: inf
ROOT
ATOM      1  C   UNL     1      38.265 -11.807  21.662  1.00  0.00     0.052 C 
ENDROOT
BRANCH   1   2
ATOM      2  C   UNL     1      39.359 -12.573  20.984  1.00  0.00     0.041 C 
ATOM      3  O   UNL     1      40.246 -11.966  20.327  1.00  0.00    -0.550 OA
ATOM      4  O   UNL     1      39.381 -13.961  21.049  1.00  0.00    -0.550 OA
ENDBRANCH   1   2
BRANCH   1   5
ATOM      5  C   UNL     1      37.328 -11.139  20.648  1.00  0.00     0.003 C 
ATOM      6  C   UNL     1      36.491 -10.026  21.276  1.00  0.00     0.004 C 
ENDBRANCH   1   5
TORSDOF 2
ENDMDL
MODEL 7
REMARK VINA RESULT:    -3.208      7.537      8.323
REMARK INTER + INTRA:          -3.597
REMARK INTER:                  -3.585
REMARK INTRA:                  -0.011
REMARK UNBOUND:                -0.014
REMARK SMILES CCCC(=O)[O-]
REMARK SMILES IDX 3 1 4 2 5 3 6 4 2 5 1 6
REMARK H PARENT
REMARK Flexibility Score: inf
ROOT
ATOM      1  C   UNL     1      35.211  -9.624  20.911  1.00  0.00     0.052 C 
ENDROOT
BRANCH   1   2
ATOM      2  C   UNL     1      36.015  -8.650  21.716  1.00  0.00     0.041 C 
ATOM      3  O   UNL     1      37.192  -8.933  22.065  1.00  0.00    -0.550 OA
ATOM      4  O   UNL     1      35.452  -7.443  22.112  1.00  0.00    -0.550 OA
ENDBRANCH   1   2
BRANCH   1   5
ATOM      5  C   UNL     1      33.838  -9.053  20.536  1.00  0.00     0.003 C 
ATOM      6  C   UNL     1      33.274  -9.685  19.264  1.00  0.00     0.004 C 
ENDBRANCH   1   5
TORSDOF 2
ENDMDL
MODEL 8
REMARK VINA RESULT:    -3.178     10.260     10.977
REMARK INTER + INTRA:          -3.563
REMARK INTER:                  -3.528
REMARK INTRA:                  -0.035
REMARK UNBOUND:                -0.014
REMARK SMILES CCCC(=O)[O-]
REMARK SMILES IDX 3 1 4 2 5 3 6 4 2 5 1 6
REMARK H PARENT
REMARK Flexibility Score: inf
ROOT
ATOM      1  C   UNL     1      37.833 -11.386  21.438  1.00  0.00     0.052 C 
ENDROOT
BRANCH   1   2
ATOM      2  C   UNL     1      39.148 -10.781  21.057  1.00  0.00     0.041 C 
ATOM      3  O   UNL     1      39.678  -9.902  21.788  1.00  0.00    -0.550 OA
ATOM      4  O   UNL     1      39.776 -11.162  19.878  1.00  0.00    -0.550 OA
ENDBRANCH   1   2
BRANCH   1   5
ATOM      5  C   UNL     1      36.691 -10.858  20.560  1.00  0.00     0.003 C 
ATOM      6  C   UNL     1      35.892  -9.752  21.248  1.00  0.00     0.004 C 
ENDBRANCH   1   5
TORSDOF 2
ENDMDL
MODEL 9
REMARK VINA RESULT:    -3.170      6.741      7.535
REMARK INTER + INTRA:          -3.555
REMARK INTER:                  -3.548
REMARK INTRA:                  -0.007
REMARK UNBOUND:                -0.014
REMARK SMILES CCCC(=O)[O-]
REMARK SMILES IDX 3 1 4 2 5 3 6 4 2 5 1 6
REMARK H PARENT
REMARK Flexibility Score: inf
ROOT
ATOM      1  C   UNL     1      34.499  -9.147  20.902  1.00  0.00     0.052 C 
ENDROOT
BRANCH   1   2
ATOM      2  C   UNL     1      33.216  -9.219  20.134  1.00  0.00     0.041 C 
ATOM      3  O   UNL     1      32.120  -8.972  20.704  1.00  0.00    -0.550 OA
ATOM      4  O   UNL     1      33.225  -9.590  18.795  1.00  0.00    -0.550 OA
ENDBRANCH   1   2
BRANCH   1   5
ATOM      5  C   UNL     1      35.472 -10.257  20.485  1.00  0.00     0.003 C 
ATOM      6  C   UNL     1      36.755 -10.247  21.314  1.00  0.00     0.004 C 
ENDBRANCH   1   5
TORSDOF 2
ENDMDL
