MODEL 1
REMARK VINA RESULT:    -3.621      0.000      0.000
REMARK INTER + INTRA:          -4.432
REMARK INTER:                  -4.362
REMARK INTRA:                  -0.069
REMARK UNBOUND:                -0.069
REMARK SMILES CC[C@H](C)[C@H]([NH3+])C(=O)[O-]
REMARK SMILES IDX 3 1 4 2 5 3 6 4 7 8 8 9 9 10 2 11 1 12
REMARK H PARENT 6 5 6 6 6 7
REMARK Flexibility Score: inf
ROOT
ATOM      1  C   UNL     1      57.337  -1.521  17.762  1.00  0.00     0.050 C 
ATOM      2  C   UNL     1      58.199  -0.271  17.500  1.00  0.00     0.014 C 
ENDROOT
BRANCH   1   3
ATOM      3  C   UNL     1      56.615  -1.424  19.143  1.00  0.00     0.230 C 
BRANCH   3   4
ATOM      4  N   UNL     1      57.227  -2.286  20.167  1.00  0.00    -0.350 N 
ATOM      5  H   UNL     1      57.559  -1.712  20.974  1.00  0.00     0.345 HD
ATOM      6  H   UNL     1      56.510  -2.956  20.530  1.00  0.00     0.345 HD
ATOM      7  H   UNL     1      58.027  -2.833  19.778  1.00  0.00     0.345 HD
ENDBRANCH   3   4
BRANCH   3   8
ATOM      8  C   UNL     1      55.141  -1.716  19.004  1.00  0.00     0.099 C 
ATOM      9  O   UNL     1      54.301  -0.788  19.145  1.00  0.00    -0.544 OA
ATOM     10  O   UNL     1      54.695  -2.993  18.682  1.00  0.00    -0.544 OA
ENDBRANCH   3   8
ENDBRANCH   1   3
BRANCH   1  11
ATOM     11  C   UNL     1      58.168  -2.820  17.605  1.00  0.00     0.006 C 
ATOM     12  C   UNL     1      59.032  -2.820  16.343  1.00  0.00     0.004 C 
ENDBRANCH   1  11
TORSDOF 4
ENDMDL
MODEL 2
REMARK VINA RESULT:    -3.601     17.220     18.252
REMARK INTER + INTRA:          -4.406
REMARK INTER:                  -4.302
REMARK INTRA:                  -0.104
REMARK UNBOUND:                -0.069
REMARK SMILES CC[C@H](C)[C@H]([NH3+])C(=O)[O-]
REMARK SMILES IDX 3 1 4 2 5 3 6 4 7 8 8 9 9 10 2 11 1 12
REMARK H PARENT 6 5 6 6 6 7
REMARK Flexibility Score: inf
ROOT
ATOM      1  C   UNL     1      48.933  14.031  18.100  1.00  0.00     0.050 C 
ATOM      2  C   UNL     1      49.564  12.654  18.382  1.00  0.00     0.014 C 
ENDROOT
BRANCH   1   3
ATOM      3  C   UNL     1      49.596  14.708  16.859  1.00  0.00     0.230 C 
BRANCH   3   4
ATOM      4  N   UNL     1      49.227  16.125  16.718  1.00  0.00    -0.350 N 
ATOM      5  H   UNL     1      48.922  16.515  17.638  1.00  0.00     0.345 HD
ATOM      6  H   UNL     1      50.062  16.672  16.404  1.00  0.00     0.345 HD
ATOM      7  H   UNL     1      48.463  16.252  16.017  1.00  0.00     0.345 HD
ENDBRANCH   3   4
BRANCH   3   8
ATOM      8  C   UNL     1      49.288  13.942  15.595  1.00  0.00     0.099 C 
ATOM      9  O   UNL     1      48.122  13.956  15.121  1.00  0.00    -0.544 OA
ATOM     10  O   UNL     1      50.289  13.252  14.920  1.00  0.00    -0.544 OA
ENDBRANCH   3   8
ENDBRANCH   1   3
BRANCH   1  11
ATOM     11  C   UNL     1      48.958  14.929  19.362  1.00  0.00     0.006 C 
ATOM     12  C   UNL     1      47.739  14.719  20.262  1.00  0.00     0.004 C 
ENDBRANCH   1  11
TORSDOF 4
ENDMDL
MODEL 3
REMARK VINA RESULT:    -3.576      6.818      7.676
REMARK INTER + INTRA:          -4.377
REMARK INTER:                  -4.296
REMARK INTRA:                  -0.081
REMARK UNBOUND:                -0.069
REMARK SMILES CC[C@H](C)[C@H]([NH3+])C(=O)[O-]
REMARK SMILES IDX 3 1 4 2 5 3 6 4 7 8 8 9 9 10 2 11 1 12
REMARK H PARENT 6 5 6 6 6 7
REMARK Flexibility Score: inf
ROOT
ATOM      1  C   UNL     1      50.646   2.273  20.871  1.00  0.00     0.050 C 
ATOM      2  C   UNL     1      49.972   3.656  20.941  1.00  0.00     0.014 C 
ENDROOT
BRANCH   1   3
ATOM      3  C   UNL     1      50.887   1.693  22.299  1.00  0.00     0.230 C 
BRANCH   3   4
ATOM      4  N   UNL     1      52.211   2.040  22.840  1.00  0.00    -0.350 N 
ATOM      5  H   UNL     1      52.581   2.897  22.372  1.00  0.00     0.345 HD
ATOM      6  H   UNL     1      52.125   2.250  23.861  1.00  0.00     0.345 HD
ATOM      7  H   UNL     1      52.891   1.257  22.717  1.00  0.00     0.345 HD
ENDBRANCH   3   4
BRANCH   3   8
ATOM      8  C   UNL     1      50.672   0.199  22.321  1.00  0.00     0.099 C 
ATOM      9  O   UNL     1      49.526  -0.267  22.554  1.00  0.00    -0.544 OA
ATOM     10  O   UNL     1      51.718  -0.675  22.045  1.00  0.00    -0.544 OA
ENDBRANCH   3   8
ENDBRANCH   1   3
BRANCH   1  11
ATOM     11  C   UNL     1      51.937   2.321  20.014  1.00  0.00     0.006 C 
ATOM     12  C   UNL     1      51.945   3.483  19.020  1.00  0.00     0.004 C 
ENDBRANCH   1  11
TORSDOF 4
ENDMDL
MODEL 4
REMARK VINA RESULT:    -3.513     13.225     14.313
REMARK INTER + INTRA:          -4.301
REMARK INTER:                  -4.255
REMARK INTRA:                  -0.047
REMARK UNBOUND:                -0.069
REMARK SMILES CC[C@H](C)[C@H]([NH3+])C(=O)[O-]
REMARK SMILES IDX 3 1 4 2 5 3 6 4 7 8 8 9 9 10 2 11 1 12
REMARK H PARENT 6 5 6 6 6 7
REMARK Flexibility Score: inf
ROOT
ATOM      1  C   UNL     1      48.734   8.631  20.581  1.00  0.00     0.050 C 
ATOM      2  C   UNL     1      49.262   7.441  21.404  1.00  0.00     0.014 C 
ENDROOT
BRANCH   1   3
ATOM      3  C   UNL     1      47.176   8.705  20.637  1.00  0.00     0.230 C 
BRANCH   3   4
ATOM      4  N   UNL     1      46.536   8.163  19.428  1.00  0.00    -0.350 N 
ATOM      5  H   UNL     1      45.582   7.800  19.653  1.00  0.00     0.345 HD
ATOM      6  H   UNL     1      46.424   8.927  18.722  1.00  0.00     0.345 HD
ATOM      7  H   UNL     1      47.106   7.399  19.003  1.00  0.00     0.345 HD
ENDBRANCH   3   4
BRANCH   3   8
ATOM      8  C   UNL     1      46.710  10.115  20.907  1.00  0.00     0.099 C 
ATOM      9  O   UNL     1      45.808  10.325  21.760  1.00  0.00    -0.544 OA
ATOM     10  O   UNL     1      47.294  11.195  20.254  1.00  0.00    -0.544 OA
ENDBRANCH   3   8
ENDBRANCH   1   3
BRANCH   1  11
ATOM     11  C   UNL     1      49.284   8.601  19.132  1.00  0.00     0.006 C 
ATOM     12  C   UNL     1      50.780   8.283  19.074  1.00  0.00     0.004 C 
ENDBRANCH   1  11
TORSDOF 4
ENDMDL
MODEL 5
REMARK VINA RESULT:    -3.426      6.767      8.742
REMARK INTER + INTRA:          -4.196
REMARK INTER:                  -4.091
REMARK INTRA:                  -0.104
REMARK UNBOUND:                -0.069
REMARK SMILES CC[C@H](C)[C@H]([NH3+])C(=O)[O-]
REMARK SMILES IDX 3 1 4 2 5 3 6 4 7 8 8 9 9 10 2 11 1 12
REMARK H PARENT 6 5 6 6 6 7
REMARK Flexibility Score: inf
ROOT
ATOM      1  C   UNL     1      50.052   2.828  21.064  1.00  0.00     0.050 C 
ATOM      2  C   UNL     1      48.912   1.794  20.989  1.00  0.00     0.014 C 
ENDROOT
BRANCH   1   3
ATOM      3  C   UNL     1      51.439   2.124  21.198  1.00  0.00     0.230 C 
BRANCH   3   4
ATOM      4  N   UNL     1      52.045   2.308  22.526  1.00  0.00    -0.350 N 
ATOM      5  H   UNL     1      52.057   1.404  23.049  1.00  0.00     0.345 HD
ATOM      6  H   UNL     1      53.037   2.621  22.414  1.00  0.00     0.345 HD
ATOM      7  H   UNL     1      51.531   3.024  23.085  1.00  0.00     0.345 HD
ENDBRANCH   3   4
BRANCH   3   8
ATOM      8  C   UNL     1      52.382   2.574  20.109  1.00  0.00     0.099 C 
ATOM      9  O   UNL     1      51.926   3.119  19.069  1.00  0.00    -0.544 OA
ATOM     10  O   UNL     1      53.758   2.431  20.255  1.00  0.00    -0.544 OA
ENDBRANCH   3   8
ENDBRANCH   1   3
BRANCH   1  11
ATOM     11  C   UNL     1      49.794   3.870  22.182  1.00  0.00     0.006 C 
ATOM     12  C   UNL     1      49.224   5.184  21.645  1.00  0.00     0.004 C 
ENDBRANCH   1  11
TORSDOF 4
ENDMDL
MODEL 6
REMARK VINA RESULT:    -3.350      7.483      8.505
REMARK INTER + INTRA:          -4.105
REMARK INTER:                  -4.002
REMARK INTRA:                  -0.102
REMARK UNBOUND:                -0.069
REMARK SMILES CC[C@H](C)[C@H]([NH3+])C(=O)[O-]
REMARK SMILES IDX 3 1 4 2 5 3 6 4 7 8 8 9 9 10 2 11 1 12
REMARK H PARENT 6 5 6 6 6 7
REMARK Flexibility Score: inf
ROOT
ATOM      1  C   UNL     1      50.579   2.190  21.110  1.00  0.00     0.050 C 
ATOM      2  C   UNL     1      49.352   2.972  20.607  1.00  0.00     0.014 C 
ENDROOT
BRANCH   1   3
ATOM      3  C   UNL     1      50.901   2.545  22.595  1.00  0.00     0.230 C 
BRANCH   3   4
ATOM      4  N   UNL     1      52.233   2.082  23.017  1.00  0.00    -0.350 N 
ATOM      5  H   UNL     1      52.971   2.737  22.673  1.00  0.00     0.345 HD
ATOM      6  H   UNL     1      52.282   2.072  24.062  1.00  0.00     0.345 HD
ATOM      7  H   UNL     1      52.432   1.120  22.665  1.00  0.00     0.345 HD
ENDBRANCH   3   4
BRANCH   3   8
ATOM      8  C   UNL     1      49.831   2.021  23.522  1.00  0.00     0.099 C 
ATOM      9  O   UNL     1      49.214   2.815  24.281  1.00  0.00    -0.544 OA
ATOM     10  O   UNL     1      49.486   0.674  23.521  1.00  0.00    -0.544 OA
ENDBRANCH   3   8
ENDBRANCH   1   3
BRANCH   1  11
ATOM     11  C   UNL     1      51.794   2.382  20.167  1.00  0.00     0.006 C 
ATOM     12  C   UNL     1      51.580   3.503  19.148  1.00  0.00     0.004 C 
ENDBRANCH   1  11
TORSDOF 4
ENDMDL
MODEL 7
REMARK VINA RESULT:    -3.280     12.794     13.677
REMARK INTER + INTRA:          -4.020
REMARK INTER:                  -3.930
REMARK INTRA:                  -0.090
REMARK UNBOUND:                -0.069
REMARK SMILES CC[C@H](C)[C@H]([NH3+])C(=O)[O-]
REMARK SMILES IDX 3 1 4 2 5 3 6 4 7 8 8 9 9 10 2 11 1 12
REMARK H PARENT 6 5 6 6 6 7
REMARK Flexibility Score: inf
ROOT
ATOM      1  C   UNL     1      48.802   8.028  20.764  1.00  0.00     0.050 C 
ATOM      2  C   UNL     1      49.612   6.750  21.050  1.00  0.00     0.014 C 
ENDROOT
BRANCH   1   3
ATOM      3  C   UNL     1      47.272   7.722  20.712  1.00  0.00     0.230 C 
BRANCH   3   4
ATOM      4  N   UNL     1      46.626   8.250  19.500  1.00  0.00    -0.350 N 
ATOM      5  H   UNL     1      45.968   9.024  19.746  1.00  0.00     0.345 HD
ATOM      6  H   UNL     1      47.354   8.646  18.862  1.00  0.00     0.345 HD
ATOM      7  H   UNL     1      46.105   7.503  18.989  1.00  0.00     0.345 HD
ENDBRANCH   3   4
BRANCH   3   8
ATOM      8  C   UNL     1      46.577   8.223  21.955  1.00  0.00     0.099 C 
ATOM      9  O   UNL     1      45.412   7.827  22.226  1.00  0.00    -0.544 OA
ATOM     10  O   UNL     1      47.222   9.089  22.831  1.00  0.00    -0.544 OA
ENDBRANCH   3   8
ENDBRANCH   1   3
BRANCH   1  11
ATOM     11  C   UNL     1      49.316   8.746  19.491  1.00  0.00     0.006 C 
ATOM     12  C   UNL     1      50.694   8.250  19.048  1.00  0.00     0.004 C 
ENDBRANCH   1  11
TORSDOF 4
ENDMDL
MODEL 8
REMARK VINA RESULT:    -3.261      8.031      8.816
REMARK INTER + INTRA:          -3.997
REMARK INTER:                  -3.865
REMARK INTRA:                  -0.133
REMARK UNBOUND:                -0.069
REMARK SMILES CC[C@H](C)[C@H]([NH3+])C(=O)[O-]
REMARK SMILES IDX 3 1 4 2 5 3 6 4 7 8 8 9 9 10 2 11 1 12
REMARK H PARENT 6 5 6 6 6 7
REMARK Flexibility Score: inf
ROOT
ATOM      1  C   UNL     1      51.348   2.574  20.959  1.00  0.00     0.050 C 
ATOM      2  C   UNL     1      51.982   1.313  21.576  1.00  0.00     0.014 C 
ENDROOT
BRANCH   1   3
ATOM      3  C   UNL     1      49.845   2.699  21.358  1.00  0.00     0.230 C 
BRANCH   3   4
ATOM      4  N   UNL     1      48.933   2.464  20.227  1.00  0.00    -0.350 N 
ATOM      5  H   UNL     1      48.150   3.156  20.241  1.00  0.00     0.345 HD
ATOM      6  H   UNL     1      49.453   2.594  19.329  1.00  0.00     0.345 HD
ATOM      7  H   UNL     1      48.540   1.497  20.248  1.00  0.00     0.345 HD
ENDBRANCH   3   4
BRANCH   3   8
ATOM      8  C   UNL     1      49.566   4.033  22.006  1.00  0.00     0.099 C 
ATOM      9  O   UNL     1      49.948   4.250  23.187  1.00  0.00    -0.544 OA
ATOM     10  O   UNL     1      48.926   5.047  21.302  1.00  0.00    -0.544 OA
ENDBRANCH   3   8
ENDBRANCH   1   3
BRANCH   1  11
ATOM     11  C   UNL     1      51.571   2.621  19.425  1.00  0.00     0.006 C 
ATOM     12  C   UNL     1      51.876   4.031  18.916  1.00  0.00     0.004 C 
ENDBRANCH   1  11
TORSDOF 4
ENDMDL
MODEL 9
REMARK VINA RESULT:    -3.175      6.955      8.114
REMARK INTER + INTRA:          -3.894
REMARK INTER:                  -3.768
REMARK INTRA:                  -0.126
REMARK UNBOUND:                -0.069
REMARK SMILES CC[C@H](C)[C@H]([NH3+])C(=O)[O-]
REMARK SMILES IDX 3 1 4 2 5 3 6 4 7 8 8 9 9 10 2 11 1 12
REMARK H PARENT 6 5 6 6 6 7
REMARK Flexibility Score: inf
ROOT
ATOM      1  C   UNL     1      50.837   0.231  22.149  1.00  0.00     0.050 C 
ATOM      2  C   UNL     1      51.425  -1.171  22.394  1.00  0.00     0.014 C 
ENDROOT
BRANCH   1   3
ATOM      3  C   UNL     1      51.963   1.263  21.826  1.00  0.00     0.230 C 
BRANCH   3   4
ATOM      4  N   UNL     1      52.224   2.189  22.940  1.00  0.00    -0.350 N 
ATOM      5  H   UNL     1      51.431   2.859  23.050  1.00  0.00     0.345 HD
ATOM      6  H   UNL     1      52.304   1.646  23.831  1.00  0.00     0.345 HD
ATOM      7  H   UNL     1      53.110   2.721  22.794  1.00  0.00     0.345 HD
ENDBRANCH   3   4
BRANCH   3   8
ATOM      8  C   UNL     1      51.656   2.021  20.558  1.00  0.00     0.099 C 
ATOM      9  O   UNL     1      50.512   2.519  20.384  1.00  0.00    -0.544 OA
ATOM     10  O   UNL     1      52.635   2.214  19.590  1.00  0.00    -0.544 OA
ENDBRANCH   3   8
ENDBRANCH   1   3
BRANCH   1  11
ATOM     11  C   UNL     1      49.932   0.674  23.326  1.00  0.00     0.006 C 
ATOM     12  C   UNL     1      48.458   0.780  22.932  1.00  0.00     0.004 C 
ENDBRANCH   1  11
TORSDOF 4
ENDMDL
