MODEL 1
REMARK VINA RESULT:    -3.495      0.000      0.000
REMARK INTER + INTRA:          -8.392
REMARK INTER:                  -6.151
REMARK INTRA:                  -2.241
REMARK UNBOUND:                -2.241
REMARK SMILES CCCCCCCCCCCCCCC(=O)[O-]
REMARK SMILES IDX 9 1 10 2 11 3 12 4 13 5 14 6 15 7 16 8 17 9 8 10 7 11 6 12
REMARK SMILES IDX 5 13 4 14 3 15 2 16 1 17
REMARK H PARENT
REMARK Flexibility Score: inf
ROOT
ATOM      1  C   UNL     1       1.644 125.514 113.025  1.00  0.00     0.000 C 
ENDROOT
BRANCH   1   2
ATOM      2  C   UNL     1       2.480 124.473 112.263  1.00  0.00     0.000 C 
BRANCH   2   3
ATOM      3  C   UNL     1       3.303 125.093 111.120  1.00  0.00     0.000 C 
BRANCH   3   4
ATOM      4  C   UNL     1       4.766 124.624 111.123  1.00  0.00     0.000 C 
BRANCH   4   5
ATOM      5  C   UNL     1       5.071 123.646 112.272  1.00  0.00     0.006 C 
BRANCH   5   6
ATOM      6  C   UNL     1       6.133 124.196 113.234  1.00  0.00     0.053 C 
BRANCH   6   7
ATOM      7  C   UNL     1       7.505 124.144 112.635  1.00  0.00     0.041 C 
ATOM      8  O   UNL     1       8.224 123.121 112.785  1.00  0.00    -0.550 OA
ATOM      9  O   UNL     1       7.979 125.215 111.888  1.00  0.00    -0.550 OA
ENDBRANCH   6   7
ENDBRANCH   5   6
ENDBRANCH   4   5
ENDBRANCH   3   4
ENDBRANCH   2   3
ENDBRANCH   1   2
BRANCH   1  10
ATOM     10  C   UNL     1       2.250 125.867 114.396  1.00  0.00     0.000 C 
BRANCH  10  11
ATOM     11  C   UNL     1       2.890 127.265 114.416  1.00  0.00    -0.000 C 
BRANCH  11  12
ATOM     12  C   UNL     1       4.359 127.247 113.957  1.00  0.00    -0.000 C 
BRANCH  12  13
ATOM     13  C   UNL     1       4.616 128.183 112.764  1.00  0.00    -0.000 C 
BRANCH  13  14
ATOM     14  C   UNL     1       3.567 129.298 112.645  1.00  0.00    -0.000 C 
BRANCH  14  15
ATOM     15  C   UNL     1       2.955 129.327 111.240  1.00  0.00    -0.000 C 
BRANCH  15  16
ATOM     16  C   UNL     1       1.525 128.773 111.250  1.00  0.00    -0.003 C 
ATOM     17  C   UNL     1       1.262 127.904 110.025  1.00  0.00     0.004 C 
ENDBRANCH  15  16
ENDBRANCH  14  15
ENDBRANCH  13  14
ENDBRANCH  12  13
ENDBRANCH  11  12
ENDBRANCH  10  11
ENDBRANCH   1  10
TORSDOF 13
ENDMDL
MODEL 2
REMARK VINA RESULT:    -3.471      1.232      2.598
REMARK INTER + INTRA:          -8.349
REMARK INTER:                  -6.298
REMARK INTRA:                  -2.051
REMARK UNBOUND:                -2.241
REMARK SMILES CCCCCCCCCCCCCCC(=O)[O-]
REMARK SMILES IDX 9 1 10 2 11 3 12 4 13 5 14 6 15 7 16 8 17 9 8 10 7 11 6 12
REMARK SMILES IDX 5 13 4 14 3 15 2 16 1 17
REMARK H PARENT
REMARK Flexibility Score: inf
ROOT
ATOM      1  C   UNL     1       2.602 125.171 113.651  1.00  0.00     0.000 C 
ENDROOT
BRANCH   1   2
ATOM      2  C   UNL     1       3.711 124.424 112.892  1.00  0.00     0.000 C 
BRANCH   2   3
ATOM      3  C   UNL     1       3.651 124.656 111.372  1.00  0.00     0.000 C 
BRANCH   3   4
ATOM      4  C   UNL     1       4.756 125.600 110.874  1.00  0.00     0.000 C 
BRANCH   4   5
ATOM      5  C   UNL     1       5.927 125.716 111.867  1.00  0.00     0.006 C 
BRANCH   5   6
ATOM      6  C   UNL     1       7.227 125.128 111.301  1.00  0.00     0.053 C 
BRANCH   6   7
ATOM      7  C   UNL     1       7.383 123.682 111.657  1.00  0.00     0.041 C 
ATOM      8  O   UNL     1       6.768 122.798 111.004  1.00  0.00    -0.550 OA
ATOM      9  O   UNL     1       8.231 123.308 112.691  1.00  0.00    -0.550 OA
ENDBRANCH   6   7
ENDBRANCH   5   6
ENDBRANCH   4   5
ENDBRANCH   3   4
ENDBRANCH   2   3
ENDBRANCH   1   2
BRANCH   1  10
ATOM     10  C   UNL     1       1.461 125.630 112.725  1.00  0.00     0.000 C 
BRANCH  10  11
ATOM     11  C   UNL     1       1.132 127.123 112.889  1.00  0.00    -0.000 C 
BRANCH  11  12
ATOM     12  C   UNL     1       0.779 127.799 111.553  1.00  0.00    -0.000 C 
BRANCH  12  13
ATOM     13  C   UNL     1       1.533 129.123 111.344  1.00  0.00    -0.000 C 
BRANCH  13  14
ATOM     14  C   UNL     1       3.057 128.941 111.311  1.00  0.00    -0.000 C 
BRANCH  14  15
ATOM     15  C   UNL     1       3.727 129.713 112.454  1.00  0.00    -0.000 C 
BRANCH  15  16
ATOM     16  C   UNL     1       4.715 128.822 113.216  1.00  0.00    -0.003 C 
ATOM     17  C   UNL     1       4.162 128.429 114.583  1.00  0.00     0.004 C 
ENDBRANCH  15  16
ENDBRANCH  14  15
ENDBRANCH  13  14
ENDBRANCH  12  13
ENDBRANCH  11  12
ENDBRANCH  10  11
ENDBRANCH   1  10
TORSDOF 13
ENDMDL
MODEL 3
REMARK VINA RESULT:    -3.464      1.293      2.384
REMARK INTER + INTRA:          -8.337
REMARK INTER:                  -6.357
REMARK INTRA:                  -1.980
REMARK UNBOUND:                -2.241
REMARK SMILES CCCCCCCCCCCCCCC(=O)[O-]
REMARK SMILES IDX 9 1 10 2 11 3 12 4 13 5 14 6 15 7 16 8 17 9 8 10 7 11 6 12
REMARK SMILES IDX 5 13 4 14 3 15 2 16 1 17
REMARK H PARENT
REMARK Flexibility Score: inf
ROOT
ATOM      1  C   UNL     1       3.721 125.390 114.502  1.00  0.00     0.000 C 
ENDROOT
BRANCH   1   2
ATOM      2  C   UNL     1       3.490 123.920 114.115  1.00  0.00     0.000 C 
BRANCH   2   3
ATOM      3  C   UNL     1       4.799 123.175 113.803  1.00  0.00     0.000 C 
BRANCH   3   4
ATOM      4  C   UNL     1       4.984 122.910 112.300  1.00  0.00     0.000 C 
BRANCH   4   5
ATOM      5  C   UNL     1       5.690 124.072 111.578  1.00  0.00     0.006 C 
BRANCH   5   6
ATOM      6  C   UNL     1       6.777 124.718 112.447  1.00  0.00     0.053 C 
BRANCH   6   7
ATOM      7  C   UNL     1       8.117 124.088 112.221  1.00  0.00     0.041 C 
ATOM      8  O   UNL     1       8.911 124.573 111.373  1.00  0.00    -0.550 OA
ATOM      9  O   UNL     1       8.499 122.981 112.968  1.00  0.00    -0.550 OA
ENDBRANCH   6   7
ENDBRANCH   5   6
ENDBRANCH   4   5
ENDBRANCH   3   4
ENDBRANCH   2   3
ENDBRANCH   1   2
BRANCH   1  10
ATOM     10  C   UNL     1       2.952 126.366 113.594  1.00  0.00     0.000 C 
BRANCH  10  11
ATOM     11  C   UNL     1       1.860 125.667 112.766  1.00  0.00    -0.000 C 
BRANCH  11  12
ATOM     12  C   UNL     1       2.225 125.565 111.275  1.00  0.00    -0.000 C 
BRANCH  12  13
ATOM     13  C   UNL     1       3.202 126.667 110.830  1.00  0.00    -0.000 C 
BRANCH  13  14
ATOM     14  C   UNL     1       2.533 127.737 109.954  1.00  0.00    -0.000 C 
BRANCH  14  15
ATOM     15  C   UNL     1       2.512 129.095 110.666  1.00  0.00    -0.000 C 
BRANCH  15  16
ATOM     16  C   UNL     1       1.244 129.252 111.515  1.00  0.00    -0.003 C 
ATOM     17  C   UNL     1       1.576 129.771 112.910  1.00  0.00     0.004 C 
ENDBRANCH  15  16
ENDBRANCH  14  15
ENDBRANCH  13  14
ENDBRANCH  12  13
ENDBRANCH  11  12
ENDBRANCH  10  11
ENDBRANCH   1  10
TORSDOF 13
ENDMDL
MODEL 4
REMARK VINA RESULT:    -3.445      1.051      2.940
REMARK INTER + INTRA:          -8.305
REMARK INTER:                  -5.970
REMARK INTRA:                  -2.334
REMARK UNBOUND:                -2.241
REMARK SMILES CCCCCCCCCCCCCCC(=O)[O-]
REMARK SMILES IDX 9 1 10 2 11 3 12 4 13 5 14 6 15 7 16 8 17 9 8 10 7 11 6 12
REMARK SMILES IDX 5 13 4 14 3 15 2 16 1 17
REMARK H PARENT
REMARK Flexibility Score: inf
ROOT
ATOM      1  C   UNL     1       1.163 127.535 111.596  1.00  0.00     0.000 C 
ENDROOT
BRANCH   1   2
ATOM      2  C   UNL     1       2.051 126.861 110.537  1.00  0.00     0.000 C 
BRANCH   2   3
ATOM      3  C   UNL     1       2.615 125.509 111.008  1.00  0.00     0.000 C 
BRANCH   3   4
ATOM      4  C   UNL     1       4.040 125.251 110.494  1.00  0.00     0.000 C 
BRANCH   4   5
ATOM      5  C   UNL     1       4.848 124.333 111.429  1.00  0.00     0.006 C 
BRANCH   5   6
ATOM      6  C   UNL     1       6.356 124.407 111.151  1.00  0.00     0.053 C 
BRANCH   6   7
ATOM      7  C   UNL     1       7.160 124.267 112.408  1.00  0.00     0.041 C 
ATOM      8  O   UNL     1       7.061 125.127 113.323  1.00  0.00    -0.550 OA
ATOM      9  O   UNL     1       7.996 123.172 112.580  1.00  0.00    -0.550 OA
ENDBRANCH   6   7
ENDBRANCH   5   6
ENDBRANCH   4   5
ENDBRANCH   3   4
ENDBRANCH   2   3
ENDBRANCH   1   2
BRANCH   1  10
ATOM     10  C   UNL     1       1.550 129.004 111.840  1.00  0.00     0.000 C 
BRANCH  10  11
ATOM     11  C   UNL     1       3.006 129.305 111.448  1.00  0.00    -0.000 C 
BRANCH  11  12
ATOM     12  C   UNL     1       3.941 129.380 112.668  1.00  0.00    -0.000 C 
BRANCH  12  13
ATOM     13  C   UNL     1       4.707 128.068 112.905  1.00  0.00    -0.000 C 
BRANCH  13  14
ATOM     14  C   UNL     1       4.561 127.545 114.342  1.00  0.00    -0.000 C 
BRANCH  14  15
ATOM     15  C   UNL     1       3.801 126.214 114.367  1.00  0.00    -0.000 C 
BRANCH  15  16
ATOM     16  C   UNL     1       2.351 126.416 114.822  1.00  0.00    -0.003 C 
ATOM     17  C   UNL     1       2.177 127.755 115.533  1.00  0.00     0.004 C 
ENDBRANCH  15  16
ENDBRANCH  14  15
ENDBRANCH  13  14
ENDBRANCH  12  13
ENDBRANCH  11  12
ENDBRANCH  10  11
ENDBRANCH   1  10
TORSDOF 13
ENDMDL
MODEL 5
REMARK VINA RESULT:    -3.444      2.841      5.508
REMARK INTER + INTRA:          -8.303
REMARK INTER:                  -6.652
REMARK INTRA:                  -1.651
REMARK UNBOUND:                -2.241
REMARK SMILES CCCCCCCCCCCCCCC(=O)[O-]
REMARK SMILES IDX 9 1 10 2 11 3 12 4 13 5 14 6 15 7 16 8 17 9 8 10 7 11 6 12
REMARK SMILES IDX 5 13 4 14 3 15 2 16 1 17
REMARK H PARENT
REMARK Flexibility Score: inf
ROOT
ATOM      1  C   UNL     1       1.824 128.850 112.329  1.00  0.00     0.000 C 
ENDROOT
BRANCH   1   2
ATOM      2  C   UNL     1       2.705 128.756 113.586  1.00  0.00     0.000 C 
BRANCH   2   3
ATOM      3  C   UNL     1       3.927 127.842 113.388  1.00  0.00     0.000 C 
BRANCH   3   4
ATOM      4  C   UNL     1       5.236 128.493 113.863  1.00  0.00     0.000 C 
BRANCH   4   5
ATOM      5  C   UNL     1       5.432 129.909 113.292  1.00  0.00     0.006 C 
BRANCH   5   6
ATOM      6  C   UNL     1       5.753 130.935 114.389  1.00  0.00     0.053 C 
BRANCH   6   7
ATOM      7  C   UNL     1       7.218 130.977 114.698  1.00  0.00     0.041 C 
ATOM      8  O   UNL     1       8.063 130.701 113.806  1.00  0.00    -0.550 OA
ATOM      9  O   UNL     1       7.651 131.348 115.964  1.00  0.00    -0.550 OA
ENDBRANCH   6   7
ENDBRANCH   5   6
ENDBRANCH   4   5
ENDBRANCH   3   4
ENDBRANCH   2   3
ENDBRANCH   1   2
BRANCH   1  10
ATOM     10  C   UNL     1       2.621 129.268 111.081  1.00  0.00     0.000 C 
BRANCH  10  11
ATOM     11  C   UNL     1       2.354 128.352 109.875  1.00  0.00    -0.000 C 
BRANCH  11  12
ATOM     12  C   UNL     1       2.113 126.890 110.288  1.00  0.00    -0.000 C 
BRANCH  12  13
ATOM     13  C   UNL     1       3.397 126.045 110.244  1.00  0.00    -0.000 C 
BRANCH  13  14
ATOM     14  C   UNL     1       3.340 124.826 111.177  1.00  0.00    -0.000 C 
BRANCH  14  15
ATOM     15  C   UNL     1       4.747 124.290 111.466  1.00  0.00    -0.000 C 
BRANCH  15  16
ATOM     16  C   UNL     1       5.814 125.127 110.751  1.00  0.00    -0.003 C 
ATOM     17  C   UNL     1       6.804 125.725 111.745  1.00  0.00     0.004 C 
ENDBRANCH  15  16
ENDBRANCH  14  15
ENDBRANCH  13  14
ENDBRANCH  12  13
ENDBRANCH  11  12
ENDBRANCH  10  11
ENDBRANCH   1  10
TORSDOF 13
ENDMDL
MODEL 6
REMARK VINA RESULT:    -3.410      3.052      5.624
REMARK INTER + INTRA:          -8.243
REMARK INTER:                  -6.866
REMARK INTRA:                  -1.377
REMARK UNBOUND:                -2.241
REMARK SMILES CCCCCCCCCCCCCCC(=O)[O-]
REMARK SMILES IDX 9 1 10 2 11 3 12 4 13 5 14 6 15 7 16 8 17 9 8 10 7 11 6 12
REMARK SMILES IDX 5 13 4 14 3 15 2 16 1 17
REMARK H PARENT
REMARK Flexibility Score: inf
ROOT
ATOM      1  C   UNL     1       2.640 125.630 110.637  1.00  0.00     0.000 C 
ENDROOT
BRANCH   1   2
ATOM      2  C   UNL     1       1.909 126.976 110.770  1.00  0.00     0.000 C 
BRANCH   2   3
ATOM      3  C   UNL     1       1.290 127.181 112.164  1.00  0.00     0.000 C 
BRANCH   3   4
ATOM      4  C   UNL     1       2.233 127.919 113.127  1.00  0.00     0.000 C 
BRANCH   4   5
ATOM      5  C   UNL     1       3.230 128.833 112.392  1.00  0.00     0.006 C 
BRANCH   5   6
ATOM      6  C   UNL     1       4.623 128.806 113.037  1.00  0.00     0.053 C 
BRANCH   6   7
ATOM      7  C   UNL     1       5.095 130.181 113.398  1.00  0.00     0.041 C 
ATOM      8  O   UNL     1       4.267 131.067 113.738  1.00  0.00    -0.550 OA
ATOM      9  O   UNL     1       6.452 130.476 113.385  1.00  0.00    -0.550 OA
ENDBRANCH   6   7
ENDBRANCH   5   6
ENDBRANCH   4   5
ENDBRANCH   3   4
ENDBRANCH   2   3
ENDBRANCH   1   2
BRANCH   1  10
ATOM     10  C   UNL     1       4.128 125.800 110.283  1.00  0.00     0.000 C 
BRANCH  10  11
ATOM     11  C   UNL     1       5.057 125.459 111.460  1.00  0.00    -0.000 C 
BRANCH  11  12
ATOM     12  C   UNL     1       5.328 123.949 111.579  1.00  0.00    -0.000 C 
BRANCH  12  13
ATOM     13  C   UNL     1       6.691 123.546 110.992  1.00  0.00    -0.000 C 
BRANCH  13  14
ATOM     14  C   UNL     1       7.607 124.751 110.732  1.00  0.00    -0.000 C 
BRANCH  14  15
ATOM     15  C   UNL     1       8.112 124.754 109.284  1.00  0.00    -0.000 C 
BRANCH  15  16
ATOM     16  C   UNL     1       7.033 125.271 108.326  1.00  0.00    -0.003 C 
ATOM     17  C   UNL     1       7.369 124.925 106.879  1.00  0.00     0.004 C 
ENDBRANCH  15  16
ENDBRANCH  14  15
ENDBRANCH  13  14
ENDBRANCH  12  13
ENDBRANCH  11  12
ENDBRANCH  10  11
ENDBRANCH   1  10
TORSDOF 13
ENDMDL
MODEL 7
REMARK VINA RESULT:    -3.384      1.239      3.176
REMARK INTER + INTRA:          -8.197
REMARK INTER:                  -6.093
REMARK INTRA:                  -2.104
REMARK UNBOUND:                -2.241
REMARK SMILES CCCCCCCCCCCCCCC(=O)[O-]
REMARK SMILES IDX 9 1 10 2 11 3 12 4 13 5 14 6 15 7 16 8 17 9 8 10 7 11 6 12
REMARK SMILES IDX 5 13 4 14 3 15 2 16 1 17
REMARK H PARENT
REMARK Flexibility Score: inf
ROOT
ATOM      1  C   UNL     1       1.652 128.182 109.895  1.00  0.00     0.000 C 
ENDROOT
BRANCH   1   2
ATOM      2  C   UNL     1       2.756 127.159 110.207  1.00  0.00     0.000 C 
BRANCH   2   3
ATOM      3  C   UNL     1       2.228 125.923 110.955  1.00  0.00     0.000 C 
BRANCH   3   4
ATOM      4  C   UNL     1       3.219 124.749 110.932  1.00  0.00     0.000 C 
BRANCH   4   5
ATOM      5  C   UNL     1       4.681 125.207 111.077  1.00  0.00     0.006 C 
BRANCH   5   6
ATOM      6  C   UNL     1       5.464 124.337 112.071  1.00  0.00     0.053 C 
BRANCH   6   7
ATOM      7  C   UNL     1       6.943 124.523 111.925  1.00  0.00     0.041 C 
ATOM      8  O   UNL     1       7.437 125.681 111.892  1.00  0.00    -0.550 OA
ATOM      9  O   UNL     1       7.779 123.416 111.855  1.00  0.00    -0.550 OA
ENDBRANCH   6   7
ENDBRANCH   5   6
ENDBRANCH   4   5
ENDBRANCH   3   4
ENDBRANCH   2   3
ENDBRANCH   1   2
BRANCH   1  10
ATOM     10  C   UNL     1       0.552 128.208 110.971  1.00  0.00     0.000 C 
BRANCH  10  11
ATOM     11  C   UNL     1       0.583 129.493 111.816  1.00  0.00    -0.000 C 
BRANCH  11  12
ATOM     12  C   UNL     1       0.184 129.244 113.281  1.00  0.00    -0.000 C 
BRANCH  12  13
ATOM     13  C   UNL     1       1.019 128.132 113.939  1.00  0.00    -0.000 C 
BRANCH  13  14
ATOM     14  C   UNL     1       2.409 128.613 114.379  1.00  0.00    -0.000 C 
BRANCH  14  15
ATOM     15  C   UNL     1       3.502 127.654 113.893  1.00  0.00    -0.000 C 
BRANCH  15  16
ATOM     16  C   UNL     1       4.549 128.393 113.052  1.00  0.00    -0.003 C 
ATOM     17  C   UNL     1       4.144 129.844 112.816  1.00  0.00     0.004 C 
ENDBRANCH  15  16
ENDBRANCH  14  15
ENDBRANCH  13  14
ENDBRANCH  12  13
ENDBRANCH  11  12
ENDBRANCH  10  11
ENDBRANCH   1  10
TORSDOF 13
ENDMDL
MODEL 8
REMARK VINA RESULT:    -3.382      3.024      5.796
REMARK INTER + INTRA:          -8.194
REMARK INTER:                  -6.553
REMARK INTRA:                  -1.641
REMARK UNBOUND:                -2.241
REMARK SMILES CCCCCCCCCCCCCCC(=O)[O-]
REMARK SMILES IDX 9 1 10 2 11 3 12 4 13 5 14 6 15 7 16 8 17 9 8 10 7 11 6 12
REMARK SMILES IDX 5 13 4 14 3 15 2 16 1 17
REMARK H PARENT
REMARK Flexibility Score: inf
ROOT
ATOM      1  C   UNL     1       4.029 126.268 112.981  1.00  0.00     0.000 C 
ENDROOT
BRANCH   1   2
ATOM      2  C   UNL     1       5.286 126.992 113.490  1.00  0.00     0.000 C 
BRANCH   2   3
ATOM      3  C   UNL     1       5.076 127.651 114.864  1.00  0.00     0.000 C 
BRANCH   3   4
ATOM      4  C   UNL     1       4.176 128.895 114.793  1.00  0.00     0.000 C 
BRANCH   4   5
ATOM      5  C   UNL     1       4.975 130.208 114.877  1.00  0.00     0.006 C 
BRANCH   5   6
ATOM      6  C   UNL     1       5.810 130.459 113.613  1.00  0.00     0.053 C 
BRANCH   6   7
ATOM      7  C   UNL     1       7.277 130.496 113.914  1.00  0.00     0.041 C 
ATOM      8  O   UNL     1       8.109 130.698 112.991  1.00  0.00    -0.550 OA
ATOM      9  O   UNL     1       7.723 130.334 115.219  1.00  0.00    -0.550 OA
ENDBRANCH   6   7
ENDBRANCH   5   6
ENDBRANCH   4   5
ENDBRANCH   3   4
ENDBRANCH   2   3
ENDBRANCH   1   2
BRANCH   1  10
ATOM     10  C   UNL     1       3.930 126.268 111.445  1.00  0.00     0.000 C 
BRANCH  10  11
ATOM     11  C   UNL     1       3.992 124.851 110.849  1.00  0.00    -0.000 C 
BRANCH  11  12
ATOM     12  C   UNL     1       4.266 123.775 111.915  1.00  0.00    -0.000 C 
BRANCH  12  13
ATOM     13  C   UNL     1       5.627 123.086 111.720  1.00  0.00    -0.000 C 
BRANCH  13  14
ATOM     14  C   UNL     1       6.724 123.667 112.624  1.00  0.00    -0.000 C 
BRANCH  14  15
ATOM     15  C   UNL     1       7.941 124.103 111.799  1.00  0.00    -0.000 C 
BRANCH  15  16
ATOM     16  C   UNL     1       7.666 125.422 111.067  1.00  0.00    -0.003 C 
ATOM     17  C   UNL     1       7.656 125.222 109.555  1.00  0.00     0.004 C 
ENDBRANCH  15  16
ENDBRANCH  14  15
ENDBRANCH  13  14
ENDBRANCH  12  13
ENDBRANCH  11  12
ENDBRANCH  10  11
ENDBRANCH   1  10
TORSDOF 13
ENDMDL
MODEL 9
REMARK VINA RESULT:    -3.378      2.000      3.091
REMARK INTER + INTRA:          -8.187
REMARK INTER:                  -6.164
REMARK INTRA:                  -2.023
REMARK UNBOUND:                -2.241
REMARK SMILES CCCCCCCCCCCCCCC(=O)[O-]
REMARK SMILES IDX 9 1 10 2 11 3 12 4 13 5 14 6 15 7 16 8 17 9 8 10 7 11 6 12
REMARK SMILES IDX 5 13 4 14 3 15 2 16 1 17
REMARK H PARENT
REMARK Flexibility Score: inf
ROOT
ATOM      1  C   UNL     1       2.673 122.463 114.492  1.00  0.00     0.000 C 
ENDROOT
BRANCH   1   2
ATOM      2  C   UNL     1       3.840 121.872 113.684  1.00  0.00     0.000 C 
BRANCH   2   3
ATOM      3  C   UNL     1       4.747 122.954 113.072  1.00  0.00     0.000 C 
BRANCH   3   4
ATOM      4  C   UNL     1       5.354 123.886 114.133  1.00  0.00     0.000 C 
BRANCH   4   5
ATOM      5  C   UNL     1       6.578 124.659 113.608  1.00  0.00     0.006 C 
BRANCH   5   6
ATOM      6  C   UNL     1       7.389 123.840 112.595  1.00  0.00     0.053 C 
BRANCH   6   7
ATOM      7  C   UNL     1       7.657 124.616 111.342  1.00  0.00     0.041 C 
ATOM      8  O   UNL     1       7.672 124.034 110.225  1.00  0.00    -0.550 OA
ATOM      9  O   UNL     1       7.863 125.988 111.404  1.00  0.00    -0.550 OA
ENDBRANCH   6   7
ENDBRANCH   5   6
ENDBRANCH   4   5
ENDBRANCH   3   4
ENDBRANCH   2   3
ENDBRANCH   1   2
BRANCH   1  10
ATOM     10  C   UNL     1       1.431 122.731 113.623  1.00  0.00     0.000 C 
BRANCH  10  11
ATOM     11  C   UNL     1       0.739 124.059 113.975  1.00  0.00    -0.000 C 
BRANCH  11  12
ATOM     12  C   UNL     1       1.713 125.090 114.572  1.00  0.00    -0.000 C 
BRANCH  12  13
ATOM     13  C   UNL     1       2.393 125.952 113.495  1.00  0.00    -0.000 C 
BRANCH  13  14
ATOM     14  C   UNL     1       1.401 126.500 112.459  1.00  0.00    -0.000 C 
BRANCH  14  15
ATOM     15  C   UNL     1       1.959 126.360 111.037  1.00  0.00    -0.000 C 
BRANCH  15  16
ATOM     16  C   UNL     1       2.785 125.076 110.894  1.00  0.00    -0.003 C 
ATOM     17  C   UNL     1       4.124 125.355 110.219  1.00  0.00     0.004 C 
ENDBRANCH  15  16
ENDBRANCH  14  15
ENDBRANCH  13  14
ENDBRANCH  12  13
ENDBRANCH  11  12
ENDBRANCH  10  11
ENDBRANCH   1  10
TORSDOF 13
ENDMDL
