MODEL 1
REMARK VINA RESULT:    -5.247      0.000      0.000
REMARK INTER + INTRA:          -5.401
REMARK INTER:                  -5.401
REMARK INTRA:                   0.000
REMARK UNBOUND:                 0.000
REMARK SMILES Oc1ccc2[nH]ccc2c1
REMARK SMILES IDX 3 1 4 2 5 3 9 4 8 5 7 6 6 7 10 8 2 9 1 11
REMARK H PARENT 6 10 1 12
REMARK Flexibility Score: inf
ROOT
ATOM      1  C   UNL     1      33.752   3.228  19.327  1.00  0.00     0.048 A 
ATOM      2  C   UNL     1      34.374   2.453  18.331  1.00  0.00     0.030 A 
ATOM      3  C   UNL     1      35.549   1.782  18.667  1.00  0.00     0.046 A 
ATOM      4  C   UNL     1      36.093   1.866  19.921  1.00  0.00     0.003 A 
ATOM      5  C   UNL     1      37.236   1.098  19.927  1.00  0.00     0.028 A 
ATOM      6  C   UNL     1      37.329   0.576  18.641  1.00  0.00     0.083 A 
ATOM      7  N   UNL     1      36.296   0.997  17.875  1.00  0.00    -0.361 N 
ATOM      8  C   UNL     1      35.502   2.624  20.931  1.00  0.00     0.056 A 
ATOM      9  C   UNL     1      34.311   3.316  20.624  1.00  0.00     0.116 A 
ATOM     10  H   UNL     1      36.120   0.758  16.874  1.00  0.00     0.166 HD
ENDROOT
BRANCH   9  11
ATOM     11  O   UNL     1      33.676   4.091  21.592  1.00  0.00    -0.508 OA
ATOM     12  H   UNL     1      33.913   5.066  21.729  1.00  0.00     0.293 HD
ENDBRANCH   9  11
TORSDOF 1
ENDMDL
MODEL 2
REMARK VINA RESULT:    -4.715      2.557      3.756
REMARK INTER + INTRA:          -4.852
REMARK INTER:                  -4.852
REMARK INTRA:                   0.000
REMARK UNBOUND:                 0.000
REMARK SMILES Oc1ccc2[nH]ccc2c1
REMARK SMILES IDX 3 1 4 2 5 3 9 4 8 5 7 6 6 7 10 8 2 9 1 11
REMARK H PARENT 6 10 1 12
REMARK Flexibility Score: inf
ROOT
ATOM      1  C   UNL     1      38.342   1.559  20.162  1.00  0.00     0.048 A 
ATOM      2  C   UNL     1      37.083   1.035  19.815  1.00  0.00     0.030 A 
ATOM      3  C   UNL     1      36.230   1.838  19.059  1.00  0.00     0.046 A 
ATOM      4  C   UNL     1      36.591   3.098  18.661  1.00  0.00     0.003 A 
ATOM      5  C   UNL     1      35.540   3.619  17.939  1.00  0.00     0.028 A 
ATOM      6  C   UNL     1      34.570   2.622  17.939  1.00  0.00     0.083 A 
ATOM      7  N   UNL     1      34.996   1.536  18.625  1.00  0.00    -0.361 N 
ATOM      8  C   UNL     1      37.831   3.646  18.987  1.00  0.00     0.056 A 
ATOM      9  C   UNL     1      38.718   2.860  19.752  1.00  0.00     0.116 A 
ATOM     10  H   UNL     1      34.470   0.648  18.781  1.00  0.00     0.166 HD
ENDROOT
BRANCH   9  11
ATOM     11  O   UNL     1      39.970   3.355  20.109  1.00  0.00    -0.508 OA
ATOM     12  H   UNL     1      40.506   2.943  20.864  1.00  0.00     0.293 HD
ENDBRANCH   9  11
TORSDOF 1
ENDMDL
MODEL 3
REMARK VINA RESULT:    -4.681      3.117      3.751
REMARK INTER + INTRA:          -4.818
REMARK INTER:                  -4.818
REMARK INTRA:                   0.000
REMARK UNBOUND:                 0.000
REMARK SMILES Oc1ccc2[nH]ccc2c1
REMARK SMILES IDX 3 1 4 2 5 3 9 4 8 5 7 6 6 7 10 8 2 9 1 11
REMARK H PARENT 6 10 1 12
REMARK Flexibility Score: inf
ROOT
ATOM      1  C   UNL     1      35.507   1.644  18.977  1.00  0.00     0.048 A 
ATOM      2  C   UNL     1      35.296   2.928  19.511  1.00  0.00     0.030 A 
ATOM      3  C   UNL     1      36.418   3.688  19.839  1.00  0.00     0.046 A 
ATOM      4  C   UNL     1      37.689   3.213  19.654  1.00  0.00     0.003 A 
ATOM      5  C   UNL     1      38.560   4.195  20.071  1.00  0.00     0.028 A 
ATOM      6  C   UNL     1      37.750   5.242  20.501  1.00  0.00     0.083 A 
ATOM      7  N   UNL     1      36.442   4.927  20.356  1.00  0.00    -0.361 N 
ATOM      8  C   UNL     1      37.932   1.946  19.127  1.00  0.00     0.056 A 
ATOM      9  C   UNL     1      36.818   1.150  18.784  1.00  0.00     0.116 A 
ATOM     10  H   UNL     1      35.623   5.527  20.599  1.00  0.00     0.166 HD
ENDROOT
BRANCH   9  11
ATOM     11  O   UNL     1      36.999  -0.125  18.254  1.00  0.00    -0.508 OA
ATOM     12  H   UNL     1      37.499  -0.270  17.385  1.00  0.00     0.293 HD
ENDBRANCH   9  11
TORSDOF 1
ENDMDL
MODEL 4
REMARK VINA RESULT:    -4.461      1.198      1.198
REMARK INTER + INTRA:          -4.592
REMARK INTER:                  -4.592
REMARK INTRA:                   0.000
REMARK UNBOUND:                 0.000
REMARK SMILES Oc1ccc2[nH]ccc2c1
REMARK SMILES IDX 3 1 4 2 5 3 9 4 8 5 7 6 6 7 10 8 2 9 1 11
REMARK H PARENT 6 10 1 12
REMARK Flexibility Score: inf
ROOT
ATOM      1  C   UNL     1      34.431   3.928  18.463  1.00  0.00     0.048 A 
ATOM      2  C   UNL     1      34.785   2.700  17.876  1.00  0.00     0.030 A 
ATOM      3  C   UNL     1      35.848   1.993  18.438  1.00  0.00     0.046 A 
ATOM      4  C   UNL     1      36.534   2.467  19.525  1.00  0.00     0.003 A 
ATOM      5  C   UNL     1      37.511   1.545  19.829  1.00  0.00     0.028 A 
ATOM      6  C   UNL     1      37.363   0.534  18.885  1.00  0.00     0.083 A 
ATOM      7  N   UNL     1      36.346   0.813  18.037  1.00  0.00    -0.361 N 
ATOM      8  C   UNL     1      36.207   3.679  20.130  1.00  0.00     0.056 A 
ATOM      9  C   UNL     1      35.137   4.420  19.586  1.00  0.00     0.116 A 
ATOM     10  H   UNL     1      36.019   0.227  17.237  1.00  0.00     0.166 HD
ENDROOT
BRANCH   9  11
ATOM     11  O   UNL     1      34.766   5.639  20.148  1.00  0.00    -0.508 OA
ATOM     12  H   UNL     1      33.983   5.710  20.788  1.00  0.00     0.293 HD
ENDBRANCH   9  11
TORSDOF 1
ENDMDL
MODEL 5
REMARK VINA RESULT:    -4.432      2.967      3.697
REMARK INTER + INTRA:          -4.562
REMARK INTER:                  -4.562
REMARK INTRA:                   0.000
REMARK UNBOUND:                 0.000
REMARK SMILES Oc1ccc2[nH]ccc2c1
REMARK SMILES IDX 3 1 4 2 5 3 9 4 8 5 7 6 6 7 10 8 2 9 1 11
REMARK H PARENT 6 10 1 12
REMARK Flexibility Score: inf
ROOT
ATOM      1  C   UNL     1      38.224   4.600  20.142  1.00  0.00     0.048 A 
ATOM      2  C   UNL     1      36.868   4.722  19.787  1.00  0.00     0.030 A 
ATOM      3  C   UNL     1      36.182   3.561  19.432  1.00  0.00     0.046 A 
ATOM      4  C   UNL     1      36.794   2.336  19.426  1.00  0.00     0.003 A 
ATOM      5  C   UNL     1      35.854   1.408  19.035  1.00  0.00     0.028 A 
ATOM      6  C   UNL     1      34.690   2.139  18.819  1.00  0.00     0.083 A 
ATOM      7  N   UNL     1      34.896   3.454  19.063  1.00  0.00    -0.361 N 
ATOM      8  C   UNL     1      38.134   2.181  19.773  1.00  0.00     0.056 A 
ATOM      9  C   UNL     1      38.859   3.336  20.137  1.00  0.00     0.116 A 
ATOM     10  H   UNL     1      34.195   4.224  18.979  1.00  0.00     0.166 HD
ENDROOT
BRANCH   9  11
ATOM     11  O   UNL     1      40.203   3.243  20.493  1.00  0.00    -0.508 OA
ATOM     12  H   UNL     1      40.897   2.882  19.849  1.00  0.00     0.293 HD
ENDBRANCH   9  11
TORSDOF 1
ENDMDL
MODEL 6
REMARK VINA RESULT:    -4.345      2.423      2.737
REMARK INTER + INTRA:          -4.472
REMARK INTER:                  -4.472
REMARK INTRA:                   0.000
REMARK UNBOUND:                 0.000
REMARK SMILES Oc1ccc2[nH]ccc2c1
REMARK SMILES IDX 3 1 4 2 5 3 9 4 8 5 7 6 6 7 10 8 2 9 1 11
REMARK H PARENT 6 10 1 12
REMARK Flexibility Score: inf
ROOT
ATOM      1  C   UNL     1      35.231   4.328  19.619  1.00  0.00     0.048 A 
ATOM      2  C   UNL     1      36.541   4.797  19.822  1.00  0.00     0.030 A 
ATOM      3  C   UNL     1      37.557   3.852  19.962  1.00  0.00     0.046 A 
ATOM      4  C   UNL     1      37.302   2.508  19.906  1.00  0.00     0.003 A 
ATOM      5  C   UNL     1      38.501   1.853  20.077  1.00  0.00     0.028 A 
ATOM      6  C   UNL     1      39.447   2.863  20.234  1.00  0.00     0.083 A 
ATOM      7  N   UNL     1      38.864   4.082  20.162  1.00  0.00    -0.361 N 
ATOM      8  C   UNL     1      36.015   2.010  19.705  1.00  0.00     0.056 A 
ATOM      9  C   UNL     1      34.964   2.940  19.560  1.00  0.00     0.116 A 
ATOM     10  H   UNL     1      39.338   5.008  20.247  1.00  0.00     0.166 HD
ENDROOT
BRANCH   9  11
ATOM     11  O   UNL     1      33.657   2.502  19.358  1.00  0.00    -0.508 OA
ATOM     12  H   UNL     1      32.863   3.033  19.694  1.00  0.00     0.293 HD
ENDBRANCH   9  11
TORSDOF 1
ENDMDL
MODEL 7
REMARK VINA RESULT:    -4.296      1.365      2.122
REMARK INTER + INTRA:          -4.421
REMARK INTER:                  -4.421
REMARK INTRA:                   0.000
REMARK UNBOUND:                 0.000
REMARK SMILES Oc1ccc2[nH]ccc2c1
REMARK SMILES IDX 3 1 4 2 5 3 9 4 8 5 7 6 6 7 10 8 2 9 1 11
REMARK H PARENT 6 10 1 12
REMARK Flexibility Score: inf
ROOT
ATOM      1  C   UNL     1      34.020   3.455  20.465  1.00  0.00     0.048 A 
ATOM      2  C   UNL     1      35.244   2.907  20.892  1.00  0.00     0.030 A 
ATOM      3  C   UNL     1      35.991   2.181  19.965  1.00  0.00     0.046 A 
ATOM      4  C   UNL     1      35.561   1.999  18.677  1.00  0.00     0.003 A 
ATOM      5  C   UNL     1      36.515   1.249  18.026  1.00  0.00     0.028 A 
ATOM      6  C   UNL     1      37.499   1.008  18.979  1.00  0.00     0.083 A 
ATOM      7  N   UNL     1      37.174   1.580  20.162  1.00  0.00    -0.361 N 
ATOM      8  C   UNL     1      34.355   2.529  18.222  1.00  0.00     0.056 A 
ATOM      9  C   UNL     1      33.573   3.269  19.135  1.00  0.00     0.116 A 
ATOM     10  H   UNL     1      37.733   1.555  21.044  1.00  0.00     0.166 HD
ENDROOT
BRANCH   9  11
ATOM     11  O   UNL     1      32.358   3.822  18.738  1.00  0.00    -0.508 OA
ATOM     12  H   UNL     1      32.283   4.795  18.467  1.00  0.00     0.293 HD
ENDBRANCH   9  11
TORSDOF 1
ENDMDL
MODEL 8
REMARK VINA RESULT:    -4.223      2.713      2.885
REMARK INTER + INTRA:          -4.347
REMARK INTER:                  -4.347
REMARK INTRA:                   0.000
REMARK UNBOUND:                 0.000
REMARK SMILES Oc1ccc2[nH]ccc2c1
REMARK SMILES IDX 3 1 4 2 5 3 9 4 8 5 7 6 6 7 10 8 2 9 1 11
REMARK H PARENT 6 10 1 12
REMARK Flexibility Score: inf
ROOT
ATOM      1  C   UNL     1      36.463   5.209  19.535  1.00  0.00     0.048 A 
ATOM      2  C   UNL     1      35.757   4.027  19.246  1.00  0.00     0.030 A 
ATOM      3  C   UNL     1      36.424   2.814  19.410  1.00  0.00     0.046 A 
ATOM      4  C   UNL     1      37.723   2.759  19.837  1.00  0.00     0.003 A 
ATOM      5  C   UNL     1      38.082   1.430  19.895  1.00  0.00     0.028 A 
ATOM      6  C   UNL     1      36.951   0.730  19.486  1.00  0.00     0.083 A 
ATOM      7  N   UNL     1      35.940   1.581  19.191  1.00  0.00    -0.361 N 
ATOM      8  C   UNL     1      38.451   3.910  20.133  1.00  0.00     0.056 A 
ATOM      9  C   UNL     1      37.806   5.156  19.977  1.00  0.00     0.116 A 
ATOM     10  H   UNL     1      34.983   1.326  18.862  1.00  0.00     0.166 HD
ENDROOT
BRANCH   9  11
ATOM     11  O   UNL     1      38.483   6.340  20.257  1.00  0.00    -0.508 OA
ATOM     12  H   UNL     1      38.989   6.843  19.538  1.00  0.00     0.293 HD
ENDBRANCH   9  11
TORSDOF 1
ENDMDL
MODEL 9
REMARK VINA RESULT:    -4.175      2.594      4.220
REMARK INTER + INTRA:          -4.297
REMARK INTER:                  -4.297
REMARK INTRA:                   0.000
REMARK UNBOUND:                 0.000
REMARK SMILES Oc1ccc2[nH]ccc2c1
REMARK SMILES IDX 3 1 4 2 5 3 9 4 8 5 7 6 6 7 10 8 2 9 1 11
REMARK H PARENT 6 10 1 12
REMARK Flexibility Score: inf
ROOT
ATOM      1  C   UNL     1      36.318   2.061  20.054  1.00  0.00     0.048 A 
ATOM      2  C   UNL     1      35.674   2.819  21.050  1.00  0.00     0.030 A 
ATOM      3  C   UNL     1      34.370   3.247  20.800  1.00  0.00     0.046 A 
ATOM      4  C   UNL     1      33.726   2.948  19.629  1.00  0.00     0.003 A 
ATOM      5  C   UNL     1      32.470   3.510  19.695  1.00  0.00     0.028 A 
ATOM      6  C   UNL     1      32.418   4.138  20.935  1.00  0.00     0.083 A 
ATOM      7  N   UNL     1      33.582   3.975  21.606  1.00  0.00    -0.361 N 
ATOM      8  C   UNL     1      34.335   2.199  18.624  1.00  0.00     0.056 A 
ATOM      9  C   UNL     1      35.655   1.750  18.844  1.00  0.00     0.116 A 
ATOM     10  H   UNL     1      33.814   4.341  22.556  1.00  0.00     0.166 HD
ENDROOT
BRANCH   9  11
ATOM     11  O   UNL     1      36.315   0.999  17.875  1.00  0.00    -0.508 OA
ATOM     12  H   UNL     1      35.895   0.814  16.972  1.00  0.00     0.293 HD
ENDBRANCH   9  11
TORSDOF 1
ENDMDL
