MODEL 1
REMARK VINA RESULT:    -4.961      0.000      0.000
REMARK INTER + INTRA:          -9.741
REMARK INTER:                  -8.441
REMARK INTRA:                  -1.300
REMARK UNBOUND:                -1.300
REMARK SMILES CCCCCCCCCCCCCC(=O)[O-]
REMARK SMILES IDX 8 1 9 2 10 3 11 4 12 5 13 6 14 7 15 8 16 9 7 10 6 11 5 12
REMARK SMILES IDX 4 13 3 14 2 15 1 16
REMARK H PARENT
REMARK Flexibility Score: inf
ROOT
ATOM      1  C   UNL     1       8.759  53.961  21.130  1.00  0.00     0.000 C 
ENDROOT
BRANCH   1   2
ATOM      2  C   UNL     1       7.301  53.570  21.449  1.00  0.00     0.000 C 
BRANCH   2   3
ATOM      3  C   UNL     1       6.376  54.798  21.524  1.00  0.00     0.000 C 
BRANCH   3   4
ATOM      4  C   UNL     1       7.068  56.087  21.056  1.00  0.00     0.000 C 
BRANCH   4   5
ATOM      5  C   UNL     1       6.626  56.512  19.644  1.00  0.00     0.006 C 
BRANCH   5   6
ATOM      6  C   UNL     1       7.556  55.961  18.555  1.00  0.00     0.053 C 
BRANCH   6   7
ATOM      7  C   UNL     1       6.871  54.942  17.699  1.00  0.00     0.041 C 
ATOM      8  O   UNL     1       6.570  53.814  18.174  1.00  0.00    -0.550 OA
ATOM      9  O   UNL     1       6.591  55.224  16.368  1.00  0.00    -0.550 OA
ENDBRANCH   6   7
ENDBRANCH   5   6
ENDBRANCH   4   5
ENDBRANCH   3   4
ENDBRANCH   2   3
ENDBRANCH   1   2
BRANCH   1  10
ATOM     10  C   UNL     1       9.765  52.820  21.361  1.00  0.00     0.000 C 
BRANCH  10  11
ATOM     11  C   UNL     1      10.776  53.133  22.477  1.00  0.00    -0.000 C 
BRANCH  11  12
ATOM     12  C   UNL     1      10.452  54.440  23.217  1.00  0.00    -0.000 C 
BRANCH  12  13
ATOM     13  C   UNL     1      10.916  54.419  24.682  1.00  0.00    -0.000 C 
BRANCH  13  14
ATOM     14  C   UNL     1       9.747  54.111  25.625  1.00  0.00    -0.000 C 
BRANCH  14  15
ATOM     15  C   UNL     1       8.408  54.174  24.880  1.00  0.00    -0.003 C 
ATOM     16  C   UNL     1       7.794  52.785  24.732  1.00  0.00     0.004 C 
ENDBRANCH  14  15
ENDBRANCH  13  14
ENDBRANCH  12  13
ENDBRANCH  11  12
ENDBRANCH  10  11
ENDBRANCH   1  10
TORSDOF 12
ENDMDL
MODEL 2
REMARK VINA RESULT:    -4.704      4.058      6.992
REMARK INTER + INTRA:          -9.304
REMARK INTER:                  -8.722
REMARK INTRA:                  -0.582
REMARK UNBOUND:                -1.300
REMARK SMILES CCCCCCCCCCCCCC(=O)[O-]
REMARK SMILES IDX 8 1 9 2 10 3 11 4 12 5 13 6 14 7 15 8 16 9 7 10 6 11 5 12
REMARK SMILES IDX 4 13 3 14 2 15 1 16
REMARK H PARENT
REMARK Flexibility Score: inf
ROOT
ATOM      1  C   UNL     1       6.313  54.609  19.766  1.00  0.00     0.000 C 
ENDROOT
BRANCH   1   2
ATOM      2  C   UNL     1       7.856  54.598  19.824  1.00  0.00     0.000 C 
BRANCH   2   3
ATOM      3  C   UNL     1       8.379  54.381  21.255  1.00  0.00     0.000 C 
BRANCH   3   4
ATOM      4  C   UNL     1       9.821  53.851  21.282  1.00  0.00     0.000 C 
BRANCH   4   5
ATOM      5  C   UNL     1      10.310  53.549  22.710  1.00  0.00     0.006 C 
BRANCH   5   6
ATOM      6  C   UNL     1       9.914  54.651  23.702  1.00  0.00     0.053 C 
BRANCH   6   7
ATOM      7  C   UNL     1       9.187  54.097  24.889  1.00  0.00     0.041 C 
ATOM      8  O   UNL     1       8.039  53.597  24.753  1.00  0.00    -0.550 OA
ATOM      9  O   UNL     1       9.765  54.160  26.151  1.00  0.00    -0.550 OA
ENDBRANCH   6   7
ENDBRANCH   5   6
ENDBRANCH   4   5
ENDBRANCH   3   4
ENDBRANCH   2   3
ENDBRANCH   1   2
BRANCH   1  10
ATOM     10  C   UNL     1       5.659  55.332  20.956  1.00  0.00     0.000 C 
BRANCH  10  11
ATOM     11  C   UNL     1       5.669  56.861  20.803  1.00  0.00    -0.000 C 
BRANCH  11  12
ATOM     12  C   UNL     1       4.387  57.518  21.339  1.00  0.00    -0.000 C 
BRANCH  12  13
ATOM     13  C   UNL     1       3.632  58.307  20.258  1.00  0.00    -0.000 C 
BRANCH  13  14
ATOM     14  C   UNL     1       2.199  58.619  20.706  1.00  0.00    -0.000 C 
BRANCH  14  15
ATOM     15  C   UNL     1       2.192  59.569  21.908  1.00  0.00    -0.003 C 
ATOM     16  C   UNL     1       0.903  59.431  22.713  1.00  0.00     0.004 C 
ENDBRANCH  14  15
ENDBRANCH  13  14
ENDBRANCH  12  13
ENDBRANCH  11  12
ENDBRANCH  10  11
ENDBRANCH   1  10
TORSDOF 12
ENDMDL
MODEL 3
REMARK VINA RESULT:    -4.702      0.963      2.461
REMARK INTER + INTRA:          -9.300
REMARK INTER:                  -7.637
REMARK INTRA:                  -1.664
REMARK UNBOUND:                -1.300
REMARK SMILES CCCCCCCCCCCCCC(=O)[O-]
REMARK SMILES IDX 8 1 9 2 10 3 11 4 12 5 13 6 14 7 15 8 16 9 7 10 6 11 5 12
REMARK SMILES IDX 4 13 3 14 2 15 1 16
REMARK H PARENT
REMARK Flexibility Score: inf
ROOT
ATOM      1  C   UNL     1       6.827  53.282  22.548  1.00  0.00     0.000 C 
ENDROOT
BRANCH   1   2
ATOM      2  C   UNL     1       6.358  54.163  21.370  1.00  0.00     0.000 C 
BRANCH   2   3
ATOM      3  C   UNL     1       6.415  55.663  21.711  1.00  0.00     0.000 C 
BRANCH   3   4
ATOM      4  C   UNL     1       7.542  56.395  20.966  1.00  0.00     0.000 C 
BRANCH   4   5
ATOM      5  C   UNL     1       8.019  55.626  19.721  1.00  0.00     0.006 C 
BRANCH   5   6
ATOM      6  C   UNL     1       7.250  56.035  18.458  1.00  0.00     0.053 C 
BRANCH   6   7
ATOM      7  C   UNL     1       6.990  54.866  17.559  1.00  0.00     0.041 C 
ATOM      8  O   UNL     1       6.493  55.043  16.415  1.00  0.00    -0.550 OA
ATOM      9  O   UNL     1       7.268  53.576  17.995  1.00  0.00    -0.550 OA
ENDBRANCH   6   7
ENDBRANCH   5   6
ENDBRANCH   4   5
ENDBRANCH   3   4
ENDBRANCH   2   3
ENDBRANCH   1   2
BRANCH   1  10
ATOM     10  C   UNL     1       7.085  54.074  23.842  1.00  0.00     0.000 C 
BRANCH  10  11
ATOM     11  C   UNL     1       8.299  53.551  24.627  1.00  0.00    -0.000 C 
BRANCH  11  12
ATOM     12  C   UNL     1       9.544  54.435  24.448  1.00  0.00    -0.000 C 
BRANCH  12  13
ATOM     13  C   UNL     1      10.581  53.808  23.504  1.00  0.00    -0.000 C 
BRANCH  13  14
ATOM     14  C   UNL     1      10.207  54.051  22.037  1.00  0.00    -0.000 C 
BRANCH  14  15
ATOM     15  C   UNL     1      10.212  52.740  21.243  1.00  0.00    -0.003 C 
ATOM     16  C   UNL     1      10.080  51.534  22.169  1.00  0.00     0.004 C 
ENDBRANCH  14  15
ENDBRANCH  13  14
ENDBRANCH  12  13
ENDBRANCH  11  12
ENDBRANCH  10  11
ENDBRANCH   1  10
TORSDOF 12
ENDMDL
MODEL 4
REMARK VINA RESULT:    -4.626      2.081      5.705
REMARK INTER + INTRA:          -9.172
REMARK INTER:                  -8.100
REMARK INTRA:                  -1.072
REMARK UNBOUND:                -1.300
REMARK SMILES CCCCCCCCCCCCCC(=O)[O-]
REMARK SMILES IDX 8 1 9 2 10 3 11 4 12 5 13 6 14 7 15 8 16 9 7 10 6 11 5 12
REMARK SMILES IDX 4 13 3 14 2 15 1 16
REMARK H PARENT
REMARK Flexibility Score: inf
ROOT
ATOM      1  C   UNL     1       6.934  53.564  22.116  1.00  0.00     0.000 C 
ENDROOT
BRANCH   1   2
ATOM      2  C   UNL     1       7.294  52.961  23.491  1.00  0.00     0.000 C 
BRANCH   2   3
ATOM      3  C   UNL     1       7.540  54.048  24.552  1.00  0.00     0.000 C 
BRANCH   3   4
ATOM      4  C   UNL     1       9.020  54.164  24.947  1.00  0.00     0.000 C 
BRANCH   4   5
ATOM      5  C   UNL     1       9.854  54.909  23.889  1.00  0.00     0.006 C 
BRANCH   5   6
ATOM      6  C   UNL     1      10.943  54.019  23.277  1.00  0.00     0.053 C 
BRANCH   6   7
ATOM      7  C   UNL     1      10.446  53.277  22.075  1.00  0.00     0.041 C 
ATOM      8  O   UNL     1      10.375  52.019  22.091  1.00  0.00    -0.550 OA
ATOM      9  O   UNL     1      10.090  53.970  20.925  1.00  0.00    -0.550 OA
ENDBRANCH   6   7
ENDBRANCH   5   6
ENDBRANCH   4   5
ENDBRANCH   3   4
ENDBRANCH   2   3
ENDBRANCH   1   2
BRANCH   1  10
ATOM     10  C   UNL     1       6.026  54.803  22.208  1.00  0.00     0.000 C 
BRANCH  10  11
ATOM     11  C   UNL     1       5.775  55.460  20.841  1.00  0.00    -0.000 C 
BRANCH  11  12
ATOM     12  C   UNL     1       6.782  56.578  20.528  1.00  0.00    -0.000 C 
BRANCH  12  13
ATOM     13  C   UNL     1       7.665  56.255  19.313  1.00  0.00    -0.000 C 
BRANCH  13  14
ATOM     14  C   UNL     1       7.252  54.924  18.672  1.00  0.00    -0.000 C 
BRANCH  14  15
ATOM     15  C   UNL     1       6.984  55.095  17.173  1.00  0.00    -0.003 C 
ATOM     16  C   UNL     1       6.005  54.040  16.665  1.00  0.00     0.004 C 
ENDBRANCH  14  15
ENDBRANCH  13  14
ENDBRANCH  12  13
ENDBRANCH  11  12
ENDBRANCH  10  11
ENDBRANCH   1  10
TORSDOF 12
ENDMDL
MODEL 5
REMARK VINA RESULT:    -4.568      3.629      4.539
REMARK INTER + INTRA:          -9.072
REMARK INTER:                  -8.261
REMARK INTRA:                  -0.812
REMARK UNBOUND:                -1.300
REMARK SMILES CCCCCCCCCCCCCC(=O)[O-]
REMARK SMILES IDX 8 1 9 2 10 3 11 4 12 5 13 6 14 7 15 8 16 9 7 10 6 11 5 12
REMARK SMILES IDX 4 13 3 14 2 15 1 16
REMARK H PARENT
REMARK Flexibility Score: inf
ROOT
ATOM      1  C   UNL     1       7.209  56.463  19.772  1.00  0.00     0.000 C 
ENDROOT
BRANCH   1   2
ATOM      2  C   UNL     1       6.628  56.602  21.195  1.00  0.00     0.000 C 
BRANCH   2   3
ATOM      3  C   UNL     1       5.090  56.616  21.193  1.00  0.00     0.000 C 
BRANCH   3   4
ATOM      4  C   UNL     1       4.511  57.833  20.454  1.00  0.00     0.000 C 
BRANCH   4   5
ATOM      5  C   UNL     1       3.295  58.436  21.179  1.00  0.00     0.006 C 
BRANCH   5   6
ATOM      6  C   UNL     1       2.902  59.806  20.610  1.00  0.00     0.053 C 
BRANCH   6   7
ATOM      7  C   UNL     1       1.802  59.696  19.600  1.00  0.00     0.041 C 
ATOM      8  O   UNL     1       2.049  59.284  18.435  1.00  0.00    -0.550 OA
ATOM      9  O   UNL     1       0.508  60.078  19.933  1.00  0.00    -0.550 OA
ENDBRANCH   6   7
ENDBRANCH   5   6
ENDBRANCH   4   5
ENDBRANCH   3   4
ENDBRANCH   2   3
ENDBRANCH   1   2
BRANCH   1  10
ATOM     10  C   UNL     1       7.539  55.011  19.383  1.00  0.00     0.000 C 
BRANCH  10  11
ATOM     11  C   UNL     1       7.791  54.110  20.603  1.00  0.00    -0.000 C 
BRANCH  11  12
ATOM     12  C   UNL     1       9.284  53.976  20.940  1.00  0.00    -0.000 C 
BRANCH  12  13
ATOM     13  C   UNL     1       9.523  53.470  22.371  1.00  0.00    -0.000 C 
BRANCH  13  14
ATOM     14  C   UNL     1       8.574  54.154  23.361  1.00  0.00    -0.000 C 
BRANCH  14  15
ATOM     15  C   UNL     1       9.282  54.446  24.690  1.00  0.00    -0.003 C 
ATOM     16  C   UNL     1      10.798  54.381  24.532  1.00  0.00     0.004 C 
ENDBRANCH  14  15
ENDBRANCH  13  14
ENDBRANCH  12  13
ENDBRANCH  11  12
ENDBRANCH  10  11
ENDBRANCH   1  10
TORSDOF 12
ENDMDL
MODEL 6
REMARK VINA RESULT:    -4.562      4.362      5.258
REMARK INTER + INTRA:          -9.063
REMARK INTER:                  -8.245
REMARK INTRA:                  -0.817
REMARK UNBOUND:                -1.300
REMARK SMILES CCCCCCCCCCCCCC(=O)[O-]
REMARK SMILES IDX 8 1 9 2 10 3 11 4 12 5 13 6 14 7 15 8 16 9 7 10 6 11 5 12
REMARK SMILES IDX 4 13 3 14 2 15 1 16
REMARK H PARENT
REMARK Flexibility Score: inf
ROOT
ATOM      1  C   UNL     1       6.853  56.621  20.415  1.00  0.00     0.000 C 
ENDROOT
BRANCH   1   2
ATOM      2  C   UNL     1       5.460  56.185  20.915  1.00  0.00     0.000 C 
BRANCH   2   3
ATOM      3  C   UNL     1       4.609  57.383  21.374  1.00  0.00     0.000 C 
BRANCH   3   4
ATOM      4  C   UNL     1       4.003  58.162  20.196  1.00  0.00     0.000 C 
BRANCH   4   5
ATOM      5  C   UNL     1       2.566  58.634  20.481  1.00  0.00     0.006 C 
BRANCH   5   6
ATOM      6  C   UNL     1       2.439  59.307  21.854  1.00  0.00     0.053 C 
BRANCH   6   7
ATOM      7  C   UNL     1       1.043  59.225  22.389  1.00  0.00     0.041 C 
ATOM      8  O   UNL     1       0.351  58.189  22.198  1.00  0.00    -0.550 OA
ATOM      9  O   UNL     1       0.493  60.303  23.071  1.00  0.00    -0.550 OA
ENDBRANCH   6   7
ENDBRANCH   5   6
ENDBRANCH   4   5
ENDBRANCH   3   4
ENDBRANCH   2   3
ENDBRANCH   1   2
BRANCH   1  10
ATOM     10  C   UNL     1       7.841  55.452  20.252  1.00  0.00     0.000 C 
BRANCH  10  11
ATOM     11  C   UNL     1       7.254  54.108  20.714  1.00  0.00    -0.000 C 
BRANCH  11  12
ATOM     12  C   UNL     1       8.059  53.477  21.862  1.00  0.00    -0.000 C 
BRANCH  12  13
ATOM     13  C   UNL     1       7.328  53.561  23.211  1.00  0.00    -0.000 C 
BRANCH  13  14
ATOM     14  C   UNL     1       8.312  53.850  24.351  1.00  0.00    -0.000 C 
BRANCH  14  15
ATOM     15  C   UNL     1       9.437  54.781  23.884  1.00  0.00    -0.003 C 
ATOM     16  C   UNL     1      10.791  54.317  24.413  1.00  0.00     0.004 C 
ENDBRANCH  14  15
ENDBRANCH  13  14
ENDBRANCH  12  13
ENDBRANCH  11  12
ENDBRANCH  10  11
ENDBRANCH   1  10
TORSDOF 12
ENDMDL
MODEL 7
REMARK VINA RESULT:    -4.400      4.450      6.589
REMARK INTER + INTRA:          -8.787
REMARK INTER:                  -8.040
REMARK INTRA:                  -0.747
REMARK UNBOUND:                -1.300
REMARK SMILES CCCCCCCCCCCCCC(=O)[O-]
REMARK SMILES IDX 8 1 9 2 10 3 11 4 12 5 13 6 14 7 15 8 16 9 7 10 6 11 5 12
REMARK SMILES IDX 4 13 3 14 2 15 1 16
REMARK H PARENT
REMARK Flexibility Score: inf
ROOT
ATOM      1  C   UNL     1       4.279  57.747  21.289  1.00  0.00     0.000 C 
ENDROOT
BRANCH   1   2
ATOM      2  C   UNL     1       3.240  58.285  20.282  1.00  0.00     0.000 C 
BRANCH   2   3
ATOM      3  C   UNL     1       2.868  59.752  20.562  1.00  0.00     0.000 C 
BRANCH   3   4
ATOM      4  C   UNL     1       2.039  60.377  19.429  1.00  0.00     0.000 C 
BRANCH   4   5
ATOM      5  C   UNL     1       2.159  59.591  18.111  1.00  0.00     0.006 C 
BRANCH   5   6
ATOM      6  C   UNL     1       1.206  60.120  17.032  1.00  0.00     0.053 C 
BRANCH   6   7
ATOM      7  C   UNL     1       1.355  59.376  15.741  1.00  0.00     0.041 C 
ATOM      8  O   UNL     1       0.556  58.448  15.448  1.00  0.00    -0.550 OA
ATOM      9  O   UNL     1       2.396  59.686  14.874  1.00  0.00    -0.550 OA
ENDBRANCH   6   7
ENDBRANCH   5   6
ENDBRANCH   4   5
ENDBRANCH   3   4
ENDBRANCH   2   3
ENDBRANCH   1   2
BRANCH   1  10
ATOM     10  C   UNL     1       5.425  56.961  20.627  1.00  0.00     0.000 C 
BRANCH  10  11
ATOM     11  C   UNL     1       5.457  55.484  21.052  1.00  0.00    -0.000 C 
BRANCH  11  12
ATOM     12  C   UNL     1       6.887  54.959  21.256  1.00  0.00    -0.000 C 
BRANCH  12  13
ATOM     13  C   UNL     1       7.832  55.358  20.111  1.00  0.00    -0.000 C 
BRANCH  13  14
ATOM     14  C   UNL     1       7.744  54.359  18.952  1.00  0.00    -0.000 C 
BRANCH  14  15
ATOM     15  C   UNL     1       7.085  54.998  17.724  1.00  0.00    -0.003 C 
ATOM     16  C   UNL     1       6.034  54.072  17.118  1.00  0.00     0.004 C 
ENDBRANCH  14  15
ENDBRANCH  13  14
ENDBRANCH  12  13
ENDBRANCH  11  12
ENDBRANCH  10  11
ENDBRANCH   1  10
TORSDOF 12
ENDMDL
MODEL 8
REMARK VINA RESULT:    -4.316      5.255      7.957
REMARK INTER + INTRA:          -8.644
REMARK INTER:                  -7.968
REMARK INTRA:                  -0.676
REMARK UNBOUND:                -1.300
REMARK SMILES CCCCCCCCCCCCCC(=O)[O-]
REMARK SMILES IDX 8 1 9 2 10 3 11 4 12 5 13 6 14 7 15 8 16 9 7 10 6 11 5 12
REMARK SMILES IDX 4 13 3 14 2 15 1 16
REMARK H PARENT
REMARK Flexibility Score: inf
ROOT
ATOM      1  C   UNL     1      10.368  52.046  21.941  1.00  0.00     0.000 C 
ENDROOT
BRANCH   1   2
ATOM      2  C   UNL     1       9.881  50.669  22.440  1.00  0.00     0.000 C 
BRANCH   2   3
ATOM      3  C   UNL     1      11.050  49.711  22.726  1.00  0.00     0.000 C 
BRANCH   3   4
ATOM      4  C   UNL     1      10.620  48.235  22.715  1.00  0.00     0.000 C 
BRANCH   4   5
ATOM      5  C   UNL     1      11.821  47.273  22.715  1.00  0.00     0.006 C 
BRANCH   5   6
ATOM      6  C   UNL     1      12.829  47.605  23.823  1.00  0.00     0.053 C 
BRANCH   6   7
ATOM      7  C   UNL     1      12.355  47.141  25.166  1.00  0.00     0.041 C 
ATOM      8  O   UNL     1      12.022  45.939  25.341  1.00  0.00    -0.550 OA
ATOM      9  O   UNL     1      12.250  48.043  26.218  1.00  0.00    -0.550 OA
ENDBRANCH   6   7
ENDBRANCH   5   6
ENDBRANCH   4   5
ENDBRANCH   3   4
ENDBRANCH   2   3
ENDBRANCH   1   2
BRANCH   1  10
ATOM     10  C   UNL     1      10.086  53.192  22.930  1.00  0.00     0.000 C 
BRANCH  10  11
ATOM     11  C   UNL     1       9.251  54.323  22.308  1.00  0.00    -0.000 C 
BRANCH  11  12
ATOM     12  C   UNL     1       7.767  53.950  22.163  1.00  0.00    -0.000 C 
BRANCH  12  13
ATOM     13  C   UNL     1       7.210  54.272  20.768  1.00  0.00    -0.000 C 
BRANCH  13  14
ATOM     14  C   UNL     1       7.837  55.555  20.209  1.00  0.00    -0.000 C 
BRANCH  14  15
ATOM     15  C   UNL     1       6.761  56.597  19.883  1.00  0.00    -0.003 C 
ATOM     16  C   UNL     1       5.684  56.634  20.964  1.00  0.00     0.004 C 
ENDBRANCH  14  15
ENDBRANCH  13  14
ENDBRANCH  12  13
ENDBRANCH  11  12
ENDBRANCH  10  11
ENDBRANCH   1  10
TORSDOF 12
ENDMDL
MODEL 9
REMARK VINA RESULT:    -4.260      4.675      7.522
REMARK INTER + INTRA:          -8.548
REMARK INTER:                  -7.867
REMARK INTRA:                  -0.681
REMARK UNBOUND:                -1.300
REMARK SMILES CCCCCCCCCCCCCC(=O)[O-]
REMARK SMILES IDX 8 1 9 2 10 3 11 4 12 5 13 6 14 7 15 8 16 9 7 10 6 11 5 12
REMARK SMILES IDX 4 13 3 14 2 15 1 16
REMARK H PARENT
REMARK Flexibility Score: inf
ROOT
ATOM      1  C   UNL     1      10.164  53.184  22.006  1.00  0.00     0.000 C 
ENDROOT
BRANCH   1   2
ATOM      2  C   UNL     1       9.671  51.754  22.314  1.00  0.00     0.000 C 
BRANCH   2   3
ATOM      3  C   UNL     1      10.825  50.736  22.332  1.00  0.00     0.000 C 
BRANCH   3   4
ATOM      4  C   UNL     1      10.350  49.312  22.665  1.00  0.00     0.000 C 
BRANCH   4   5
ATOM      5  C   UNL     1      11.510  48.387  23.076  1.00  0.00     0.006 C 
BRANCH   5   6
ATOM      6  C   UNL     1      11.192  46.909  22.816  1.00  0.00     0.053 C 
BRANCH   6   7
ATOM      7  C   UNL     1      10.156  46.387  23.763  1.00  0.00     0.041 C 
ATOM      8  O   UNL     1      10.494  45.946  24.893  1.00  0.00    -0.550 OA
ATOM      9  O   UNL     1       8.818  46.359  23.387  1.00  0.00    -0.550 OA
ENDBRANCH   6   7
ENDBRANCH   5   6
ENDBRANCH   4   5
ENDBRANCH   3   4
ENDBRANCH   2   3
ENDBRANCH   1   2
BRANCH   1  10
ATOM     10  C   UNL     1       9.173  54.280  22.434  1.00  0.00     0.000 C 
BRANCH  10  11
ATOM     11  C   UNL     1       7.722  53.777  22.506  1.00  0.00    -0.000 C 
BRANCH  11  12
ATOM     12  C   UNL     1       6.806  54.465  21.481  1.00  0.00    -0.000 C 
BRANCH  12  13
ATOM     13  C   UNL     1       7.482  55.662  20.794  1.00  0.00    -0.000 C 
BRANCH  13  14
ATOM     14  C   UNL     1       7.016  55.797  19.340  1.00  0.00    -0.000 C 
BRANCH  14  15
ATOM     15  C   UNL     1       7.509  54.619  18.492  1.00  0.00    -0.003 C 
ATOM     16  C   UNL     1       6.419  54.127  17.545  1.00  0.00     0.004 C 
ENDBRANCH  14  15
ENDBRANCH  13  14
ENDBRANCH  12  13
ENDBRANCH  11  12
ENDBRANCH  10  11
ENDBRANCH   1  10
TORSDOF 12
ENDMDL
