MODEL 1
REMARK VINA RESULT:    -1.307      0.000      0.000
REMARK INTER + INTRA:          -2.824
REMARK INTER:                  -2.301
REMARK INTRA:                  -0.523
REMARK UNBOUND:                -0.523
REMARK SMILES CCCCCCCCCCCCCCC(=O)[O-]
REMARK SMILES IDX 9 1 10 2 11 3 12 4 13 5 14 6 15 7 16 8 17 9 8 10 7 11 6 12
REMARK SMILES IDX 5 13 4 14 3 15 2 16 1 17
REMARK H PARENT
REMARK Flexibility Score: inf
ROOT
ATOM      1  C   UNL     1     -10.114 -11.507  -7.646  1.00  0.00     0.000 C 
ENDROOT
BRANCH   1   2
ATOM      2  C   UNL     1     -11.079 -11.996  -6.544  1.00  0.00     0.000 C 
BRANCH   2   3
ATOM      3  C   UNL     1     -10.392 -12.125  -5.173  1.00  0.00     0.000 C 
BRANCH   3   4
ATOM      4  C   UNL     1     -11.119 -11.337  -4.071  1.00  0.00     0.000 C 
BRANCH   4   5
ATOM      5  C   UNL     1     -10.450  -9.982  -3.777  1.00  0.00     0.006 C 
BRANCH   5   6
ATOM      6  C   UNL     1     -11.045  -9.302  -2.536  1.00  0.00     0.053 C 
BRANCH   6   7
ATOM      7  C   UNL     1     -10.187  -8.172  -2.058  1.00  0.00     0.041 C 
ATOM      8  O   UNL     1      -9.265  -8.383  -1.227  1.00  0.00    -0.550 OA
ATOM      9  O   UNL     1     -10.427  -6.877  -2.503  1.00  0.00    -0.550 OA
ENDBRANCH   6   7
ENDBRANCH   5   6
ENDBRANCH   4   5
ENDBRANCH   3   4
ENDBRANCH   2   3
ENDBRANCH   1   2
BRANCH   1  10
ATOM     10  C   UNL     1     -10.815 -11.143  -8.967  1.00  0.00     0.000 C 
BRANCH  10  11
ATOM     11  C   UNL     1     -10.257 -11.852 -10.214  1.00  0.00    -0.000 C 
BRANCH  11  12
ATOM     12  C   UNL     1     -10.940 -11.473 -11.545  1.00  0.00    -0.000 C 
BRANCH  12  13
ATOM     13  C   UNL     1     -10.101 -11.743 -12.806  1.00  0.00    -0.000 C 
BRANCH  13  14
ATOM     14  C   UNL     1     -10.034 -10.531 -13.750  1.00  0.00    -0.000 C 
BRANCH  14  15
ATOM     15  C   UNL     1      -8.598 -10.023 -13.969  1.00  0.00    -0.000 C 
BRANCH  15  16
ATOM     16  C   UNL     1      -7.530 -10.714 -13.102  1.00  0.00    -0.003 C 
ATOM     17  C   UNL     1      -6.383 -11.304 -13.923  1.00  0.00     0.004 C 
ENDBRANCH  15  16
ENDBRANCH  14  15
ENDBRANCH  13  14
ENDBRANCH  12  13
ENDBRANCH  11  12
ENDBRANCH  10  11
ENDBRANCH   1  10
TORSDOF 13
ENDMDL
MODEL 2
REMARK VINA RESULT:     1.016     22.371     24.479
REMARK INTER + INTRA:           1.265
REMARK INTER:                   2.001
REMARK INTRA:                  -0.736
REMARK UNBOUND:                -0.523
REMARK SMILES CCCCCCCCCCCCCCC(=O)[O-]
REMARK SMILES IDX 9 1 10 2 11 3 12 4 13 5 14 6 15 7 16 8 17 9 8 10 7 11 6 12
REMARK SMILES IDX 5 13 4 14 3 15 2 16 1 17
REMARK H PARENT
REMARK Flexibility Score: inf
ROOT
ATOM      1  C   UNL     1       3.398   6.515  -6.632  1.00  0.00     0.000 C 
ENDROOT
BRANCH   1   2
ATOM      2  C   UNL     1       4.313   6.593  -7.874  1.00  0.00     0.000 C 
BRANCH   2   3
ATOM      3  C   UNL     1       4.357   8.004  -8.485  1.00  0.00     0.000 C 
BRANCH   3   4
ATOM      4  C   UNL     1       5.209   8.068  -9.763  1.00  0.00     0.000 C 
BRANCH   4   5
ATOM      5  C   UNL     1       4.761   7.044 -10.822  1.00  0.00     0.006 C 
BRANCH   5   6
ATOM      6  C   UNL     1       3.631   7.586 -11.708  1.00  0.00     0.053 C 
BRANCH   6   7
ATOM      7  C   UNL     1       3.957   7.457 -13.164  1.00  0.00     0.041 C 
ATOM      8  O   UNL     1       5.043   7.911 -13.613  1.00  0.00    -0.550 OA
ATOM      9  O   UNL     1       3.046   6.867 -14.032  1.00  0.00    -0.550 OA
ENDBRANCH   6   7
ENDBRANCH   5   6
ENDBRANCH   4   5
ENDBRANCH   3   4
ENDBRANCH   2   3
ENDBRANCH   1   2
BRANCH   1  10
ATOM     10  C   UNL     1       2.746   7.859  -6.258  1.00  0.00     0.000 C 
BRANCH  10  11
ATOM     11  C   UNL     1       2.588   8.105  -4.746  1.00  0.00    -0.000 C 
BRANCH  11  12
ATOM     12  C   UNL     1       3.856   7.852  -3.905  1.00  0.00    -0.000 C 
BRANCH  12  13
ATOM     13  C   UNL     1       3.701   8.124  -2.398  1.00  0.00    -0.000 C 
BRANCH  13  14
ATOM     14  C   UNL     1       2.236   8.083  -1.933  1.00  0.00    -0.000 C 
BRANCH  14  15
ATOM     15  C   UNL     1       2.090   7.679  -0.455  1.00  0.00    -0.000 C 
BRANCH  15  16
ATOM     16  C   UNL     1       2.730   6.327  -0.090  1.00  0.00    -0.003 C 
ATOM     17  C   UNL     1       3.161   6.246   1.375  1.00  0.00     0.004 C 
ENDBRANCH  15  16
ENDBRANCH  14  15
ENDBRANCH  13  14
ENDBRANCH  12  13
ENDBRANCH  11  12
ENDBRANCH  10  11
ENDBRANCH   1  10
TORSDOF 13
ENDMDL
MODEL 3
REMARK VINA RESULT:     1.046     10.793     14.305
REMARK INTER + INTRA:           1.318
REMARK INTER:                   1.683
REMARK INTRA:                  -0.365
REMARK UNBOUND:                -0.523
REMARK SMILES CCCCCCCCCCCCCCC(=O)[O-]
REMARK SMILES IDX 9 1 10 2 11 3 12 4 13 5 14 6 15 7 16 8 17 9 8 10 7 11 6 12
REMARK SMILES IDX 5 13 4 14 3 15 2 16 1 17
REMARK H PARENT
REMARK Flexibility Score: inf
ROOT
ATOM      1  C   UNL     1      -1.039  -4.427 -14.021  1.00  0.00     0.000 C 
ENDROOT
BRANCH   1   2
ATOM      2  C   UNL     1      -1.711  -5.756 -13.612  1.00  0.00     0.000 C 
BRANCH   2   3
ATOM      3  C   UNL     1      -3.200  -5.806 -13.998  1.00  0.00     0.000 C 
BRANCH   3   4
ATOM      4  C   UNL     1      -3.960  -6.931 -13.276  1.00  0.00     0.000 C 
BRANCH   4   5
ATOM      5  C   UNL     1      -4.042  -8.220 -14.114  1.00  0.00     0.006 C 
BRANCH   5   6
ATOM      6  C   UNL     1      -5.196  -9.127 -13.667  1.00  0.00     0.053 C 
BRANCH   6   7
ATOM      7  C   UNL     1      -4.872 -10.576 -13.866  1.00  0.00     0.041 C 
ATOM      8  O   UNL     1      -3.691 -10.932 -14.121  1.00  0.00    -0.550 OA
ATOM      9  O   UNL     1      -5.880 -11.530 -13.805  1.00  0.00    -0.550 OA
ENDBRANCH   6   7
ENDBRANCH   5   6
ENDBRANCH   4   5
ENDBRANCH   3   4
ENDBRANCH   2   3
ENDBRANCH   1   2
BRANCH   1  10
ATOM     10  C   UNL     1       0.495  -4.513 -14.117  1.00  0.00     0.000 C 
BRANCH  10  11
ATOM     11  C   UNL     1       1.242  -3.228 -13.712  1.00  0.00    -0.000 C 
BRANCH  11  12
ATOM     12  C   UNL     1       2.728  -3.177 -14.125  1.00  0.00    -0.000 C 
BRANCH  12  13
ATOM     13  C   UNL     1       3.720  -3.018 -12.959  1.00  0.00    -0.000 C 
BRANCH  13  14
ATOM     14  C   UNL     1       4.961  -2.193 -13.340  1.00  0.00    -0.000 C 
BRANCH  14  15
ATOM     15  C   UNL     1       6.268  -2.795 -12.794  1.00  0.00    -0.000 C 
BRANCH  15  16
ATOM     16  C   UNL     1       6.122  -4.193 -12.166  1.00  0.00    -0.003 C 
ATOM     17  C   UNL     1       6.474  -5.322 -13.134  1.00  0.00     0.004 C 
ENDBRANCH  15  16
ENDBRANCH  14  15
ENDBRANCH  13  14
ENDBRANCH  12  13
ENDBRANCH  11  12
ENDBRANCH  10  11
ENDBRANCH   1  10
TORSDOF 13
ENDMDL
MODEL 4
REMARK VINA RESULT:     1.372     11.207     14.723
REMARK INTER + INTRA:           1.891
REMARK INTER:                   2.177
REMARK INTRA:                  -0.286
REMARK UNBOUND:                -0.523
REMARK SMILES CCCCCCCCCCCCCCC(=O)[O-]
REMARK SMILES IDX 9 1 10 2 11 3 12 4 13 5 14 6 15 7 16 8 17 9 8 10 7 11 6 12
REMARK SMILES IDX 5 13 4 14 3 15 2 16 1 17
REMARK H PARENT
REMARK Flexibility Score: inf
ROOT
ATOM      1  C   UNL     1       0.033  -3.710 -13.419  1.00  0.00     0.000 C 
ENDROOT
BRANCH   1   2
ATOM      2  C   UNL     1       1.410  -3.623 -14.113  1.00  0.00     0.000 C 
BRANCH   2   3
ATOM      3  C   UNL     1       2.390  -2.705 -13.362  1.00  0.00     0.000 C 
BRANCH   3   4
ATOM      4  C   UNL     1       3.709  -2.499 -14.125  1.00  0.00     0.000 C 
BRANCH   4   5
ATOM      5  C   UNL     1       4.603  -3.753 -14.107  1.00  0.00     0.006 C 
BRANCH   5   6
ATOM      6  C   UNL     1       6.021  -3.445 -13.609  1.00  0.00     0.053 C 
BRANCH   6   7
ATOM      7  C   UNL     1       6.420  -4.343 -12.479  1.00  0.00     0.041 C 
ATOM      8  O   UNL     1       6.948  -5.462 -12.714  1.00  0.00    -0.550 OA
ATOM      9  O   UNL     1       6.177  -3.960 -11.165  1.00  0.00    -0.550 OA
ENDBRANCH   6   7
ENDBRANCH   5   6
ENDBRANCH   4   5
ENDBRANCH   3   4
ENDBRANCH   2   3
ENDBRANCH   1   2
BRANCH   1  10
ATOM     10  C   UNL     1      -0.958  -4.654 -14.124  1.00  0.00     0.000 C 
BRANCH  10  11
ATOM     11  C   UNL     1      -1.975  -5.340 -13.194  1.00  0.00    -0.000 C 
BRANCH  11  12
ATOM     12  C   UNL     1      -3.270  -5.823 -13.880  1.00  0.00    -0.000 C 
BRANCH  12  13
ATOM     13  C   UNL     1      -3.368  -7.345 -14.083  1.00  0.00    -0.000 C 
BRANCH  13  14
ATOM     14  C   UNL     1      -4.608  -7.958 -13.410  1.00  0.00    -0.000 C 
BRANCH  14  15
ATOM     15  C   UNL     1      -4.812  -9.440 -13.770  1.00  0.00    -0.000 C 
BRANCH  15  16
ATOM     16  C   UNL     1      -5.764 -10.207 -12.835  1.00  0.00    -0.003 C 
ATOM     17  C   UNL     1      -7.186 -10.312 -13.385  1.00  0.00     0.004 C 
ENDBRANCH  15  16
ENDBRANCH  14  15
ENDBRANCH  13  14
ENDBRANCH  12  13
ENDBRANCH  11  12
ENDBRANCH  10  11
ENDBRANCH   1  10
TORSDOF 13
ENDMDL
