MODEL 1
REMARK VINA RESULT:    -1.162      0.000      0.000
REMARK INTER + INTRA:          -1.693
REMARK INTER:                  -1.502
REMARK INTRA:                  -0.191
REMARK UNBOUND:                -0.191
REMARK SMILES CCCCCCC(=O)[O-]
REMARK SMILES IDX 5 1 6 2 7 3 8 4 9 5 4 6 3 7 2 8 1 9
REMARK H PARENT
REMARK Flexibility Score: inf
ROOT
ATOM      1  C   UNL     1       0.985  -0.416 -15.992  1.00  0.00     0.006 C 
ENDROOT
BRANCH   1   2
ATOM      2  C   UNL     1       0.504  -0.482 -17.447  1.00  0.00     0.053 C 
BRANCH   2   3
ATOM      3  C   UNL     1       0.142  -1.878 -17.849  1.00  0.00     0.041 C 
ATOM      4  O   UNL     1      -0.099  -2.749 -16.973  1.00  0.00    -0.550 OA
ATOM      5  O   UNL     1       0.040  -2.209 -19.195  1.00  0.00    -0.550 OA
ENDBRANCH   2   3
ENDBRANCH   1   2
BRANCH   1   6
ATOM      6  C   UNL     1      -0.086   0.158 -15.052  1.00  0.00     0.000 C 
BRANCH   6   7
ATOM      7  C   UNL     1       0.545   1.066 -13.990  1.00  0.00    -0.000 C 
BRANCH   7   8
ATOM      8  C   UNL     1      -0.039   2.482 -14.059  1.00  0.00    -0.003 C 
ATOM      9  C   UNL     1      -0.119   2.976 -15.500  1.00  0.00     0.004 C 
ENDBRANCH   7   8
ENDBRANCH   6   7
ENDBRANCH   1   6
TORSDOF 5
ENDMDL
MODEL 2
REMARK VINA RESULT:    -0.210      1.498      1.998
REMARK INTER + INTRA:          -0.463
REMARK INTER:                  -0.243
REMARK INTRA:                  -0.220
REMARK UNBOUND:                -0.191
REMARK SMILES CCCCCCC(=O)[O-]
REMARK SMILES IDX 5 1 6 2 7 3 8 4 9 5 4 6 3 7 2 8 1 9
REMARK H PARENT
REMARK Flexibility Score: inf
ROOT
ATOM      1  C   UNL     1       0.838  -1.742 -16.758  1.00  0.00     0.006 C 
ENDROOT
BRANCH   1   2
ATOM      2  C   UNL     1      -0.120  -2.593 -17.600  1.00  0.00     0.053 C 
BRANCH   2   3
ATOM      3  C   UNL     1      -0.088  -2.201 -19.045  1.00  0.00     0.041 C 
ATOM      4  O   UNL     1      -0.005  -0.988 -19.371  1.00  0.00    -0.550 OA
ATOM      5  O   UNL     1      -0.118  -3.178 -20.031  1.00  0.00    -0.550 OA
ENDBRANCH   2   3
ENDBRANCH   1   2
BRANCH   1   6
ATOM      6  C   UNL     1       0.104  -0.946 -15.668  1.00  0.00     0.000 C 
BRANCH   6   7
ATOM      7  C   UNL     1      -0.102   0.511 -16.097  1.00  0.00    -0.000 C 
BRANCH   7   8
ATOM      8  C   UNL     1      -0.125   1.444 -14.881  1.00  0.00    -0.003 C 
ATOM      9  C   UNL     1       0.778   0.922 -13.767  1.00  0.00     0.004 C 
ENDBRANCH   7   8
ENDBRANCH   6   7
ENDBRANCH   1   6
TORSDOF 5
ENDMDL
MODEL 3
REMARK VINA RESULT:     0.994     12.139     12.606
REMARK INTER + INTRA:           1.093
REMARK INTER:                   1.217
REMARK INTRA:                  -0.124
REMARK UNBOUND:                -0.191
REMARK SMILES CCCCCCC(=O)[O-]
REMARK SMILES IDX 5 1 6 2 7 3 8 4 9 5 4 6 3 7 2 8 1 9
REMARK H PARENT
REMARK Flexibility Score: inf
ROOT
ATOM      1  C   UNL     1      12.630   1.732 -16.585  1.00  0.00     0.006 C 
ENDROOT
BRANCH   1   2
ATOM      2  C   UNL     1      13.055   0.571 -17.493  1.00  0.00     0.053 C 
BRANCH   2   3
ATOM      3  C   UNL     1      14.108   0.989 -18.472  1.00  0.00     0.041 C 
ATOM      4  O   UNL     1      13.960   2.036 -19.154  1.00  0.00    -0.550 OA
ATOM      5  O   UNL     1      15.269   0.237 -18.607  1.00  0.00    -0.550 OA
ENDBRANCH   2   3
ENDBRANCH   1   2
BRANCH   1   6
ATOM      6  C   UNL     1      11.485   1.340 -15.639  1.00  0.00     0.000 C 
BRANCH   6   7
ATOM      7  C   UNL     1      10.948   2.566 -14.890  1.00  0.00    -0.000 C 
BRANCH   7   8
ATOM      8  C   UNL     1      10.316   2.161 -13.554  1.00  0.00    -0.003 C 
ATOM      9  C   UNL     1       9.901   0.692 -13.562  1.00  0.00     0.004 C 
ENDBRANCH   7   8
ENDBRANCH   6   7
ENDBRANCH   1   6
TORSDOF 5
ENDMDL
MODEL 4
REMARK VINA RESULT:     1.078     11.983     12.838
REMARK INTER + INTRA:           1.202
REMARK INTER:                   1.340
REMARK INTRA:                  -0.138
REMARK UNBOUND:                -0.191
REMARK SMILES CCCCCCC(=O)[O-]
REMARK SMILES IDX 5 1 6 2 7 3 8 4 9 5 4 6 3 7 2 8 1 9
REMARK H PARENT
REMARK Flexibility Score: inf
ROOT
ATOM      1  C   UNL     1      11.934   0.668 -15.678  1.00  0.00     0.006 C 
ENDROOT
BRANCH   1   2
ATOM      2  C   UNL     1      11.192   1.965 -15.332  1.00  0.00     0.053 C 
BRANCH   2   3
ATOM      3  C   UNL     1      10.489   1.868 -14.013  1.00  0.00     0.041 C 
ATOM      4  O   UNL     1      10.418   2.871 -13.256  1.00  0.00    -0.550 OA
ATOM      5  O   UNL     1       9.885   0.675 -13.634  1.00  0.00    -0.550 OA
ENDBRANCH   2   3
ENDBRANCH   1   2
BRANCH   1   6
ATOM      6  C   UNL     1      12.354   0.615 -17.154  1.00  0.00     0.000 C 
BRANCH   6   7
ATOM      7  C   UNL     1      13.330   1.750 -17.489  1.00  0.00    -0.000 C 
BRANCH   7   8
ATOM      8  C   UNL     1      14.172   1.405 -18.722  1.00  0.00    -0.003 C 
ATOM      9  C   UNL     1      15.151   0.274 -18.423  1.00  0.00     0.004 C 
ENDBRANCH   7   8
ENDBRANCH   6   7
ENDBRANCH   1   6
TORSDOF 5
ENDMDL
MODEL 5
REMARK VINA RESULT:     1.183      3.568      5.090
REMARK INTER + INTRA:           1.337
REMARK INTER:                   1.445
REMARK INTRA:                  -0.108
REMARK UNBOUND:                -0.191
REMARK SMILES CCCCCCC(=O)[O-]
REMARK SMILES IDX 5 1 6 2 7 3 8 4 9 5 4 6 3 7 2 8 1 9
REMARK H PARENT
REMARK Flexibility Score: inf
ROOT
ATOM      1  C   UNL     1       1.482  -0.015 -14.964  1.00  0.00     0.006 C 
ENDROOT
BRANCH   1   2
ATOM      2  C   UNL     1       1.687   0.977 -13.813  1.00  0.00     0.053 C 
BRANCH   2   3
ATOM      3  C   UNL     1       3.045   0.838 -13.196  1.00  0.00     0.041 C 
ATOM      4  O   UNL     1       3.161   0.554 -11.975  1.00  0.00    -0.550 OA
ATOM      5  O   UNL     1       4.183   0.992 -13.979  1.00  0.00    -0.550 OA
ENDBRANCH   2   3
ENDBRANCH   1   2
BRANCH   1   6
ATOM      6  C   UNL     1       0.016  -0.086 -15.417  1.00  0.00     0.000 C 
BRANCH   6   7
ATOM      7  C   UNL     1      -0.082  -0.357 -16.923  1.00  0.00    -0.000 C 
BRANCH   7   8
ATOM      8  C   UNL     1       0.429  -1.761 -17.263  1.00  0.00    -0.003 C 
ATOM      9  C   UNL     1      -0.053  -2.206 -18.640  1.00  0.00     0.004 C 
ENDBRANCH   7   8
ENDBRANCH   6   7
ENDBRANCH   1   6
TORSDOF 5
ENDMDL
