MODEL 1
REMARK VINA RESULT:    -4.811      0.000      0.000
REMARK INTER + INTRA:          -7.788
REMARK INTER:                  -6.639
REMARK INTRA:                  -1.150
REMARK UNBOUND:                -1.150
REMARK SMILES CCCCc1cccc(O)c1CCCC
REMARK SMILES IDX 5 1 11 2 9 3 8 4 7 5 6 6 4 7 3 8 2 9 1 10 12 11 13 12 14 13
REMARK SMILES IDX 15 14 10 15
REMARK H PARENT 10 16
REMARK Flexibility Score: inf
ROOT
ATOM      1  C   UNL     1      45.032   7.293  16.613  1.00  0.00    -0.041 A 
ATOM      2  C   UNL     1      46.331   6.840  17.002  1.00  0.00    -0.003 A 
ATOM      3  C   UNL     1      46.988   5.876  16.187  1.00  0.00     0.119 A 
ATOM      4  C   UNL     1      46.419   5.478  14.974  1.00  0.00     0.046 A 
ATOM      5  C   UNL     1      45.188   5.980  14.570  1.00  0.00     0.004 A 
ATOM      6  C   UNL     1      44.494   6.866  15.386  1.00  0.00     0.004 A 
ENDROOT
BRANCH   1   7
ATOM      7  C   UNL     1      44.151   8.174  17.482  1.00  0.00     0.036 C 
BRANCH   7   8
ATOM      8  C   UNL     1      43.979   9.564  16.852  1.00  0.00     0.004 C 
BRANCH   8   9
ATOM      9  C   UNL     1      45.339  10.214  16.571  1.00  0.00    -0.003 C 
ATOM     10  C   UNL     1      45.888  10.905  17.817  1.00  0.00     0.004 C 
ENDBRANCH   8   9
ENDBRANCH   7   8
ENDBRANCH   1   7
BRANCH   2  11
ATOM     11  C   UNL     1      47.022   7.373  18.245  1.00  0.00     0.040 C 
BRANCH  11  12
ATOM     12  C   UNL     1      46.683   6.523  19.477  1.00  0.00     0.005 C 
BRANCH  12  13
ATOM     13  C   UNL     1      46.758   7.324  20.785  1.00  0.00    -0.003 C 
ATOM     14  C   UNL     1      45.862   8.563  20.766  1.00  0.00     0.004 C 
ENDBRANCH  12  13
ENDBRANCH  11  12
ENDBRANCH   2  11
BRANCH   3  15
ATOM     15  O   UNL     1      48.197   5.278  16.551  1.00  0.00    -0.508 OA
ATOM     16  H   UNL     1      48.754   4.706  15.930  1.00  0.00     0.293 HD
ENDBRANCH   3  15
TORSDOF 7
ENDMDL
MODEL 2
REMARK VINA RESULT:    -4.752      1.729      3.829
REMARK INTER + INTRA:          -7.707
REMARK INTER:                  -6.788
REMARK INTRA:                  -0.919
REMARK UNBOUND:                -1.150
REMARK SMILES CCCCc1cccc(O)c1CCCC
REMARK SMILES IDX 5 1 11 2 9 3 8 4 7 5 6 6 4 7 3 8 2 9 1 10 12 11 13 12 14 13
REMARK SMILES IDX 15 14 10 15
REMARK H PARENT 10 16
REMARK Flexibility Score: inf
ROOT
ATOM      1  C   UNL     1      46.215   7.127  17.444  1.00  0.00    -0.041 A 
ATOM      2  C   UNL     1      44.917   7.398  16.910  1.00  0.00    -0.003 A 
ATOM      3  C   UNL     1      44.594   6.898  15.618  1.00  0.00     0.119 A 
ATOM      4  C   UNL     1      45.489   6.062  14.946  1.00  0.00     0.046 A 
ATOM      5  C   UNL     1      46.721   5.745  15.505  1.00  0.00     0.004 A 
ATOM      6  C   UNL     1      47.088   6.283  16.734  1.00  0.00     0.004 A 
ENDROOT
BRANCH   1   7
ATOM      7  C   UNL     1      46.749   7.751  18.722  1.00  0.00     0.036 C 
BRANCH   7   8
ATOM      8  C   UNL     1      46.743   6.731  19.870  1.00  0.00     0.004 C 
BRANCH   8   9
ATOM      9  C   UNL     1      46.882   7.430  21.228  1.00  0.00    -0.003 C 
ATOM     10  C   UNL     1      47.954   6.761  22.085  1.00  0.00     0.004 C 
ENDBRANCH   8   9
ENDBRANCH   7   8
ENDBRANCH   1   7
BRANCH   2  11
ATOM     11  C   UNL     1      43.882   8.186  17.694  1.00  0.00     0.040 C 
BRANCH  11  12
ATOM     12  C   UNL     1      43.918   9.675  17.322  1.00  0.00     0.005 C 
BRANCH  12  13
ATOM     13  C   UNL     1      44.222  10.576  18.526  1.00  0.00    -0.003 C 
ATOM     14  C   UNL     1      44.025   9.858  19.862  1.00  0.00     0.004 C 
ENDBRANCH  12  13
ENDBRANCH  11  12
ENDBRANCH   2  11
BRANCH   3  15
ATOM     15  O   UNL     1      43.403   7.219  14.960  1.00  0.00    -0.508 OA
ATOM     16  H   UNL     1      42.580   6.632  14.963  1.00  0.00     0.293 HD
ENDBRANCH   3  15
TORSDOF 7
ENDMDL
MODEL 3
REMARK VINA RESULT:    -4.655      2.338      4.533
REMARK INTER + INTRA:          -7.574
REMARK INTER:                  -6.731
REMARK INTRA:                  -0.843
REMARK UNBOUND:                -1.150
REMARK SMILES CCCCc1cccc(O)c1CCCC
REMARK SMILES IDX 5 1 11 2 9 3 8 4 7 5 6 6 4 7 3 8 2 9 1 10 12 11 13 12 14 13
REMARK SMILES IDX 15 14 10 15
REMARK H PARENT 10 16
REMARK Flexibility Score: inf
ROOT
ATOM      1  C   UNL     1      46.063   7.717  19.271  1.00  0.00    -0.041 A 
ATOM      2  C   UNL     1      44.876   8.422  18.900  1.00  0.00    -0.003 A 
ATOM      3  C   UNL     1      44.428   8.342  17.552  1.00  0.00     0.119 A 
ATOM      4  C   UNL     1      45.074   7.494  16.648  1.00  0.00     0.046 A 
ATOM      5  C   UNL     1      46.186   6.757  17.038  1.00  0.00     0.004 A 
ATOM      6  C   UNL     1      46.685   6.877  18.330  1.00  0.00     0.004 A 
ENDROOT
BRANCH   1   7
ATOM      7  C   UNL     1      46.746   7.865  20.619  1.00  0.00     0.036 C 
BRANCH   7   8
ATOM      8  C   UNL     1      47.169   6.495  21.170  1.00  0.00     0.004 C 
BRANCH   8   9
ATOM      9  C   UNL     1      48.098   6.649  22.380  1.00  0.00    -0.003 C 
ATOM     10  C   UNL     1      48.195   8.108  22.817  1.00  0.00     0.004 C 
ENDBRANCH   8   9
ENDBRANCH   7   8
ENDBRANCH   1   7
BRANCH   2  11
ATOM     11  C   UNL     1      44.083   9.233  19.911  1.00  0.00     0.040 C 
BRANCH  11  12
ATOM     12  C   UNL     1      44.725  10.606  20.149  1.00  0.00     0.005 C 
BRANCH  12  13
ATOM     13  C   UNL     1      44.682  11.029  21.624  1.00  0.00    -0.003 C 
ATOM     14  C   UNL     1      44.290   9.880  22.553  1.00  0.00     0.004 C 
ENDBRANCH  12  13
ENDBRANCH  11  12
ENDBRANCH   2  11
BRANCH   3  15
ATOM     15  O   UNL     1      43.357   9.096  17.065  1.00  0.00    -0.508 OA
ATOM     16  H   UNL     1      43.447  10.032  16.695  1.00  0.00     0.293 HD
ENDBRANCH   3  15
TORSDOF 7
ENDMDL
MODEL 4
REMARK VINA RESULT:    -4.626      2.204      5.125
REMARK INTER + INTRA:          -7.533
REMARK INTER:                  -6.443
REMARK INTRA:                  -1.090
REMARK UNBOUND:                -1.150
REMARK SMILES CCCCc1cccc(O)c1CCCC
REMARK SMILES IDX 5 1 11 2 9 3 8 4 7 5 6 6 4 7 3 8 2 9 1 10 12 11 13 12 14 13
REMARK SMILES IDX 15 14 10 15
REMARK H PARENT 10 16
REMARK Flexibility Score: inf
ROOT
ATOM      1  C   UNL     1      45.817   7.505  18.432  1.00  0.00    -0.041 A 
ATOM      2  C   UNL     1      44.865   8.506  18.798  1.00  0.00    -0.003 A 
ATOM      3  C   UNL     1      44.759   8.878  20.167  1.00  0.00     0.119 A 
ATOM      4  C   UNL     1      45.653   8.357  21.106  1.00  0.00     0.046 A 
ATOM      5  C   UNL     1      46.623   7.436  20.727  1.00  0.00     0.004 A 
ATOM      6  C   UNL     1      46.696   7.002  19.408  1.00  0.00     0.004 A 
ENDROOT
BRANCH   1   7
ATOM      7  C   UNL     1      45.904   6.889  17.046  1.00  0.00     0.036 C 
BRANCH   7   8
ATOM      8  C   UNL     1      47.178   6.044  16.904  1.00  0.00     0.004 C 
BRANCH   8   9
ATOM      9  C   UNL     1      47.373   5.580  15.455  1.00  0.00    -0.003 C 
ATOM     10  C   UNL     1      46.555   6.432  14.489  1.00  0.00     0.004 C 
ENDBRANCH   8   9
ENDBRANCH   7   8
ENDBRANCH   1   7
BRANCH   2  11
ATOM     11  C   UNL     1      43.985   9.185  17.762  1.00  0.00     0.040 C 
BRANCH  11  12
ATOM     12  C   UNL     1      44.651  10.455  17.214  1.00  0.00     0.005 C 
BRANCH  12  13
ATOM     13  C   UNL     1      45.283  10.240  15.831  1.00  0.00    -0.003 C 
ATOM     14  C   UNL     1      46.812  10.240  15.878  1.00  0.00     0.004 C 
ENDBRANCH  12  13
ENDBRANCH  11  12
ENDBRANCH   2  11
BRANCH   3  15
ATOM     15  O   UNL     1      43.774   9.749  20.639  1.00  0.00    -0.508 OA
ATOM     16  H   UNL     1      43.250  10.383  20.051  1.00  0.00     0.293 HD
ENDBRANCH   3  15
TORSDOF 7
ENDMDL
MODEL 5
REMARK VINA RESULT:    -4.593      2.258      4.671
REMARK INTER + INTRA:          -7.488
REMARK INTER:                  -6.681
REMARK INTRA:                  -0.807
REMARK UNBOUND:                -1.150
REMARK SMILES CCCCc1cccc(O)c1CCCC
REMARK SMILES IDX 5 1 11 2 9 3 8 4 7 5 6 6 4 7 3 8 2 9 1 10 12 11 13 12 14 13
REMARK SMILES IDX 15 14 10 15
REMARK H PARENT 10 16
REMARK Flexibility Score: inf
ROOT
ATOM      1  C   UNL     1      46.304   7.847  19.366  1.00  0.00    -0.041 A 
ATOM      2  C   UNL     1      45.960   9.047  18.669  1.00  0.00    -0.003 A 
ATOM      3  C   UNL     1      46.141   9.092  17.259  1.00  0.00     0.119 A 
ATOM      4  C   UNL     1      46.533   7.943  16.565  1.00  0.00     0.046 A 
ATOM      5  C   UNL     1      46.795   6.760  17.245  1.00  0.00     0.004 A 
ATOM      6  C   UNL     1      46.698   6.714  18.631  1.00  0.00     0.004 A 
ENDROOT
BRANCH   1   7
ATOM      7  C   UNL     1      46.333   7.728  20.880  1.00  0.00     0.036 C 
BRANCH   7   8
ATOM      8  C   UNL     1      47.309   6.629  21.323  1.00  0.00     0.004 C 
BRANCH   8   9
ATOM      9  C   UNL     1      48.165   7.096  22.507  1.00  0.00    -0.003 C 
ATOM     10  C   UNL     1      47.817   8.526  22.908  1.00  0.00     0.004 C 
ENDBRANCH   8   9
ENDBRANCH   7   8
ENDBRANCH   1   7
BRANCH   2  11
ATOM     11  C   UNL     1      45.397  10.256  19.396  1.00  0.00     0.040 C 
BRANCH  11  12
ATOM     12  C   UNL     1      43.909  10.065  19.722  1.00  0.00     0.005 C 
BRANCH  12  13
ATOM     13  C   UNL     1      43.019  11.125  19.058  1.00  0.00    -0.003 C 
ATOM     14  C   UNL     1      42.639  10.757  17.623  1.00  0.00     0.004 C 
ENDBRANCH  12  13
ENDBRANCH  11  12
ENDBRANCH   2  11
BRANCH   3  15
ATOM     15  O   UNL     1      45.957  10.257  16.510  1.00  0.00    -0.508 OA
ATOM     16  H   UNL     1      45.776  10.267  15.515  1.00  0.00     0.293 HD
ENDBRANCH   3  15
TORSDOF 7
ENDMDL
MODEL 6
REMARK VINA RESULT:    -4.562      1.931      5.000
REMARK INTER + INTRA:          -7.446
REMARK INTER:                  -6.856
REMARK INTRA:                  -0.590
REMARK UNBOUND:                -1.150
REMARK SMILES CCCCc1cccc(O)c1CCCC
REMARK SMILES IDX 5 1 11 2 9 3 8 4 7 5 6 6 4 7 3 8 2 9 1 10 12 11 13 12 14 13
REMARK SMILES IDX 15 14 10 15
REMARK H PARENT 10 16
REMARK Flexibility Score: inf
ROOT
ATOM      1  C   UNL     1      45.570   8.399  19.253  1.00  0.00    -0.041 A 
ATOM      2  C   UNL     1      45.278   7.842  17.970  1.00  0.00    -0.003 A 
ATOM      3  C   UNL     1      44.264   8.449  17.179  1.00  0.00     0.119 A 
ATOM      4  C   UNL     1      43.657   9.634  17.604  1.00  0.00     0.046 A 
ATOM      5  C   UNL     1      44.000  10.208  18.822  1.00  0.00     0.004 A 
ATOM      6  C   UNL     1      44.935   9.591  19.646  1.00  0.00     0.004 A 
ENDROOT
BRANCH   1   7
ATOM      7  C   UNL     1      46.493   7.745  20.268  1.00  0.00     0.036 C 
BRANCH   7   8
ATOM      8  C   UNL     1      46.339   8.400  21.648  1.00  0.00     0.004 C 
BRANCH   8   9
ATOM      9  C   UNL     1      47.471   7.975  22.590  1.00  0.00    -0.003 C 
ATOM     10  C   UNL     1      48.072   6.638  22.162  1.00  0.00     0.004 C 
ENDBRANCH   8   9
ENDBRANCH   7   8
ENDBRANCH   1   7
BRANCH   2  11
ATOM     11  C   UNL     1      46.033   6.637  17.434  1.00  0.00     0.040 C 
BRANCH  11  12
ATOM     12  C   UNL     1      47.028   7.047  16.340  1.00  0.00     0.005 C 
BRANCH  12  13
ATOM     13  C   UNL     1      46.879   6.208  15.063  1.00  0.00    -0.003 C 
ATOM     14  C   UNL     1      47.897   5.070  14.985  1.00  0.00     0.004 C 
ENDBRANCH  12  13
ENDBRANCH  11  12
ENDBRANCH   2  11
BRANCH   3  15
ATOM     15  O   UNL     1      43.818   7.902  15.972  1.00  0.00    -0.508 OA
ATOM     16  H   UNL     1      43.153   7.144  15.906  1.00  0.00     0.293 HD
ENDBRANCH   3  15
TORSDOF 7
ENDMDL
MODEL 7
REMARK VINA RESULT:    -4.560      2.721      4.900
REMARK INTER + INTRA:          -7.443
REMARK INTER:                  -6.705
REMARK INTRA:                  -0.738
REMARK UNBOUND:                -1.150
REMARK SMILES CCCCc1cccc(O)c1CCCC
REMARK SMILES IDX 5 1 11 2 9 3 8 4 7 5 6 6 4 7 3 8 2 9 1 10 12 11 13 12 14 13
REMARK SMILES IDX 15 14 10 15
REMARK H PARENT 10 16
REMARK Flexibility Score: inf
ROOT
ATOM      1  C   UNL     1      45.412   8.427  19.144  1.00  0.00    -0.041 A 
ATOM      2  C   UNL     1      45.033   8.803  20.470  1.00  0.00    -0.003 A 
ATOM      3  C   UNL     1      44.063   9.830  20.636  1.00  0.00     0.119 A 
ATOM      4  C   UNL     1      43.415  10.370  19.521  1.00  0.00     0.046 A 
ATOM      5  C   UNL     1      43.740   9.947  18.238  1.00  0.00     0.004 A 
ATOM      6  C   UNL     1      44.738   8.997  18.049  1.00  0.00     0.004 A 
ENDROOT
BRANCH   1   7
ATOM      7  C   UNL     1      46.559   7.482  18.829  1.00  0.00     0.036 C 
BRANCH   7   8
ATOM      8  C   UNL     1      46.782   7.379  17.313  1.00  0.00     0.004 C 
BRANCH   8   9
ATOM      9  C   UNL     1      47.190   5.957  16.911  1.00  0.00    -0.003 C 
ATOM     10  C   UNL     1      47.197   5.794  15.393  1.00  0.00     0.004 C 
ENDBRANCH   8   9
ENDBRANCH   7   8
ENDBRANCH   1   7
BRANCH   2  11
ATOM     11  C   UNL     1      45.626   8.121  21.691  1.00  0.00     0.040 C 
BRANCH  11  12
ATOM     12  C   UNL     1      46.781   8.943  22.280  1.00  0.00     0.005 C 
BRANCH  12  13
ATOM     13  C   UNL     1      47.947   8.065  22.755  1.00  0.00    -0.003 C 
ATOM     14  C   UNL     1      47.935   6.676  22.114  1.00  0.00     0.004 C 
ENDBRANCH  12  13
ENDBRANCH  11  12
ENDBRANCH   2  11
BRANCH   3  15
ATOM     15  O   UNL     1      43.724  10.354  21.886  1.00  0.00    -0.508 OA
ATOM     16  H   UNL     1      43.191  11.204  22.018  1.00  0.00     0.293 HD
ENDBRANCH   3  15
TORSDOF 7
ENDMDL
MODEL 8
REMARK VINA RESULT:    -4.539      4.123      7.640
REMARK INTER + INTRA:          -7.414
REMARK INTER:                  -6.292
REMARK INTRA:                  -1.122
REMARK UNBOUND:                -1.150
REMARK SMILES CCCCc1cccc(O)c1CCCC
REMARK SMILES IDX 5 1 11 2 9 3 8 4 7 5 6 6 4 7 3 8 2 9 1 10 12 11 13 12 14 13
REMARK SMILES IDX 15 14 10 15
REMARK H PARENT 10 16
REMARK Flexibility Score: inf
ROOT
ATOM      1  C   UNL     1      45.978   9.543  23.218  1.00  0.00    -0.041 A 
ATOM      2  C   UNL     1      44.597   9.224  23.034  1.00  0.00    -0.003 A 
ATOM      3  C   UNL     1      43.671   9.598  24.047  1.00  0.00     0.119 A 
ATOM      4  C   UNL     1      44.094  10.364  25.136  1.00  0.00     0.046 A 
ATOM      5  C   UNL     1      45.428  10.731  25.270  1.00  0.00     0.004 A 
ATOM      6  C   UNL     1      46.364  10.313  24.330  1.00  0.00     0.004 A 
ENDROOT
BRANCH   1   7
ATOM      7  C   UNL     1      47.088   9.045  22.308  1.00  0.00     0.036 C 
BRANCH   7   8
ATOM      8  C   UNL     1      47.976   8.026  23.039  1.00  0.00     0.004 C 
BRANCH   8   9
ATOM      9  C   UNL     1      48.096   6.725  22.237  1.00  0.00    -0.003 C 
ATOM     10  C   UNL     1      47.181   6.743  21.015  1.00  0.00     0.004 C 
ENDBRANCH   8   9
ENDBRANCH   7   8
ENDBRANCH   1   7
BRANCH   2  11
ATOM     11  C   UNL     1      44.103   8.517  21.784  1.00  0.00     0.040 C 
BRANCH  11  12
ATOM     12  C   UNL     1      44.085   9.467  20.578  1.00  0.00     0.005 C 
BRANCH  12  13
ATOM     13  C   UNL     1      44.543   8.784  19.282  1.00  0.00    -0.003 C 
ATOM     14  C   UNL     1      45.861   9.351  18.754  1.00  0.00     0.004 C 
ENDBRANCH  12  13
ENDBRANCH  11  12
ENDBRANCH   2  11
BRANCH   3  15
ATOM     15  O   UNL     1      42.326   9.218  24.019  1.00  0.00    -0.508 OA
ATOM     16  H   UNL     1      41.577   9.760  24.426  1.00  0.00     0.293 HD
ENDBRANCH   3  15
TORSDOF 7
ENDMDL
MODEL 9
REMARK VINA RESULT:    -4.516      2.768      6.278
REMARK INTER + INTRA:          -7.382
REMARK INTER:                  -6.552
REMARK INTRA:                  -0.830
REMARK UNBOUND:                -1.150
REMARK SMILES CCCCc1cccc(O)c1CCCC
REMARK SMILES IDX 5 1 11 2 9 3 8 4 7 5 6 6 4 7 3 8 2 9 1 10 12 11 13 12 14 13
REMARK SMILES IDX 15 14 10 15
REMARK H PARENT 10 16
REMARK Flexibility Score: inf
ROOT
ATOM      1  C   UNL     1      46.321   9.163  22.377  1.00  0.00    -0.041 A 
ATOM      2  C   UNL     1      45.994   8.308  21.279  1.00  0.00    -0.003 A 
ATOM      3  C   UNL     1      46.894   7.259  20.941  1.00  0.00     0.119 A 
ATOM      4  C   UNL     1      48.008   7.005  21.744  1.00  0.00     0.046 A 
ATOM      5  C   UNL     1      48.280   7.798  22.853  1.00  0.00     0.004 A 
ATOM      6  C   UNL     1      47.455   8.875  23.158  1.00  0.00     0.004 A 
ENDROOT
BRANCH   1   7
ATOM      7  C   UNL     1      45.547  10.423  22.726  1.00  0.00     0.036 C 
BRANCH   7   8
ATOM      8  C   UNL     1      45.548  10.661  24.243  1.00  0.00     0.004 C 
BRANCH   8   9
ATOM      9  C   UNL     1      44.377   9.933  24.915  1.00  0.00    -0.003 C 
ATOM     10  C   UNL     1      44.876   8.889  25.911  1.00  0.00     0.004 C 
ENDBRANCH   8   9
ENDBRANCH   7   8
ENDBRANCH   1   7
BRANCH   2  11
ATOM     11  C   UNL     1      44.710   8.485  20.487  1.00  0.00     0.040 C 
BRANCH  11  12
ATOM     12  C   UNL     1      44.949   9.321  19.222  1.00  0.00     0.005 C 
BRANCH  12  13
ATOM     13  C   UNL     1      44.069   8.875  18.045  1.00  0.00    -0.003 C 
ATOM     14  C   UNL     1      44.707   7.749  17.230  1.00  0.00     0.004 C 
ENDBRANCH  12  13
ENDBRANCH  11  12
ENDBRANCH   2  11
BRANCH   3  15
ATOM     15  O   UNL     1      46.726   6.455  19.810  1.00  0.00    -0.508 OA
ATOM     16  H   UNL     1      47.176   5.559  19.682  1.00  0.00     0.293 HD
ENDBRANCH   3  15
TORSDOF 7
ENDMDL
