MODEL 1
REMARK VINA RESULT:    -3.519      0.000      0.000
REMARK INTER + INTRA:         -12.313
REMARK INTER:                  -9.279
REMARK INTRA:                  -3.034
REMARK UNBOUND:                -3.034
REMARK SMILES CCCCCCCCCCCCCCCCCCCCCCCCCCCCCC(=O)[O-]
REMARK SMILES IDX 16 1 17 2 18 3 19 4 20 5 21 6 22 7 23 8 24 9 25 10 26 11
REMARK SMILES IDX 27 12 28 13 29 14 30 15 31 16 32 17 15 18 14 19 13 20 12 21
REMARK SMILES IDX 11 22 10 23 9 24 8 25 7 26 6 27 5 28 4 29 3 30 2 31 1 32
REMARK H PARENT
REMARK Flexibility Score: inf
ROOT
ATOM      1  C   UNL     1      44.587  27.611   0.957  1.00  0.00     0.000 C 
ENDROOT
BRANCH   1   2
ATOM      2  C   UNL     1      43.135  27.258   1.320  1.00  0.00     0.000 C 
BRANCH   2   3
ATOM      3  C   UNL     1      42.117  28.232   0.702  1.00  0.00     0.000 C 
BRANCH   3   4
ATOM      4  C   UNL     1      42.763  29.571   0.288  1.00  0.00     0.000 C 
BRANCH   4   5
ATOM      5  C   UNL     1      42.771  29.780  -1.239  1.00  0.00     0.000 C 
BRANCH   5   6
ATOM      6  C   UNL     1      44.179  29.735  -1.872  1.00  0.00     0.000 C 
BRANCH   6   7
ATOM      7  C   UNL     1      44.501  28.417  -2.610  1.00  0.00     0.000 C 
BRANCH   7   8
ATOM      8  C   UNL     1      45.999  28.048  -2.594  1.00  0.00     0.000 C 
BRANCH   8   9
ATOM      9  C   UNL     1      46.771  28.508  -3.846  1.00  0.00     0.000 C 
BRANCH   9  10
ATOM     10  C   UNL     1      46.988  27.375  -4.868  1.00  0.00     0.000 C 
BRANCH  10  11
ATOM     11  C   UNL     1      45.860  27.300  -5.911  1.00  0.00     0.000 C 
BRANCH  11  12
ATOM     12  C   UNL     1      45.754  28.587  -6.753  1.00  0.00     0.000 C 
BRANCH  12  13
ATOM     13  C   UNL     1      44.307  28.944  -7.125  1.00  0.00     0.006 C 
BRANCH  13  14
ATOM     14  C   UNL     1      43.306  27.841  -6.750  1.00  0.00     0.053 C 
BRANCH  14  15
ATOM     15  C   UNL     1      42.184  28.408  -5.936  1.00  0.00     0.041 C 
ATOM     16  O   UNL     1      41.944  27.954  -4.784  1.00  0.00    -0.550 OA
ATOM     17  O   UNL     1      41.389  29.423  -6.458  1.00  0.00    -0.550 OA
ENDBRANCH  14  15
ENDBRANCH  13  14
ENDBRANCH  12  13
ENDBRANCH  11  12
ENDBRANCH  10  11
ENDBRANCH   9  10
ENDBRANCH   8   9
ENDBRANCH   7   8
ENDBRANCH   6   7
ENDBRANCH   5   6
ENDBRANCH   4   5
ENDBRANCH   3   4
ENDBRANCH   2   3
ENDBRANCH   1   2
BRANCH   1  18
ATOM     18  C   UNL     1      45.585  27.240   2.071  1.00  0.00     0.000 C 
BRANCH  18  19
ATOM     19  C   UNL     1      45.157  26.045   2.961  1.00  0.00     0.000 C 
BRANCH  19  20
ATOM     20  C   UNL     1      46.309  25.227   3.583  1.00  0.00     0.000 C 
BRANCH  20  21
ATOM     21  C   UNL     1      47.118  25.963   4.671  1.00  0.00     0.000 C 
BRANCH  21  22
ATOM     22  C   UNL     1      47.050  25.296   6.064  1.00  0.00     0.000 C 
BRANCH  22  23
ATOM     23  C   UNL     1      46.924  26.302   7.234  1.00  0.00     0.000 C 
BRANCH  23  24
ATOM     24  C   UNL     1      45.715  26.029   8.151  1.00  0.00    -0.000 C 
BRANCH  24  25
ATOM     25  C   UNL     1      45.592  27.011   9.335  1.00  0.00    -0.000 C 
BRANCH  25  26
ATOM     26  C   UNL     1      46.956  27.401   9.951  1.00  0.00    -0.000 C 
BRANCH  26  27
ATOM     27  C   UNL     1      46.946  28.744  10.704  1.00  0.00    -0.000 C 
BRANCH  27  28
ATOM     28  C   UNL     1      46.340  29.910   9.900  1.00  0.00    -0.000 C 
BRANCH  28  29
ATOM     29  C   UNL     1      47.027  30.111   8.539  1.00  0.00    -0.000 C 
BRANCH  29  30
ATOM     30  C   UNL     1      46.005  30.091   7.394  1.00  0.00    -0.000 C 
BRANCH  30  31
ATOM     31  C   UNL     1      46.608  29.465   6.131  1.00  0.00    -0.003 C 
ATOM     32  C   UNL     1      45.595  29.441   4.991  1.00  0.00     0.004 C 
ENDBRANCH  30  31
ENDBRANCH  29  30
ENDBRANCH  28  29
ENDBRANCH  27  28
ENDBRANCH  26  27
ENDBRANCH  25  26
ENDBRANCH  24  25
ENDBRANCH  23  24
ENDBRANCH  22  23
ENDBRANCH  21  22
ENDBRANCH  20  21
ENDBRANCH  19  20
ENDBRANCH  18  19
ENDBRANCH   1  18
TORSDOF 28
ENDMDL
MODEL 2
REMARK VINA RESULT:    -3.300      2.039      3.825
REMARK INTER + INTRA:         -11.735
REMARK INTER:                  -8.773
REMARK INTRA:                  -2.962
REMARK UNBOUND:                -3.034
REMARK SMILES CCCCCCCCCCCCCCCCCCCCCCCCCCCCCC(=O)[O-]
REMARK SMILES IDX 16 1 17 2 18 3 19 4 20 5 21 6 22 7 23 8 24 9 25 10 26 11
REMARK SMILES IDX 27 12 28 13 29 14 30 15 31 16 32 17 15 18 14 19 13 20 12 21
REMARK SMILES IDX 11 22 10 23 9 24 8 25 7 26 6 27 5 28 4 29 3 30 2 31 1 32
REMARK H PARENT
REMARK Flexibility Score: inf
ROOT
ATOM      1  C   UNL     1      43.075  27.547   0.471  1.00  0.00     0.000 C 
ENDROOT
BRANCH   1   2
ATOM      2  C   UNL     1      43.413  28.964  -0.023  1.00  0.00     0.000 C 
BRANCH   2   3
ATOM      3  C   UNL     1      42.337  29.536  -0.962  1.00  0.00     0.000 C 
BRANCH   3   4
ATOM      4  C   UNL     1      42.910  29.929  -2.340  1.00  0.00     0.000 C 
BRANCH   4   5
ATOM      5  C   UNL     1      42.483  28.960  -3.461  1.00  0.00     0.000 C 
BRANCH   5   6
ATOM      6  C   UNL     1      43.406  27.732  -3.616  1.00  0.00     0.000 C 
BRANCH   6   7
ATOM      7  C   UNL     1      43.077  26.841  -4.835  1.00  0.00     0.000 C 
BRANCH   7   8
ATOM      8  C   UNL     1      43.138  27.589  -6.183  1.00  0.00     0.000 C 
BRANCH   8   9
ATOM      9  C   UNL     1      44.545  27.645  -6.806  1.00  0.00     0.000 C 
BRANCH   9  10
ATOM     10  C   UNL     1      45.271  28.976  -6.536  1.00  0.00     0.000 C 
BRANCH  10  11
ATOM     11  C   UNL     1      46.704  28.772  -6.016  1.00  0.00     0.000 C 
BRANCH  11  12
ATOM     12  C   UNL     1      46.925  27.356  -5.450  1.00  0.00     0.000 C 
BRANCH  12  13
ATOM     13  C   UNL     1      47.093  27.339  -3.923  1.00  0.00     0.006 C 
BRANCH  13  14
ATOM     14  C   UNL     1      46.454  28.556  -3.240  1.00  0.00     0.053 C 
BRANCH  14  15
ATOM     15  C   UNL     1      46.631  28.476  -1.755  1.00  0.00     0.041 C 
ATOM     16  O   UNL     1      46.565  27.361  -1.168  1.00  0.00    -0.550 OA
ATOM     17  O   UNL     1      46.849  29.634  -1.016  1.00  0.00    -0.550 OA
ENDBRANCH  14  15
ENDBRANCH  13  14
ENDBRANCH  12  13
ENDBRANCH  11  12
ENDBRANCH  10  11
ENDBRANCH   9  10
ENDBRANCH   8   9
ENDBRANCH   7   8
ENDBRANCH   6   7
ENDBRANCH   5   6
ENDBRANCH   4   5
ENDBRANCH   3   4
ENDBRANCH   2   3
ENDBRANCH   1   2
BRANCH   1  18
ATOM     18  C   UNL     1      43.109  27.430   2.007  1.00  0.00     0.000 C 
BRANCH  18  19
ATOM     19  C   UNL     1      44.509  27.610   2.646  1.00  0.00     0.000 C 
BRANCH  19  20
ATOM     20  C   UNL     1      44.854  29.041   3.112  1.00  0.00     0.000 C 
BRANCH  20  21
ATOM     21  C   UNL     1      46.363  29.350   3.209  1.00  0.00     0.000 C 
BRANCH  21  22
ATOM     22  C   UNL     1      46.765  30.124   4.485  1.00  0.00     0.000 C 
BRANCH  22  23
ATOM     23  C   UNL     1      45.764  29.962   5.656  1.00  0.00     0.000 C 
BRANCH  23  24
ATOM     24  C   UNL     1      46.421  29.471   6.962  1.00  0.00    -0.000 C 
BRANCH  24  25
ATOM     25  C   UNL     1      45.753  30.015   8.242  1.00  0.00    -0.000 C 
BRANCH  25  26
ATOM     26  C   UNL     1      44.869  28.970   8.962  1.00  0.00    -0.000 C 
BRANCH  26  27
ATOM     27  C   UNL     1      45.640  27.737   9.471  1.00  0.00    -0.000 C 
BRANCH  27  28
ATOM     28  C   UNL     1      45.562  26.517   8.534  1.00  0.00    -0.000 C 
BRANCH  28  29
ATOM     29  C   UNL     1      46.926  25.834   8.335  1.00  0.00    -0.000 C 
BRANCH  29  30
ATOM     30  C   UNL     1      47.112  25.384   6.880  1.00  0.00    -0.000 C 
BRANCH  30  31
ATOM     31  C   UNL     1      46.264  26.237   5.929  1.00  0.00    -0.003 C 
ATOM     32  C   UNL     1      46.442  25.791   4.482  1.00  0.00     0.004 C 
ENDBRANCH  30  31
ENDBRANCH  29  30
ENDBRANCH  28  29
ENDBRANCH  27  28
ENDBRANCH  26  27
ENDBRANCH  25  26
ENDBRANCH  24  25
ENDBRANCH  23  24
ENDBRANCH  22  23
ENDBRANCH  21  22
ENDBRANCH  20  21
ENDBRANCH  19  20
ENDBRANCH  18  19
ENDBRANCH   1  18
TORSDOF 28
ENDMDL
MODEL 3
REMARK VINA RESULT:    -2.669      2.250      4.407
REMARK INTER + INTRA:         -10.073
REMARK INTER:                  -7.532
REMARK INTRA:                  -2.541
REMARK UNBOUND:                -3.034
REMARK SMILES CCCCCCCCCCCCCCCCCCCCCCCCCCCCCC(=O)[O-]
REMARK SMILES IDX 16 1 17 2 18 3 19 4 20 5 21 6 22 7 23 8 24 9 25 10 26 11
REMARK SMILES IDX 27 12 28 13 29 14 30 15 31 16 32 17 15 18 14 19 13 20 12 21
REMARK SMILES IDX 11 22 10 23 9 24 8 25 7 26 6 27 5 28 4 29 3 30 2 31 1 32
REMARK H PARENT
REMARK Flexibility Score: inf
ROOT
ATOM      1  C   UNL     1      43.019  27.541   0.508  1.00  0.00     0.000 C 
ENDROOT
BRANCH   1   2
ATOM      2  C   UNL     1      43.354  28.949  -0.011  1.00  0.00     0.000 C 
BRANCH   2   3
ATOM      3  C   UNL     1      42.263  29.514  -0.937  1.00  0.00     0.000 C 
BRANCH   3   4
ATOM      4  C   UNL     1      42.839  30.045  -2.267  1.00  0.00     0.000 C 
BRANCH   4   5
ATOM      5  C   UNL     1      42.549  29.110  -3.457  1.00  0.00     0.000 C 
BRANCH   5   6
ATOM      6  C   UNL     1      43.467  27.870  -3.522  1.00  0.00     0.000 C 
BRANCH   6   7
ATOM      7  C   UNL     1      43.248  26.983  -4.767  1.00  0.00     0.000 C 
BRANCH   7   8
ATOM      8  C   UNL     1      42.590  27.724  -5.948  1.00  0.00     0.000 C 
BRANCH   8   9
ATOM      9  C   UNL     1      43.590  28.226  -7.009  1.00  0.00     0.000 C 
BRANCH   9  10
ATOM     10  C   UNL     1      43.839  29.744  -6.930  1.00  0.00     0.000 C 
BRANCH  10  11
ATOM     11  C   UNL     1      45.336  30.095  -6.905  1.00  0.00     0.000 C 
BRANCH  11  12
ATOM     12  C   UNL     1      46.172  29.043  -6.150  1.00  0.00     0.000 C 
BRANCH  12  13
ATOM     13  C   UNL     1      46.501  29.460  -4.708  1.00  0.00     0.006 C 
BRANCH  13  14
ATOM     14  C   UNL     1      47.121  28.321  -3.886  1.00  0.00     0.053 C 
BRANCH  14  15
ATOM     15  C   UNL     1      46.631  28.369  -2.472  1.00  0.00     0.041 C 
ATOM     16  O   UNL     1      46.302  29.471  -1.952  1.00  0.00    -0.550 OA
ATOM     17  O   UNL     1      46.557  27.201  -1.721  1.00  0.00    -0.550 OA
ENDBRANCH  14  15
ENDBRANCH  13  14
ENDBRANCH  12  13
ENDBRANCH  11  12
ENDBRANCH  10  11
ENDBRANCH   9  10
ENDBRANCH   8   9
ENDBRANCH   7   8
ENDBRANCH   6   7
ENDBRANCH   5   6
ENDBRANCH   4   5
ENDBRANCH   3   4
ENDBRANCH   2   3
ENDBRANCH   1   2
BRANCH   1  18
ATOM     18  C   UNL     1      43.142  27.427   2.040  1.00  0.00     0.000 C 
BRANCH  18  19
ATOM     19  C   UNL     1      44.585  27.546   2.591  1.00  0.00     0.000 C 
BRANCH  19  20
ATOM     20  C   UNL     1      44.962  28.917   3.192  1.00  0.00     0.000 C 
BRANCH  20  21
ATOM     21  C   UNL     1      46.477  29.193   3.284  1.00  0.00     0.000 C 
BRANCH  21  22
ATOM     22  C   UNL     1      46.916  29.851   4.613  1.00  0.00     0.000 C 
BRANCH  22  23
ATOM     23  C   UNL     1      45.845  29.779   5.730  1.00  0.00     0.000 C 
BRANCH  23  24
ATOM     24  C   UNL     1      46.345  29.092   7.017  1.00  0.00    -0.000 C 
BRANCH  24  25
ATOM     25  C   UNL     1      45.635  29.572   8.299  1.00  0.00    -0.000 C 
BRANCH  25  26
ATOM     26  C   UNL     1      44.948  28.428   9.082  1.00  0.00    -0.000 C 
BRANCH  26  27
ATOM     27  C   UNL     1      45.663  27.069   8.968  1.00  0.00    -0.000 C 
BRANCH  27  28
ATOM     28  C   UNL     1      46.804  26.873   9.985  1.00  0.00    -0.000 C 
BRANCH  28  29
ATOM     29  C   UNL     1      47.083  25.391  10.284  1.00  0.00    -0.000 C 
BRANCH  29  30
ATOM     30  C   UNL     1      46.563  25.000  11.674  1.00  0.00    -0.000 C 
BRANCH  30  31
ATOM     31  C   UNL     1      46.444  23.477  11.807  1.00  0.00    -0.003 C 
ATOM     32  C   UNL     1      45.718  23.091  13.092  1.00  0.00     0.004 C 
ENDBRANCH  30  31
ENDBRANCH  29  30
ENDBRANCH  28  29
ENDBRANCH  27  28
ENDBRANCH  26  27
ENDBRANCH  25  26
ENDBRANCH  24  25
ENDBRANCH  23  24
ENDBRANCH  22  23
ENDBRANCH  21  22
ENDBRANCH  20  21
ENDBRANCH  19  20
ENDBRANCH  18  19
ENDBRANCH   1  18
TORSDOF 28
ENDMDL
MODEL 4
REMARK VINA RESULT:    -2.517      3.759     12.004
REMARK INTER + INTRA:          -9.671
REMARK INTER:                  -7.620
REMARK INTRA:                  -2.051
REMARK UNBOUND:                -3.034
REMARK SMILES CCCCCCCCCCCCCCCCCCCCCCCCCCCCCC(=O)[O-]
REMARK SMILES IDX 16 1 17 2 18 3 19 4 20 5 21 6 22 7 23 8 24 9 25 10 26 11
REMARK SMILES IDX 27 12 28 13 29 14 30 15 31 16 32 17 15 18 14 19 13 20 12 21
REMARK SMILES IDX 11 22 10 23 9 24 8 25 7 26 6 27 5 28 4 29 3 30 2 31 1 32
REMARK H PARENT
REMARK Flexibility Score: inf
ROOT
ATOM      1  C   UNL     1      43.068  26.880   0.064  1.00  0.00     0.000 C 
ENDROOT
BRANCH   1   2
ATOM      2  C   UNL     1      43.985  27.327   1.216  1.00  0.00     0.000 C 
BRANCH   2   3
ATOM      3  C   UNL     1      45.444  26.880   1.019  1.00  0.00     0.000 C 
BRANCH   3   4
ATOM      4  C   UNL     1      46.451  27.893   1.603  1.00  0.00     0.000 C 
BRANCH   4   5
ATOM      5  C   UNL     1      45.931  28.580   2.881  1.00  0.00     0.000 C 
BRANCH   5   6
ATOM      6  C   UNL     1      45.435  27.599   3.965  1.00  0.00     0.000 C 
BRANCH   6   7
ATOM      7  C   UNL     1      46.000  27.875   5.376  1.00  0.00     0.000 C 
BRANCH   7   8
ATOM      8  C   UNL     1      47.078  26.864   5.820  1.00  0.00     0.000 C 
BRANCH   8   9
ATOM      9  C   UNL     1      46.829  26.251   7.211  1.00  0.00     0.000 C 
BRANCH   9  10
ATOM     10  C   UNL     1      45.518  26.739   7.857  1.00  0.00     0.000 C 
BRANCH  10  11
ATOM     11  C   UNL     1      45.666  26.998   9.366  1.00  0.00     0.000 C 
BRANCH  11  12
ATOM     12  C   UNL     1      47.030  27.621   9.723  1.00  0.00     0.000 C 
BRANCH  12  13
ATOM     13  C   UNL     1      46.927  28.720  10.792  1.00  0.00     0.006 C 
BRANCH  13  14
ATOM     14  C   UNL     1      46.718  30.117  10.191  1.00  0.00     0.053 C 
BRANCH  14  15
ATOM     15  C   UNL     1      45.549  30.115   9.255  1.00  0.00     0.041 C 
ATOM     16  O   UNL     1      44.373  30.121   9.711  1.00  0.00    -0.550 OA
ATOM     17  O   UNL     1      45.758  30.085   7.881  1.00  0.00    -0.550 OA
ENDBRANCH  14  15
ENDBRANCH  13  14
ENDBRANCH  12  13
ENDBRANCH  11  12
ENDBRANCH  10  11
ENDBRANCH   9  10
ENDBRANCH   8   9
ENDBRANCH   7   8
ENDBRANCH   6   7
ENDBRANCH   5   6
ENDBRANCH   4   5
ENDBRANCH   3   4
ENDBRANCH   2   3
ENDBRANCH   1   2
BRANCH   1  18
ATOM     18  C   UNL     1      42.611  28.056  -0.821  1.00  0.00     0.000 C 
BRANCH  18  19
ATOM     19  C   UNL     1      43.714  28.664  -1.723  1.00  0.00     0.000 C 
BRANCH  19  20
ATOM     20  C   UNL     1      44.197  30.077  -1.332  1.00  0.00     0.000 C 
BRANCH  20  21
ATOM     21  C   UNL     1      45.566  30.125  -0.622  1.00  0.00     0.000 C 
BRANCH  21  22
ATOM     22  C   UNL     1      46.745  29.645  -1.498  1.00  0.00     0.000 C 
BRANCH  22  23
ATOM     23  C   UNL     1      46.634  30.069  -2.984  1.00  0.00     0.000 C 
BRANCH  23  24
ATOM     24  C   UNL     1      47.122  28.988  -3.969  1.00  0.00    -0.000 C 
BRANCH  24  25
ATOM     25  C   UNL     1      46.468  27.607  -3.758  1.00  0.00    -0.000 C 
BRANCH  25  26
ATOM     26  C   UNL     1      45.864  27.012  -5.052  1.00  0.00    -0.000 C 
BRANCH  26  27
ATOM     27  C   UNL     1      46.511  27.536  -6.348  1.00  0.00    -0.000 C 
BRANCH  27  28
ATOM     28  C   UNL     1      45.640  28.545  -7.121  1.00  0.00    -0.000 C 
BRANCH  28  29
ATOM     29  C   UNL     1      44.149  28.165  -7.116  1.00  0.00    -0.000 C 
BRANCH  29  30
ATOM     30  C   UNL     1      43.259  29.415  -7.120  1.00  0.00    -0.000 C 
BRANCH  30  31
ATOM     31  C   UNL     1      42.097  29.263  -6.132  1.00  0.00    -0.003 C 
ATOM     32  C   UNL     1      42.388  28.176  -5.102  1.00  0.00     0.004 C 
ENDBRANCH  30  31
ENDBRANCH  29  30
ENDBRANCH  28  29
ENDBRANCH  27  28
ENDBRANCH  26  27
ENDBRANCH  25  26
ENDBRANCH  24  25
ENDBRANCH  23  24
ENDBRANCH  22  23
ENDBRANCH  21  22
ENDBRANCH  20  21
ENDBRANCH  19  20
ENDBRANCH  18  19
ENDBRANCH   1  18
TORSDOF 28
ENDMDL
MODEL 5
REMARK VINA RESULT:    -2.344      4.286     11.528
REMARK INTER + INTRA:          -9.216
REMARK INTER:                  -7.358
REMARK INTRA:                  -1.858
REMARK UNBOUND:                -3.034
REMARK SMILES CCCCCCCCCCCCCCCCCCCCCCCCCCCCCC(=O)[O-]
REMARK SMILES IDX 16 1 17 2 18 3 19 4 20 5 21 6 22 7 23 8 24 9 25 10 26 11
REMARK SMILES IDX 27 12 28 13 29 14 30 15 31 16 32 17 15 18 14 19 13 20 12 21
REMARK SMILES IDX 11 22 10 23 9 24 8 25 7 26 6 27 5 28 4 29 3 30 2 31 1 32
REMARK H PARENT
REMARK Flexibility Score: inf
ROOT
ATOM      1  C   UNL     1      42.524  26.540   0.287  1.00  0.00     0.000 C 
ENDROOT
BRANCH   1   2
ATOM      2  C   UNL     1      42.290  27.768   1.183  1.00  0.00     0.000 C 
BRANCH   2   3
ATOM      3  C   UNL     1      43.383  27.938   2.252  1.00  0.00     0.000 C 
BRANCH   3   4
ATOM      4  C   UNL     1      43.940  29.376   2.298  1.00  0.00     0.000 C 
BRANCH   4   5
ATOM      5  C   UNL     1      45.481  29.418   2.282  1.00  0.00     0.000 C 
BRANCH   5   6
ATOM      6  C   UNL     1      46.150  28.203   2.962  1.00  0.00     0.000 C 
BRANCH   6   7
ATOM      7  C   UNL     1      46.414  27.012   2.015  1.00  0.00     0.000 C 
BRANCH   7   8
ATOM      8  C   UNL     1      46.467  25.649   2.734  1.00  0.00     0.000 C 
BRANCH   8   9
ATOM      9  C   UNL     1      47.006  25.720   4.175  1.00  0.00     0.000 C 
BRANCH   9  10
ATOM     10  C   UNL     1      45.933  26.136   5.199  1.00  0.00     0.000 C 
BRANCH  10  11
ATOM     11  C   UNL     1      46.506  26.999   6.335  1.00  0.00     0.000 C 
BRANCH  11  12
ATOM     12  C   UNL     1      45.525  28.097   6.790  1.00  0.00     0.000 C 
BRANCH  12  13
ATOM     13  C   UNL     1      45.654  28.438   8.283  1.00  0.00     0.006 C 
BRANCH  13  14
ATOM     14  C   UNL     1      45.085  27.343   9.195  1.00  0.00     0.053 C 
BRANCH  14  15
ATOM     15  C   UNL     1      46.187  26.479   9.725  1.00  0.00     0.041 C 
ATOM     16  O   UNL     1      46.989  26.932  10.587  1.00  0.00    -0.550 OA
ATOM     17  O   UNL     1      46.342  25.180   9.253  1.00  0.00    -0.550 OA
ENDBRANCH  14  15
ENDBRANCH  13  14
ENDBRANCH  12  13
ENDBRANCH  11  12
ENDBRANCH  10  11
ENDBRANCH   9  10
ENDBRANCH   8   9
ENDBRANCH   7   8
ENDBRANCH   6   7
ENDBRANCH   5   6
ENDBRANCH   4   5
ENDBRANCH   3   4
ENDBRANCH   2   3
ENDBRANCH   1   2
BRANCH   1  18
ATOM     18  C   UNL     1      43.641  26.766  -0.750  1.00  0.00     0.000 C 
BRANCH  18  19
ATOM     19  C   UNL     1      44.035  28.247  -0.975  1.00  0.00     0.000 C 
BRANCH  19  20
ATOM     20  C   UNL     1      45.530  28.507  -1.261  1.00  0.00     0.000 C 
BRANCH  20  21
ATOM     21  C   UNL     1      45.849  29.897  -1.851  1.00  0.00     0.000 C 
BRANCH  21  22
ATOM     22  C   UNL     1      47.125  29.931  -2.722  1.00  0.00     0.000 C 
BRANCH  22  23
ATOM     23  C   UNL     1      46.846  30.125  -4.234  1.00  0.00     0.000 C 
BRANCH  23  24
ATOM     24  C   UNL     1      45.389  29.817  -4.634  1.00  0.00    -0.000 C 
BRANCH  24  25
ATOM     25  C   UNL     1      45.193  29.567  -6.143  1.00  0.00    -0.000 C 
BRANCH  25  26
ATOM     26  C   UNL     1      43.846  30.100  -6.682  1.00  0.00    -0.000 C 
BRANCH  26  27
ATOM     27  C   UNL     1      42.722  29.047  -6.723  1.00  0.00    -0.000 C 
BRANCH  27  28
ATOM     28  C   UNL     1      42.303  28.523  -5.335  1.00  0.00    -0.000 C 
BRANCH  28  29
ATOM     29  C   UNL     1      42.365  26.989  -5.238  1.00  0.00    -0.000 C 
BRANCH  29  30
ATOM     30  C   UNL     1      43.767  26.470  -5.584  1.00  0.00    -0.000 C 
BRANCH  30  31
ATOM     31  C   UNL     1      44.788  26.894  -4.521  1.00  0.00    -0.003 C 
ATOM     32  C   UNL     1      46.196  26.450  -4.902  1.00  0.00     0.004 C 
ENDBRANCH  30  31
ENDBRANCH  29  30
ENDBRANCH  28  29
ENDBRANCH  27  28
ENDBRANCH  26  27
ENDBRANCH  25  26
ENDBRANCH  24  25
ENDBRANCH  23  24
ENDBRANCH  22  23
ENDBRANCH  21  22
ENDBRANCH  20  21
ENDBRANCH  19  20
ENDBRANCH  18  19
ENDBRANCH   1  18
TORSDOF 28
ENDMDL
MODEL 6
REMARK VINA RESULT:    -2.210      4.843     11.948
REMARK INTER + INTRA:          -8.862
REMARK INTER:                  -6.841
REMARK INTRA:                  -2.021
REMARK UNBOUND:                -3.034
REMARK SMILES CCCCCCCCCCCCCCCCCCCCCCCCCCCCCC(=O)[O-]
REMARK SMILES IDX 16 1 17 2 18 3 19 4 20 5 21 6 22 7 23 8 24 9 25 10 26 11
REMARK SMILES IDX 27 12 28 13 29 14 30 15 31 16 32 17 15 18 14 19 13 20 12 21
REMARK SMILES IDX 11 22 10 23 9 24 8 25 7 26 6 27 5 28 4 29 3 30 2 31 1 32
REMARK H PARENT
REMARK Flexibility Score: inf
ROOT
ATOM      1  C   UNL     1      42.781  27.170  -1.116  1.00  0.00     0.000 C 
ENDROOT
BRANCH   1   2
ATOM      2  C   UNL     1      43.165  26.638   0.275  1.00  0.00     0.000 C 
BRANCH   2   3
ATOM      3  C   UNL     1      42.702  27.566   1.412  1.00  0.00     0.000 C 
BRANCH   3   4
ATOM      4  C   UNL     1      43.857  27.953   2.360  1.00  0.00     0.000 C 
BRANCH   4   5
ATOM      5  C   UNL     1      44.464  29.331   2.026  1.00  0.00     0.000 C 
BRANCH   5   6
ATOM      6  C   UNL     1      45.923  29.271   1.524  1.00  0.00     0.000 C 
BRANCH   6   7
ATOM      7  C   UNL     1      46.935  28.766   2.576  1.00  0.00     0.000 C 
BRANCH   7   8
ATOM      8  C   UNL     1      46.525  29.078   4.030  1.00  0.00     0.000 C 
BRANCH   8   9
ATOM      9  C   UNL     1      47.028  28.046   5.059  1.00  0.00     0.000 C 
BRANCH   9  10
ATOM     10  C   UNL     1      45.985  26.959   5.378  1.00  0.00     0.000 C 
BRANCH  10  11
ATOM     11  C   UNL     1      46.055  26.485   6.839  1.00  0.00     0.000 C 
BRANCH  11  12
ATOM     12  C   UNL     1      46.703  27.534   7.764  1.00  0.00     0.000 C 
BRANCH  12  13
ATOM     13  C   UNL     1      46.682  27.124   9.245  1.00  0.00     0.006 C 
BRANCH  13  14
ATOM     14  C   UNL     1      46.626  25.603   9.441  1.00  0.00     0.053 C 
BRANCH  14  15
ATOM     15  C   UNL     1      46.873  25.251  10.876  1.00  0.00     0.041 C 
ATOM     16  O   UNL     1      47.022  26.162  11.735  1.00  0.00    -0.550 OA
ATOM     17  O   UNL     1      46.960  23.917  11.260  1.00  0.00    -0.550 OA
ENDBRANCH  14  15
ENDBRANCH  13  14
ENDBRANCH  12  13
ENDBRANCH  11  12
ENDBRANCH  10  11
ENDBRANCH   9  10
ENDBRANCH   8   9
ENDBRANCH   7   8
ENDBRANCH   6   7
ENDBRANCH   5   6
ENDBRANCH   4   5
ENDBRANCH   3   4
ENDBRANCH   2   3
ENDBRANCH   1   2
BRANCH   1  18
ATOM     18  C   UNL     1      42.881  28.704  -1.214  1.00  0.00     0.000 C 
BRANCH  18  19
ATOM     19  C   UNL     1      44.052  29.230  -2.081  1.00  0.00     0.000 C 
BRANCH  19  20
ATOM     20  C   UNL     1      43.654  30.123  -3.275  1.00  0.00     0.000 C 
BRANCH  20  21
ATOM     21  C   UNL     1      42.391  29.668  -4.036  1.00  0.00     0.000 C 
BRANCH  21  22
ATOM     22  C   UNL     1      42.644  29.317  -5.520  1.00  0.00     0.000 C 
BRANCH  22  23
ATOM     23  C   UNL     1      41.872  28.066  -6.008  1.00  0.00     0.000 C 
BRANCH  23  24
ATOM     24  C   UNL     1      42.650  26.750  -5.814  1.00  0.00    -0.000 C 
BRANCH  24  25
ATOM     25  C   UNL     1      44.034  26.931  -5.158  1.00  0.00    -0.000 C 
BRANCH  25  26
ATOM     26  C   UNL     1      45.194  26.973  -6.179  1.00  0.00    -0.000 C 
BRANCH  26  27
ATOM     27  C   UNL     1      45.566  28.392  -6.652  1.00  0.00    -0.000 C 
BRANCH  27  28
ATOM     28  C   UNL     1      46.975  28.846  -6.227  1.00  0.00    -0.000 C 
BRANCH  28  29
ATOM     29  C   UNL     1      46.947  30.055  -5.278  1.00  0.00    -0.000 C 
BRANCH  29  30
ATOM     30  C   UNL     1      46.582  29.629  -3.849  1.00  0.00    -0.000 C 
BRANCH  30  31
ATOM     31  C   UNL     1      47.124  28.229  -3.540  1.00  0.00    -0.003 C 
ATOM     32  C   UNL     1      46.831  27.832  -2.097  1.00  0.00     0.004 C 
ENDBRANCH  30  31
ENDBRANCH  29  30
ENDBRANCH  28  29
ENDBRANCH  27  28
ENDBRANCH  26  27
ENDBRANCH  25  26
ENDBRANCH  24  25
ENDBRANCH  23  24
ENDBRANCH  22  23
ENDBRANCH  21  22
ENDBRANCH  20  21
ENDBRANCH  19  20
ENDBRANCH  18  19
ENDBRANCH   1  18
TORSDOF 28
ENDMDL
MODEL 7
REMARK VINA RESULT:    -2.184      1.560      2.896
REMARK INTER + INTRA:          -8.794
REMARK INTER:                  -7.908
REMARK INTRA:                  -0.886
REMARK UNBOUND:                -3.034
REMARK SMILES CCCCCCCCCCCCCCCCCCCCCCCCCCCCCC(=O)[O-]
REMARK SMILES IDX 16 1 17 2 18 3 19 4 20 5 21 6 22 7 23 8 24 9 25 10 26 11
REMARK SMILES IDX 27 12 28 13 29 14 30 15 31 16 32 17 15 18 14 19 13 20 12 21
REMARK SMILES IDX 11 22 10 23 9 24 8 25 7 26 6 27 5 28 4 29 3 30 2 31 1 32
REMARK H PARENT
REMARK Flexibility Score: inf
ROOT
ATOM      1  C   UNL     1      42.488  27.791   0.807  1.00  0.00     0.000 C 
ENDROOT
BRANCH   1   2
ATOM      2  C   UNL     1      42.775  28.511  -0.522  1.00  0.00     0.000 C 
BRANCH   2   3
ATOM      3  C   UNL     1      43.964  29.482  -0.425  1.00  0.00     0.000 C 
BRANCH   3   4
ATOM      4  C   UNL     1      45.322  28.762  -0.563  1.00  0.00     0.000 C 
BRANCH   4   5
ATOM      5  C   UNL     1      45.802  28.671  -2.025  1.00  0.00     0.000 C 
BRANCH   5   6
ATOM      6  C   UNL     1      47.014  29.572  -2.346  1.00  0.00     0.000 C 
BRANCH   6   7
ATOM      7  C   UNL     1      47.074  30.058  -3.811  1.00  0.00     0.000 C 
BRANCH   7   8
ATOM      8  C   UNL     1      47.074  28.912  -4.844  1.00  0.00     0.000 C 
BRANCH   8   9
ATOM      9  C   UNL     1      46.581  29.328  -6.243  1.00  0.00     0.000 C 
BRANCH   9  10
ATOM     10  C   UNL     1      45.201  30.013  -6.214  1.00  0.00     0.000 C 
BRANCH  10  11
ATOM     11  C   UNL     1      44.175  29.309  -7.119  1.00  0.00     0.000 C 
BRANCH  11  12
ATOM     12  C   UNL     1      42.738  29.422  -6.574  1.00  0.00     0.000 C 
BRANCH  12  13
ATOM     13  C   UNL     1      42.334  28.230  -5.693  1.00  0.00     0.006 C 
BRANCH  13  14
ATOM     14  C   UNL     1      43.155  28.139  -4.399  1.00  0.00     0.053 C 
BRANCH  14  15
ATOM     15  C   UNL     1      43.702  26.757  -4.222  1.00  0.00     0.041 C 
ATOM     16  O   UNL     1      44.147  26.119  -5.215  1.00  0.00    -0.550 OA
ATOM     17  O   UNL     1      43.702  26.164  -2.964  1.00  0.00    -0.550 OA
ENDBRANCH  14  15
ENDBRANCH  13  14
ENDBRANCH  12  13
ENDBRANCH  11  12
ENDBRANCH  10  11
ENDBRANCH   9  10
ENDBRANCH   8   9
ENDBRANCH   7   8
ENDBRANCH   6   7
ENDBRANCH   5   6
ENDBRANCH   4   5
ENDBRANCH   3   4
ENDBRANCH   2   3
ENDBRANCH   1   2
BRANCH   1  18
ATOM     18  C   UNL     1      43.746  27.642   1.684  1.00  0.00     0.000 C 
BRANCH  18  19
ATOM     19  C   UNL     1      44.006  28.818   2.660  1.00  0.00     0.000 C 
BRANCH  19  20
ATOM     20  C   UNL     1      45.442  28.921   3.217  1.00  0.00     0.000 C 
BRANCH  20  21
ATOM     21  C   UNL     1      46.316  27.667   3.004  1.00  0.00     0.000 C 
BRANCH  21  22
ATOM     22  C   UNL     1      45.522  26.340   3.009  1.00  0.00     0.000 C 
BRANCH  22  23
ATOM     23  C   UNL     1      45.396  25.691   4.409  1.00  0.00     0.000 C 
BRANCH  23  24
ATOM     24  C   UNL     1      46.748  25.526   5.133  1.00  0.00    -0.000 C 
BRANCH  24  25
ATOM     25  C   UNL     1      47.035  26.622   6.180  1.00  0.00    -0.000 C 
BRANCH  25  26
ATOM     26  C   UNL     1      47.125  26.079   7.626  1.00  0.00    -0.000 C 
BRANCH  26  27
ATOM     27  C   UNL     1      46.589  27.048   8.697  1.00  0.00    -0.000 C 
BRANCH  27  28
ATOM     28  C   UNL     1      45.199  27.630   8.377  1.00  0.00    -0.000 C 
BRANCH  28  29
ATOM     29  C   UNL     1      44.957  28.991   9.052  1.00  0.00    -0.000 C 
BRANCH  29  30
ATOM     30  C   UNL     1      45.710  30.112   8.322  1.00  0.00    -0.000 C 
BRANCH  30  31
ATOM     31  C   UNL     1      45.404  30.089   6.820  1.00  0.00    -0.003 C 
ATOM     32  C   UNL     1      46.689  30.092   5.997  1.00  0.00     0.004 C 
ENDBRANCH  30  31
ENDBRANCH  29  30
ENDBRANCH  28  29
ENDBRANCH  27  28
ENDBRANCH  26  27
ENDBRANCH  25  26
ENDBRANCH  24  25
ENDBRANCH  23  24
ENDBRANCH  22  23
ENDBRANCH  21  22
ENDBRANCH  20  21
ENDBRANCH  19  20
ENDBRANCH  18  19
ENDBRANCH   1  18
TORSDOF 28
ENDMDL
