MODEL 1
REMARK VINA RESULT:    11.692      0.000      0.000
REMARK INTER + INTRA:          25.829
REMARK INTER:                  26.729
REMARK INTRA:                  -0.901
REMARK UNBOUND:                -0.901
REMARK SMILES CCCCCCCCCCCCCCCCCCCCCCCC(=O)[O-]
REMARK SMILES IDX 13 1 14 2 15 3 16 4 17 5 18 6 19 7 20 8 21 9 22 10 23 11
REMARK SMILES IDX 24 12 25 13 26 14 12 15 11 16 10 17 9 18 8 19 7 20 6 21 5 22
REMARK SMILES IDX 4 23 3 24 2 25 1 26
REMARK H PARENT
REMARK Flexibility Score: inf
ROOT
ATOM      1  C   UNL     1      13.555  37.725  47.725  1.00  0.00     0.000 C 
ENDROOT
BRANCH   1   2
ATOM      2  C   UNL     1      12.995  36.303  47.551  1.00  0.00     0.000 C 
BRANCH   2   3
ATOM      3  C   UNL     1      13.884  35.229  48.209  1.00  0.00     0.000 C 
BRANCH   3   4
ATOM      4  C   UNL     1      15.100  35.829  48.934  1.00  0.00     0.000 C 
BRANCH   4   5
ATOM      5  C   UNL     1      15.819  34.806  49.832  1.00  0.00     0.000 C 
BRANCH   5   6
ATOM      6  C   UNL     1      15.034  33.491  49.979  1.00  0.00     0.000 C 
BRANCH   6   7
ATOM      7  C   UNL     1      15.829  32.321  50.590  1.00  0.00     0.000 C 
BRANCH   7   8
ATOM      8  C   UNL     1      14.996  31.036  50.792  1.00  0.00     0.000 C 
BRANCH   8   9
ATOM      9  C   UNL     1      13.837  30.928  49.786  1.00  0.00     0.000 C 
BRANCH   9  10
ATOM     10  C   UNL     1      13.057  29.611  49.932  1.00  0.00     0.006 C 
BRANCH  10  11
ATOM     11  C   UNL     1      13.906  28.494  50.559  1.00  0.00     0.053 C 
BRANCH  11  12
ATOM     12  C   UNL     1      13.409  28.122  51.925  1.00  0.00     0.041 C 
ATOM     13  O   UNL     1      13.379  26.917  52.294  1.00  0.00    -0.550 OA
ATOM     14  O   UNL     1      13.035  29.121  52.819  1.00  0.00    -0.550 OA
ENDBRANCH  11  12
ENDBRANCH  10  11
ENDBRANCH   9  10
ENDBRANCH   8   9
ENDBRANCH   7   8
ENDBRANCH   6   7
ENDBRANCH   5   6
ENDBRANCH   4   5
ENDBRANCH   3   4
ENDBRANCH   2   3
ENDBRANCH   1   2
BRANCH   1  15
ATOM     15  C   UNL     1      13.386  38.585  46.462  1.00  0.00     0.000 C 
BRANCH  15  16
ATOM     16  C   UNL     1      14.081  39.952  46.579  1.00  0.00     0.000 C 
BRANCH  16  17
ATOM     17  C   UNL     1      14.959  40.068  47.837  1.00  0.00     0.000 C 
BRANCH  17  18
ATOM     18  C   UNL     1      16.326  39.374  47.678  1.00  0.00    -0.000 C 
BRANCH  18  19
ATOM     19  C   UNL     1      16.490  38.549  46.387  1.00  0.00    -0.000 C 
BRANCH  19  20
ATOM     20  C   UNL     1      17.831  38.736  45.651  1.00  0.00    -0.000 C 
BRANCH  20  21
ATOM     21  C   UNL     1      19.049  38.878  46.590  1.00  0.00    -0.000 C 
BRANCH  21  22
ATOM     22  C   UNL     1      19.619  37.517  47.032  1.00  0.00    -0.000 C 
BRANCH  22  23
ATOM     23  C   UNL     1      19.079  36.350  46.185  1.00  0.00    -0.000 C 
BRANCH  23  24
ATOM     24  C   UNL     1      20.180  35.349  45.790  1.00  0.00    -0.000 C 
BRANCH  24  25
ATOM     25  C   UNL     1      20.892  35.746  44.486  1.00  0.00    -0.003 C 
ATOM     26  C   UNL     1      21.270  34.540  43.627  1.00  0.00     0.004 C 
ENDBRANCH  24  25
ENDBRANCH  23  24
ENDBRANCH  22  23
ENDBRANCH  21  22
ENDBRANCH  20  21
ENDBRANCH  19  20
ENDBRANCH  18  19
ENDBRANCH  17  18
ENDBRANCH  16  17
ENDBRANCH  15  16
ENDBRANCH   1  15
TORSDOF 22
ENDMDL
MODEL 2
REMARK VINA RESULT:    11.707      1.191      1.523
REMARK INTER + INTRA:          25.862
REMARK INTER:                  27.292
REMARK INTRA:                  -1.430
REMARK UNBOUND:                -0.901
REMARK SMILES CCCCCCCCCCCCCCCCCCCCCCCC(=O)[O-]
REMARK SMILES IDX 13 1 14 2 15 3 16 4 17 5 18 6 19 7 20 8 21 9 22 10 23 11
REMARK SMILES IDX 24 12 25 13 26 14 12 15 11 16 10 17 9 18 8 19 7 20 6 21 5 22
REMARK SMILES IDX 4 23 3 24 2 25 1 26
REMARK H PARENT
REMARK Flexibility Score: inf
ROOT
ATOM      1  C   UNL     1      13.655  37.932  47.646  1.00  0.00     0.000 C 
ENDROOT
BRANCH   1   2
ATOM      2  C   UNL     1      13.039  36.525  47.725  1.00  0.00     0.000 C 
BRANCH   2   3
ATOM      3  C   UNL     1      14.063  35.450  48.137  1.00  0.00     0.000 C 
BRANCH   3   4
ATOM      4  C   UNL     1      15.278  36.040  48.872  1.00  0.00     0.000 C 
BRANCH   4   5
ATOM      5  C   UNL     1      15.754  35.154  50.037  1.00  0.00     0.000 C 
BRANCH   5   6
ATOM      6  C   UNL     1      15.178  33.728  49.972  1.00  0.00     0.000 C 
BRANCH   6   7
ATOM      7  C   UNL     1      16.193  32.600  50.240  1.00  0.00     0.000 C 
BRANCH   7   8
ATOM      8  C   UNL     1      15.672  31.503  51.194  1.00  0.00     0.000 C 
BRANCH   8   9
ATOM      9  C   UNL     1      14.208  31.128  50.906  1.00  0.00     0.000 C 
BRANCH   9  10
ATOM     10  C   UNL     1      14.039  29.631  50.592  1.00  0.00     0.006 C 
BRANCH  10  11
ATOM     11  C   UNL     1      13.113  29.386  49.389  1.00  0.00     0.053 C 
BRANCH  11  12
ATOM     12  C   UNL     1      12.588  27.981  49.374  1.00  0.00     0.041 C 
ATOM     13  O   UNL     1      11.777  27.606  48.485  1.00  0.00    -0.550 OA
ATOM     14  O   UNL     1      13.048  27.062  50.312  1.00  0.00    -0.550 OA
ENDBRANCH  11  12
ENDBRANCH  10  11
ENDBRANCH   9  10
ENDBRANCH   8   9
ENDBRANCH   7   8
ENDBRANCH   6   7
ENDBRANCH   5   6
ENDBRANCH   4   5
ENDBRANCH   3   4
ENDBRANCH   2   3
ENDBRANCH   1   2
BRANCH   1  15
ATOM     15  C   UNL     1      13.095  38.757  46.475  1.00  0.00     0.000 C 
BRANCH  15  16
ATOM     16  C   UNL     1      14.040  39.892  46.044  1.00  0.00     0.000 C 
BRANCH  16  17
ATOM     17  C   UNL     1      15.424  39.799  46.711  1.00  0.00     0.000 C 
BRANCH  17  18
ATOM     18  C   UNL     1      16.341  38.758  46.041  1.00  0.00    -0.000 C 
BRANCH  18  19
ATOM     19  C   UNL     1      17.478  38.221  46.932  1.00  0.00    -0.000 C 
BRANCH  19  20
ATOM     20  C   UNL     1      18.797  39.016  46.870  1.00  0.00    -0.000 C 
BRANCH  20  21
ATOM     21  C   UNL     1      20.064  38.135  46.911  1.00  0.00    -0.000 C 
BRANCH  21  22
ATOM     22  C   UNL     1      19.754  36.640  46.713  1.00  0.00    -0.000 C 
BRANCH  22  23
ATOM     23  C   UNL     1      20.154  36.136  45.315  1.00  0.00    -0.000 C 
BRANCH  23  24
ATOM     24  C   UNL     1      20.400  34.616  45.283  1.00  0.00    -0.000 C 
BRANCH  24  25
ATOM     25  C   UNL     1      21.528  34.225  44.314  1.00  0.00    -0.003 C 
ATOM     26  C   UNL     1      21.449  34.969  42.982  1.00  0.00     0.004 C 
ENDBRANCH  24  25
ENDBRANCH  23  24
ENDBRANCH  22  23
ENDBRANCH  21  22
ENDBRANCH  20  21
ENDBRANCH  19  20
ENDBRANCH  18  19
ENDBRANCH  17  18
ENDBRANCH  16  17
ENDBRANCH  15  16
ENDBRANCH   1  15
TORSDOF 22
ENDMDL
MODEL 3
REMARK VINA RESULT:    12.155      3.910      8.728
REMARK INTER + INTRA:          26.887
REMARK INTER:                  28.006
REMARK INTRA:                  -1.119
REMARK UNBOUND:                -0.901
REMARK SMILES CCCCCCCCCCCCCCCCCCCCCCCC(=O)[O-]
REMARK SMILES IDX 13 1 14 2 15 3 16 4 17 5 18 6 19 7 20 8 21 9 22 10 23 11
REMARK SMILES IDX 24 12 25 13 26 14 12 15 11 16 10 17 9 18 8 19 7 20 6 21 5 22
REMARK SMILES IDX 4 23 3 24 2 25 1 26
REMARK H PARENT
REMARK Flexibility Score: inf
ROOT
ATOM      1  C   UNL     1      13.012  37.840  47.499  1.00  0.00     0.000 C 
ENDROOT
BRANCH   1   2
ATOM      2  C   UNL     1      13.268  38.678  46.235  1.00  0.00     0.000 C 
BRANCH   2   3
ATOM      3  C   UNL     1      13.884  40.056  46.550  1.00  0.00     0.000 C 
BRANCH   3   4
ATOM      4  C   UNL     1      14.867  40.010  47.731  1.00  0.00     0.000 C 
BRANCH   4   5
ATOM      5  C   UNL     1      15.975  38.959  47.540  1.00  0.00     0.000 C 
BRANCH   5   6
ATOM      6  C   UNL     1      16.544  38.950  46.111  1.00  0.00     0.000 C 
BRANCH   6   7
ATOM      7  C   UNL     1      17.683  37.940  45.867  1.00  0.00     0.000 C 
BRANCH   7   8
ATOM      8  C   UNL     1      18.887  38.113  46.819  1.00  0.00     0.000 C 
BRANCH   8   9
ATOM      9  C   UNL     1      19.845  36.911  46.772  1.00  0.00     0.000 C 
BRANCH   9  10
ATOM     10  C   UNL     1      20.042  36.376  45.343  1.00  0.00     0.006 C 
BRANCH  10  11
ATOM     11  C   UNL     1      20.498  34.908  45.325  1.00  0.00     0.053 C 
BRANCH  11  12
ATOM     12  C   UNL     1      21.252  34.579  44.070  1.00  0.00     0.041 C 
ATOM     13  O   UNL     1      21.845  33.474  43.946  1.00  0.00    -0.550 OA
ATOM     14  O   UNL     1      21.244  35.475  43.006  1.00  0.00    -0.550 OA
ENDBRANCH  11  12
ENDBRANCH  10  11
ENDBRANCH   9  10
ENDBRANCH   8   9
ENDBRANCH   7   8
ENDBRANCH   6   7
ENDBRANCH   5   6
ENDBRANCH   4   5
ENDBRANCH   3   4
ENDBRANCH   2   3
ENDBRANCH   1   2
BRANCH   1  15
ATOM     15  C   UNL     1      13.318  36.347  47.290  1.00  0.00     0.000 C 
BRANCH  15  16
ATOM     16  C   UNL     1      13.854  35.668  48.561  1.00  0.00     0.000 C 
BRANCH  16  17
ATOM     17  C   UNL     1      15.360  35.907  48.773  1.00  0.00     0.000 C 
BRANCH  17  18
ATOM     18  C   UNL     1      15.889  35.266  50.071  1.00  0.00    -0.000 C 
BRANCH  18  19
ATOM     19  C   UNL     1      15.163  33.977  50.503  1.00  0.00    -0.000 C 
BRANCH  19  20
ATOM     20  C   UNL     1      15.829  32.662  50.055  1.00  0.00    -0.000 C 
BRANCH  20  21
ATOM     21  C   UNL     1      15.490  31.449  50.949  1.00  0.00    -0.000 C 
BRANCH  21  22
ATOM     22  C   UNL     1      14.255  30.675  50.454  1.00  0.00    -0.000 C 
BRANCH  22  23
ATOM     23  C   UNL     1      13.874  29.514  51.390  1.00  0.00    -0.000 C 
BRANCH  23  24
ATOM     24  C   UNL     1      13.377  28.275  50.622  1.00  0.00    -0.000 C 
BRANCH  24  25
ATOM     25  C   UNL     1      13.036  28.591  49.157  1.00  0.00    -0.003 C 
ATOM     26  C   UNL     1      11.873  27.756  48.626  1.00  0.00     0.004 C 
ENDBRANCH  24  25
ENDBRANCH  23  24
ENDBRANCH  22  23
ENDBRANCH  21  22
ENDBRANCH  20  21
ENDBRANCH  19  20
ENDBRANCH  18  19
ENDBRANCH  17  18
ENDBRANCH  16  17
ENDBRANCH  15  16
ENDBRANCH   1  15
TORSDOF 22
ENDMDL
MODEL 4
REMARK VINA RESULT:    12.220      3.853      9.079
REMARK INTER + INTRA:          27.036
REMARK INTER:                  28.047
REMARK INTRA:                  -1.010
REMARK UNBOUND:                -0.901
REMARK SMILES CCCCCCCCCCCCCCCCCCCCCCCC(=O)[O-]
REMARK SMILES IDX 13 1 14 2 15 3 16 4 17 5 18 6 19 7 20 8 21 9 22 10 23 11
REMARK SMILES IDX 24 12 25 13 26 14 12 15 11 16 10 17 9 18 8 19 7 20 6 21 5 22
REMARK SMILES IDX 4 23 3 24 2 25 1 26
REMARK H PARENT
REMARK Flexibility Score: inf
ROOT
ATOM      1  C   UNL     1      13.029  36.358  47.445  1.00  0.00     0.000 C 
ENDROOT
BRANCH   1   2
ATOM      2  C   UNL     1      13.626  37.773  47.537  1.00  0.00     0.000 C 
BRANCH   2   3
ATOM      3  C   UNL     1      13.104  38.712  46.432  1.00  0.00     0.000 C 
BRANCH   3   4
ATOM      4  C   UNL     1      13.703  40.125  46.523  1.00  0.00     0.000 C 
BRANCH   4   5
ATOM      5  C   UNL     1      15.149  40.124  47.051  1.00  0.00     0.000 C 
BRANCH   5   6
ATOM      6  C   UNL     1      16.040  39.091  46.337  1.00  0.00     0.000 C 
BRANCH   6   7
ATOM      7  C   UNL     1      17.140  38.462  47.214  1.00  0.00     0.000 C 
BRANCH   7   8
ATOM      8  C   UNL     1      17.997  37.407  46.480  1.00  0.00     0.000 C 
BRANCH   8   9
ATOM      9  C   UNL     1      19.502  37.599  46.734  1.00  0.00     0.000 C 
BRANCH   9  10
ATOM     10  C   UNL     1      20.324  36.360  46.339  1.00  0.00     0.006 C 
BRANCH  10  11
ATOM     11  C   UNL     1      19.822  35.715  45.037  1.00  0.00     0.053 C 
BRANCH  11  12
ATOM     12  C   UNL     1      20.905  34.930  44.356  1.00  0.00     0.041 C 
ATOM     13  O   UNL     1      21.347  35.286  43.231  1.00  0.00    -0.550 OA
ATOM     14  O   UNL     1      21.472  33.834  45.000  1.00  0.00    -0.550 OA
ENDBRANCH  11  12
ENDBRANCH  10  11
ENDBRANCH   9  10
ENDBRANCH   8   9
ENDBRANCH   7   8
ENDBRANCH   6   7
ENDBRANCH   5   6
ENDBRANCH   4   5
ENDBRANCH   3   4
ENDBRANCH   2   3
ENDBRANCH   1   2
BRANCH   1  15
ATOM     15  C   UNL     1      13.840  35.322  48.241  1.00  0.00     0.000 C 
BRANCH  15  16
ATOM     16  C   UNL     1      15.162  35.893  48.782  1.00  0.00     0.000 C 
BRANCH  16  17
ATOM     17  C   UNL     1      15.845  34.956  49.793  1.00  0.00     0.000 C 
BRANCH  17  18
ATOM     18  C   UNL     1      15.164  33.577  49.884  1.00  0.00    -0.000 C 
BRANCH  18  19
ATOM     19  C   UNL     1      16.085  32.423  50.326  1.00  0.00    -0.000 C 
BRANCH  19  20
ATOM     20  C   UNL     1      15.439  31.387  51.266  1.00  0.00    -0.000 C 
BRANCH  20  21
ATOM     21  C   UNL     1      14.211  30.670  50.663  1.00  0.00    -0.000 C 
BRANCH  21  22
ATOM     22  C   UNL     1      13.847  29.380  51.420  1.00  0.00    -0.000 C 
BRANCH  22  23
ATOM     23  C   UNL     1      13.648  28.180  50.476  1.00  0.00    -0.000 C 
BRANCH  23  24
ATOM     24  C   UNL     1      12.880  28.556  49.196  1.00  0.00    -0.000 C 
BRANCH  24  25
ATOM     25  C   UNL     1      12.069  27.379  48.632  1.00  0.00    -0.003 C 
ATOM     26  C   UNL     1      10.618  27.750  48.330  1.00  0.00     0.004 C 
ENDBRANCH  24  25
ENDBRANCH  23  24
ENDBRANCH  22  23
ENDBRANCH  21  22
ENDBRANCH  20  21
ENDBRANCH  19  20
ENDBRANCH  18  19
ENDBRANCH  17  18
ENDBRANCH  16  17
ENDBRANCH  15  16
ENDBRANCH   1  15
TORSDOF 22
ENDMDL
MODEL 5
REMARK VINA RESULT:    12.335      3.671      9.171
REMARK INTER + INTRA:          27.298
REMARK INTER:                  28.821
REMARK INTRA:                  -1.522
REMARK UNBOUND:                -0.901
REMARK SMILES CCCCCCCCCCCCCCCCCCCCCCCC(=O)[O-]
REMARK SMILES IDX 13 1 14 2 15 3 16 4 17 5 18 6 19 7 20 8 21 9 22 10 23 11
REMARK SMILES IDX 24 12 25 13 26 14 12 15 11 16 10 17 9 18 8 19 7 20 6 21 5 22
REMARK SMILES IDX 4 23 3 24 2 25 1 26
REMARK H PARENT
REMARK Flexibility Score: inf
ROOT
ATOM      1  C   UNL     1      13.090  36.269  47.516  1.00  0.00     0.000 C 
ENDROOT
BRANCH   1   2
ATOM      2  C   UNL     1      13.730  37.648  47.747  1.00  0.00     0.000 C 
BRANCH   2   3
ATOM      3  C   UNL     1      13.284  38.693  46.705  1.00  0.00     0.000 C 
BRANCH   3   4
ATOM      4  C   UNL     1      14.240  39.894  46.623  1.00  0.00     0.000 C 
BRANCH   4   5
ATOM      5  C   UNL     1      15.677  39.538  47.042  1.00  0.00     0.000 C 
BRANCH   5   6
ATOM      6  C   UNL     1      16.415  38.704  45.981  1.00  0.00     0.000 C 
BRANCH   6   7
ATOM      7  C   UNL     1      17.540  37.802  46.525  1.00  0.00     0.000 C 
BRANCH   7   8
ATOM      8  C   UNL     1      18.807  38.573  46.955  1.00  0.00     0.000 C 
BRANCH   8   9
ATOM      9  C   UNL     1      20.022  37.646  47.133  1.00  0.00     0.000 C 
BRANCH   9  10
ATOM     10  C   UNL     1      19.817  36.278  46.459  1.00  0.00     0.006 C 
BRANCH  10  11
ATOM     11  C   UNL     1      20.103  36.321  44.949  1.00  0.00     0.053 C 
BRANCH  11  12
ATOM     12  C   UNL     1      20.788  35.071  44.480  1.00  0.00     0.041 C 
ATOM     13  O   UNL     1      20.933  34.088  45.255  1.00  0.00    -0.550 OA
ATOM     14  O   UNL     1      21.212  34.971  43.159  1.00  0.00    -0.550 OA
ENDBRANCH  11  12
ENDBRANCH  10  11
ENDBRANCH   9  10
ENDBRANCH   8   9
ENDBRANCH   7   8
ENDBRANCH   6   7
ENDBRANCH   5   6
ENDBRANCH   4   5
ENDBRANCH   3   4
ENDBRANCH   2   3
ENDBRANCH   1   2
BRANCH   1  15
ATOM     15  C   UNL     1      13.809  35.148  48.286  1.00  0.00     0.000 C 
BRANCH  15  16
ATOM     16  C   UNL     1      15.088  35.637  48.986  1.00  0.00     0.000 C 
BRANCH  16  17
ATOM     17  C   UNL     1      15.976  34.480  49.478  1.00  0.00     0.000 C 
BRANCH  17  18
ATOM     18  C   UNL     1      15.274  33.590  50.520  1.00  0.00    -0.000 C 
BRANCH  18  19
ATOM     19  C   UNL     1      15.933  32.217  50.755  1.00  0.00    -0.000 C 
BRANCH  19  20
ATOM     20  C   UNL     1      14.963  31.021  50.816  1.00  0.00    -0.000 C 
BRANCH  20  21
ATOM     21  C   UNL     1      14.003  30.928  49.610  1.00  0.00    -0.000 C 
BRANCH  21  22
ATOM     22  C   UNL     1      12.934  29.834  49.786  1.00  0.00    -0.000 C 
BRANCH  22  23
ATOM     23  C   UNL     1      13.511  28.416  49.624  1.00  0.00    -0.000 C 
BRANCH  23  24
ATOM     24  C   UNL     1      12.947  27.427  50.661  1.00  0.00    -0.000 C 
BRANCH  24  25
ATOM     25  C   UNL     1      13.781  27.392  51.951  1.00  0.00    -0.003 C 
ATOM     26  C   UNL     1      13.110  28.124  53.111  1.00  0.00     0.004 C 
ENDBRANCH  24  25
ENDBRANCH  23  24
ENDBRANCH  22  23
ENDBRANCH  21  22
ENDBRANCH  20  21
ENDBRANCH  19  20
ENDBRANCH  18  19
ENDBRANCH  17  18
ENDBRANCH  16  17
ENDBRANCH  15  16
ENDBRANCH   1  15
TORSDOF 22
ENDMDL
MODEL 6
REMARK VINA RESULT:    12.532      2.236      2.980
REMARK INTER + INTRA:          27.750
REMARK INTER:                  28.968
REMARK INTRA:                  -1.218
REMARK UNBOUND:                -0.901
REMARK SMILES CCCCCCCCCCCCCCCCCCCCCCCC(=O)[O-]
REMARK SMILES IDX 13 1 14 2 15 3 16 4 17 5 18 6 19 7 20 8 21 9 22 10 23 11
REMARK SMILES IDX 24 12 25 13 26 14 12 15 11 16 10 17 9 18 8 19 7 20 6 21 5 22
REMARK SMILES IDX 4 23 3 24 2 25 1 26
REMARK H PARENT
REMARK Flexibility Score: inf
ROOT
ATOM      1  C   UNL     1      14.781  35.976  48.273  1.00  0.00     0.000 C 
ENDROOT
BRANCH   1   2
ATOM      2  C   UNL     1      14.870  35.278  49.641  1.00  0.00     0.000 C 
BRANCH   2   3
ATOM      3  C   UNL     1      15.550  33.898  49.562  1.00  0.00     0.000 C 
BRANCH   3   4
ATOM      4  C   UNL     1      15.279  33.031  50.803  1.00  0.00     0.000 C 
BRANCH   4   5
ATOM      5  C   UNL     1      15.536  31.535  50.549  1.00  0.00     0.000 C 
BRANCH   5   6
ATOM      6  C   UNL     1      14.242  30.702  50.553  1.00  0.00     0.000 C 
BRANCH   6   7
ATOM      7  C   UNL     1      14.341  29.344  51.276  1.00  0.00     0.000 C 
BRANCH   7   8
ATOM      8  C   UNL     1      13.349  28.283  50.752  1.00  0.00     0.000 C 
BRANCH   8   9
ATOM      9  C   UNL     1      13.086  28.425  49.242  1.00  0.00     0.000 C 
BRANCH   9  10
ATOM     10  C   UNL     1      11.615  28.162  48.878  1.00  0.00     0.006 C 
BRANCH  10  11
ATOM     11  C   UNL     1      11.373  26.711  48.429  1.00  0.00     0.053 C 
BRANCH  11  12
ATOM     12  C   UNL     1       9.916  26.439  48.201  1.00  0.00     0.041 C 
ATOM     13  O   UNL     1       9.451  25.274  48.329  1.00  0.00    -0.550 OA
ATOM     14  O   UNL     1       9.055  27.492  47.908  1.00  0.00    -0.550 OA
ENDBRANCH  11  12
ENDBRANCH  10  11
ENDBRANCH   9  10
ENDBRANCH   8   9
ENDBRANCH   7   8
ENDBRANCH   6   7
ENDBRANCH   5   6
ENDBRANCH   4   5
ENDBRANCH   3   4
ENDBRANCH   2   3
ENDBRANCH   1   2
BRANCH   1  15
ATOM     15  C   UNL     1      13.351  36.426  47.931  1.00  0.00     0.000 C 
BRANCH  15  16
ATOM     16  C   UNL     1      13.316  37.769  47.183  1.00  0.00     0.000 C 
BRANCH  16  17
ATOM     17  C   UNL     1      14.231  38.830  47.820  1.00  0.00     0.000 C 
BRANCH  17  18
ATOM     18  C   UNL     1      14.985  39.673  46.774  1.00  0.00    -0.000 C 
BRANCH  18  19
ATOM     19  C   UNL     1      16.040  38.905  45.955  1.00  0.00    -0.000 C 
BRANCH  19  20
ATOM     20  C   UNL     1      17.182  38.274  46.777  1.00  0.00    -0.000 C 
BRANCH  20  21
ATOM     21  C   UNL     1      18.592  38.568  46.222  1.00  0.00    -0.000 C 
BRANCH  21  22
ATOM     22  C   UNL     1      19.710  38.184  47.209  1.00  0.00    -0.000 C 
BRANCH  22  23
ATOM     23  C   UNL     1      20.380  36.846  46.849  1.00  0.00    -0.000 C 
BRANCH  23  24
ATOM     24  C   UNL     1      19.724  36.167  45.632  1.00  0.00    -0.000 C 
BRANCH  24  25
ATOM     25  C   UNL     1      20.478  34.901  45.191  1.00  0.00    -0.003 C 
ATOM     26  C   UNL     1      21.143  35.054  43.824  1.00  0.00     0.004 C 
ENDBRANCH  24  25
ENDBRANCH  23  24
ENDBRANCH  22  23
ENDBRANCH  21  22
ENDBRANCH  20  21
ENDBRANCH  19  20
ENDBRANCH  18  19
ENDBRANCH  17  18
ENDBRANCH  16  17
ENDBRANCH  15  16
ENDBRANCH   1  15
TORSDOF 22
ENDMDL
MODEL 7
REMARK VINA RESULT:    12.630      4.500     10.839
REMARK INTER + INTRA:          27.973
REMARK INTER:                  28.732
REMARK INTRA:                  -0.759
REMARK UNBOUND:                -0.901
REMARK SMILES CCCCCCCCCCCCCCCCCCCCCCCC(=O)[O-]
REMARK SMILES IDX 13 1 14 2 15 3 16 4 17 5 18 6 19 7 20 8 21 9 22 10 23 11
REMARK SMILES IDX 24 12 25 13 26 14 12 15 11 16 10 17 9 18 8 19 7 20 6 21 5 22
REMARK SMILES IDX 4 23 3 24 2 25 1 26
REMARK H PARENT
REMARK Flexibility Score: inf
ROOT
ATOM      1  C   UNL     1      15.247  33.566  49.604  1.00  0.00     0.000 C 
ENDROOT
BRANCH   1   2
ATOM      2  C   UNL     1      15.332  35.099  49.691  1.00  0.00     0.000 C 
BRANCH   2   3
ATOM      3  C   UNL     1      15.078  35.786  48.334  1.00  0.00     0.000 C 
BRANCH   3   4
ATOM      4  C   UNL     1      13.592  36.104  48.100  1.00  0.00     0.000 C 
BRANCH   4   5
ATOM      5  C   UNL     1      13.365  37.541  47.598  1.00  0.00     0.000 C 
BRANCH   5   6
ATOM      6  C   UNL     1      14.409  38.532  48.143  1.00  0.00     0.000 C 
BRANCH   6   7
ATOM      7  C   UNL     1      14.433  39.906  47.445  1.00  0.00     0.000 C 
BRANCH   7   8
ATOM      8  C   UNL     1      14.546  39.824  45.907  1.00  0.00     0.000 C 
BRANCH   8   9
ATOM      9  C   UNL     1      15.812  39.075  45.454  1.00  0.00     0.000 C 
BRANCH   9  10
ATOM     10  C   UNL     1      16.749  38.749  46.629  1.00  0.00     0.006 C 
BRANCH  10  11
ATOM     11  C   UNL     1      17.957  37.902  46.196  1.00  0.00     0.053 C 
BRANCH  11  12
ATOM     12  C   UNL     1      19.224  38.374  46.847  1.00  0.00     0.041 C 
ATOM     13  O   UNL     1      20.091  37.548  47.241  1.00  0.00    -0.550 OA
ATOM     14  O   UNL     1      19.475  39.738  46.959  1.00  0.00    -0.550 OA
ENDBRANCH  11  12
ENDBRANCH  10  11
ENDBRANCH   9  10
ENDBRANCH   8   9
ENDBRANCH   7   8
ENDBRANCH   6   7
ENDBRANCH   5   6
ENDBRANCH   4   5
ENDBRANCH   3   4
ENDBRANCH   2   3
ENDBRANCH   1   2
BRANCH   1  15
ATOM     15  C   UNL     1      15.669  32.876  50.913  1.00  0.00     0.000 C 
BRANCH  15  16
ATOM     16  C   UNL     1      15.392  31.364  50.901  1.00  0.00     0.000 C 
BRANCH  16  17
ATOM     17  C   UNL     1      14.011  31.016  50.317  1.00  0.00     0.000 C 
BRANCH  17  18
ATOM     18  C   UNL     1      13.612  29.548  50.562  1.00  0.00    -0.000 C 
BRANCH  18  19
ATOM     19  C   UNL     1      13.416  28.705  49.287  1.00  0.00    -0.000 C 
BRANCH  19  20
ATOM     20  C   UNL     1      13.003  27.239  49.522  1.00  0.00    -0.000 C 
BRANCH  20  21
ATOM     21  C   UNL     1      11.770  26.795  48.706  1.00  0.00    -0.000 C 
BRANCH  21  22
ATOM     22  C   UNL     1      10.898  27.981  48.255  1.00  0.00    -0.000 C 
BRANCH  22  23
ATOM     23  C   UNL     1       9.415  27.597  48.105  1.00  0.00    -0.000 C 
BRANCH  23  24
ATOM     24  C   UNL     1       9.145  26.126  48.473  1.00  0.00    -0.000 C 
BRANCH  24  25
ATOM     25  C   UNL     1       8.515  25.338  47.313  1.00  0.00    -0.003 C 
ATOM     26  C   UNL     1       9.154  23.965  47.114  1.00  0.00     0.004 C 
ENDBRANCH  24  25
ENDBRANCH  23  24
ENDBRANCH  22  23
ENDBRANCH  21  22
ENDBRANCH  20  21
ENDBRANCH  19  20
ENDBRANCH  18  19
ENDBRANCH  17  18
ENDBRANCH  16  17
ENDBRANCH  15  16
ENDBRANCH   1  15
TORSDOF 22
ENDMDL
MODEL 8
REMARK VINA RESULT:    13.056      2.681      4.481
REMARK INTER + INTRA:          28.946
REMARK INTER:                  29.204
REMARK INTRA:                  -0.258
REMARK UNBOUND:                -0.901
REMARK SMILES CCCCCCCCCCCCCCCCCCCCCCCC(=O)[O-]
REMARK SMILES IDX 13 1 14 2 15 3 16 4 17 5 18 6 19 7 20 8 21 9 22 10 23 11
REMARK SMILES IDX 24 12 25 13 26 14 12 15 11 16 10 17 9 18 8 19 7 20 6 21 5 22
REMARK SMILES IDX 4 23 3 24 2 25 1 26
REMARK H PARENT
REMARK Flexibility Score: inf
ROOT
ATOM      1  C   UNL     1      15.235  34.244  49.336  1.00  0.00     0.000 C 
ENDROOT
BRANCH   1   2
ATOM      2  C   UNL     1      15.669  33.594  50.661  1.00  0.00     0.000 C 
BRANCH   2   3
ATOM      3  C   UNL     1      16.183  32.152  50.476  1.00  0.00     0.000 C 
BRANCH   3   4
ATOM      4  C   UNL     1      15.348  31.121  51.253  1.00  0.00     0.000 C 
BRANCH   4   5
ATOM      5  C   UNL     1      14.200  30.533  50.414  1.00  0.00     0.000 C 
BRANCH   5   6
ATOM      6  C   UNL     1      13.599  29.262  51.040  1.00  0.00     0.000 C 
BRANCH   6   7
ATOM      7  C   UNL     1      13.627  28.014  50.137  1.00  0.00     0.000 C 
BRANCH   7   8
ATOM      8  C   UNL     1      12.789  28.155  48.847  1.00  0.00     0.000 C 
BRANCH   8   9
ATOM      9  C   UNL     1      11.619  27.158  48.799  1.00  0.00     0.000 C 
BRANCH   9  10
ATOM     10  C   UNL     1      10.391  27.732  48.072  1.00  0.00     0.006 C 
BRANCH  10  11
ATOM     11  C   UNL     1       9.094  26.994  48.441  1.00  0.00     0.053 C 
BRANCH  11  12
ATOM     12  C   UNL     1       9.096  25.583  47.931  1.00  0.00     0.041 C 
ATOM     13  O   UNL     1       8.190  25.177  47.154  1.00  0.00    -0.550 OA
ATOM     14  O   UNL     1      10.144  24.730  48.266  1.00  0.00    -0.550 OA
ENDBRANCH  11  12
ENDBRANCH  10  11
ENDBRANCH   9  10
ENDBRANCH   8   9
ENDBRANCH   7   8
ENDBRANCH   6   7
ENDBRANCH   5   6
ENDBRANCH   4   5
ENDBRANCH   3   4
ENDBRANCH   2   3
ENDBRANCH   1   2
BRANCH   1  15
ATOM     15  C   UNL     1      15.271  35.780  49.393  1.00  0.00     0.000 C 
BRANCH  15  16
ATOM     16  C   UNL     1      14.774  36.433  48.092  1.00  0.00     0.000 C 
BRANCH  16  17
ATOM     17  C   UNL     1      13.252  36.658  48.083  1.00  0.00     0.000 C 
BRANCH  17  18
ATOM     18  C   UNL     1      12.792  37.582  46.939  1.00  0.00    -0.000 C 
BRANCH  18  19
ATOM     19  C   UNL     1      13.783  38.702  46.568  1.00  0.00    -0.000 C 
BRANCH  19  20
ATOM     20  C   UNL     1      14.436  39.427  47.760  1.00  0.00    -0.000 C 
BRANCH  20  21
ATOM     21  C   UNL     1      15.980  39.444  47.717  1.00  0.00    -0.000 C 
BRANCH  21  22
ATOM     22  C   UNL     1      16.539  39.054  46.337  1.00  0.00    -0.000 C 
BRANCH  22  23
ATOM     23  C   UNL     1      18.039  38.712  46.385  1.00  0.00    -0.000 C 
BRANCH  23  24
ATOM     24  C   UNL     1      18.299  37.194  46.388  1.00  0.00    -0.000 C 
BRANCH  24  25
ATOM     25  C   UNL     1      19.796  36.856  46.468  1.00  0.00    -0.003 C 
ATOM     26  C   UNL     1      20.152  35.563  45.736  1.00  0.00     0.004 C 
ENDBRANCH  24  25
ENDBRANCH  23  24
ENDBRANCH  22  23
ENDBRANCH  21  22
ENDBRANCH  20  21
ENDBRANCH  19  20
ENDBRANCH  18  19
ENDBRANCH  17  18
ENDBRANCH  16  17
ENDBRANCH  15  16
ENDBRANCH   1  15
TORSDOF 22
ENDMDL
MODEL 9
REMARK VINA RESULT:    13.303      4.975     11.429
REMARK INTER + INTRA:          29.512
REMARK INTER:                  30.566
REMARK INTRA:                  -1.054
REMARK UNBOUND:                -0.901
REMARK SMILES CCCCCCCCCCCCCCCCCCCCCCCC(=O)[O-]
REMARK SMILES IDX 13 1 14 2 15 3 16 4 17 5 18 6 19 7 20 8 21 9 22 10 23 11
REMARK SMILES IDX 24 12 25 13 26 14 12 15 11 16 10 17 9 18 8 19 7 20 6 21 5 22
REMARK SMILES IDX 4 23 3 24 2 25 1 26
REMARK H PARENT
REMARK Flexibility Score: inf
ROOT
ATOM      1  C   UNL     1      15.483  31.253  50.495  1.00  0.00     0.000 C 
ENDROOT
BRANCH   1   2
ATOM      2  C   UNL     1      15.600  32.763  50.761  1.00  0.00     0.000 C 
BRANCH   2   3
ATOM      3  C   UNL     1      15.299  33.613  49.511  1.00  0.00     0.000 C 
BRANCH   3   4
ATOM      4  C   UNL     1      15.168  35.111  49.830  1.00  0.00     0.000 C 
BRANCH   4   5
ATOM      5  C   UNL     1      14.947  35.968  48.571  1.00  0.00     0.000 C 
BRANCH   5   6
ATOM      6  C   UNL     1      13.460  36.114  48.206  1.00  0.00     0.000 C 
BRANCH   6   7
ATOM      7  C   UNL     1      13.092  37.417  47.471  1.00  0.00     0.000 C 
BRANCH   7   8
ATOM      8  C   UNL     1      14.265  38.046  46.688  1.00  0.00     0.000 C 
BRANCH   8   9
ATOM      9  C   UNL     1      14.942  39.187  47.468  1.00  0.00     0.000 C 
BRANCH   9  10
ATOM     10  C   UNL     1      16.374  39.459  46.978  1.00  0.00     0.006 C 
BRANCH  10  11
ATOM     11  C   UNL     1      17.049  38.200  46.411  1.00  0.00     0.053 C 
BRANCH  11  12
ATOM     12  C   UNL     1      18.536  38.231  46.612  1.00  0.00     0.041 C 
ATOM     13  O   UNL     1      19.115  39.292  46.969  1.00  0.00    -0.550 OA
ATOM     14  O   UNL     1      19.276  37.061  46.466  1.00  0.00    -0.550 OA
ENDBRANCH  11  12
ENDBRANCH  10  11
ENDBRANCH   9  10
ENDBRANCH   8   9
ENDBRANCH   7   8
ENDBRANCH   6   7
ENDBRANCH   5   6
ENDBRANCH   4   5
ENDBRANCH   3   4
ENDBRANCH   2   3
ENDBRANCH   1   2
BRANCH   1  15
ATOM     15  C   UNL     1      14.201  30.646  51.090  1.00  0.00     0.000 C 
BRANCH  15  16
ATOM     16  C   UNL     1      13.455  29.743  50.094  1.00  0.00     0.000 C 
BRANCH  16  17
ATOM     17  C   UNL     1      13.761  28.249  50.300  1.00  0.00     0.000 C 
BRANCH  17  18
ATOM     18  C   UNL     1      13.617  27.807  51.768  1.00  0.00    -0.000 C 
BRANCH  18  19
ATOM     19  C   UNL     1      13.797  26.296  52.014  1.00  0.00    -0.000 C 
BRANCH  19  20
ATOM     20  C   UNL     1      14.545  25.532  50.905  1.00  0.00    -0.000 C 
BRANCH  20  21
ATOM     21  C   UNL     1      15.595  24.529  51.431  1.00  0.00    -0.000 C 
BRANCH  21  22
ATOM     22  C   UNL     1      15.685  23.257  50.569  1.00  0.00    -0.000 C 
BRANCH  22  23
ATOM     23  C   UNL     1      15.676  21.971  51.415  1.00  0.00    -0.000 C 
BRANCH  23  24
ATOM     24  C   UNL     1      16.646  20.903  50.877  1.00  0.00    -0.000 C 
BRANCH  24  25
ATOM     25  C   UNL     1      17.486  21.417  49.696  1.00  0.00    -0.003 C 
ATOM     26  C   UNL     1      18.735  20.574  49.447  1.00  0.00     0.004 C 
ENDBRANCH  24  25
ENDBRANCH  23  24
ENDBRANCH  22  23
ENDBRANCH  21  22
ENDBRANCH  20  21
ENDBRANCH  19  20
ENDBRANCH  18  19
ENDBRANCH  17  18
ENDBRANCH  16  17
ENDBRANCH  15  16
ENDBRANCH   1  15
TORSDOF 22
ENDMDL
