MODEL 1
REMARK VINA RESULT:    -4.164      0.000      0.000
REMARK INTER + INTRA:          -5.715
REMARK INTER:                  -5.868
REMARK INTRA:                   0.153
REMARK UNBOUND:                 0.153
REMARK SMILES CC1=CCC(=C(C)C)C(=O)CC(C)=CCC1
REMARK SMILES IDX 12 1 14 2 13 3 15 4 16 5 2 6 1 7 3 8 11 10 9 11 10 12 5 13
REMARK SMILES IDX 6 14 7 15 8 16 4 17
REMARK H PARENT
REMARK Flexibility Score: 60.00
ROOT
ATOM      1  C   UNL     1     -13.784  14.294 -30.113  1.00  0.00    -0.070 C 
ATOM      2  C   UNL     1     -12.859  14.212 -29.129  1.00  0.00    -0.027 C 
ATOM      3  C   UNL     1     -13.648  15.404 -31.124  1.00  0.00     0.039 C 
ENDROOT
BRANCH   2   4
ATOM      4  C   UNL     1     -12.759  13.089 -28.130  1.00  0.00     0.032 C 
BRANCH   4   5
ATOM      5  C   UNL     1     -13.799  13.283 -27.022  1.00  0.00     0.034 C 
BRANCH   5   6
ATOM      6  C   UNL     1     -14.439  11.979 -26.590  1.00  0.00    -0.077 C 
ATOM      7  C   UNL     1     -13.553  10.882 -26.054  1.00  0.00     0.039 C 
ATOM      8  C   UNL     1     -15.762  11.713 -26.723  1.00  0.00    -0.023 CG0
ATOM      9  G   UNL     1     -16.854  12.665 -27.178  1.00  0.00     0.000 G0
ENDBRANCH   5   6
ENDBRANCH   4   5
ENDBRANCH   2   4
BRANCH   1  10
ATOM     10  C   UNL     1     -14.956  13.342 -30.237  1.00  0.00     0.111 C 
BRANCH  10  11
ATOM     11  C   UNL     1     -16.133  13.788 -29.403  1.00  0.00     0.163 C 
ATOM     12  O   UNL     1     -16.330  15.030 -29.305  1.00  0.00    -0.294 OA
BRANCH  11  13
ATOM     13  C   UNL     1     -17.051  12.843 -28.681  1.00  0.00    -0.002 C 
ATOM     14  C   UNL     1     -18.119  12.281 -29.325  1.00  0.00    -0.069 C 
ATOM     15  C   UNL     1     -19.191  11.516 -28.583  1.00  0.00     0.039 C 
ATOM     16  C   UNL     1     -18.258  12.350 -30.829  1.00  0.00     0.039 C 
BRANCH  13  17
ATOM     17  C   UNL     1     -16.862  12.680 -27.176  1.00  0.00     0.066 CG0
ATOM     18  G   UNL     1     -15.769  11.724 -26.731  1.00  0.00     0.000 G0
ENDBRANCH  13  17
ENDBRANCH  11  13
ENDBRANCH  10  11
ENDBRANCH   1  10
TORSDOF 0
ENDMDL
MODEL 2
REMARK VINA RESULT:    -4.143      1.909      4.248
REMARK INTER + INTRA:          -5.686
REMARK INTER:                  -6.009
REMARK INTRA:                   0.323
REMARK UNBOUND:                 0.153
REMARK SMILES CC1=CCC(=C(C)C)C(=O)CC(C)=CCC1
REMARK SMILES IDX 12 1 14 2 13 3 15 4 16 5 2 6 1 7 3 8 11 10 9 11 10 12 5 13
REMARK SMILES IDX 6 14 7 15 8 16 4 17
REMARK H PARENT
REMARK Flexibility Score: 60.00
ROOT
ATOM      1  C   UNL     1     -16.842  12.490 -30.358  1.00  0.00    -0.070 C 
ATOM      2  C   UNL     1     -16.808  11.845 -29.169  1.00  0.00    -0.027 C 
ATOM      3  C   UNL     1     -18.180  12.951 -30.878  1.00  0.00     0.039 C 
ENDROOT
BRANCH   2   4
ATOM      4  C   UNL     1     -15.552  11.449 -28.437  1.00  0.00     0.032 C 
BRANCH   4   5
ATOM      5  C   UNL     1     -15.141  12.563 -27.468  1.00  0.00     0.034 C 
BRANCH   5   6
ATOM      6  C   UNL     1     -13.666  12.899 -27.562  1.00  0.00    -0.077 C 
ATOM      7  C   UNL     1     -12.677  12.023 -26.835  1.00  0.00     0.039 C 
ATOM      8  C   UNL     1     -13.185  13.991 -28.208  1.00  0.00    -0.023 CG0
ATOM      9  G   UNL     1     -13.967  14.982 -29.052  1.00  0.00     0.000 G0
ENDBRANCH   5   6
ENDBRANCH   4   5
ENDBRANCH   2   4
BRANCH   1  10
ATOM     10  C   UNL     1     -15.609  12.751 -31.200  1.00  0.00     0.111 C 
BRANCH  10  11
ATOM     11  C   UNL     1     -15.227  14.212 -31.201  1.00  0.00     0.163 C 
ATOM     12  O   UNL     1     -16.014  15.010 -31.780  1.00  0.00    -0.294 OA
BRANCH  11  13
ATOM     13  C   UNL     1     -13.970  14.747 -30.578  1.00  0.00    -0.002 C 
ATOM     14  C   UNL     1     -12.820  14.855 -31.312  1.00  0.00    -0.069 C 
ATOM     15  C   UNL     1     -11.487  15.166 -30.671  1.00  0.00     0.039 C 
ATOM     16  C   UNL     1     -12.830  14.720 -32.818  1.00  0.00     0.039 C 
BRANCH  13  17
ATOM     17  C   UNL     1     -13.971  14.989 -29.073  1.00  0.00     0.066 CG0
ATOM     18  G   UNL     1     -13.200  13.991 -28.227  1.00  0.00     0.000 G0
ENDBRANCH  13  17
ENDBRANCH  11  13
ENDBRANCH  10  11
ENDBRANCH   1  10
TORSDOF 0
ENDMDL
MODEL 3
REMARK VINA RESULT:    -4.105      2.001      4.617
REMARK INTER + INTRA:          -5.632
REMARK INTER:                  -5.605
REMARK INTRA:                  -0.027
REMARK UNBOUND:                 0.153
REMARK SMILES CC1=CCC(=C(C)C)C(=O)CC(C)=CCC1
REMARK SMILES IDX 12 1 14 2 13 3 15 4 16 5 2 6 1 7 3 8 11 10 9 11 10 12 5 13
REMARK SMILES IDX 6 14 7 15 8 16 4 17
REMARK H PARENT
REMARK Flexibility Score: 60.00
ROOT
ATOM      1  C   UNL     1     -16.785  12.902 -31.002  1.00  0.00    -0.070 C 
ATOM      2  C   UNL     1     -16.410  13.823 -31.919  1.00  0.00    -0.027 C 
ATOM      3  C   UNL     1     -18.254  12.595 -30.862  1.00  0.00     0.039 C 
ENDROOT
BRANCH   2   4
ATOM      4  C   UNL     1     -14.985  14.142 -32.291  1.00  0.00     0.032 C 
BRANCH   4   5
ATOM      5  C   UNL     1     -14.401  15.150 -31.296  1.00  0.00     0.034 C 
BRANCH   5   6
ATOM      6  C   UNL     1     -13.001  14.780 -30.848  1.00  0.00    -0.077 C 
ATOM      7  C   UNL     1     -11.897  14.758 -31.875  1.00  0.00     0.039 C 
ATOM      8  C   UNL     1     -12.694  14.398 -29.584  1.00  0.00    -0.023 CG0
ATOM      9  G   UNL     1     -13.610  14.394 -28.373  1.00  0.00     0.000 G0
ENDBRANCH   5   6
ENDBRANCH   4   5
ENDBRANCH   2   4
BRANCH   1  10
ATOM     10  C   UNL     1     -15.806  12.182 -30.096  1.00  0.00     0.111 C 
BRANCH  10  11
ATOM     11  C   UNL     1     -15.676  12.861 -28.754  1.00  0.00     0.163 C 
ATOM     12  O   UNL     1     -16.741  13.262 -28.209  1.00  0.00    -0.294 OA
BRANCH  11  13
ATOM     13  C   UNL     1     -14.366  13.097 -28.060  1.00  0.00    -0.002 C 
ATOM     14  C   UNL     1     -13.943  12.255 -27.067  1.00  0.00    -0.069 C 
ATOM     15  C   UNL     1     -12.755  12.582 -26.191  1.00  0.00     0.039 C 
ATOM     16  C   UNL     1     -14.612  10.920 -26.826  1.00  0.00     0.039 C 
BRANCH  13  17
ATOM     17  C   UNL     1     -13.622  14.392 -28.366  1.00  0.00     0.066 CG0
ATOM     18  G   UNL     1     -12.715  14.380 -29.584  1.00  0.00     0.000 G0
ENDBRANCH  13  17
ENDBRANCH  11  13
ENDBRANCH  10  11
ENDBRANCH   1  10
TORSDOF 0
ENDMDL
MODEL 4
REMARK VINA RESULT:    -3.719      2.129      5.340
REMARK INTER + INTRA:          -5.087
REMARK INTER:                  -4.888
REMARK INTRA:                  -0.200
REMARK UNBOUND:                 0.153
REMARK SMILES CC1=CCC(=C(C)C)C(=O)CC(C)=CCC1
REMARK SMILES IDX 12 1 14 2 13 3 15 4 16 5 2 6 1 7 3 8 11 10 9 11 10 12 5 13
REMARK SMILES IDX 6 14 7 15 8 16 4 17
REMARK H PARENT
REMARK Flexibility Score: 60.00
ROOT
ATOM      1  C   UNL     1     -16.648  11.246 -27.302  1.00  0.00    -0.070 C 
ATOM      2  C   UNL     1     -17.623  11.782 -28.071  1.00  0.00    -0.027 C 
ATOM      3  C   UNL     1     -16.982  10.896 -25.874  1.00  0.00     0.039 C 
ENDROOT
BRANCH   2   4
ATOM      4  C   UNL     1     -17.506  12.053 -29.549  1.00  0.00     0.032 C 
BRANCH   4   5
ATOM      5  C   UNL     1     -17.114  13.516 -29.781  1.00  0.00     0.034 C 
BRANCH   5   6
ATOM      6  C   UNL     1     -16.096  13.676 -30.892  1.00  0.00    -0.077 C 
ATOM      7  C   UNL     1     -16.562  13.562 -32.321  1.00  0.00     0.039 C 
ATOM      8  C   UNL     1     -14.768  13.847 -30.673  1.00  0.00    -0.023 CG0
ATOM      9  G   UNL     1     -14.070  14.046 -29.339  1.00  0.00     0.000 G0
ENDBRANCH   5   6
ENDBRANCH   4   5
ENDBRANCH   2   4
BRANCH   1  10
ATOM     10  C   UNL     1     -15.236  11.002 -27.796  1.00  0.00     0.111 C 
BRANCH  10  11
ATOM     11  C   UNL     1     -14.346  12.200 -27.572  1.00  0.00     0.163 C 
ATOM     12  O   UNL     1     -14.344  12.706 -26.416  1.00  0.00    -0.294 OA
BRANCH  11  13
ATOM     13  C   UNL     1     -13.495  12.820 -28.642  1.00  0.00    -0.002 C 
ATOM     14  C   UNL     1     -12.214  12.386 -28.852  1.00  0.00    -0.069 C 
ATOM     15  C   UNL     1     -11.253  13.130 -29.751  1.00  0.00     0.039 C 
ATOM     16  C   UNL     1     -11.705  11.103 -28.235  1.00  0.00     0.039 C 
BRANCH  13  17
ATOM     17  C   UNL     1     -14.034  14.058 -29.351  1.00  0.00     0.066 CG0
ATOM     18  G   UNL     1     -14.750  13.824 -30.669  1.00  0.00     0.000 G0
ENDBRANCH  13  17
ENDBRANCH  11  13
ENDBRANCH  10  11
ENDBRANCH   1  10
TORSDOF 0
ENDMDL
MODEL 5
REMARK VINA RESULT:    -3.671      2.274      4.840
REMARK INTER + INTRA:          -5.020
REMARK INTER:                  -5.389
REMARK INTRA:                   0.369
REMARK UNBOUND:                 0.153
REMARK SMILES CC1=CCC(=C(C)C)C(=O)CC(C)=CCC1
REMARK SMILES IDX 12 1 14 2 13 3 15 4 16 5 2 6 1 7 3 8 11 10 9 11 10 12 5 13
REMARK SMILES IDX 6 14 7 15 8 16 4 17
REMARK H PARENT
REMARK Flexibility Score: 60.00
ROOT
ATOM      1  C   UNL     1     -14.401  12.009 -28.770  1.00  0.00    -0.070 C 
ATOM      2  C   UNL     1     -15.348  11.043 -28.809  1.00  0.00    -0.027 C 
ATOM      3  C   UNL     1     -12.971  11.612 -29.036  1.00  0.00     0.039 C 
ENDROOT
BRANCH   2   4
ATOM      4  C   UNL     1     -16.833  11.286 -28.714  1.00  0.00     0.032 C 
BRANCH   4   5
ATOM      5  C   UNL     1     -17.474  11.132 -30.097  1.00  0.00     0.034 C 
BRANCH   5   6
ATOM      6  C   UNL     1     -18.066  12.429 -30.610  1.00  0.00    -0.077 C 
ATOM      7  C   UNL     1     -19.478  12.785 -30.217  1.00  0.00     0.039 C 
ATOM      8  C   UNL     1     -17.421  13.261 -31.466  1.00  0.00    -0.023 CG0
ATOM      9  G   UNL     1     -15.988  13.150 -31.957  1.00  0.00     0.000 G0
ENDBRANCH   5   6
ENDBRANCH   4   5
ENDBRANCH   2   4
BRANCH   1  10
ATOM     10  C   UNL     1     -14.703  13.460 -28.454  1.00  0.00     0.111 C 
BRANCH  10  11
ATOM     11  C   UNL     1     -15.289  14.185 -29.642  1.00  0.00     0.163 C 
ATOM     12  O   UNL     1     -16.144  15.081 -29.403  1.00  0.00    -0.294 OA
BRANCH  11  13
ATOM     13  C   UNL     1     -14.926  13.883 -31.067  1.00  0.00    -0.002 C 
ATOM     14  C   UNL     1     -13.768  14.370 -31.610  1.00  0.00    -0.069 C 
ATOM     15  C   UNL     1     -13.480  14.287 -33.092  1.00  0.00     0.039 C 
ATOM     16  C   UNL     1     -12.685  14.975 -30.745  1.00  0.00     0.039 C 
BRANCH  13  17
ATOM     17  C   UNL     1     -15.967  13.180 -31.932  1.00  0.00     0.066 CG0
ATOM     18  G   UNL     1     -17.410  13.276 -31.467  1.00  0.00     0.000 G0
ENDBRANCH  13  17
ENDBRANCH  11  13
ENDBRANCH  10  11
ENDBRANCH   1  10
TORSDOF 0
ENDMDL
MODEL 6
REMARK VINA RESULT:    -3.553      1.307      4.132
REMARK INTER + INTRA:          -4.854
REMARK INTER:                  -5.344
REMARK INTRA:                   0.490
REMARK UNBOUND:                 0.153
REMARK SMILES CC1=CCC(=C(C)C)C(=O)CC(C)=CCC1
REMARK SMILES IDX 12 1 14 2 13 3 15 4 16 5 2 6 1 7 3 8 11 10 9 11 10 12 5 13
REMARK SMILES IDX 6 14 7 15 8 16 4 17
REMARK H PARENT
REMARK Flexibility Score: 60.00
ROOT
ATOM      1  C   UNL     1     -16.305  12.860 -31.347  1.00  0.00    -0.070 C 
ATOM      2  C   UNL     1     -17.329  12.000 -31.142  1.00  0.00    -0.027 C 
ATOM      3  C   UNL     1     -16.478  13.935 -32.390  1.00  0.00     0.039 C 
ENDROOT
BRANCH   2   4
ATOM      4  C   UNL     1     -17.382  10.966 -30.046  1.00  0.00     0.032 C 
BRANCH   4   5
ATOM      5  C   UNL     1     -18.556  11.263 -29.108  1.00  0.00     0.034 C 
BRANCH   5   6
ATOM      6  C   UNL     1     -18.586  12.709 -28.654  1.00  0.00    -0.077 C 
ATOM      7  C   UNL     1     -19.722  13.587 -29.116  1.00  0.00     0.039 C 
ATOM      8  C   UNL     1     -17.608  13.282 -27.910  1.00  0.00    -0.023 CG0
ATOM      9  G   UNL     1     -16.404  12.600 -27.284  1.00  0.00     0.000 G0
ENDBRANCH   5   6
ENDBRANCH   4   5
ENDBRANCH   2   4
BRANCH   1  10
ATOM     10  C   UNL     1     -14.989  12.783 -30.599  1.00  0.00     0.111 C 
BRANCH  10  11
ATOM     11  C   UNL     1     -15.040  13.535 -29.291  1.00  0.00     0.163 C 
ATOM     12  O   UNL     1     -15.060  14.795 -29.354  1.00  0.00    -0.294 OA
BRANCH  11  13
ATOM     13  C   UNL     1     -15.045  12.871 -27.945  1.00  0.00    -0.002 C 
ATOM     14  C   UNL     1     -13.887  12.379 -27.406  1.00  0.00    -0.069 C 
ATOM     15  C   UNL     1     -13.885  11.505 -26.172  1.00  0.00     0.039 C 
ATOM     16  C   UNL     1     -12.536  12.728 -27.988  1.00  0.00     0.039 C 
BRANCH  13  17
ATOM     17  C   UNL     1     -16.396  12.601 -27.291  1.00  0.00     0.066 CG0
ATOM     18  G   UNL     1     -17.601  13.279 -27.921  1.00  0.00     0.000 G0
ENDBRANCH  13  17
ENDBRANCH  11  13
ENDBRANCH  10  11
ENDBRANCH   1  10
TORSDOF 0
ENDMDL
MODEL 7
REMARK VINA RESULT:    -3.493      1.957      3.873
REMARK INTER + INTRA:          -4.769
REMARK INTER:                  -4.911
REMARK INTRA:                   0.142
REMARK UNBOUND:                 0.153
REMARK SMILES CC1=CCC(=C(C)C)C(=O)CC(C)=CCC1
REMARK SMILES IDX 12 1 14 2 13 3 15 4 16 5 2 6 1 7 3 8 11 10 9 11 10 12 5 13
REMARK SMILES IDX 6 14 7 15 8 16 4 17
REMARK H PARENT
REMARK Flexibility Score: 60.00
ROOT
ATOM      1  C   UNL     1     -13.670  12.185 -28.190  1.00  0.00    -0.070 C 
ATOM      2  C   UNL     1     -12.636  13.050 -28.297  1.00  0.00    -0.027 C 
ATOM      3  C   UNL     1     -14.218  11.900 -26.815  1.00  0.00     0.039 C 
ENDROOT
BRANCH   2   4
ATOM      4  C   UNL     1     -12.065  13.558 -29.597  1.00  0.00     0.032 C 
BRANCH   4   5
ATOM      5  C   UNL     1     -12.484  15.015 -29.814  1.00  0.00     0.034 C 
BRANCH   5   6
ATOM      6  C   UNL     1     -13.456  15.175 -30.967  1.00  0.00    -0.077 C 
ATOM      7  C   UNL     1     -12.905  15.447 -32.344  1.00  0.00     0.039 C 
ATOM      8  C   UNL     1     -14.804  15.158 -30.819  1.00  0.00    -0.023 CG0
ATOM      9  G   UNL     1     -15.590  14.850 -29.557  1.00  0.00     0.000 G0
ENDBRANCH   5   6
ENDBRANCH   4   5
ENDBRANCH   2   4
BRANCH   1  10
ATOM     10  C   UNL     1     -14.289  11.474 -29.377  1.00  0.00     0.111 C 
BRANCH  10  11
ATOM     11  C   UNL     1     -15.331  12.325 -30.062  1.00  0.00     0.163 C 
ATOM     12  O   UNL     1     -15.547  12.097 -31.284  1.00  0.00    -0.294 OA
BRANCH  11  13
ATOM     13  C   UNL     1     -16.094  13.423 -29.379  1.00  0.00    -0.002 C 
ATOM     14  C   UNL     1     -17.293  13.164 -28.772  1.00  0.00    -0.069 C 
ATOM     15  C   UNL     1     -18.198  14.271 -28.280  1.00  0.00     0.039 C 
ATOM     16  C   UNL     1     -17.757  11.749 -28.513  1.00  0.00     0.039 C 
BRANCH  13  17
ATOM     17  C   UNL     1     -15.585  14.851 -29.542  1.00  0.00     0.066 CG0
ATOM     18  G   UNL     1     -14.809  15.152 -30.812  1.00  0.00     0.000 G0
ENDBRANCH  13  17
ENDBRANCH  11  13
ENDBRANCH  10  11
ENDBRANCH   1  10
TORSDOF 0
ENDMDL
MODEL 8
REMARK VINA RESULT:    -3.427     10.047     13.411
REMARK INTER + INTRA:          -4.676
REMARK INTER:                  -5.675
REMARK INTRA:                   0.999
REMARK UNBOUND:                 0.153
REMARK SMILES CC1=CCC(=C(C)C)C(=O)CC(C)=CCC1
REMARK SMILES IDX 12 1 14 2 13 3 15 4 16 5 2 6 1 7 3 8 11 10 9 11 10 12 5 13
REMARK SMILES IDX 6 14 7 15 8 16 4 17
REMARK H PARENT
REMARK Flexibility Score: 60.00
ROOT
ATOM      1  C   UNL     1     -30.288  12.436 -30.056  1.00  0.00    -0.070 C 
ATOM      2  C   UNL     1     -30.554  13.386 -30.983  1.00  0.00    -0.027 C 
ATOM      3  C   UNL     1     -30.679  11.013 -30.365  1.00  0.00     0.039 C 
ENDROOT
BRANCH   2   4
ATOM      4  C   UNL     1     -30.102  14.822 -30.902  1.00  0.00     0.032 C 
BRANCH   4   5
ATOM      5  C   UNL     1     -28.845  15.020 -31.755  1.00  0.00     0.034 C 
BRANCH   5   6
ATOM      6  C   UNL     1     -27.608  15.272 -30.916  1.00  0.00    -0.077 C 
ATOM      7  C   UNL     1     -27.175  16.697 -30.677  1.00  0.00     0.039 C 
ATOM      8  C   UNL     1     -26.822  14.283 -30.422  1.00  0.00    -0.023 CG0
ATOM      9  G   UNL     1     -27.076  12.787 -30.480  1.00  0.00     0.000 G0
ENDBRANCH   5   6
ENDBRANCH   4   5
ENDBRANCH   2   4
BRANCH   1  10
ATOM     10  C   UNL     1     -29.638  12.735 -28.720  1.00  0.00     0.111 C 
BRANCH  10  11
ATOM     11  C   UNL     1     -28.437  11.854 -28.469  1.00  0.00     0.163 C 
ATOM     12  O   UNL     1     -28.577  10.916 -27.637  1.00  0.00    -0.294 OA
BRANCH  11  13
ATOM     13  C   UNL     1     -27.104  12.050 -29.131  1.00  0.00    -0.002 C 
ATOM     14  C   UNL     1     -25.947  11.724 -28.478  1.00  0.00    -0.069 C 
ATOM     15  C   UNL     1     -24.588  12.117 -29.010  1.00  0.00     0.039 C 
ATOM     16  C   UNL     1     -25.963  10.903 -27.208  1.00  0.00     0.039 C 
BRANCH  13  17
ATOM     17  C   UNL     1     -27.075  12.787 -30.466  1.00  0.00     0.066 CG0
ATOM     18  G   UNL     1     -26.809  14.281 -30.409  1.00  0.00     0.000 G0
ENDBRANCH  13  17
ENDBRANCH  11  13
ENDBRANCH  10  11
ENDBRANCH   1  10
TORSDOF 0
ENDMDL
MODEL 9
REMARK VINA RESULT:    -3.224      1.933      2.399
REMARK INTER + INTRA:          -4.391
REMARK INTER:                  -5.055
REMARK INTRA:                   0.664
REMARK UNBOUND:                 0.153
REMARK SMILES CC1=CCC(=C(C)C)C(=O)CC(C)=CCC1
REMARK SMILES IDX 12 1 14 2 13 3 15 4 16 5 2 6 1 7 3 8 11 10 9 11 10 12 5 13
REMARK SMILES IDX 6 14 7 15 8 16 4 17
REMARK H PARENT
REMARK Flexibility Score: 60.00
ROOT
ATOM      1  C   UNL     1     -14.268  14.949 -30.516  1.00  0.00    -0.070 C 
ATOM      2  C   UNL     1     -13.032  14.801 -29.986  1.00  0.00    -0.027 C 
ATOM      3  C   UNL     1     -15.076  16.154 -30.108  1.00  0.00     0.039 C 
ENDROOT
BRANCH   2   4
ATOM      4  C   UNL     1     -12.039  13.742 -30.393  1.00  0.00     0.032 C 
BRANCH   4   5
ATOM      5  C   UNL     1     -12.716  12.368 -30.400  1.00  0.00     0.034 C 
BRANCH   5   6
ATOM      6  C   UNL     1     -13.075  11.891 -29.006  1.00  0.00    -0.077 C 
ATOM      7  C   UNL     1     -12.006  11.893 -27.944  1.00  0.00     0.039 C 
ATOM      8  C   UNL     1     -14.292  11.391 -28.675  1.00  0.00    -0.023 CG0
ATOM      9  G   UNL     1     -15.536  11.337 -29.546  1.00  0.00     0.000 G0
ENDBRANCH   5   6
ENDBRANCH   4   5
ENDBRANCH   2   4
BRANCH   1  10
ATOM     10  C   UNL     1     -14.886  13.955 -31.479  1.00  0.00     0.111 C 
BRANCH  10  11
ATOM     11  C   UNL     1     -16.194  13.408 -30.961  1.00  0.00     0.163 C 
ATOM     12  O   UNL     1     -17.225  13.634 -31.652  1.00  0.00    -0.294 OA
BRANCH  11  13
ATOM     13  C   UNL     1     -16.329  12.641 -29.677  1.00  0.00    -0.002 C 
ATOM     14  C   UNL     1     -16.996  13.181 -28.611  1.00  0.00    -0.069 C 
ATOM     15  C   UNL     1     -16.957  12.549 -27.238  1.00  0.00     0.039 C 
ATOM     16  C   UNL     1     -17.856  14.416 -28.761  1.00  0.00     0.039 C 
BRANCH  13  17
ATOM     17  C   UNL     1     -15.550  11.338 -29.542  1.00  0.00     0.066 CG0
ATOM     18  G   UNL     1     -14.302  11.382 -28.678  1.00  0.00     0.000 G0
ENDBRANCH  13  17
ENDBRANCH  11  13
ENDBRANCH  10  11
ENDBRANCH   1  10
TORSDOF 0
ENDMDL
