MODEL 1
REMARK VINA RESULT:    -3.554      0.000      0.000
REMARK INTER + INTRA:          -5.337
REMARK INTER:                  -4.800
REMARK INTRA:                  -0.537
REMARK UNBOUND:                -0.537
REMARK SMILES [NH3+]CCCC[C@@H]([NH3+])C(=O)[O-]
REMARK SMILES IDX 4 1 3 2 2 3 1 4 5 8 6 9 7 10 8 14 9 15 10 16
REMARK H PARENT 1 5 1 6 1 7 7 11 7 12 7 13
REMARK Flexibility Score: inf
ROOT
ATOM      1  C   UNL     1       4.671  13.098  14.726  1.00  0.00     0.012 C 
ENDROOT
BRANCH   1   2
ATOM      2  C   UNL     1       5.447  13.859  13.639  1.00  0.00     0.061 C 
BRANCH   2   3
ATOM      3  C   UNL     1       6.740  13.136  13.224  1.00  0.00     0.258 C 
BRANCH   3   4
ATOM      4  N   UNL     1       7.922  13.986  13.385  1.00  0.00    -0.358 N 
ATOM      5  H   UNL     1       7.702  14.943  13.029  1.00  0.00     0.344 HD
ATOM      6  H   UNL     1       8.180  14.062  14.395  1.00  0.00     0.344 HD
ATOM      7  H   UNL     1       8.726  13.600  12.838  1.00  0.00     0.344 HD
ENDBRANCH   3   4
ENDBRANCH   2   3
ENDBRANCH   1   2
BRANCH   1   8
ATOM      8  C   UNL     1       5.309  13.231  16.121  1.00  0.00     0.072 C 
BRANCH   8   9
ATOM      9  C   UNL     1       5.670  14.679  16.532  1.00  0.00     0.227 C 
BRANCH   9  10
ATOM     10  N   UNL     1       4.856  15.149  17.663  1.00  0.00    -0.350 N 
ATOM     11  H   UNL     1       3.908  14.706  17.647  1.00  0.00     0.345 HD
ATOM     12  H   UNL     1       5.329  14.914  18.566  1.00  0.00     0.345 HD
ATOM     13  H   UNL     1       4.755  16.188  17.624  1.00  0.00     0.345 HD
ENDBRANCH   9  10
BRANCH   9  14
ATOM     14  C   UNL     1       7.133  14.750  16.881  1.00  0.00     0.099 C 
ATOM     15  O   UNL     1       7.920  13.831  16.531  1.00  0.00    -0.544 OA
ATOM     16  O   UNL     1       7.631  15.851  17.569  1.00  0.00    -0.544 OA
ENDBRANCH   9  14
ENDBRANCH   8   9
ENDBRANCH   1   8
TORSDOF 7
ENDMDL
MODEL 2
REMARK VINA RESULT:    -3.522      4.941      5.870
REMARK INTER + INTRA:          -5.294
REMARK INTER:                  -5.112
REMARK INTRA:                  -0.182
REMARK UNBOUND:                -0.537
REMARK SMILES [NH3+]CCCC[C@@H]([NH3+])C(=O)[O-]
REMARK SMILES IDX 4 1 3 2 2 3 1 4 5 8 6 9 7 10 8 14 9 15 10 16
REMARK H PARENT 1 5 1 6 1 7 7 11 7 12 7 13
REMARK Flexibility Score: inf
ROOT
ATOM      1  C   UNL     1       6.517  10.178  12.022  1.00  0.00     0.012 C 
ENDROOT
BRANCH   1   2
ATOM      2  C   UNL     1       7.718  10.819  11.308  1.00  0.00     0.061 C 
BRANCH   2   3
ATOM      3  C   UNL     1       8.080  10.094  10.001  1.00  0.00     0.258 C 
BRANCH   3   4
ATOM      4  N   UNL     1       9.193   9.160  10.179  1.00  0.00    -0.358 N 
ATOM      5  H   UNL     1       9.037   8.326   9.570  1.00  0.00     0.344 HD
ATOM      6  H   UNL     1      10.094   9.610   9.897  1.00  0.00     0.344 HD
ATOM      7  H   UNL     1       9.248   8.844  11.175  1.00  0.00     0.344 HD
ENDBRANCH   3   4
ENDBRANCH   2   3
ENDBRANCH   1   2
BRANCH   1   8
ATOM      8  C   UNL     1       5.169  10.546  11.375  1.00  0.00     0.072 C 
BRANCH   8   9
ATOM      9  C   UNL     1       4.979  12.055  11.089  1.00  0.00     0.227 C 
BRANCH   9  10
ATOM     10  N   UNL     1       4.184  12.288   9.875  1.00  0.00    -0.350 N 
ATOM     11  H   UNL     1       3.952  13.303   9.771  1.00  0.00     0.345 HD
ATOM     12  H   UNL     1       4.715  11.970   9.032  1.00  0.00     0.345 HD
ATOM     13  H   UNL     1       3.299  11.733   9.914  1.00  0.00     0.345 HD
ENDBRANCH   9  10
BRANCH   9  14
ATOM     14  C   UNL     1       4.321  12.710  12.275  1.00  0.00     0.099 C 
ATOM     15  O   UNL     1       4.959  13.525  12.993  1.00  0.00    -0.544 OA
ATOM     16  O   UNL     1       2.989  12.439  12.567  1.00  0.00    -0.544 OA
ENDBRANCH   9  14
ENDBRANCH   8   9
ENDBRANCH   1   8
TORSDOF 7
ENDMDL
MODEL 3
REMARK VINA RESULT:    -3.518      3.678      5.321
REMARK INTER + INTRA:          -5.289
REMARK INTER:                  -4.754
REMARK INTRA:                  -0.535
REMARK UNBOUND:                -0.537
REMARK SMILES [NH3+]CCCC[C@@H]([NH3+])C(=O)[O-]
REMARK SMILES IDX 4 1 3 2 2 3 1 4 5 8 6 9 7 10 8 14 9 15 10 16
REMARK H PARENT 1 5 1 6 1 7 7 11 7 12 7 13
REMARK Flexibility Score: inf
ROOT
ATOM      1  C   UNL     1       4.024  12.297  13.764  1.00  0.00     0.012 C 
ENDROOT
BRANCH   1   2
ATOM      2  C   UNL     1       5.051  13.062  14.614  1.00  0.00     0.061 C 
BRANCH   2   3
ATOM      3  C   UNL     1       5.745  14.187  13.827  1.00  0.00     0.258 C 
BRANCH   3   4
ATOM      4  N   UNL     1       7.157  13.893  13.575  1.00  0.00    -0.358 N 
ATOM      5  H   UNL     1       7.645  13.762  14.489  1.00  0.00     0.344 HD
ATOM      6  H   UNL     1       7.251  13.010  13.022  1.00  0.00     0.344 HD
ATOM      7  H   UNL     1       7.609  14.685  13.063  1.00  0.00     0.344 HD
ENDBRANCH   3   4
ENDBRANCH   2   3
ENDBRANCH   1   2
BRANCH   1   8
ATOM      8  C   UNL     1       3.944  12.811  12.315  1.00  0.00     0.072 C 
BRANCH   8   9
ATOM      9  C   UNL     1       4.205  11.737  11.232  1.00  0.00     0.227 C 
BRANCH   9  10
ATOM     10  N   UNL     1       4.203  12.311   9.878  1.00  0.00    -0.350 N 
ATOM     11  H   UNL     1       4.163  13.356   9.917  1.00  0.00     0.345 HD
ATOM     12  H   UNL     1       5.067  12.020   9.365  1.00  0.00     0.345 HD
ATOM     13  H   UNL     1       3.383  11.953   9.338  1.00  0.00     0.345 HD
ENDBRANCH   9  10
BRANCH   9  14
ATOM     14  C   UNL     1       5.522  11.060  11.507  1.00  0.00     0.099 C 
ATOM     15  O   UNL     1       6.599  11.710  11.454  1.00  0.00    -0.544 OA
ATOM     16  O   UNL     1       5.551   9.714  11.852  1.00  0.00    -0.544 OA
ENDBRANCH   9  14
ENDBRANCH   8   9
ENDBRANCH   1   8
TORSDOF 7
ENDMDL
MODEL 4
REMARK VINA RESULT:    -3.446      2.793      3.566
REMARK INTER + INTRA:          -5.192
REMARK INTER:                  -4.957
REMARK INTRA:                  -0.235
REMARK UNBOUND:                -0.537
REMARK SMILES [NH3+]CCCC[C@@H]([NH3+])C(=O)[O-]
REMARK SMILES IDX 4 1 3 2 2 3 1 4 5 8 6 9 7 10 8 14 9 15 10 16
REMARK H PARENT 1 5 1 6 1 7 7 11 7 12 7 13
REMARK Flexibility Score: inf
ROOT
ATOM      1  C   UNL     1       4.223  12.252  13.745  1.00  0.00     0.012 C 
ENDROOT
BRANCH   1   2
ATOM      2  C   UNL     1       3.920  12.797  12.339  1.00  0.00     0.061 C 
BRANCH   2   3
ATOM      3  C   UNL     1       4.175  11.755  11.237  1.00  0.00     0.258 C 
BRANCH   3   4
ATOM      4  N   UNL     1       4.210  12.360   9.904  1.00  0.00    -0.358 N 
ATOM      5  H   UNL     1       3.289  12.204   9.437  1.00  0.00     0.344 HD
ATOM      6  H   UNL     1       4.371  13.391   9.978  1.00  0.00     0.344 HD
ATOM      7  H   UNL     1       4.961  11.921   9.324  1.00  0.00     0.344 HD
ENDBRANCH   3   4
ENDBRANCH   2   3
ENDBRANCH   1   2
BRANCH   1   8
ATOM      8  C   UNL     1       5.110  13.197  14.575  1.00  0.00     0.072 C 
BRANCH   8   9
ATOM      9  C   UNL     1       6.192  13.949  13.763  1.00  0.00     0.227 C 
BRANCH   9  10
ATOM     10  N   UNL     1       6.683  15.139  14.472  1.00  0.00    -0.350 N 
ATOM     11  H   UNL     1       7.270  14.866  15.294  1.00  0.00     0.345 HD
ATOM     12  H   UNL     1       7.253  15.732  13.825  1.00  0.00     0.345 HD
ATOM     13  H   UNL     1       5.877  15.720  14.798  1.00  0.00     0.345 HD
ENDBRANCH   9  10
BRANCH   9  14
ATOM     14  C   UNL     1       7.334  13.014  13.465  1.00  0.00     0.099 C 
ATOM     15  O   UNL     1       7.558  12.632  12.286  1.00  0.00    -0.544 OA
ATOM     16  O   UNL     1       8.169  12.589  14.492  1.00  0.00    -0.544 OA
ENDBRANCH   9  14
ENDBRANCH   8   9
ENDBRANCH   1   8
TORSDOF 7
ENDMDL
MODEL 5
REMARK VINA RESULT:    -3.394      2.398      3.307
REMARK INTER + INTRA:          -5.121
REMARK INTER:                  -4.981
REMARK INTRA:                  -0.140
REMARK UNBOUND:                -0.537
REMARK SMILES [NH3+]CCCC[C@@H]([NH3+])C(=O)[O-]
REMARK SMILES IDX 4 1 3 2 2 3 1 4 5 8 6 9 7 10 8 14 9 15 10 16
REMARK H PARENT 1 5 1 6 1 7 7 11 7 12 7 13
REMARK Flexibility Score: inf
ROOT
ATOM      1  C   UNL     1       4.447  12.772  13.610  1.00  0.00     0.012 C 
ENDROOT
BRANCH   1   2
ATOM      2  C   UNL     1       3.664  12.464  12.323  1.00  0.00     0.061 C 
BRANCH   2   3
ATOM      3  C   UNL     1       4.573  11.962  11.188  1.00  0.00     0.258 C 
BRANCH   3   4
ATOM      4  N   UNL     1       4.122  12.427   9.875  1.00  0.00    -0.358 N 
ATOM      5  H   UNL     1       3.471  11.718   9.469  1.00  0.00     0.344 HD
ATOM      6  H   UNL     1       3.607  13.332   9.968  1.00  0.00     0.344 HD
ATOM      7  H   UNL     1       4.938  12.544   9.230  1.00  0.00     0.344 HD
ENDBRANCH   3   4
ENDBRANCH   2   3
ENDBRANCH   1   2
BRANCH   1   8
ATOM      8  C   UNL     1       5.554  13.822  13.401  1.00  0.00     0.072 C 
BRANCH   8   9
ATOM      9  C   UNL     1       6.948  13.406  13.929  1.00  0.00     0.227 C 
BRANCH   9  10
ATOM     10  N   UNL     1       8.003  13.630  12.931  1.00  0.00    -0.350 N 
ATOM     11  H   UNL     1       8.803  12.972  13.081  1.00  0.00     0.345 HD
ATOM     12  H   UNL     1       7.619  13.490  11.967  1.00  0.00     0.345 HD
ATOM     13  H   UNL     1       8.348  14.615  12.989  1.00  0.00     0.345 HD
ENDBRANCH   9  10
BRANCH   9  14
ATOM     14  C   UNL     1       7.254  14.172  15.189  1.00  0.00     0.099 C 
ATOM     15  O   UNL     1       7.838  13.611  16.154  1.00  0.00    -0.544 OA
ATOM     16  O   UNL     1       6.919  15.518  15.282  1.00  0.00    -0.544 OA
ENDBRANCH   9  14
ENDBRANCH   8   9
ENDBRANCH   1   8
TORSDOF 7
ENDMDL
MODEL 6
REMARK VINA RESULT:    -3.344      2.033      2.770
REMARK INTER + INTRA:          -5.053
REMARK INTER:                  -4.512
REMARK INTRA:                  -0.541
REMARK UNBOUND:                -0.537
REMARK SMILES [NH3+]CCCC[C@@H]([NH3+])C(=O)[O-]
REMARK SMILES IDX 4 1 3 2 2 3 1 4 5 8 6 9 7 10 8 14 9 15 10 16
REMARK H PARENT 1 5 1 6 1 7 7 11 7 12 7 13
REMARK Flexibility Score: inf
ROOT
ATOM      1  C   UNL     1       8.326  14.524  16.199  1.00  0.00     0.012 C 
ENDROOT
BRANCH   1   2
ATOM      2  C   UNL     1       8.654  14.656  14.703  1.00  0.00     0.061 C 
BRANCH   2   3
ATOM      3  C   UNL     1       8.287  13.392  13.907  1.00  0.00     0.258 C 
BRANCH   3   4
ATOM      4  N   UNL     1       7.068  13.574  13.116  1.00  0.00    -0.358 N 
ATOM      5  H   UNL     1       7.217  13.171  12.164  1.00  0.00     0.344 HD
ATOM      6  H   UNL     1       6.267  13.073  13.564  1.00  0.00     0.344 HD
ATOM      7  H   UNL     1       6.845  14.591  13.020  1.00  0.00     0.344 HD
ENDBRANCH   3   4
ENDBRANCH   2   3
ENDBRANCH   1   2
BRANCH   1   8
ATOM      8  C   UNL     1       7.050  15.286  16.602  1.00  0.00     0.072 C 
BRANCH   8   9
ATOM      9  C   UNL     1       5.968  14.418  17.289  1.00  0.00     0.227 C 
BRANCH   9  10
ATOM     10  N   UNL     1       4.832  15.225  17.758  1.00  0.00    -0.350 N 
ATOM     11  H   UNL     1       4.404  14.803  18.614  1.00  0.00     0.345 HD
ATOM     12  H   UNL     1       5.151  16.197  17.978  1.00  0.00     0.345 HD
ATOM     13  H   UNL     1       4.109  15.296  17.006  1.00  0.00     0.345 HD
ENDBRANCH   9  10
BRANCH   9  14
ATOM     14  C   UNL     1       5.492  13.360  16.329  1.00  0.00     0.099 C 
ATOM     15  O   UNL     1       4.838  13.677  15.299  1.00  0.00    -0.544 OA
ATOM     16  O   UNL     1       5.798  12.024  16.560  1.00  0.00    -0.544 OA
ENDBRANCH   9  14
ENDBRANCH   8   9
ENDBRANCH   1   8
TORSDOF 7
ENDMDL
MODEL 7
REMARK VINA RESULT:    -3.299      2.112      3.765
REMARK INTER + INTRA:          -4.993
REMARK INTER:                  -4.409
REMARK INTRA:                  -0.584
REMARK UNBOUND:                -0.537
REMARK SMILES [NH3+]CCCC[C@@H]([NH3+])C(=O)[O-]
REMARK SMILES IDX 4 1 3 2 2 3 1 4 5 8 6 9 7 10 8 14 9 15 10 16
REMARK H PARENT 1 5 1 6 1 7 7 11 7 12 7 13
REMARK Flexibility Score: inf
ROOT
ATOM      1  C   UNL     1       4.792  12.904  15.489  1.00  0.00     0.012 C 
ENDROOT
BRANCH   1   2
ATOM      2  C   UNL     1       5.688  13.237  16.694  1.00  0.00     0.061 C 
BRANCH   2   3
ATOM      3  C   UNL     1       5.764  14.748  16.970  1.00  0.00     0.258 C 
BRANCH   3   4
ATOM      4  N   UNL     1       6.878  15.382  16.262  1.00  0.00    -0.358 N 
ATOM      5  H   UNL     1       6.683  16.404  16.170  1.00  0.00     0.344 HD
ATOM      6  H   UNL     1       7.766  15.263  16.801  1.00  0.00     0.344 HD
ATOM      7  H   UNL     1       6.983  14.971  15.306  1.00  0.00     0.344 HD
ENDBRANCH   3   4
ENDBRANCH   2   3
ENDBRANCH   1   2
BRANCH   1   8
ATOM      8  C   UNL     1       5.546  12.164  14.369  1.00  0.00     0.072 C 
BRANCH   8   9
ATOM      9  C   UNL     1       5.952  13.052  13.167  1.00  0.00     0.227 C 
BRANCH   9  10
ATOM     10  N   UNL     1       5.323  14.379  13.227  1.00  0.00    -0.350 N 
ATOM     11  H   UNL     1       5.029  14.694  12.273  1.00  0.00     0.345 HD
ATOM     12  H   UNL     1       4.485  14.350  13.852  1.00  0.00     0.345 HD
ATOM     13  H   UNL     1       5.990  15.074  13.631  1.00  0.00     0.345 HD
ENDBRANCH   9  10
BRANCH   9  14
ATOM     14  C   UNL     1       7.452  13.189  13.132  1.00  0.00     0.099 C 
ATOM     15  O   UNL     1       8.054  13.864  14.008  1.00  0.00    -0.544 OA
ATOM     16  O   UNL     1       8.185  12.542  12.144  1.00  0.00    -0.544 OA
ENDBRANCH   9  14
ENDBRANCH   8   9
ENDBRANCH   1   8
TORSDOF 7
ENDMDL
MODEL 8
REMARK VINA RESULT:    -3.294      3.232      4.513
REMARK INTER + INTRA:          -4.986
REMARK INTER:                  -4.847
REMARK INTRA:                  -0.140
REMARK UNBOUND:                -0.537
REMARK SMILES [NH3+]CCCC[C@@H]([NH3+])C(=O)[O-]
REMARK SMILES IDX 4 1 3 2 2 3 1 4 5 8 6 9 7 10 8 14 9 15 10 16
REMARK H PARENT 1 5 1 6 1 7 7 11 7 12 7 13
REMARK Flexibility Score: inf
ROOT
ATOM      1  C   UNL     1       7.739  11.303  12.202  1.00  0.00     0.012 C 
ENDROOT
BRANCH   1   2
ATOM      2  C   UNL     1       7.493  10.964  10.723  1.00  0.00     0.061 C 
BRANCH   2   3
ATOM      3  C   UNL     1       8.786  10.574   9.986  1.00  0.00     0.258 C 
BRANCH   3   4
ATOM      4  N   UNL     1       9.165   9.182  10.237  1.00  0.00    -0.358 N 
ATOM      5  H   UNL     1       9.861   8.885   9.516  1.00  0.00     0.344 HD
ATOM      6  H   UNL     1       9.606   9.090  11.180  1.00  0.00     0.344 HD
ATOM      7  H   UNL     1       8.327   8.559  10.171  1.00  0.00     0.344 HD
ENDBRANCH   3   4
ENDBRANCH   2   3
ENDBRANCH   1   2
BRANCH   1   8
ATOM      8  C   UNL     1       7.988  12.804  12.438  1.00  0.00     0.072 C 
BRANCH   8   9
ATOM      9  C   UNL     1       7.652  13.299  13.866  1.00  0.00     0.227 C 
BRANCH   9  10
ATOM     10  N   UNL     1       8.192  14.642  14.124  1.00  0.00    -0.350 N 
ATOM     11  H   UNL     1       7.576  15.377  13.703  1.00  0.00     0.345 HD
ATOM     12  H   UNL     1       8.267  14.806  15.154  1.00  0.00     0.345 HD
ATOM     13  H   UNL     1       9.154  14.724  13.723  1.00  0.00     0.345 HD
ENDBRANCH   9  10
BRANCH   9  14
ATOM     14  C   UNL     1       6.158  13.294  14.059  1.00  0.00     0.099 C 
ATOM     15  O   UNL     1       5.424  14.067  13.389  1.00  0.00    -0.544 OA
ATOM     16  O   UNL     1       5.577  12.409  14.960  1.00  0.00    -0.544 OA
ENDBRANCH   9  14
ENDBRANCH   8   9
ENDBRANCH   1   8
TORSDOF 7
ENDMDL
MODEL 9
REMARK VINA RESULT:    -3.276      3.032      4.886
REMARK INTER + INTRA:          -4.963
REMARK INTER:                  -4.857
REMARK INTRA:                  -0.106
REMARK UNBOUND:                -0.537
REMARK SMILES [NH3+]CCCC[C@@H]([NH3+])C(=O)[O-]
REMARK SMILES IDX 4 1 3 2 2 3 1 4 5 8 6 9 7 10 8 14 9 15 10 16
REMARK H PARENT 1 5 1 6 1 7 7 11 7 12 7 13
REMARK Flexibility Score: inf
ROOT
ATOM      1  C   UNL     1       5.900  14.151  14.234  1.00  0.00     0.012 C 
ENDROOT
BRANCH   1   2
ATOM      2  C   UNL     1       5.366  13.642  15.582  1.00  0.00     0.061 C 
BRANCH   2   3
ATOM      3  C   UNL     1       5.887  14.468  16.771  1.00  0.00     0.258 C 
BRANCH   3   4
ATOM      4  N   UNL     1       4.803  15.135  17.495  1.00  0.00    -0.358 N 
ATOM      5  H   UNL     1       5.124  16.086  17.785  1.00  0.00     0.344 HD
ATOM      6  H   UNL     1       3.966  15.242  16.878  1.00  0.00     0.344 HD
ATOM      7  H   UNL     1       4.549  14.590  18.352  1.00  0.00     0.344 HD
ENDBRANCH   3   4
ENDBRANCH   2   3
ENDBRANCH   1   2
BRANCH   1   8
ATOM      8  C   UNL     1       6.229  13.012  13.251  1.00  0.00     0.072 C 
BRANCH   8   9
ATOM      9  C   UNL     1       7.719  12.923  12.840  1.00  0.00     0.227 C 
BRANCH   9  10
ATOM     10  N   UNL     1       8.609  12.865  14.008  1.00  0.00    -0.350 N 
ATOM     11  H   UNL     1       9.432  13.498  13.880  1.00  0.00     0.345 HD
ATOM     12  H   UNL     1       8.088  13.149  14.870  1.00  0.00     0.345 HD
ATOM     13  H   UNL     1       8.944  11.885  14.154  1.00  0.00     0.345 HD
ENDBRANCH   9  10
BRANCH   9  14
ATOM     14  C   UNL     1       7.925  11.712  11.968  1.00  0.00     0.099 C 
ATOM     15  O   UNL     1       8.602  11.793  10.909  1.00  0.00    -0.544 OA
ATOM     16  O   UNL     1       7.391  10.486  12.346  1.00  0.00    -0.544 OA
ENDBRANCH   9  14
ENDBRANCH   8   9
ENDBRANCH   1   8
TORSDOF 7
ENDMDL
