MODEL 1
REMARK VINA RESULT:    -4.076      0.000      0.000
REMARK INTER + INTRA:          -5.158
REMARK INTER:                  -5.029
REMARK INTRA:                  -0.129
REMARK UNBOUND:                -0.129
REMARK SMILES CCCCCC(=O)[O-]
REMARK SMILES IDX 4 1 5 2 6 3 7 4 8 5 3 6 2 7 1 8
REMARK H PARENT
REMARK Flexibility Score: inf
ROOT
ATOM      1  C   UNL     1      41.808  40.726  17.712  1.00  0.00     0.006 C 
ENDROOT
BRANCH   1   2
ATOM      2  C   UNL     1      40.532  40.924  16.882  1.00  0.00     0.053 C 
BRANCH   2   3
ATOM      3  C   UNL     1      40.839  41.098  15.426  1.00  0.00     0.041 C 
ATOM      4  O   UNL     1      40.550  40.189  14.604  1.00  0.00    -0.550 OA
ATOM      5  O   UNL     1      41.413  42.278  14.972  1.00  0.00    -0.550 OA
ENDBRANCH   2   3
ENDBRANCH   1   2
BRANCH   1   6
ATOM      6  C   UNL     1      42.108  41.932  18.615  1.00  0.00     0.000 C 
BRANCH   6   7
ATOM      7  C   UNL     1      42.233  41.500  20.081  1.00  0.00    -0.003 C 
ATOM      8  C   UNL     1      42.000  40.000  20.236  1.00  0.00     0.004 C 
ENDBRANCH   6   7
ENDBRANCH   1   6
TORSDOF 4
ENDMDL
MODEL 2
REMARK VINA RESULT:    -4.019      1.403      1.837
REMARK INTER + INTRA:          -5.088
REMARK INTER:                  -4.955
REMARK INTRA:                  -0.133
REMARK UNBOUND:                -0.129
REMARK SMILES CCCCCC(=O)[O-]
REMARK SMILES IDX 4 1 5 2 6 3 7 4 8 5 3 6 2 7 1 8
REMARK H PARENT
REMARK Flexibility Score: inf
ROOT
ATOM      1  C   UNL     1      40.581  40.728  16.805  1.00  0.00     0.006 C 
ENDROOT
BRANCH   1   2
ATOM      2  C   UNL     1      40.926  41.230  15.397  1.00  0.00     0.053 C 
BRANCH   2   3
ATOM      3  C   UNL     1      41.282  42.685  15.399  1.00  0.00     0.041 C 
ATOM      4  O   UNL     1      42.208  43.113  14.660  1.00  0.00    -0.550 OA
ATOM      5  O   UNL     1      40.569  43.575  16.192  1.00  0.00    -0.550 OA
ENDBRANCH   2   3
ENDBRANCH   1   2
BRANCH   1   6
ATOM      6  C   UNL     1      41.824  40.602  17.699  1.00  0.00     0.000 C 
BRANCH   6   7
ATOM      7  C   UNL     1      41.526  41.086  19.123  1.00  0.00    -0.003 C 
ATOM      8  C   UNL     1      42.067  40.108  20.162  1.00  0.00     0.004 C 
ENDBRANCH   6   7
ENDBRANCH   1   6
TORSDOF 4
ENDMDL
MODEL 3
REMARK VINA RESULT:    -3.873     11.475     12.115
REMARK INTER + INTRA:          -4.907
REMARK INTER:                  -4.827
REMARK INTRA:                  -0.080
REMARK UNBOUND:                -0.129
REMARK SMILES CCCCCC(=O)[O-]
REMARK SMILES IDX 4 1 5 2 6 3 7 4 8 5 3 6 2 7 1 8
REMARK H PARENT
REMARK Flexibility Score: inf
ROOT
ATOM      1  C   UNL     1      37.413  31.217  13.505  1.00  0.00     0.006 C 
ENDROOT
BRANCH   1   2
ATOM      2  C   UNL     1      36.192  31.857  14.179  1.00  0.00     0.053 C 
BRANCH   2   3
ATOM      3  C   UNL     1      34.920  31.507  13.469  1.00  0.00     0.041 C 
ATOM      4  O   UNL     1      34.211  32.412  12.954  1.00  0.00    -0.550 OA
ATOM      5  O   UNL     1      34.535  30.178  13.347  1.00  0.00    -0.550 OA
ENDBRANCH   2   3
ENDBRANCH   1   2
BRANCH   1   6
ATOM      6  C   UNL     1      37.929  29.994  14.279  1.00  0.00     0.000 C 
BRANCH   6   7
ATOM      7  C   UNL     1      39.286  29.534  13.733  1.00  0.00    -0.003 C 
ATOM      8  C   UNL     1      40.403  29.802  14.738  1.00  0.00     0.004 C 
ENDBRANCH   6   7
ENDBRANCH   1   6
TORSDOF 4
ENDMDL
MODEL 4
REMARK VINA RESULT:    -3.840      2.785      4.587
REMARK INTER + INTRA:          -4.867
REMARK INTER:                  -4.787
REMARK INTRA:                  -0.079
REMARK UNBOUND:                -0.129
REMARK SMILES CCCCCC(=O)[O-]
REMARK SMILES IDX 4 1 5 2 6 3 7 4 8 5 3 6 2 7 1 8
REMARK H PARENT
REMARK Flexibility Score: inf
ROOT
ATOM      1  C   UNL     1      40.560  40.838  16.765  1.00  0.00     0.006 C 
ENDROOT
BRANCH   1   2
ATOM      2  C   UNL     1      41.857  40.642  17.562  1.00  0.00     0.053 C 
BRANCH   2   3
ATOM      3  C   UNL     1      41.645  40.857  19.029  1.00  0.00     0.041 C 
ATOM      4  O   UNL     1      41.365  42.004  19.468  1.00  0.00    -0.550 OA
ATOM      5  O   UNL     1      41.722  39.785  19.908  1.00  0.00    -0.550 OA
ENDBRANCH   2   3
ENDBRANCH   1   2
BRANCH   1   6
ATOM      6  C   UNL     1      40.817  40.956  15.255  1.00  0.00     0.000 C 
BRANCH   6   7
ATOM      7  C   UNL     1      41.433  39.666  14.703  1.00  0.00    -0.003 C 
ATOM      8  C   UNL     1      40.437  38.911  13.827  1.00  0.00     0.004 C 
ENDBRANCH   6   7
ENDBRANCH   1   6
TORSDOF 4
ENDMDL
MODEL 5
REMARK VINA RESULT:    -3.839      3.004      4.863
REMARK INTER + INTRA:          -4.865
REMARK INTER:                  -4.646
REMARK INTRA:                  -0.219
REMARK UNBOUND:                -0.129
REMARK SMILES CCCCCC(=O)[O-]
REMARK SMILES IDX 4 1 5 2 6 3 7 4 8 5 3 6 2 7 1 8
REMARK H PARENT
REMARK Flexibility Score: inf
ROOT
ATOM      1  C   UNL     1      43.179  38.773  14.924  1.00  0.00     0.006 C 
ENDROOT
BRANCH   1   2
ATOM      2  C   UNL     1      43.043  40.284  15.159  1.00  0.00     0.053 C 
BRANCH   2   3
ATOM      3  C   UNL     1      41.738  40.629  15.808  1.00  0.00     0.041 C 
ATOM      4  O   UNL     1      41.610  40.547  17.059  1.00  0.00    -0.550 OA
ATOM      5  O   UNL     1      40.672  41.073  15.036  1.00  0.00    -0.550 OA
ENDBRANCH   2   3
ENDBRANCH   1   2
BRANCH   1   6
ATOM      6  C   UNL     1      42.744  38.364  13.509  1.00  0.00     0.000 C 
BRANCH   6   7
ATOM      7  C   UNL     1      41.510  37.455  13.557  1.00  0.00    -0.003 C 
ATOM      8  C   UNL     1      40.256  38.205  13.118  1.00  0.00     0.004 C 
ENDBRANCH   6   7
ENDBRANCH   1   6
TORSDOF 4
ENDMDL
MODEL 6
REMARK VINA RESULT:    -3.831      1.303      1.754
REMARK INTER + INTRA:          -4.855
REMARK INTER:                  -4.777
REMARK INTRA:                  -0.078
REMARK UNBOUND:                -0.129
REMARK SMILES CCCCCC(=O)[O-]
REMARK SMILES IDX 4 1 5 2 6 3 7 4 8 5 3 6 2 7 1 8
REMARK H PARENT
REMARK Flexibility Score: inf
ROOT
ATOM      1  C   UNL     1      40.782  40.728  16.961  1.00  0.00     0.006 C 
ENDROOT
BRANCH   1   2
ATOM      2  C   UNL     1      40.865  41.041  15.460  1.00  0.00     0.053 C 
BRANCH   2   3
ATOM      3  C   UNL     1      41.241  39.831  14.662  1.00  0.00     0.041 C 
ATOM      4  O   UNL     1      42.400  39.347  14.750  1.00  0.00    -0.550 OA
ATOM      5  O   UNL     1      40.300  39.216  13.846  1.00  0.00    -0.550 OA
ENDBRANCH   2   3
ENDBRANCH   1   2
BRANCH   1   6
ATOM      6  C   UNL     1      42.029  41.199  17.723  1.00  0.00     0.000 C 
BRANCH   6   7
ATOM      7  C   UNL     1      41.741  41.321  19.224  1.00  0.00    -0.003 C 
ATOM      8  C   UNL     1      41.865  39.969  19.920  1.00  0.00     0.004 C 
ENDBRANCH   6   7
ENDBRANCH   1   6
TORSDOF 4
ENDMDL
MODEL 7
REMARK VINA RESULT:    -3.818     11.396     12.250
REMARK INTER + INTRA:          -4.840
REMARK INTER:                  -4.742
REMARK INTRA:                  -0.097
REMARK UNBOUND:                -0.129
REMARK SMILES CCCCCC(=O)[O-]
REMARK SMILES IDX 4 1 5 2 6 3 7 4 8 5 3 6 2 7 1 8
REMARK H PARENT
REMARK Flexibility Score: inf
ROOT
ATOM      1  C   UNL     1      37.475  31.143  13.625  1.00  0.00     0.006 C 
ENDROOT
BRANCH   1   2
ATOM      2  C   UNL     1      38.289  30.313  14.628  1.00  0.00     0.053 C 
BRANCH   2   3
ATOM      3  C   UNL     1      39.554  29.792  14.018  1.00  0.00     0.041 C 
ATOM      4  O   UNL     1      40.605  29.712  14.708  1.00  0.00    -0.550 OA
ATOM      5  O   UNL     1      39.565  29.363  12.697  1.00  0.00    -0.550 OA
ENDBRANCH   2   3
ENDBRANCH   1   2
BRANCH   1   6
ATOM      6  C   UNL     1      36.357  31.945  14.307  1.00  0.00     0.000 C 
BRANCH   6   7
ATOM      7  C   UNL     1      35.046  31.837  13.520  1.00  0.00    -0.003 C 
ATOM      8  C   UNL     1      34.629  30.380  13.342  1.00  0.00     0.004 C 
ENDBRANCH   6   7
ENDBRANCH   1   6
TORSDOF 4
ENDMDL
MODEL 8
REMARK VINA RESULT:    -3.801      3.215      4.852
REMARK INTER + INTRA:          -4.819
REMARK INTER:                  -4.729
REMARK INTRA:                  -0.089
REMARK UNBOUND:                -0.129
REMARK SMILES CCCCCC(=O)[O-]
REMARK SMILES IDX 4 1 5 2 6 3 7 4 8 5 3 6 2 7 1 8
REMARK H PARENT
REMARK Flexibility Score: inf
ROOT
ATOM      1  C   UNL     1      41.348  39.353  14.386  1.00  0.00     0.006 C 
ENDROOT
BRANCH   1   2
ATOM      2  C   UNL     1      40.708  40.493  15.191  1.00  0.00     0.053 C 
BRANCH   2   3
ATOM      3  C   UNL     1      41.579  41.712  15.214  1.00  0.00     0.041 C 
ATOM      4  O   UNL     1      41.094  42.833  15.522  1.00  0.00    -0.550 OA
ATOM      5  O   UNL     1      42.934  41.604  14.928  1.00  0.00    -0.550 OA
ENDBRANCH   2   3
ENDBRANCH   1   2
BRANCH   1   6
ATOM      6  C   UNL     1      40.325  38.618  13.507  1.00  0.00     0.000 C 
BRANCH   6   7
ATOM      7  C   UNL     1      40.730  37.153  13.305  1.00  0.00    -0.003 C 
ATOM      8  C   UNL     1      42.203  36.936  13.641  1.00  0.00     0.004 C 
ENDBRANCH   6   7
ENDBRANCH   1   6
TORSDOF 4
ENDMDL
MODEL 9
REMARK VINA RESULT:    -3.735      2.742      4.497
REMARK INTER + INTRA:          -4.736
REMARK INTER:                  -4.611
REMARK INTRA:                  -0.126
REMARK UNBOUND:                -0.129
REMARK SMILES CCCCCC(=O)[O-]
REMARK SMILES IDX 4 1 5 2 6 3 7 4 8 5 3 6 2 7 1 8
REMARK H PARENT
REMARK Flexibility Score: inf
ROOT
ATOM      1  C   UNL     1      42.460  40.067  15.509  1.00  0.00     0.006 C 
ENDROOT
BRANCH   1   2
ATOM      2  C   UNL     1      41.068  40.598  15.878  1.00  0.00     0.053 C 
BRANCH   2   3
ATOM      3  C   UNL     1      40.993  40.999  17.320  1.00  0.00     0.041 C 
ATOM      4  O   UNL     1      41.569  40.309  18.202  1.00  0.00    -0.550 OA
ATOM      5  O   UNL     1      40.314  42.154  17.686  1.00  0.00    -0.550 OA
ENDBRANCH   2   3
ENDBRANCH   1   2
BRANCH   1   6
ATOM      6  C   UNL     1      42.404  39.025  14.382  1.00  0.00     0.000 C 
BRANCH   6   7
ATOM      7  C   UNL     1      40.971  38.852  13.866  1.00  0.00    -0.003 C 
ATOM      8  C   UNL     1      40.716  37.415  13.420  1.00  0.00     0.004 C 
ENDBRANCH   6   7
ENDBRANCH   1   6
TORSDOF 4
ENDMDL
