MODEL 1
REMARK VINA RESULT:    66.422      0.000      0.000
REMARK INTER + INTRA:          88.631
REMARK INTER:                  87.779
REMARK INTRA:                   0.852
REMARK UNBOUND:                 0.852
REMARK SMILES CC[C@@H](C=C[C@@H](C)[C@H]1CC[C@@H]2C3=CC[C@H]4C[C@H](O)CC[C@]4(C)[C@H]3CC[C@@]21C)C(C)C
REMARK SMILES IDX 6 1 7 2 5 3 4 4 3 5 2 6 1 7 28 8 29 9 30 10 8 11 9 12 26 13
REMARK SMILES IDX 10 14 11 15 25 16 27 17 12 18 24 19 23 20 13 21 21 22 14 23
REMARK SMILES IDX 15 24 20 25 22 26 16 27 19 28 17 29 18 30
REMARK H PARENT 18 31
REMARK Flexibility Score: inf
ROOT
ATOM      1  C   UNL     1     -30.192  31.931  -1.141  1.00  0.00     0.012 C 
ATOM      2  C   UNL     1     -29.787  31.549   0.296  1.00  0.00     0.012 C 
ENDROOT
BRANCH   1   3
ATOM      3  C   UNL     1     -31.007  30.824  -1.778  1.00  0.00    -0.028 C 
ATOM      4  C   UNL     1     -32.351  30.822  -1.742  1.00  0.00    -0.027 C 
BRANCH   4   5
ATOM      5  C   UNL     1     -33.166  29.691  -2.343  1.00  0.00     0.014 C 
BRANCH   5   6
ATOM      6  C   UNL     1     -33.238  29.877  -3.885  1.00  0.00     0.004 C 
ATOM      7  C   UNL     1     -34.565  30.444  -4.390  1.00  0.00     0.004 C 
ENDBRANCH   5   6
BRANCH   5   8
ATOM      8  C   UNL     1     -34.546  29.592  -1.607  1.00  0.00    -0.011 C 
ATOM      9  C   UNL     1     -35.335  28.322  -1.964  1.00  0.00     0.008 C 
ATOM     10  C   UNL     1     -35.422  30.844  -1.765  1.00  0.00     0.008 C 
ENDBRANCH   5   8
ENDBRANCH   4   5
ENDBRANCH   1   3
BRANCH   1  11
ATOM     11  C   UNL     1     -29.024  32.452  -2.058  1.00  0.00     0.002 C 
ATOM     12  C   UNL     1     -27.678  31.830  -1.637  1.00  0.00     0.005 C 
ATOM     13  C   UNL     1     -29.082  32.233  -3.609  1.00  0.00    -0.023 C 
ATOM     14  C   UNL     1     -27.299  30.803  -2.705  1.00  0.00     0.009 C 
ATOM     15  C   UNL     1     -28.362  30.884  -3.810  1.00  0.00     0.021 C 
ATOM     16  C   UNL     1     -28.282  33.392  -4.290  1.00  0.00     0.008 C 
ATOM     17  C   UNL     1     -30.512  32.201  -4.205  1.00  0.00     0.012 C 
ATOM     18  C   UNL     1     -27.759  30.669  -5.193  1.00  0.00    -0.067 C 
ATOM     19  C   UNL     1     -27.954  33.125  -5.760  1.00  0.00     0.009 C 
ATOM     20  C   UNL     1     -27.106  31.845  -5.924  1.00  0.00     0.021 C 
ATOM     21  C   UNL     1     -27.575  29.395  -5.609  1.00  0.00    -0.027 C 
ATOM     22  C   UNL     1     -26.747  31.518  -7.423  1.00  0.00    -0.023 C 
ATOM     23  C   UNL     1     -26.895  29.025  -6.899  1.00  0.00     0.031 C 
ATOM     24  C   UNL     1     -25.990  30.151  -7.416  1.00  0.00     0.002 C 
ATOM     25  C   UNL     1     -25.787  32.610  -7.986  1.00  0.00     0.010 C 
ATOM     26  C   UNL     1     -28.037  31.461  -8.296  1.00  0.00     0.012 C 
ATOM     27  C   UNL     1     -25.375  29.781  -8.783  1.00  0.00     0.036 C 
ATOM     28  C   UNL     1     -25.188  32.236  -9.352  1.00  0.00     0.032 C 
ATOM     29  C   UNL     1     -24.450  30.892  -9.306  1.00  0.00     0.114 C 
BRANCH  29  30
ATOM     30  O   UNL     1     -23.310  31.008  -8.494  1.00  0.00    -0.393 OA
ATOM     31  H   UNL     1     -22.528  30.794  -9.067  1.00  0.00     0.210 HD
ENDBRANCH  29  30
ENDBRANCH   1  11
TORSDOF 6
ENDMDL
MODEL 2
REMARK VINA RESULT:    66.709     10.254     15.143
REMARK INTER + INTRA:          89.010
REMARK INTER:                  89.441
REMARK INTRA:                  -0.431
REMARK UNBOUND:                 0.852
REMARK SMILES CC[C@@H](C=C[C@@H](C)[C@H]1CC[C@@H]2C3=CC[C@H]4C[C@H](O)CC[C@]4(C)[C@H]3CC[C@@]21C)C(C)C
REMARK SMILES IDX 6 1 7 2 5 3 4 4 3 5 2 6 1 7 28 8 29 9 30 10 8 11 9 12 26 13
REMARK SMILES IDX 10 14 11 15 25 16 27 17 12 18 24 19 23 20 13 21 21 22 14 23
REMARK SMILES IDX 15 24 20 25 22 26 16 27 19 28 17 29 18 30
REMARK H PARENT 18 31
REMARK Flexibility Score: inf
ROOT
ATOM      1  C   UNL     1     -29.180  25.540   6.708  1.00  0.00     0.012 C 
ATOM      2  C   UNL     1     -28.517  25.022   8.000  1.00  0.00     0.012 C 
ENDROOT
BRANCH   1   3
ATOM      3  C   UNL     1     -28.290  26.558   6.023  1.00  0.00    -0.028 C 
ATOM      4  C   UNL     1     -27.148  26.203   5.410  1.00  0.00    -0.027 C 
BRANCH   4   5
ATOM      5  C   UNL     1     -26.235  27.228   4.761  1.00  0.00     0.014 C 
BRANCH   5   6
ATOM      6  C   UNL     1     -26.201  26.982   3.227  1.00  0.00     0.004 C 
ATOM      7  C   UNL     1     -27.490  26.394   2.654  1.00  0.00     0.004 C 
ENDBRANCH   5   6
BRANCH   5   8
ATOM      8  C   UNL     1     -24.843  27.220   5.480  1.00  0.00    -0.011 C 
ATOM      9  C   UNL     1     -24.192  28.610   5.560  1.00  0.00     0.008 C 
ATOM     10  C   UNL     1     -23.859  26.187   4.908  1.00  0.00     0.008 C 
ENDBRANCH   5   8
ENDBRANCH   4   5
ENDBRANCH   1   3
BRANCH   1  11
ATOM     11  C   UNL     1     -30.672  26.017   6.858  1.00  0.00     0.002 C 
ATOM     12  C   UNL     1     -31.153  26.721   5.574  1.00  0.00     0.005 C 
ATOM     13  C   UNL     1     -31.803  24.979   7.177  1.00  0.00    -0.023 C 
ATOM     14  C   UNL     1     -32.122  25.769   4.871  1.00  0.00     0.009 C 
ATOM     15  C   UNL     1     -32.297  24.546   5.781  1.00  0.00     0.021 C 
ATOM     16  C   UNL     1     -32.935  25.724   7.956  1.00  0.00     0.008 C 
ATOM     17  C   UNL     1     -31.344  23.759   8.014  1.00  0.00     0.012 C 
ATOM     18  C   UNL     1     -33.721  24.005   5.736  1.00  0.00    -0.067 C 
ATOM     19  C   UNL     1     -34.246  24.939   8.026  1.00  0.00     0.009 C 
ATOM     20  C   UNL     1     -34.800  24.642   6.615  1.00  0.00     0.021 C 
ATOM     21  C   UNL     1     -34.044  23.167   4.724  1.00  0.00    -0.027 C 
ATOM     22  C   UNL     1     -36.147  23.825   6.629  1.00  0.00    -0.023 C 
ATOM     23  C   UNL     1     -35.433  22.638   4.485  1.00  0.00     0.031 C 
ATOM     24  C   UNL     1     -36.505  23.521   5.139  1.00  0.00     0.002 C 
ATOM     25  C   UNL     1     -37.286  24.695   7.242  1.00  0.00     0.010 C 
ATOM     26  C   UNL     1     -35.988  22.518   7.464  1.00  0.00     0.012 C 
ATOM     27  C   UNL     1     -37.911  22.911   4.954  1.00  0.00     0.036 C 
ATOM     28  C   UNL     1     -38.681  24.073   7.062  1.00  0.00     0.032 C 
ATOM     29  C   UNL     1     -38.998  23.793   5.588  1.00  0.00     0.114 C 
BRANCH  29  30
ATOM     30  O   UNL     1     -39.114  25.008   4.892  1.00  0.00    -0.393 OA
ATOM     31  H   UNL     1     -39.817  25.536   5.353  1.00  0.00     0.210 HD
ENDBRANCH  29  30
ENDBRANCH   1  11
TORSDOF 6
ENDMDL
MODEL 3
REMARK VINA RESULT:    68.865      3.016      8.451
REMARK INTER + INTRA:          91.858
REMARK INTER:                  92.520
REMARK INTRA:                  -0.662
REMARK UNBOUND:                 0.852
REMARK SMILES CC[C@@H](C=C[C@@H](C)[C@H]1CC[C@@H]2C3=CC[C@H]4C[C@H](O)CC[C@]4(C)[C@H]3CC[C@@]21C)C(C)C
REMARK SMILES IDX 6 1 7 2 5 3 4 4 3 5 2 6 1 7 28 8 29 9 30 10 8 11 9 12 26 13
REMARK SMILES IDX 10 14 11 15 25 16 27 17 12 18 24 19 23 20 13 21 21 22 14 23
REMARK SMILES IDX 15 24 20 25 22 26 16 27 19 28 17 29 18 30
REMARK H PARENT 18 31
REMARK Flexibility Score: inf
ROOT
ATOM      1  C   UNL     1     -26.883  32.021  -3.462  1.00  0.00     0.012 C 
ATOM      2  C   UNL     1     -25.644  32.864  -3.102  1.00  0.00     0.012 C 
ENDROOT
BRANCH   1   3
ATOM      3  C   UNL     1     -27.106  32.013  -4.960  1.00  0.00    -0.028 C 
ATOM      4  C   UNL     1     -26.561  31.074  -5.753  1.00  0.00    -0.027 C 
BRANCH   4   5
ATOM      5  C   UNL     1     -26.749  31.090  -7.260  1.00  0.00     0.014 C 
BRANCH   5   6
ATOM      6  C   UNL     1     -27.780  29.998  -7.657  1.00  0.00     0.004 C 
ATOM      7  C   UNL     1     -27.616  28.674  -6.910  1.00  0.00     0.004 C 
ENDBRANCH   5   6
BRANCH   5   8
ATOM      8  C   UNL     1     -25.353  30.993  -7.963  1.00  0.00    -0.011 C 
ATOM      9  C   UNL     1     -25.178  32.003  -9.109  1.00  0.00     0.008 C 
ATOM     10  C   UNL     1     -24.991  29.573  -8.425  1.00  0.00     0.008 C 
ENDBRANCH   5   8
ENDBRANCH   4   5
ENDBRANCH   1   3
BRANCH   1  11
ATOM     11  C   UNL     1     -28.185  32.346  -2.639  1.00  0.00     0.002 C 
ATOM     12  C   UNL     1     -28.973  33.497  -3.295  1.00  0.00     0.005 C 
ATOM     13  C   UNL     1     -29.260  31.232  -2.393  1.00  0.00    -0.023 C 
ATOM     14  C   UNL     1     -30.216  32.885  -3.942  1.00  0.00     0.009 C 
ATOM     15  C   UNL     1     -30.223  31.391  -3.588  1.00  0.00     0.021 C 
ATOM     16  C   UNL     1     -29.991  31.557  -1.049  1.00  0.00     0.008 C 
ATOM     17  C   UNL     1     -28.694  29.792  -2.315  1.00  0.00     0.012 C 
ATOM     18  C   UNL     1     -31.636  30.870  -3.356  1.00  0.00    -0.067 C 
ATOM     19  C   UNL     1     -31.287  30.769  -0.855  1.00  0.00     0.009 C 
ATOM     20  C   UNL     1     -32.297  31.057  -1.988  1.00  0.00     0.021 C 
ATOM     21  C   UNL     1     -32.359  30.509  -4.441  1.00  0.00    -0.027 C 
ATOM     22  C   UNL     1     -33.649  30.262  -1.841  1.00  0.00    -0.023 C 
ATOM     23  C   UNL     1     -33.800  30.079  -4.382  1.00  0.00     0.031 C 
ATOM     24  C   UNL     1     -34.499  30.582  -3.112  1.00  0.00     0.002 C 
ATOM     25  C   UNL     1     -34.426  30.769  -0.588  1.00  0.00     0.010 C 
ATOM     26  C   UNL     1     -33.375  28.734  -1.698  1.00  0.00     0.012 C 
ATOM     27  C   UNL     1     -35.948  30.055  -3.034  1.00  0.00     0.036 C 
ATOM     28  C   UNL     1     -35.863  30.230  -0.514  1.00  0.00     0.032 C 
ATOM     29  C   UNL     1     -36.668  30.566  -1.775  1.00  0.00     0.114 C 
BRANCH  29  30
ATOM     30  O   UNL     1     -36.867  31.955  -1.851  1.00  0.00    -0.393 OA
ATOM     31  H   UNL     1     -36.420  32.352  -1.058  1.00  0.00     0.210 HD
ENDBRANCH  29  30
ENDBRANCH   1  11
TORSDOF 6
ENDMDL
