MODEL 1
REMARK VINA RESULT:     0.000      0.000      0.000
REMARK INTER + INTRA:           0.000
REMARK INTER:                   0.000
REMARK INTRA:                   0.000
REMARK UNBOUND:                 0.000
REMARK SMILES O=c1ccc2ccc(O)cc2o1
REMARK SMILES IDX 6 1 7 2 8 3 10 4 11 5 5 6 4 7 3 8 2 9 1 10 12 11 9 12
REMARK H PARENT 9 13
REMARK Flexibility Score: inf
ROOT
ATOM      1  C   UNL     1     178.310 188.916 173.869  1.00  0.00     0.016 A 
ATOM      2  C   UNL     1     179.209 189.935 174.201  1.00  0.00     0.047 A 
ATOM      3  C   UNL     1     179.744 190.014 175.491  1.00  0.00     0.119 A 
ATOM      4  C   UNL     1     179.378 189.066 176.460  1.00  0.00     0.094 A 
ATOM      5  C   UNL     1     178.480 188.043 176.138  1.00  0.00     0.142 A 
ATOM      6  C   UNL     1     177.942 187.968 174.833  1.00  0.00     0.018 A 
ATOM      7  C   UNL     1     177.046 186.934 174.541  1.00  0.00     0.019 A 
ATOM      8  C   UNL     1     176.713 186.017 175.537  1.00  0.00     0.094 A 
ATOM      9  C   UNL     1     177.285 186.154 176.805  1.00  0.00     0.336 A 
ATOM     10  O   UNL     1     176.996 185.335 177.717  1.00  0.00    -0.246 OA
ATOM     11  O   UNL     1     178.135 187.147 177.058  1.00  0.00    -0.423 OA
ENDROOT
BRANCH   3  12
ATOM     12  O   UNL     1     180.638 191.036 175.802  1.00  0.00    -0.508 OA
ATOM     13  H   UNL     1     180.640 191.912 175.292  1.00  0.00     0.293 HD
ENDBRANCH   3  12
TORSDOF 1
ENDMDL
MODEL 2
REMARK VINA RESULT:     0.000      7.779      9.156
REMARK INTER + INTRA:           0.000
REMARK INTER:                   0.000
REMARK INTRA:                   0.000
REMARK UNBOUND:                 0.000
REMARK SMILES O=c1ccc2ccc(O)cc2o1
REMARK SMILES IDX 6 1 7 2 8 3 10 4 11 5 5 6 4 7 3 8 2 9 1 10 12 11 9 12
REMARK H PARENT 9 13
REMARK Flexibility Score: inf
ROOT
ATOM      1  C   UNL     1     176.336 181.456 175.768  1.00  0.00     0.016 A 
ATOM      2  C   UNL     1     176.874 181.353 174.481  1.00  0.00     0.047 A 
ATOM      3  C   UNL     1     177.104 180.096 173.909  1.00  0.00     0.119 A 
ATOM      4  C   UNL     1     176.794 178.932 174.630  1.00  0.00     0.094 A 
ATOM      5  C   UNL     1     176.255 179.026 175.917  1.00  0.00     0.142 A 
ATOM      6  C   UNL     1     176.025 180.297 176.491  1.00  0.00     0.018 A 
ATOM      7  C   UNL     1     175.486 180.358 177.779  1.00  0.00     0.019 A 
ATOM      8  C   UNL     1     175.194 179.175 178.456  1.00  0.00     0.094 A 
ATOM      9  C   UNL     1     175.449 177.953 177.826  1.00  0.00     0.336 A 
ATOM     10  O   UNL     1     175.192 176.873 178.421  1.00  0.00    -0.246 OA
ATOM     11  O   UNL     1     175.963 177.921 176.598  1.00  0.00    -0.423 OA
ENDROOT
BRANCH   3  12
ATOM     12  O   UNL     1     177.641 180.013 172.626  1.00  0.00    -0.508 OA
ATOM     13  H   UNL     1     177.200 180.473 171.837  1.00  0.00     0.293 HD
ENDBRANCH   3  12
TORSDOF 1
ENDMDL
MODEL 3
REMARK VINA RESULT:     0.000      8.612      9.702
REMARK INTER + INTRA:           0.000
REMARK INTER:                   0.000
REMARK INTRA:                   0.000
REMARK UNBOUND:                 0.000
REMARK SMILES O=c1ccc2ccc(O)cc2o1
REMARK SMILES IDX 6 1 7 2 8 3 10 4 11 5 5 6 4 7 3 8 2 9 1 10 12 11 9 12
REMARK H PARENT 9 13
REMARK Flexibility Score: inf
ROOT
ATOM      1  C   UNL     1     176.167 180.633 176.190  1.00  0.00     0.016 A 
ATOM      2  C   UNL     1     175.579 180.650 174.921  1.00  0.00     0.047 A 
ATOM      3  C   UNL     1     174.320 180.073 174.716  1.00  0.00     0.119 A 
ATOM      4  C   UNL     1     173.644 179.471 175.789  1.00  0.00     0.094 A 
ATOM      5  C   UNL     1     174.224 179.449 177.062  1.00  0.00     0.142 A 
ATOM      6  C   UNL     1     175.495 180.033 177.263  1.00  0.00     0.018 A 
ATOM      7  C   UNL     1     176.049 179.995 178.547  1.00  0.00     0.019 A 
ATOM      8  C   UNL     1     175.339 179.387 179.581  1.00  0.00     0.094 A 
ATOM      9  C   UNL     1     174.086 178.828 179.306  1.00  0.00     0.336 A 
ATOM     10  O   UNL     1     173.430 178.275 180.228  1.00  0.00    -0.246 OA
ATOM     11  O   UNL     1     173.580 178.878 178.077  1.00  0.00    -0.423 OA
ENDROOT
BRANCH   3  12
ATOM     12  O   UNL     1     173.751 180.100 173.446  1.00  0.00    -0.508 OA
ATOM     13  H   UNL     1     173.618 179.253 172.906  1.00  0.00     0.293 HD
ENDBRANCH   3  12
TORSDOF 1
ENDMDL
MODEL 4
REMARK VINA RESULT:     0.000      9.980     11.711
REMARK INTER + INTRA:           0.000
REMARK INTER:                   0.000
REMARK INTRA:                   0.000
REMARK UNBOUND:                 0.000
REMARK SMILES O=c1ccc2ccc(O)cc2o1
REMARK SMILES IDX 6 1 7 2 8 3 10 4 11 5 5 6 4 7 3 8 2 9 1 10 12 11 9 12
REMARK H PARENT 9 13
REMARK Flexibility Score: inf
ROOT
ATOM      1  C   UNL     1     175.230 179.815 179.571  1.00  0.00     0.016 A 
ATOM      2  C   UNL     1     174.642 179.833 178.302  1.00  0.00     0.047 A 
ATOM      3  C   UNL     1     173.383 179.255 178.098  1.00  0.00     0.119 A 
ATOM      4  C   UNL     1     172.707 178.654 179.170  1.00  0.00     0.094 A 
ATOM      5  C   UNL     1     173.287 178.632 180.443  1.00  0.00     0.142 A 
ATOM      6  C   UNL     1     174.558 179.216 180.645  1.00  0.00     0.018 A 
ATOM      7  C   UNL     1     175.112 179.178 181.928  1.00  0.00     0.019 A 
ATOM      8  C   UNL     1     174.402 178.569 182.962  1.00  0.00     0.094 A 
ATOM      9  C   UNL     1     173.150 178.011 182.688  1.00  0.00     0.336 A 
ATOM     10  O   UNL     1     172.493 177.457 183.609  1.00  0.00    -0.246 OA
ATOM     11  O   UNL     1     172.644 178.061 181.458  1.00  0.00    -0.423 OA
ENDROOT
BRANCH   3  12
ATOM     12  O   UNL     1     172.814 179.283 176.827  1.00  0.00    -0.508 OA
ATOM     13  H   UNL     1     173.144 179.922 176.112  1.00  0.00     0.293 HD
ENDBRANCH   3  12
TORSDOF 1
ENDMDL
MODEL 5
REMARK VINA RESULT:     0.000     14.641     16.594
REMARK INTER + INTRA:           0.000
REMARK INTER:                   0.000
REMARK INTRA:                   0.000
REMARK UNBOUND:                 0.000
REMARK SMILES O=c1ccc2ccc(O)cc2o1
REMARK SMILES IDX 6 1 7 2 8 3 10 4 11 5 5 6 4 7 3 8 2 9 1 10 12 11 9 12
REMARK H PARENT 9 13
REMARK Flexibility Score: inf
ROOT
ATOM      1  C   UNL     1     183.858 175.726 186.674  1.00  0.00     0.016 A 
ATOM      2  C   UNL     1     184.889 174.788 186.785  1.00  0.00     0.047 A 
ATOM      3  C   UNL     1     186.050 174.916 186.013  1.00  0.00     0.119 A 
ATOM      4  C   UNL     1     186.181 175.992 185.120  1.00  0.00     0.094 A 
ATOM      5  C   UNL     1     185.155 176.936 185.002  1.00  0.00     0.142 A 
ATOM      6  C   UNL     1     183.985 176.802 185.784  1.00  0.00     0.018 A 
ATOM      7  C   UNL     1     182.977 177.761 185.644  1.00  0.00     0.019 A 
ATOM      8  C   UNL     1     183.153 178.811 184.744  1.00  0.00     0.094 A 
ATOM      9  C   UNL     1     184.337 178.879 184.003  1.00  0.00     0.336 A 
ATOM     10  O   UNL     1     184.514 179.821 183.186  1.00  0.00    -0.246 OA
ATOM     11  O   UNL     1     185.282 177.954 184.156  1.00  0.00    -0.423 OA
ENDROOT
BRANCH   3  12
ATOM     12  O   UNL     1     187.066 173.972 186.138  1.00  0.00    -0.508 OA
ATOM     13  H   UNL     1     188.001 174.151 185.792  1.00  0.00     0.293 HD
ENDBRANCH   3  12
TORSDOF 1
ENDMDL
MODEL 6
REMARK VINA RESULT:     0.000     13.088     15.186
REMARK INTER + INTRA:           0.000
REMARK INTER:                   0.000
REMARK INTRA:                   0.000
REMARK UNBOUND:                 0.000
REMARK SMILES O=c1ccc2ccc(O)cc2o1
REMARK SMILES IDX 6 1 7 2 8 3 10 4 11 5 5 6 4 7 3 8 2 9 1 10 12 11 9 12
REMARK H PARENT 9 13
REMARK Flexibility Score: inf
ROOT
ATOM      1  C   UNL     1     182.705 176.986 187.239  1.00  0.00     0.016 A 
ATOM      2  C   UNL     1     183.748 176.187 186.759  1.00  0.00     0.047 A 
ATOM      3  C   UNL     1     184.412 176.527 185.575  1.00  0.00     0.119 A 
ATOM      4  C   UNL     1     184.031 177.676 184.863  1.00  0.00     0.094 A 
ATOM      5  C   UNL     1     182.990 178.481 185.336  1.00  0.00     0.142 A 
ATOM      6  C   UNL     1     182.322 178.134 186.532  1.00  0.00     0.018 A 
ATOM      7  C   UNL     1     181.285 178.959 186.979  1.00  0.00     0.019 A 
ATOM      8  C   UNL     1     180.942 180.089 186.239  1.00  0.00     0.094 A 
ATOM      9  C   UNL     1     181.647 180.370 185.064  1.00  0.00     0.336 A 
ATOM     10  O   UNL     1     181.352 181.386 184.382  1.00  0.00    -0.246 OA
ATOM     11  O   UNL     1     182.630 179.569 184.660  1.00  0.00    -0.423 OA
ENDROOT
BRANCH   3  12
ATOM     12  O   UNL     1     185.448 175.719 185.113  1.00  0.00    -0.508 OA
ATOM     13  H   UNL     1     186.118 176.055 184.430  1.00  0.00     0.293 HD
ENDBRANCH   3  12
TORSDOF 1
ENDMDL
MODEL 7
REMARK VINA RESULT:     0.000     14.826     16.832
REMARK INTER + INTRA:           0.000
REMARK INTER:                   0.000
REMARK INTRA:                   0.000
REMARK UNBOUND:                 0.000
REMARK SMILES O=c1ccc2ccc(O)cc2o1
REMARK SMILES IDX 6 1 7 2 8 3 10 4 11 5 5 6 4 7 3 8 2 9 1 10 12 11 9 12
REMARK H PARENT 9 13
REMARK Flexibility Score: inf
ROOT
ATOM      1  C   UNL     1     183.474 176.603 188.878  1.00  0.00     0.016 A 
ATOM      2  C   UNL     1     184.343 175.831 188.100  1.00  0.00     0.047 A 
ATOM      3  C   UNL     1     184.905 176.360 186.931  1.00  0.00     0.119 A 
ATOM      4  C   UNL     1     184.594 177.670 186.537  1.00  0.00     0.094 A 
ATOM      5  C   UNL     1     183.726 178.450 187.309  1.00  0.00     0.142 A 
ATOM      6  C   UNL     1     183.162 177.912 188.488  1.00  0.00     0.018 A 
ATOM      7  C   UNL     1     182.297 178.715 189.238  1.00  0.00     0.019 A 
ATOM      8  C   UNL     1     182.019 180.011 188.806  1.00  0.00     0.094 A 
ATOM      9  C   UNL     1     182.614 180.475 187.629  1.00  0.00     0.336 A 
ATOM     10  O   UNL     1     182.375 181.643 187.223  1.00  0.00    -0.246 OA
ATOM     11  O   UNL     1     183.434 179.692 186.932  1.00  0.00    -0.423 OA
ENDROOT
BRANCH   3  12
ATOM     12  O   UNL     1     185.768 175.576 186.170  1.00  0.00    -0.508 OA
ATOM     13  H   UNL     1     186.026 174.639 186.457  1.00  0.00     0.293 HD
ENDBRANCH   3  12
TORSDOF 1
ENDMDL
MODEL 8
REMARK VINA RESULT:     0.000     16.238     18.202
REMARK INTER + INTRA:           0.000
REMARK INTER:                   0.000
REMARK INTRA:                   0.000
REMARK UNBOUND:                 0.000
REMARK SMILES O=c1ccc2ccc(O)cc2o1
REMARK SMILES IDX 6 1 7 2 8 3 10 4 11 5 5 6 4 7 3 8 2 9 1 10 12 11 9 12
REMARK H PARENT 9 13
REMARK Flexibility Score: inf
ROOT
ATOM      1  C   UNL     1     181.565 175.695 190.654  1.00  0.00     0.016 A 
ATOM      2  C   UNL     1     182.434 174.924 189.876  1.00  0.00     0.047 A 
ATOM      3  C   UNL     1     182.995 175.452 188.708  1.00  0.00     0.119 A 
ATOM      4  C   UNL     1     182.685 176.763 188.313  1.00  0.00     0.094 A 
ATOM      5  C   UNL     1     181.817 177.542 189.085  1.00  0.00     0.142 A 
ATOM      6  C   UNL     1     181.252 177.004 190.264  1.00  0.00     0.018 A 
ATOM      7  C   UNL     1     180.388 177.807 191.014  1.00  0.00     0.019 A 
ATOM      8  C   UNL     1     180.110 179.103 190.582  1.00  0.00     0.094 A 
ATOM      9  C   UNL     1     180.704 179.568 189.405  1.00  0.00     0.336 A 
ATOM     10  O   UNL     1     180.465 180.735 188.999  1.00  0.00    -0.246 OA
ATOM     11  O   UNL     1     181.524 178.784 188.708  1.00  0.00    -0.423 OA
ENDROOT
BRANCH   3  12
ATOM     12  O   UNL     1     183.858 174.668 187.946  1.00  0.00    -0.508 OA
ATOM     13  H   UNL     1     184.834 174.557 188.197  1.00  0.00     0.293 HD
ENDBRANCH   3  12
TORSDOF 1
ENDMDL
MODEL 9
REMARK VINA RESULT:     0.000     14.506     14.848
REMARK INTER + INTRA:           0.000
REMARK INTER:                   0.000
REMARK INTRA:                   0.000
REMARK UNBOUND:                 0.000
REMARK SMILES O=c1ccc2ccc(O)cc2o1
REMARK SMILES IDX 6 1 7 2 8 3 10 4 11 5 5 6 4 7 3 8 2 9 1 10 12 11 9 12
REMARK H PARENT 9 13
REMARK Flexibility Score: inf
ROOT
ATOM      1  C   UNL     1     183.362 187.369 188.891  1.00  0.00     0.016 A 
ATOM      2  C   UNL     1     184.457 188.229 188.765  1.00  0.00     0.047 A 
ATOM      3  C   UNL     1     185.758 187.716 188.718  1.00  0.00     0.119 A 
ATOM      4  C   UNL     1     185.968 186.330 188.800  1.00  0.00     0.094 A 
ATOM      5  C   UNL     1     184.878 185.462 188.926  1.00  0.00     0.142 A 
ATOM      6  C   UNL     1     183.566 185.985 188.973  1.00  0.00     0.018 A 
ATOM      7  C   UNL     1     182.498 185.091 189.099  1.00  0.00     0.019 A 
ATOM      8  C   UNL     1     182.755 183.724 189.177  1.00  0.00     0.094 A 
ATOM      9  C   UNL     1     184.080 183.279 189.125  1.00  0.00     0.336 A 
ATOM     10  O   UNL     1     184.332 182.047 189.193  1.00  0.00    -0.246 OA
ATOM     11  O   UNL     1     185.079 184.149 189.003  1.00  0.00    -0.423 OA
ENDROOT
BRANCH   3  12
ATOM     12  O   UNL     1     186.836 188.589 188.592  1.00  0.00    -0.508 OA
ATOM     13  H   UNL     1     186.700 189.589 188.494  1.00  0.00     0.293 HD
ENDBRANCH   3  12
TORSDOF 1
ENDMDL
