MODEL 1
REMARK VINA RESULT:   133.579      0.000      0.000
REMARK INTER + INTRA:         146.149
REMARK INTER:                 145.292
REMARK INTRA:                   0.856
REMARK UNBOUND:                 0.856
REMARK SMILES CC1(C)CC[C@@]2(C(=O)[O-])CC[C@]3(C)C(=CC[C@@H]4[C@]5(C)CC[C@@H](O)C(C)(C)[C@H]5CC[C@@]43C)[C@H]2C1
REMARK SMILES IDX 6 1 5 2 10 3 32 4 4 5 11 6 14 7 33 8 2 9 12 10 15 11 1 12
REMARK SMILES IDX 3 13 13 14 30 15 16 16 17 17 29 18 31 19 18 20 28 21 27 22
REMARK SMILES IDX 20 23 19 24 24 25 21 26 22 27 25 28 26 29 7 30 8 31 9 32
REMARK SMILES IDX 23 33
REMARK H PARENT 23 34
REMARK Flexibility Score: inf
ROOT
ATOM      1  C   UNL     1      20.141  40.829  11.591  1.00  0.00     0.017 C 
ATOM      2  C   UNL     1      21.476  41.366  12.297  1.00  0.00     0.014 C 
ATOM      3  C   UNL     1      19.072  40.008  12.422  1.00  0.00     0.014 C 
ATOM      4  C   UNL     1      19.329  42.057  10.922  1.00  0.00     0.028 C 
ATOM      5  C   UNL     1      21.383  42.683  13.097  1.00  0.00     0.007 C 
ATOM      6  C   UNL     1      17.912  39.374  11.482  1.00  0.00     0.013 C 
ATOM      7  C   UNL     1      17.834  41.640  10.658  1.00  0.00    -0.064 C 
ATOM      8  C   UNL     1      19.329  43.343  11.806  1.00  0.00     0.015 C 
ATOM      9  C   UNL     1      20.699  43.819  12.256  1.00  0.00    -0.035 C 
ATOM     10  C   UNL     1      17.571  40.217  10.164  1.00  0.00    -0.006 C 
ATOM     11  C   UNL     1      16.766  42.269  11.258  1.00  0.00    -0.027 C 
ATOM     12  C   UNL     1      20.575  45.125  13.125  1.00  0.00     0.011 C 
ATOM     13  C   UNL     1      21.584  44.193  11.041  1.00  0.00     0.011 C 
ATOM     14  C   UNL     1      18.530  39.773   8.996  1.00  0.00     0.017 C 
ATOM     15  C   UNL     1      16.088  40.191   9.527  1.00  0.00    -0.020 C 
ATOM     16  C   UNL     1      15.470  41.551  11.674  1.00  0.00     0.032 C 
ATOM     17  C   UNL     1      14.946  40.618  10.575  1.00  0.00     0.006 C 
ATOM     18  C   UNL     1      15.775  38.827   8.839  1.00  0.00     0.008 C 
ATOM     19  C   UNL     1      16.099  41.324   8.360  1.00  0.00     0.012 C 
ATOM     20  C   UNL     1      13.660  39.687  10.915  1.00  0.00    -0.025 C 
ATOM     21  C   UNL     1      14.285  38.529   8.724  1.00  0.00     0.005 C 
ATOM     22  C   UNL     1      13.704  38.332  10.133  1.00  0.00     0.003 C 
ATOM     23  C   UNL     1      13.507  39.312  12.436  1.00  0.00     0.010 C 
ATOM     24  C   UNL     1      12.398  40.542  10.543  1.00  0.00     0.012 C 
ATOM     25  C   UNL     1      12.402  37.419  10.192  1.00  0.00    -0.006 C 
ATOM     26  C   UNL     1      12.670  38.011  12.739  1.00  0.00     0.033 C 
ATOM     27  C   UNL     1      11.725  37.495  11.630  1.00  0.00     0.120 C 
ATOM     28  C   UNL     1      11.381  37.735   9.055  1.00  0.00     0.014 C 
ATOM     29  C   UNL     1      12.822  35.937   9.968  1.00  0.00     0.014 C 
ENDROOT
BRANCH   1  30
ATOM     30  C   UNL     1      20.816  39.936  10.587  1.00  0.00     0.048 C 
ATOM     31  O   UNL     1      21.380  40.420   9.568  1.00  0.00    -0.550 OA
ATOM     32  O   UNL     1      21.444  40.491   9.443  1.00  0.00    -0.550 OA
ENDBRANCH   1  30
BRANCH  27  33
ATOM     33  O   UNL     1      10.516  38.223  11.640  1.00  0.00    -0.393 OA
ATOM     34  H   UNL     1      10.152  38.175  12.561  1.00  0.00     0.210 HD
ENDBRANCH  27  33
TORSDOF 2
ENDMDL
