MODEL 1
REMARK VINA RESULT:    -4.877      0.000      0.000
REMARK INTER + INTRA:          -5.265
REMARK INTER:                  -5.447
REMARK INTRA:                   0.182
REMARK UNBOUND:                 0.182
REMARK SMILES O=C([O-])C=Cc1ccccc1
REMARK SMILES IDX 4 1 5 2 2 3 1 4 3 5 6 6 7 7 11 8 8 9 10 10 9 11
REMARK H PARENT
REMARK Flexibility Score: inf
ROOT
ATOM      1  C   UNL     1     141.152 146.604 155.204  1.00  0.00     0.025 C 
ATOM      2  C   UNL     1     142.134 146.456 154.301  1.00  0.00     0.010 C 
ENDROOT
BRANCH   1   3
ATOM      3  C   UNL     1     141.031 145.852 156.466  1.00  0.00     0.064 C 
ATOM      4  O   UNL     1     140.565 144.683 156.444  1.00  0.00    -0.545 OA
ATOM      5  O   UNL     1     141.349 146.429 157.690  1.00  0.00    -0.545 OA
ENDBRANCH   1   3
BRANCH   2   6
ATOM      6  C   UNL     1     143.158 145.390 154.317  1.00  0.00    -0.026 A 
ATOM      7  C   UNL     1     143.341 144.596 153.175  1.00  0.00     0.008 A 
ATOM      8  C   UNL     1     143.877 145.089 155.488  1.00  0.00     0.008 A 
ATOM      9  C   UNL     1     144.268 143.549 153.186  1.00  0.00     0.001 A 
ATOM     10  C   UNL     1     144.802 144.041 155.495  1.00  0.00     0.001 A 
ATOM     11  C   UNL     1     145.002 143.275 154.343  1.00  0.00     0.000 A 
ENDBRANCH   2   6
TORSDOF 2
ENDMDL
MODEL 2
REMARK VINA RESULT:    -4.621      2.080      3.240
REMARK INTER + INTRA:          -4.979
REMARK INTER:                  -4.709
REMARK INTRA:                  -0.270
REMARK UNBOUND:                 0.182
REMARK SMILES O=C([O-])C=Cc1ccccc1
REMARK SMILES IDX 4 1 5 2 2 3 1 4 3 5 6 6 7 7 11 8 8 9 10 10 9 11
REMARK H PARENT
REMARK Flexibility Score: inf
ROOT
ATOM      1  C   UNL     1     140.006 146.472 158.513  1.00  0.00     0.025 C 
ATOM      2  C   UNL     1     140.118 145.639 157.466  1.00  0.00     0.010 C 
ENDROOT
BRANCH   1   3
ATOM      3  C   UNL     1     140.785 147.708 158.709  1.00  0.00     0.064 C 
ATOM      4  O   UNL     1     141.682 147.736 159.592  1.00  0.00    -0.545 OA
ATOM      5  O   UNL     1     140.504 148.866 157.994  1.00  0.00    -0.545 OA
ENDBRANCH   1   3
BRANCH   2   6
ATOM      6  C   UNL     1     141.165 145.710 156.425  1.00  0.00    -0.026 A 
ATOM      7  C   UNL     1     140.863 146.292 155.185  1.00  0.00     0.008 A 
ATOM      8  C   UNL     1     142.423 145.111 156.617  1.00  0.00     0.008 A 
ATOM      9  C   UNL     1     141.823 146.323 154.168  1.00  0.00     0.001 A 
ATOM     10  C   UNL     1     143.380 145.144 155.598  1.00  0.00     0.001 A 
ATOM     11  C   UNL     1     143.082 145.754 154.377  1.00  0.00     0.000 A 
ENDBRANCH   2   6
TORSDOF 2
ENDMDL
MODEL 3
REMARK VINA RESULT:    -4.620      1.540      2.459
REMARK INTER + INTRA:          -4.978
REMARK INTER:                  -4.730
REMARK INTRA:                  -0.249
REMARK UNBOUND:                 0.182
REMARK SMILES O=C([O-])C=Cc1ccccc1
REMARK SMILES IDX 4 1 5 2 2 3 1 4 3 5 6 6 7 7 11 8 8 9 10 10 9 11
REMARK H PARENT
REMARK Flexibility Score: inf
ROOT
ATOM      1  C   UNL     1     143.085 144.857 158.000  1.00  0.00     0.025 C 
ATOM      2  C   UNL     1     144.065 145.129 157.125  1.00  0.00     0.010 C 
ENDROOT
BRANCH   1   3
ATOM      3  C   UNL     1     141.919 143.994 157.739  1.00  0.00     0.064 C 
ATOM      4  O   UNL     1     142.006 142.758 157.960  1.00  0.00    -0.545 OA
ATOM      5  O   UNL     1     140.750 144.501 157.183  1.00  0.00    -0.545 OA
ENDBRANCH   1   3
BRANCH   2   6
ATOM      6  C   UNL     1     144.055 144.769 155.691  1.00  0.00    -0.026 A 
ATOM      7  C   UNL     1     143.261 145.509 154.802  1.00  0.00     0.008 A 
ATOM      8  C   UNL     1     144.743 143.636 155.221  1.00  0.00     0.008 A 
ATOM      9  C   UNL     1     143.197 145.153 153.451  1.00  0.00     0.001 A 
ATOM     10  C   UNL     1     144.677 143.284 153.869  1.00  0.00     0.001 A 
ATOM     11  C   UNL     1     143.908 144.045 152.984  1.00  0.00     0.000 A 
ENDBRANCH   2   6
TORSDOF 2
ENDMDL
MODEL 4
REMARK VINA RESULT:    -4.607      2.008      3.473
REMARK INTER + INTRA:          -4.963
REMARK INTER:                  -4.732
REMARK INTRA:                  -0.231
REMARK UNBOUND:                 0.182
REMARK SMILES O=C([O-])C=Cc1ccccc1
REMARK SMILES IDX 4 1 5 2 2 3 1 4 3 5 6 6 7 7 11 8 8 9 10 10 9 11
REMARK H PARENT
REMARK Flexibility Score: inf
ROOT
ATOM      1  C   UNL     1     144.760 143.160 157.633  1.00  0.00     0.025 C 
ATOM      2  C   UNL     1     145.263 143.778 156.553  1.00  0.00     0.010 C 
ENDROOT
BRANCH   1   3
ATOM      3  C   UNL     1     143.390 142.628 157.753  1.00  0.00     0.064 C 
ATOM      4  O   UNL     1     142.462 143.396 158.116  1.00  0.00    -0.545 OA
ATOM      5  O   UNL     1     143.112 141.282 157.548  1.00  0.00    -0.545 OA
ENDBRANCH   1   3
BRANCH   2   6
ATOM      6  C   UNL     1     144.484 144.203 155.371  1.00  0.00    -0.026 A 
ATOM      7  C   UNL     1     144.609 143.485 154.171  1.00  0.00     0.008 A 
ATOM      8  C   UNL     1     143.703 145.373 155.395  1.00  0.00     0.008 A 
ATOM      9  C   UNL     1     143.921 143.901 153.027  1.00  0.00     0.001 A 
ATOM     10  C   UNL     1     143.017 145.784 154.249  1.00  0.00     0.001 A 
ATOM     11  C   UNL     1     143.121 145.046 153.067  1.00  0.00     0.000 A 
ENDBRANCH   2   6
TORSDOF 2
ENDMDL
MODEL 5
REMARK VINA RESULT:    -4.438      1.916      3.255
REMARK INTER + INTRA:          -4.775
REMARK INTER:                  -4.502
REMARK INTRA:                  -0.273
REMARK UNBOUND:                 0.182
REMARK SMILES O=C([O-])C=Cc1ccccc1
REMARK SMILES IDX 4 1 5 2 2 3 1 4 3 5 6 6 7 7 11 8 8 9 10 10 9 11
REMARK H PARENT
REMARK Flexibility Score: inf
ROOT
ATOM      1  C   UNL     1     141.156 144.597 158.388  1.00  0.00     0.025 C 
ATOM      2  C   UNL     1     141.670 145.603 157.664  1.00  0.00     0.010 C 
ENDROOT
BRANCH   1   3
ATOM      3  C   UNL     1     140.923 143.225 157.902  1.00  0.00     0.064 C 
ATOM      4  O   UNL     1     139.768 142.893 157.528  1.00  0.00    -0.545 OA
ATOM      5  O   UNL     1     141.931 142.268 157.915  1.00  0.00    -0.545 OA
ENDBRANCH   1   3
BRANCH   2   6
ATOM      6  C   UNL     1     141.917 145.570 156.207  1.00  0.00    -0.026 A 
ATOM      7  C   UNL     1     143.193 145.230 155.733  1.00  0.00     0.008 A 
ATOM      8  C   UNL     1     140.927 145.972 155.291  1.00  0.00     0.008 A 
ATOM      9  C   UNL     1     143.462 145.241 154.361  1.00  0.00     0.001 A 
ATOM     10  C   UNL     1     141.200 145.982 153.920  1.00  0.00     0.001 A 
ATOM     11  C   UNL     1     142.465 145.612 153.455  1.00  0.00     0.000 A 
ENDBRANCH   2   6
TORSDOF 2
ENDMDL
MODEL 6
REMARK VINA RESULT:    -4.432      3.128      4.680
REMARK INTER + INTRA:          -4.768
REMARK INTER:                  -4.509
REMARK INTRA:                  -0.259
REMARK UNBOUND:                 0.182
REMARK SMILES O=C([O-])C=Cc1ccccc1
REMARK SMILES IDX 4 1 5 2 2 3 1 4 3 5 6 6 7 7 11 8 8 9 10 10 9 11
REMARK H PARENT
REMARK Flexibility Score: inf
ROOT
ATOM      1  C   UNL     1     145.945 143.210 157.638  1.00  0.00     0.025 C 
ATOM      2  C   UNL     1     144.728 143.161 157.074  1.00  0.00     0.010 C 
ENDROOT
BRANCH   1   3
ATOM      3  C   UNL     1     147.049 144.089 157.213  1.00  0.00     0.064 C 
ATOM      4  O   UNL     1     147.059 145.291 157.588  1.00  0.00    -0.545 OA
ATOM      5  O   UNL     1     148.041 143.643 156.348  1.00  0.00    -0.545 OA
ENDBRANCH   1   3
BRANCH   2   6
ATOM      6  C   UNL     1     144.340 143.836 155.817  1.00  0.00    -0.026 A 
ATOM      7  C   UNL     1     143.525 144.977 155.873  1.00  0.00     0.008 A 
ATOM      8  C   UNL     1     144.685 143.297 154.564  1.00  0.00     0.008 A 
ATOM      9  C   UNL     1     143.104 145.601 154.694  1.00  0.00     0.001 A 
ATOM     10  C   UNL     1     144.262 143.923 153.388  1.00  0.00     0.001 A 
ATOM     11  C   UNL     1     143.477 145.078 153.453  1.00  0.00     0.000 A 
ENDBRANCH   2   6
TORSDOF 2
ENDMDL
MODEL 7
REMARK VINA RESULT:    -4.430      7.344      9.157
REMARK INTER + INTRA:          -4.766
REMARK INTER:                  -4.541
REMARK INTRA:                  -0.225
REMARK UNBOUND:                 0.182
REMARK SMILES O=C([O-])C=Cc1ccccc1
REMARK SMILES IDX 4 1 5 2 2 3 1 4 3 5 6 6 7 7 11 8 8 9 10 10 9 11
REMARK H PARENT
REMARK Flexibility Score: inf
ROOT
ATOM      1  C   UNL     1     136.383 146.964 157.971  1.00  0.00     0.025 C 
ATOM      2  C   UNL     1     135.265 146.671 157.288  1.00  0.00     0.010 C 
ENDROOT
BRANCH   1   3
ATOM      3  C   UNL     1     136.992 146.122 159.017  1.00  0.00     0.064 C 
ATOM      4  O   UNL     1     136.900 146.474 160.221  1.00  0.00    -0.545 OA
ATOM      5  O   UNL     1     137.729 144.988 158.698  1.00  0.00    -0.545 OA
ENDBRANCH   1   3
BRANCH   2   6
ATOM      6  C   UNL     1     134.347 145.553 157.589  1.00  0.00    -0.026 A 
ATOM      7  C   UNL     1     134.622 144.279 157.069  1.00  0.00     0.008 A 
ATOM      8  C   UNL     1     133.150 145.764 158.298  1.00  0.00     0.008 A 
ATOM      9  C   UNL     1     133.740 143.218 157.300  1.00  0.00     0.001 A 
ATOM     10  C   UNL     1     132.271 144.701 158.526  1.00  0.00     0.001 A 
ATOM     11  C   UNL     1     132.568 143.428 158.031  1.00  0.00     0.000 A 
ENDBRANCH   2   6
TORSDOF 2
ENDMDL
MODEL 8
REMARK VINA RESULT:    -4.362      2.158      4.153
REMARK INTER + INTRA:          -4.690
REMARK INTER:                  -4.491
REMARK INTRA:                  -0.199
REMARK UNBOUND:                 0.182
REMARK SMILES O=C([O-])C=Cc1ccccc1
REMARK SMILES IDX 4 1 5 2 2 3 1 4 3 5 6 6 7 7 11 8 8 9 10 10 9 11
REMARK H PARENT
REMARK Flexibility Score: inf
ROOT
ATOM      1  C   UNL     1     145.302 144.254 157.045  1.00  0.00     0.025 C 
ATOM      2  C   UNL     1     144.350 144.005 156.132  1.00  0.00     0.010 C 
ENDROOT
BRANCH   1   3
ATOM      3  C   UNL     1     145.387 145.464 157.884  1.00  0.00     0.064 C 
ATOM      4  O   UNL     1     146.276 146.320 157.639  1.00  0.00    -0.545 OA
ATOM      5  O   UNL     1     144.556 145.647 158.982  1.00  0.00    -0.545 OA
ENDBRANCH   1   3
BRANCH   2   6
ATOM      6  C   UNL     1     143.334 144.973 155.670  1.00  0.00    -0.026 A 
ATOM      7  C   UNL     1     142.172 145.166 156.433  1.00  0.00     0.008 A 
ATOM      8  C   UNL     1     143.460 145.626 154.430  1.00  0.00     0.008 A 
ATOM      9  C   UNL     1     141.173 146.039 155.989  1.00  0.00     0.001 A 
ATOM     10  C   UNL     1     142.459 146.498 153.990  1.00  0.00     0.001 A 
ATOM     11  C   UNL     1     141.320 146.708 154.771  1.00  0.00     0.000 A 
ENDBRANCH   2   6
TORSDOF 2
ENDMDL
MODEL 9
REMARK VINA RESULT:    -4.340      6.695      8.918
REMARK INTER + INTRA:          -4.665
REMARK INTER:                  -4.408
REMARK INTRA:                  -0.256
REMARK UNBOUND:                 0.182
REMARK SMILES O=C([O-])C=Cc1ccccc1
REMARK SMILES IDX 4 1 5 2 2 3 1 4 3 5 6 6 7 7 11 8 8 9 10 10 9 11
REMARK H PARENT
REMARK Flexibility Score: inf
ROOT
ATOM      1  C   UNL     1     137.694 146.853 158.338  1.00  0.00     0.025 C 
ATOM      2  C   UNL     1     136.549 146.957 157.645  1.00  0.00     0.010 C 
ENDROOT
BRANCH   1   3
ATOM      3  C   UNL     1     137.909 145.986 159.510  1.00  0.00     0.064 C 
ATOM      4  O   UNL     1     138.244 144.786 159.335  1.00  0.00    -0.545 OA
ATOM      5  O   UNL     1     137.678 146.441 160.803  1.00  0.00    -0.545 OA
ENDBRANCH   1   3
BRANCH   2   6
ATOM      6  C   UNL     1     135.252 146.370 158.043  1.00  0.00    -0.026 A 
ATOM      7  C   UNL     1     134.499 146.988 159.053  1.00  0.00     0.008 A 
ATOM      8  C   UNL     1     134.810 145.148 157.504  1.00  0.00     0.008 A 
ATOM      9  C   UNL     1     133.294 146.421 159.481  1.00  0.00     0.001 A 
ATOM     10  C   UNL     1     133.605 144.585 157.934  1.00  0.00     0.001 A 
ATOM     11  C   UNL     1     132.845 145.223 158.918  1.00  0.00     0.000 A 
ENDBRANCH   2   6
TORSDOF 2
ENDMDL
