MODEL 1
REMARK VINA RESULT:    -5.847      0.000      0.000
REMARK INTER + INTRA:          -6.287
REMARK INTER:                  -6.189
REMARK INTRA:                  -0.098
REMARK UNBOUND:                -0.098
REMARK SMILES C=C(C)[C@H]1CC=C(C)C(=O)C1
REMARK SMILES IDX 8 1 7 2 6 3 5 4 4 5 11 6 9 7 10 8 2 9 1 10 3 11
REMARK H PARENT
REMARK Flexibility Score: inf
ROOT
ATOM      1  C   UNL     1      30.688  17.785  26.748  1.00  0.00     0.048 C 
ATOM      2  C   UNL     1      29.352  18.225  27.282  1.00  0.00    -0.012 C 
ATOM      3  C   UNL     1      28.449  18.775  26.453  1.00  0.00    -0.019 C 
ATOM      4  C   UNL     1      27.105  19.249  26.937  1.00  0.00     0.036 C 
ATOM      5  C   UNL     1      26.597  18.379  28.102  1.00  0.00     0.025 C 
ATOM      6  C   UNL     1      27.643  18.336  29.232  1.00  0.00     0.089 C 
ATOM      7  C   UNL     1      28.989  17.938  28.692  1.00  0.00     0.158 C 
ATOM      8  O   UNL     1      29.822  17.389  29.462  1.00  0.00    -0.295 OA
ENDROOT
BRANCH   5   9
ATOM      9  C   UNL     1      25.242  18.854  28.610  1.00  0.00    -0.077 C 
ATOM     10  C   UNL     1      24.918  18.783  29.912  1.00  0.00     0.008 C 
ATOM     11  C   UNL     1      24.229  19.418  27.646  1.00  0.00     0.039 C 
ENDBRANCH   5   9
TORSDOF 1
ENDMDL
MODEL 2
REMARK VINA RESULT:    -5.791      1.999      4.604
REMARK INTER + INTRA:          -6.228
REMARK INTER:                  -6.136
REMARK INTRA:                  -0.091
REMARK UNBOUND:                -0.098
REMARK SMILES C=C(C)[C@H]1CC=C(C)C(=O)C1
REMARK SMILES IDX 8 1 7 2 6 3 5 4 4 5 11 6 9 7 10 8 2 9 1 10 3 11
REMARK H PARENT
REMARK Flexibility Score: inf
ROOT
ATOM      1  C   UNL     1      23.875  19.249  28.915  1.00  0.00     0.048 C 
ATOM      2  C   UNL     1      25.345  19.043  28.668  1.00  0.00    -0.012 C 
ATOM      3  C   UNL     1      26.233  19.347  29.629  1.00  0.00    -0.019 C 
ATOM      4  C   UNL     1      27.716  19.178  29.430  1.00  0.00     0.036 C 
ATOM      5  C   UNL     1      28.017  17.985  28.502  1.00  0.00     0.025 C 
ATOM      6  C   UNL     1      27.263  18.142  27.169  1.00  0.00     0.089 C 
ATOM      7  C   UNL     1      25.799  18.391  27.415  1.00  0.00     0.158 C 
ATOM      8  O   UNL     1      24.964  18.072  26.527  1.00  0.00    -0.295 OA
ENDROOT
BRANCH   5   9
ATOM      9  C   UNL     1      29.514  17.809  28.283  1.00  0.00    -0.077 C 
ATOM     10  C   UNL     1      30.319  17.372  29.266  1.00  0.00     0.008 C 
ATOM     11  C   UNL     1      30.124  18.126  26.941  1.00  0.00     0.039 C 
ENDBRANCH   5   9
TORSDOF 1
ENDMDL
MODEL 3
REMARK VINA RESULT:    -5.783      1.835      2.632
REMARK INTER + INTRA:          -6.219
REMARK INTER:                  -6.130
REMARK INTRA:                  -0.089
REMARK UNBOUND:                -0.098
REMARK SMILES C=C(C)[C@H]1CC=C(C)C(=O)C1
REMARK SMILES IDX 8 1 7 2 6 3 5 4 4 5 11 6 9 7 10 8 2 9 1 10 3 11
REMARK H PARENT
REMARK Flexibility Score: inf
ROOT
ATOM      1  C   UNL     1      31.450  17.933  25.878  1.00  0.00     0.048 C 
ATOM      2  C   UNL     1      30.247  18.145  26.756  1.00  0.00    -0.012 C 
ATOM      3  C   UNL     1      30.216  17.610  27.988  1.00  0.00    -0.019 C 
ATOM      4  C   UNL     1      29.031  17.777  28.901  1.00  0.00     0.036 C 
ATOM      5  C   UNL     1      28.342  19.135  28.673  1.00  0.00     0.025 C 
ATOM      6  C   UNL     1      27.963  19.299  27.190  1.00  0.00     0.089 C 
ATOM      7  C   UNL     1      29.155  19.044  26.308  1.00  0.00     0.158 C 
ATOM      8  O   UNL     1      29.199  19.576  25.166  1.00  0.00    -0.295 OA
ENDROOT
BRANCH   5   9
ATOM      9  C   UNL     1      27.134  19.312  29.584  1.00  0.00    -0.077 C 
ATOM     10  C   UNL     1      27.228  19.972  30.751  1.00  0.00     0.008 C 
ATOM     11  C   UNL     1      25.797  18.743  29.186  1.00  0.00     0.039 C 
ENDBRANCH   5   9
TORSDOF 1
ENDMDL
MODEL 4
REMARK VINA RESULT:    -5.735     10.617     12.734
REMARK INTER + INTRA:          -6.168
REMARK INTER:                  -6.075
REMARK INTRA:                  -0.094
REMARK UNBOUND:                -0.098
REMARK SMILES C=C(C)[C@H]1CC=C(C)C(=O)C1
REMARK SMILES IDX 8 1 7 2 6 3 5 4 4 5 11 6 9 7 10 8 2 9 1 10 3 11
REMARK H PARENT
REMARK Flexibility Score: inf
ROOT
ATOM      1  C   UNL     1      33.279  21.068  20.899  1.00  0.00     0.048 C 
ATOM      2  C   UNL     1      33.229  20.803  19.419  1.00  0.00    -0.012 C 
ATOM      3  C   UNL     1      32.385  19.875  18.935  1.00  0.00    -0.019 C 
ATOM      4  C   UNL     1      32.307  19.557  17.466  1.00  0.00     0.036 C 
ATOM      5  C   UNL     1      32.593  20.807  16.612  1.00  0.00     0.025 C 
ATOM      6  C   UNL     1      33.949  21.422  17.004  1.00  0.00     0.089 C 
ATOM      7  C   UNL     1      34.017  21.648  18.490  1.00  0.00     0.158 C 
ATOM      8  O   UNL     1      34.783  22.543  18.940  1.00  0.00    -0.295 OA
ENDROOT
BRANCH   5   9
ATOM      9  C   UNL     1      32.527  20.497  15.122  1.00  0.00    -0.077 C 
ATOM     10  C   UNL     1      33.550  19.902  14.485  1.00  0.00     0.008 C 
ATOM     11  C   UNL     1      31.297  20.857  14.328  1.00  0.00     0.039 C 
ENDBRANCH   5   9
TORSDOF 1
ENDMDL
MODEL 5
REMARK VINA RESULT:    -5.679      1.513      4.294
REMARK INTER + INTRA:          -6.109
REMARK INTER:                  -6.020
REMARK INTRA:                  -0.089
REMARK UNBOUND:                -0.098
REMARK SMILES C=C(C)[C@H]1CC=C(C)C(=O)C1
REMARK SMILES IDX 8 1 7 2 6 3 5 4 4 5 11 6 9 7 10 8 2 9 1 10 3 11
REMARK H PARENT
REMARK Flexibility Score: inf
ROOT
ATOM      1  C   UNL     1      24.609  18.894  30.010  1.00  0.00     0.048 C 
ATOM      2  C   UNL     1      25.822  18.774  29.129  1.00  0.00    -0.012 C 
ATOM      3  C   UNL     1      25.694  18.310  27.874  1.00  0.00    -0.019 C 
ATOM      4  C   UNL     1      26.876  18.152  26.956  1.00  0.00     0.036 C 
ATOM      5  C   UNL     1      27.942  19.229  27.235  1.00  0.00     0.025 C 
ATOM      6  C   UNL     1      28.349  19.205  28.720  1.00  0.00     0.089 C 
ATOM      7  C   UNL     1      27.133  19.282  29.603  1.00  0.00     0.158 C 
ATOM      8  O   UNL     1      27.249  19.751  30.767  1.00  0.00    -0.295 OA
ENDROOT
BRANCH   5   9
ATOM      9  C   UNL     1      29.149  19.075  26.320  1.00  0.00    -0.077 C 
ATOM     10  C   UNL     1      29.197  19.674  25.117  1.00  0.00     0.008 C 
ATOM     11  C   UNL     1      30.325  18.237  26.753  1.00  0.00     0.039 C 
ENDBRANCH   5   9
TORSDOF 1
ENDMDL
MODEL 6
REMARK VINA RESULT:    -5.678      9.993     12.282
REMARK INTER + INTRA:          -6.108
REMARK INTER:                  -6.018
REMARK INTRA:                  -0.090
REMARK UNBOUND:                -0.098
REMARK SMILES C=C(C)[C@H]1CC=C(C)C(=O)C1
REMARK SMILES IDX 8 1 7 2 6 3 5 4 4 5 11 6 9 7 10 8 2 9 1 10 3 11
REMARK H PARENT
REMARK Flexibility Score: inf
ROOT
ATOM      1  C   UNL     1      33.242  21.218  21.466  1.00  0.00     0.048 C 
ATOM      2  C   UNL     1      33.201  21.124  19.966  1.00  0.00    -0.012 C 
ATOM      3  C   UNL     1      34.255  21.537  19.241  1.00  0.00    -0.019 C 
ATOM      4  C   UNL     1      34.260  21.483  17.737  1.00  0.00     0.036 C 
ATOM      5  C   UNL     1      33.440  20.285  17.223  1.00  0.00     0.025 C 
ATOM      6  C   UNL     1      32.013  20.328  17.800  1.00  0.00     0.089 C 
ATOM      7  C   UNL     1      32.052  20.465  19.298  1.00  0.00     0.158 C 
ATOM      8  O   UNL     1      31.078  20.044  19.978  1.00  0.00    -0.295 OA
ENDROOT
BRANCH   5   9
ATOM      9  C   UNL     1      33.428  20.224  15.701  1.00  0.00    -0.077 C 
ATOM     10  C   UNL     1      34.446  19.678  15.014  1.00  0.00     0.008 C 
ATOM     11  C   UNL     1      32.259  20.783  14.931  1.00  0.00     0.039 C 
ENDBRANCH   5   9
TORSDOF 1
ENDMDL
MODEL 7
REMARK VINA RESULT:    -5.676      8.626     10.949
REMARK INTER + INTRA:          -6.106
REMARK INTER:                  -6.011
REMARK INTRA:                  -0.095
REMARK UNBOUND:                -0.098
REMARK SMILES C=C(C)[C@H]1CC=C(C)C(=O)C1
REMARK SMILES IDX 8 1 7 2 6 3 5 4 4 5 11 6 9 7 10 8 2 9 1 10 3 11
REMARK H PARENT
REMARK Flexibility Score: inf
ROOT
ATOM      1  C   UNL     1      30.822  19.724  22.326  1.00  0.00     0.048 C 
ATOM      2  C   UNL     1      31.571  19.998  21.051  1.00  0.00    -0.012 C 
ATOM      3  C   UNL     1      31.062  19.589  19.876  1.00  0.00    -0.019 C 
ATOM      4  C   UNL     1      31.777  19.820  18.572  1.00  0.00     0.036 C 
ATOM      5  C   UNL     1      32.581  21.134  18.606  1.00  0.00     0.025 C 
ATOM      6  C   UNL     1      33.543  21.139  19.808  1.00  0.00     0.089 C 
ATOM      7  C   UNL     1      32.803  20.823  21.080  1.00  0.00     0.158 C 
ATOM      8  O   UNL     1      33.263  21.238  22.177  1.00  0.00    -0.295 OA
ENDROOT
BRANCH   5   9
ATOM      9  C   UNL     1      33.318  21.375  17.296  1.00  0.00    -0.077 C 
ATOM     10  C   UNL     1      32.735  21.134  16.109  1.00  0.00     0.008 C 
ATOM     11  C   UNL     1      34.733  21.895  17.309  1.00  0.00     0.039 C 
ENDBRANCH   5   9
TORSDOF 1
ENDMDL
MODEL 8
REMARK VINA RESULT:    -5.618      9.067     10.981
REMARK INTER + INTRA:          -6.044
REMARK INTER:                  -5.952
REMARK INTRA:                  -0.092
REMARK UNBOUND:                -0.098
REMARK SMILES C=C(C)[C@H]1CC=C(C)C(=O)C1
REMARK SMILES IDX 8 1 7 2 6 3 5 4 4 5 11 6 9 7 10 8 2 9 1 10 3 11
REMARK H PARENT
REMARK Flexibility Score: inf
ROOT
ATOM      1  C   UNL     1      34.750  21.869  16.517  1.00  0.00     0.048 C 
ATOM      2  C   UNL     1      34.073  21.256  17.712  1.00  0.00    -0.012 C 
ATOM      3  C   UNL     1      34.217  21.819  18.924  1.00  0.00    -0.019 C 
ATOM      4  C   UNL     1      33.578  21.237  20.156  1.00  0.00     0.036 C 
ATOM      5  C   UNL     1      32.238  20.558  19.817  1.00  0.00     0.025 C 
ATOM      6  C   UNL     1      32.438  19.505  18.711  1.00  0.00     0.089 C 
ATOM      7  C   UNL     1      33.152  20.107  17.532  1.00  0.00     0.158 C 
ATOM      8  O   UNL     1      32.988  19.599  16.390  1.00  0.00    -0.295 OA
ENDROOT
BRANCH   5   9
ATOM      9  C   UNL     1      31.584  19.955  21.054  1.00  0.00    -0.077 C 
ATOM     10  C   UNL     1      30.249  19.938  21.202  1.00  0.00     0.008 C 
ATOM     11  C   UNL     1      32.437  19.361  22.146  1.00  0.00     0.039 C 
ENDBRANCH   5   9
TORSDOF 1
ENDMDL
MODEL 9
REMARK VINA RESULT:    -5.617      9.962     11.794
REMARK INTER + INTRA:          -6.043
REMARK INTER:                  -5.950
REMARK INTRA:                  -0.093
REMARK UNBOUND:                -0.098
REMARK SMILES C=C(C)[C@H]1CC=C(C)C(=O)C1
REMARK SMILES IDX 8 1 7 2 6 3 5 4 4 5 11 6 9 7 10 8 2 9 1 10 3 11
REMARK H PARENT
REMARK Flexibility Score: inf
ROOT
ATOM      1  C   UNL     1      33.281  20.005  14.433  1.00  0.00     0.048 C 
ATOM      2  C   UNL     1      33.074  20.006  15.923  1.00  0.00    -0.012 C 
ATOM      3  C   UNL     1      33.289  21.131  16.626  1.00  0.00    -0.019 C 
ATOM      4  C   UNL     1      33.115  21.184  18.120  1.00  0.00     0.036 C 
ATOM      5  C   UNL     1      31.995  20.232  18.582  1.00  0.00     0.025 C 
ATOM      6  C   UNL     1      32.267  18.803  18.076  1.00  0.00     0.089 C 
ATOM      7  C   UNL     1      32.516  18.805  16.592  1.00  0.00     0.158 C 
ATOM      8  O   UNL     1      32.280  17.760  15.928  1.00  0.00    -0.295 OA
ENDROOT
BRANCH   5   9
ATOM      9  C   UNL     1      31.814  20.267  20.094  1.00  0.00    -0.077 C 
ATOM     10  C   UNL     1      30.661  19.888  20.670  1.00  0.00     0.008 C 
ATOM     11  C   UNL     1      32.941  20.735  20.979  1.00  0.00     0.039 C 
ENDBRANCH   5   9
TORSDOF 1
ENDMDL
