MODEL 1
REMARK VINA RESULT:     6.724      0.000      0.000
REMARK INTER + INTRA:          11.915
REMARK INTER:                  12.621
REMARK INTRA:                  -0.706
REMARK UNBOUND:                -0.706
REMARK SMILES O=C([O-])CCCCCCCCCCCCCCC(=O)[O-]
REMARK SMILES IDX 10 1 9 2 8 3 7 4 6 5 5 6 4 7 2 8 1 9 3 10 11 11 12 12 13 13
REMARK SMILES IDX 14 14 15 15 16 16 17 17 18 18 19 19 20 20
REMARK H PARENT
REMARK Flexibility Score: inf
ROOT
ATOM      1  C   UNL     1     -12.869  61.438  -4.773  1.00  0.00     0.000 C 
ENDROOT
BRANCH   1   2
ATOM      2  C   UNL     1     -12.989  62.395  -5.972  1.00  0.00     0.000 C 
BRANCH   2   3
ATOM      3  C   UNL     1     -12.139  61.946  -7.174  1.00  0.00     0.000 C 
BRANCH   3   4
ATOM      4  C   UNL     1     -12.495  62.704  -8.465  1.00  0.00     0.000 C 
BRANCH   4   5
ATOM      5  C   UNL     1     -11.875  62.061  -9.716  1.00  0.00     0.000 C 
BRANCH   5   6
ATOM      6  C   UNL     1     -11.942  60.523  -9.688  1.00  0.00     0.006 C 
BRANCH   6   7
ATOM      7  C   UNL     1     -13.340  60.000 -10.046  1.00  0.00     0.053 C 
BRANCH   7   8
ATOM      8  C   UNL     1     -13.665  58.734  -9.313  1.00  0.00     0.041 C 
ATOM      9  O   UNL     1     -12.743  58.024  -8.833  1.00  0.00    -0.550 OA
ATOM     10  O   UNL     1     -14.989  58.356  -9.132  1.00  0.00    -0.550 OA
ENDBRANCH   7   8
ENDBRANCH   6   7
ENDBRANCH   5   6
ENDBRANCH   4   5
ENDBRANCH   3   4
ENDBRANCH   2   3
ENDBRANCH   1   2
BRANCH   1  11
ATOM     11  C   UNL     1     -13.374  62.066  -3.464  1.00  0.00     0.000 C 
BRANCH  11  12
ATOM     12  C   UNL     1     -13.356  61.080  -2.286  1.00  0.00     0.000 C 
BRANCH  12  13
ATOM     13  C   UNL     1     -14.716  61.044  -1.580  1.00  0.00     0.000 C 
BRANCH  13  14
ATOM     14  C   UNL     1     -15.842  61.477  -2.531  1.00  0.00     0.000 C 
BRANCH  14  15
ATOM     15  C   UNL     1     -17.164  61.755  -1.798  1.00  0.00     0.000 C 
BRANCH  15  16
ATOM     16  C   UNL     1     -18.392  61.564  -2.700  1.00  0.00     0.006 C 
BRANCH  16  17
ATOM     17  C   UNL     1     -19.686  61.614  -1.881  1.00  0.00     0.053 C 
BRANCH  17  18
ATOM     18  C   UNL     1     -19.754  62.878  -1.083  1.00  0.00     0.041 C 
ATOM     19  O   UNL     1     -19.941  62.833   0.162  1.00  0.00    -0.550 OA
ATOM     20  O   UNL     1     -19.660  64.109  -1.721  1.00  0.00    -0.550 OA
ENDBRANCH  17  18
ENDBRANCH  16  17
ENDBRANCH  15  16
ENDBRANCH  14  15
ENDBRANCH  13  14
ENDBRANCH  12  13
ENDBRANCH  11  12
ENDBRANCH   1  11
TORSDOF 15
ENDMDL
MODEL 2
REMARK VINA RESULT:     6.982      1.542      2.080
REMARK INTER + INTRA:          12.399
REMARK INTER:                  12.923
REMARK INTRA:                  -0.524
REMARK UNBOUND:                -0.706
REMARK SMILES O=C([O-])CCCCCCCCCCCCCCC(=O)[O-]
REMARK SMILES IDX 10 1 9 2 8 3 7 4 6 5 5 6 4 7 2 8 1 9 3 10 11 11 12 12 13 13
REMARK SMILES IDX 14 14 15 15 16 16 17 17 18 18 19 19 20 20
REMARK H PARENT
REMARK Flexibility Score: inf
ROOT
ATOM      1  C   UNL     1     -12.161  61.915  -6.477  1.00  0.00     0.000 C 
ENDROOT
BRANCH   1   2
ATOM      2  C   UNL     1     -12.508  62.692  -7.759  1.00  0.00     0.000 C 
BRANCH   2   3
ATOM      3  C   UNL     1     -13.861  63.418  -7.662  1.00  0.00     0.000 C 
BRANCH   3   4
ATOM      4  C   UNL     1     -14.453  63.751  -9.043  1.00  0.00     0.000 C 
BRANCH   4   5
ATOM      5  C   UNL     1     -15.110  62.533  -9.713  1.00  0.00     0.000 C 
BRANCH   5   6
ATOM      6  C   UNL     1     -14.087  61.456 -10.118  1.00  0.00     0.006 C 
BRANCH   6   7
ATOM      7  C   UNL     1     -14.544  60.046  -9.719  1.00  0.00     0.053 C 
BRANCH   7   8
ATOM      8  C   UNL     1     -13.383  59.123  -9.509  1.00  0.00     0.041 C 
ATOM      9  O   UNL     1     -13.579  57.904  -9.259  1.00  0.00    -0.550 OA
ATOM     10  O   UNL     1     -12.084  59.602  -9.621  1.00  0.00    -0.550 OA
ENDBRANCH   7   8
ENDBRANCH   6   7
ENDBRANCH   5   6
ENDBRANCH   4   5
ENDBRANCH   3   4
ENDBRANCH   2   3
ENDBRANCH   1   2
BRANCH   1  11
ATOM     11  C   UNL     1     -13.085  62.274  -5.302  1.00  0.00     0.000 C 
BRANCH  11  12
ATOM     12  C   UNL     1     -12.956  61.294  -4.125  1.00  0.00     0.000 C 
BRANCH  12  13
ATOM     13  C   UNL     1     -13.549  61.894  -2.845  1.00  0.00     0.000 C 
BRANCH  13  14
ATOM     14  C   UNL     1     -14.769  61.087  -2.373  1.00  0.00     0.000 C 
BRANCH  14  15
ATOM     15  C   UNL     1     -15.938  61.982  -1.932  1.00  0.00     0.000 C 
BRANCH  15  16
ATOM     16  C   UNL     1     -17.308  61.374  -2.268  1.00  0.00     0.006 C 
BRANCH  16  17
ATOM     17  C   UNL     1     -18.436  62.164  -1.597  1.00  0.00     0.053 C 
BRANCH  17  18
ATOM     18  C   UNL     1     -19.768  61.590  -1.966  1.00  0.00     0.041 C 
ATOM     19  O   UNL     1     -19.866  60.783  -2.928  1.00  0.00    -0.550 OA
ATOM     20  O   UNL     1     -20.910  61.985  -1.279  1.00  0.00    -0.550 OA
ENDBRANCH  17  18
ENDBRANCH  16  17
ENDBRANCH  15  16
ENDBRANCH  14  15
ENDBRANCH  13  14
ENDBRANCH  12  13
ENDBRANCH  11  12
ENDBRANCH   1  11
TORSDOF 15
ENDMDL
MODEL 3
REMARK VINA RESULT:     7.230      5.029      7.944
REMARK INTER + INTRA:          12.864
REMARK INTER:                  13.054
REMARK INTRA:                  -0.189
REMARK UNBOUND:                -0.706
REMARK SMILES O=C([O-])CCCCCCCCCCCCCCC(=O)[O-]
REMARK SMILES IDX 10 1 9 2 8 3 7 4 6 5 5 6 4 7 2 8 1 9 3 10 11 11 12 12 13 13
REMARK SMILES IDX 14 14 15 15 16 16 17 17 18 18 19 19 20 20
REMARK H PARENT
REMARK Flexibility Score: inf
ROOT
ATOM      1  C   UNL     1     -19.851  64.395  -0.209  1.00  0.00     0.000 C 
ENDROOT
BRANCH   1   2
ATOM      2  C   UNL     1     -20.540  63.259  -0.984  1.00  0.00     0.000 C 
BRANCH   2   3
ATOM      3  C   UNL     1     -19.940  63.051  -2.386  1.00  0.00     0.000 C 
BRANCH   3   4
ATOM      4  C   UNL     1     -19.694  61.566  -2.708  1.00  0.00     0.000 C 
BRANCH   4   5
ATOM      5  C   UNL     1     -20.805  60.653  -2.165  1.00  0.00     0.000 C 
BRANCH   5   6
ATOM      6  C   UNL     1     -21.636  60.000  -3.285  1.00  0.00     0.006 C 
BRANCH   6   7
ATOM      7  C   UNL     1     -20.898  60.007  -4.630  1.00  0.00     0.053 C 
BRANCH   7   8
ATOM      8  C   UNL     1     -21.688  59.319  -5.702  1.00  0.00     0.041 C 
ATOM      9  O   UNL     1     -22.890  59.633  -5.904  1.00  0.00    -0.550 OA
ATOM     10  O   UNL     1     -21.086  58.353  -6.498  1.00  0.00    -0.550 OA
ENDBRANCH   7   8
ENDBRANCH   6   7
ENDBRANCH   5   6
ENDBRANCH   4   5
ENDBRANCH   3   4
ENDBRANCH   2   3
ENDBRANCH   1   2
BRANCH   1  11
ATOM     11  C   UNL     1     -18.319  64.353  -0.337  1.00  0.00     0.000 C 
BRANCH  11  12
ATOM     12  C   UNL     1     -17.744  62.946  -0.115  1.00  0.00     0.000 C 
BRANCH  12  13
ATOM     13  C   UNL     1     -16.398  62.784  -0.830  1.00  0.00     0.000 C 
BRANCH  13  14
ATOM     14  C   UNL     1     -16.467  61.674  -1.890  1.00  0.00     0.000 C 
BRANCH  14  15
ATOM     15  C   UNL     1     -15.117  60.972  -2.103  1.00  0.00     0.000 C 
BRANCH  15  16
ATOM     16  C   UNL     1     -14.064  61.891  -2.738  1.00  0.00     0.006 C 
BRANCH  16  17
ATOM     17  C   UNL     1     -12.648  61.404  -2.419  1.00  0.00     0.053 C 
BRANCH  17  18
ATOM     18  C   UNL     1     -12.629  60.659  -1.122  1.00  0.00     0.041 C 
ATOM     19  O   UNL     1     -13.228  61.123  -0.115  1.00  0.00    -0.550 OA
ATOM     20  O   UNL     1     -11.908  59.476  -1.009  1.00  0.00    -0.550 OA
ENDBRANCH  17  18
ENDBRANCH  16  17
ENDBRANCH  15  16
ENDBRANCH  14  15
ENDBRANCH  13  14
ENDBRANCH  12  13
ENDBRANCH  11  12
ENDBRANCH   1  11
TORSDOF 15
ENDMDL
MODEL 4
REMARK VINA RESULT:     7.296      5.199      7.135
REMARK INTER + INTRA:          12.988
REMARK INTER:                  13.849
REMARK INTRA:                  -0.861
REMARK UNBOUND:                -0.706
REMARK SMILES O=C([O-])CCCCCCCCCCCCCCC(=O)[O-]
REMARK SMILES IDX 10 1 9 2 8 3 7 4 6 5 5 6 4 7 2 8 1 9 3 10 11 11 12 12 13 13
REMARK SMILES IDX 14 14 15 15 16 16 17 17 18 18 19 19 20 20
REMARK H PARENT
REMARK Flexibility Score: inf
ROOT
ATOM      1  C   UNL     1     -18.247  64.334  -0.428  1.00  0.00     0.000 C 
ENDROOT
BRANCH   1   2
ATOM      2  C   UNL     1     -17.639  62.961  -0.094  1.00  0.00     0.000 C 
BRANCH   2   3
ATOM      3  C   UNL     1     -16.349  62.678  -0.883  1.00  0.00     0.000 C 
BRANCH   3   4
ATOM      4  C   UNL     1     -16.541  61.600  -1.963  1.00  0.00     0.000 C 
BRANCH   4   5
ATOM      5  C   UNL     1     -15.229  60.884  -2.323  1.00  0.00     0.000 C 
BRANCH   5   6
ATOM      6  C   UNL     1     -14.043  61.856  -2.464  1.00  0.00     0.006 C 
BRANCH   6   7
ATOM      7  C   UNL     1     -12.716  61.211  -2.042  1.00  0.00     0.053 C 
BRANCH   7   8
ATOM      8  C   UNL     1     -12.794  60.628  -0.664  1.00  0.00     0.041 C 
ATOM      9  O   UNL     1     -12.811  61.383   0.344  1.00  0.00    -0.550 OA
ATOM     10  O   UNL     1     -12.881  59.252  -0.494  1.00  0.00    -0.550 OA
ENDBRANCH   7   8
ENDBRANCH   6   7
ENDBRANCH   5   6
ENDBRANCH   4   5
ENDBRANCH   3   4
ENDBRANCH   2   3
ENDBRANCH   1   2
BRANCH   1  11
ATOM     11  C   UNL     1     -19.770  64.371  -0.220  1.00  0.00     0.000 C 
BRANCH  11  12
ATOM     12  C   UNL     1     -20.508  63.301  -1.039  1.00  0.00     0.000 C 
BRANCH  12  13
ATOM     13  C   UNL     1     -19.924  63.193  -2.452  1.00  0.00     0.000 C 
BRANCH  13  14
ATOM     14  C   UNL     1     -19.585  61.735  -2.798  1.00  0.00     0.000 C 
BRANCH  14  15
ATOM     15  C   UNL     1     -20.573  60.733  -2.180  1.00  0.00     0.000 C 
BRANCH  15  16
ATOM     16  C   UNL     1     -21.400  59.989  -3.238  1.00  0.00     0.006 C 
BRANCH  16  17
ATOM     17  C   UNL     1     -20.686  59.989  -4.593  1.00  0.00     0.053 C 
BRANCH  17  18
ATOM     18  C   UNL     1     -21.542  59.347  -5.638  1.00  0.00     0.041 C 
ATOM     19  O   UNL     1     -21.105  58.370  -6.303  1.00  0.00    -0.550 OA
ATOM     20  O   UNL     1     -22.805  59.857  -5.913  1.00  0.00    -0.550 OA
ENDBRANCH  17  18
ENDBRANCH  16  17
ENDBRANCH  15  16
ENDBRANCH  14  15
ENDBRANCH  13  14
ENDBRANCH  12  13
ENDBRANCH  11  12
ENDBRANCH   1  11
TORSDOF 15
ENDMDL
MODEL 5
REMARK VINA RESULT:     7.342      2.251      2.749
REMARK INTER + INTRA:          13.075
REMARK INTER:                  13.603
REMARK INTRA:                  -0.528
REMARK UNBOUND:                -0.706
REMARK SMILES O=C([O-])CCCCCCCCCCCCCCC(=O)[O-]
REMARK SMILES IDX 10 1 9 2 8 3 7 4 6 5 5 6 4 7 2 8 1 9 3 10 11 11 12 12 13 13
REMARK SMILES IDX 14 14 15 15 16 16 17 17 18 18 19 19 20 20
REMARK H PARENT
REMARK Flexibility Score: inf
ROOT
ATOM      1  C   UNL     1     -11.885  61.514  -5.573  1.00  0.00     0.000 C 
ENDROOT
BRANCH   1   2
ATOM      2  C   UNL     1     -12.024  61.779  -7.083  1.00  0.00     0.000 C 
BRANCH   2   3
ATOM      3  C   UNL     1     -11.875  60.499  -7.923  1.00  0.00     0.000 C 
BRANCH   3   4
ATOM      4  C   UNL     1     -11.923  60.776  -9.436  1.00  0.00     0.000 C 
BRANCH   4   5
ATOM      5  C   UNL     1     -12.976  61.833  -9.809  1.00  0.00     0.000 C 
BRANCH   5   6
ATOM      6  C   UNL     1     -14.359  61.218 -10.089  1.00  0.00     0.006 C 
BRANCH   6   7
ATOM      7  C   UNL     1     -15.498  62.075  -9.518  1.00  0.00     0.053 C 
BRANCH   7   8
ATOM      8  C   UNL     1     -15.025  63.444  -9.134  1.00  0.00     0.041 C 
ATOM      9  O   UNL     1     -14.662  63.681  -7.951  1.00  0.00    -0.550 OA
ATOM     10  O   UNL     1     -14.954  64.450 -10.089  1.00  0.00    -0.550 OA
ENDBRANCH   7   8
ENDBRANCH   6   7
ENDBRANCH   5   6
ENDBRANCH   4   5
ENDBRANCH   3   4
ENDBRANCH   2   3
ENDBRANCH   1   2
BRANCH   1  11
ATOM     11  C   UNL     1     -13.225  61.634  -4.828  1.00  0.00     0.000 C 
BRANCH  11  12
ATOM     12  C   UNL     1     -13.048  61.960  -3.337  1.00  0.00     0.000 C 
BRANCH  12  13
ATOM     13  C   UNL     1     -13.735  60.907  -2.460  1.00  0.00     0.000 C 
BRANCH  13  14
ATOM     14  C   UNL     1     -14.946  61.506  -1.728  1.00  0.00     0.000 C 
BRANCH  14  15
ATOM     15  C   UNL     1     -16.275  61.213  -2.441  1.00  0.00     0.000 C 
BRANCH  15  16
ATOM     16  C   UNL     1     -17.406  62.150  -1.994  1.00  0.00     0.006 C 
BRANCH  16  17
ATOM     17  C   UNL     1     -18.773  61.595  -2.407  1.00  0.00     0.053 C 
BRANCH  17  18
ATOM     18  C   UNL     1     -19.826  62.014  -1.429  1.00  0.00     0.041 C 
ATOM     19  O   UNL     1     -19.673  63.058  -0.741  1.00  0.00    -0.550 OA
ATOM     20  O   UNL     1     -20.954  61.225  -1.241  1.00  0.00    -0.550 OA
ENDBRANCH  17  18
ENDBRANCH  16  17
ENDBRANCH  15  16
ENDBRANCH  14  15
ENDBRANCH  13  14
ENDBRANCH  12  13
ENDBRANCH  11  12
ENDBRANCH   1  11
TORSDOF 15
ENDMDL
MODEL 6
REMARK VINA RESULT:     7.557      1.433      2.267
REMARK INTER + INTRA:          13.477
REMARK INTER:                  13.748
REMARK INTRA:                  -0.271
REMARK UNBOUND:                -0.706
REMARK SMILES O=C([O-])CCCCCCCCCCCCCCC(=O)[O-]
REMARK SMILES IDX 10 1 9 2 8 3 7 4 6 5 5 6 4 7 2 8 1 9 3 10 11 11 12 12 13 13
REMARK SMILES IDX 14 14 15 15 16 16 17 17 18 18 19 19 20 20
REMARK H PARENT
REMARK Flexibility Score: inf
ROOT
ATOM      1  C   UNL     1     -12.918  61.158  -2.645  1.00  0.00     0.000 C 
ENDROOT
BRANCH   1   2
ATOM      2  C   UNL     1     -13.349  61.857  -3.946  1.00  0.00     0.000 C 
BRANCH   2   3
ATOM      3  C   UNL     1     -12.318  61.693  -5.075  1.00  0.00     0.000 C 
BRANCH   3   4
ATOM      4  C   UNL     1     -12.834  62.215  -6.427  1.00  0.00     0.000 C 
BRANCH   4   5
ATOM      5  C   UNL     1     -12.149  61.535  -7.624  1.00  0.00     0.000 C 
BRANCH   5   6
ATOM      6  C   UNL     1     -11.877  62.509  -8.784  1.00  0.00     0.006 C 
BRANCH   6   7
ATOM      7  C   UNL     1     -12.657  62.131 -10.050  1.00  0.00     0.053 C 
BRANCH   7   8
ATOM      8  C   UNL     1     -14.021  61.601  -9.726  1.00  0.00     0.041 C 
ATOM      9  O   UNL     1     -14.247  60.363  -9.772  1.00  0.00    -0.550 OA
ATOM     10  O   UNL     1     -15.032  62.471  -9.342  1.00  0.00    -0.550 OA
ENDBRANCH   7   8
ENDBRANCH   6   7
ENDBRANCH   5   6
ENDBRANCH   4   5
ENDBRANCH   3   4
ENDBRANCH   2   3
ENDBRANCH   1   2
BRANCH   1  11
ATOM     11  C   UNL     1     -14.107  60.831  -1.728  1.00  0.00     0.000 C 
BRANCH  11  12
ATOM     12  C   UNL     1     -15.260  61.837  -1.868  1.00  0.00     0.000 C 
BRANCH  12  13
ATOM     13  C   UNL     1     -16.558  61.131  -2.276  1.00  0.00     0.000 C 
BRANCH  13  14
ATOM     14  C   UNL     1     -17.742  62.110  -2.271  1.00  0.00     0.000 C 
BRANCH  14  15
ATOM     15  C   UNL     1     -19.044  61.469  -2.778  1.00  0.00     0.000 C 
BRANCH  15  16
ATOM     16  C   UNL     1     -20.226  61.695  -1.823  1.00  0.00     0.006 C 
BRANCH  16  17
ATOM     17  C   UNL     1     -19.744  62.228  -0.471  1.00  0.00     0.053 C 
BRANCH  17  18
ATOM     18  C   UNL     1     -19.923  63.712  -0.398  1.00  0.00     0.041 C 
ATOM     19  O   UNL     1     -21.079  64.212  -0.415  1.00  0.00    -0.550 OA
ATOM     20  O   UNL     1     -18.813  64.547  -0.362  1.00  0.00    -0.550 OA
ENDBRANCH  17  18
ENDBRANCH  16  17
ENDBRANCH  15  16
ENDBRANCH  14  15
ENDBRANCH  13  14
ENDBRANCH  12  13
ENDBRANCH  11  12
ENDBRANCH   1  11
TORSDOF 15
ENDMDL
MODEL 7
REMARK VINA RESULT:     8.028      6.851      8.877
REMARK INTER + INTRA:          14.362
REMARK INTER:                  14.985
REMARK INTRA:                  -0.623
REMARK UNBOUND:                -0.706
REMARK SMILES O=C([O-])CCCCCCCCCCCCCCC(=O)[O-]
REMARK SMILES IDX 10 1 9 2 8 3 7 4 6 5 5 6 4 7 2 8 1 9 3 10 11 11 12 12 13 13
REMARK SMILES IDX 14 14 15 15 16 16 17 17 18 18 19 19 20 20
REMARK H PARENT
REMARK Flexibility Score: inf
ROOT
ATOM      1  C   UNL     1     -18.762  65.185  -0.995  1.00  0.00     0.000 C 
ENDROOT
BRANCH   1   2
ATOM      2  C   UNL     1     -19.181  64.012  -0.092  1.00  0.00     0.000 C 
BRANCH   2   3
ATOM      3  C   UNL     1     -20.360  63.211  -0.672  1.00  0.00     0.000 C 
BRANCH   3   4
ATOM      4  C   UNL     1     -19.930  61.841  -1.223  1.00  0.00     0.000 C 
BRANCH   4   5
ATOM      5  C   UNL     1     -19.749  61.848  -2.750  1.00  0.00     0.000 C 
BRANCH   5   6
ATOM      6  C   UNL     1     -19.987  60.464  -3.381  1.00  0.00     0.006 C 
BRANCH   6   7
ATOM      7  C   UNL     1     -21.444  60.275  -3.824  1.00  0.00     0.053 C 
BRANCH   7   8
ATOM      8  C   UNL     1     -21.536  59.616  -5.167  1.00  0.00     0.041 C 
ATOM      9  O   UNL     1     -22.580  59.735  -5.861  1.00  0.00    -0.550 OA
ATOM     10  O   UNL     1     -20.458  58.897  -5.665  1.00  0.00    -0.550 OA
ENDBRANCH   7   8
ENDBRANCH   6   7
ENDBRANCH   5   6
ENDBRANCH   4   5
ENDBRANCH   3   4
ENDBRANCH   2   3
ENDBRANCH   1   2
BRANCH   1  11
ATOM     11  C   UNL     1     -17.272  65.537  -0.852  1.00  0.00     0.000 C 
BRANCH  11  12
ATOM     12  C   UNL     1     -16.763  66.440  -1.986  1.00  0.00     0.000 C 
BRANCH  12  13
ATOM     13  C   UNL     1     -15.503  67.201  -1.558  1.00  0.00     0.000 C 
BRANCH  13  14
ATOM     14  C   UNL     1     -15.178  68.329  -2.549  1.00  0.00     0.000 C 
BRANCH  14  15
ATOM     15  C   UNL     1     -14.338  69.450  -1.918  1.00  0.00     0.000 C 
BRANCH  15  16
ATOM     16  C   UNL     1     -12.831  69.254  -2.135  1.00  0.00     0.006 C 
BRANCH  16  17
ATOM     17  C   UNL     1     -12.092  69.161  -0.797  1.00  0.00     0.053 C 
BRANCH  17  18
ATOM     18  C   UNL     1     -12.064  67.746  -0.311  1.00  0.00     0.041 C 
ATOM     19  O   UNL     1     -11.875  67.499   0.910  1.00  0.00    -0.550 OA
ATOM     20  O   UNL     1     -12.196  66.698  -1.213  1.00  0.00    -0.550 OA
ENDBRANCH  17  18
ENDBRANCH  16  17
ENDBRANCH  15  16
ENDBRANCH  14  15
ENDBRANCH  13  14
ENDBRANCH  12  13
ENDBRANCH  11  12
ENDBRANCH   1  11
TORSDOF 15
ENDMDL
MODEL 8
REMARK VINA RESULT:     8.110      5.572      8.035
REMARK INTER + INTRA:          14.517
REMARK INTER:                  15.276
REMARK INTRA:                  -0.759
REMARK UNBOUND:                -0.706
REMARK SMILES O=C([O-])CCCCCCCCCCCCCCC(=O)[O-]
REMARK SMILES IDX 10 1 9 2 8 3 7 4 6 5 5 6 4 7 2 8 1 9 3 10 11 11 12 12 13 13
REMARK SMILES IDX 14 14 15 15 16 16 17 17 18 18 19 19 20 20
REMARK H PARENT
REMARK Flexibility Score: inf
ROOT
ATOM      1  C   UNL     1     -20.152  62.595  -0.467  1.00  0.00     0.000 C 
ENDROOT
BRANCH   1   2
ATOM      2  C   UNL     1     -20.036  61.430  -1.464  1.00  0.00     0.000 C 
BRANCH   2   3
ATOM      3  C   UNL     1     -19.559  61.886  -2.854  1.00  0.00     0.000 C 
BRANCH   3   4
ATOM      4  C   UNL     1     -18.110  61.462  -3.150  1.00  0.00     0.000 C 
BRANCH   4   5
ATOM      5  C   UNL     1     -17.210  61.527  -1.905  1.00  0.00     0.000 C 
BRANCH   5   6
ATOM      6  C   UNL     1     -15.726  61.732  -2.257  1.00  0.00     0.006 C 
BRANCH   6   7
ATOM      7  C   UNL     1     -14.873  60.508  -1.898  1.00  0.00     0.053 C 
BRANCH   7   8
ATOM      8  C   UNL     1     -13.480  60.896  -1.506  1.00  0.00     0.041 C 
ATOM      9  O   UNL     1     -12.981  60.469  -0.431  1.00  0.00    -0.550 OA
ATOM     10  O   UNL     1     -12.720  61.702  -2.343  1.00  0.00    -0.550 OA
ENDBRANCH   7   8
ENDBRANCH   6   7
ENDBRANCH   5   6
ENDBRANCH   4   5
ENDBRANCH   3   4
ENDBRANCH   2   3
ENDBRANCH   1   2
BRANCH   1  11
ATOM     11  C   UNL     1     -19.628  63.920  -1.044  1.00  0.00     0.000 C 
BRANCH  11  12
ATOM     12  C   UNL     1     -18.315  64.376  -0.388  1.00  0.00     0.000 C 
BRANCH  12  13
ATOM     13  C   UNL     1     -17.963  65.809  -0.802  1.00  0.00     0.000 C 
BRANCH  13  14
ATOM     14  C   UNL     1     -16.473  65.930  -1.157  1.00  0.00     0.000 C 
BRANCH  14  15
ATOM     15  C   UNL     1     -16.054  67.373  -1.476  1.00  0.00     0.000 C 
BRANCH  15  16
ATOM     16  C   UNL     1     -14.705  67.451  -2.206  1.00  0.00     0.006 C 
BRANCH  16  17
ATOM     17  C   UNL     1     -14.158  68.881  -2.194  1.00  0.00     0.053 C 
BRANCH  17  18
ATOM     18  C   UNL     1     -12.758  68.902  -1.665  1.00  0.00     0.041 C 
ATOM     19  O   UNL     1     -12.275  69.965  -1.191  1.00  0.00    -0.550 OA
ATOM     20  O   UNL     1     -11.968  67.761  -1.741  1.00  0.00    -0.550 OA
ENDBRANCH  17  18
ENDBRANCH  16  17
ENDBRANCH  15  16
ENDBRANCH  14  15
ENDBRANCH  13  14
ENDBRANCH  12  13
ENDBRANCH  11  12
ENDBRANCH   1  11
TORSDOF 15
ENDMDL
MODEL 9
REMARK VINA RESULT:     8.200      5.446      8.533
REMARK INTER + INTRA:          14.685
REMARK INTER:                  15.551
REMARK INTRA:                  -0.867
REMARK UNBOUND:                -0.706
REMARK SMILES O=C([O-])CCCCCCCCCCCCCCC(=O)[O-]
REMARK SMILES IDX 10 1 9 2 8 3 7 4 6 5 5 6 4 7 2 8 1 9 3 10 11 11 12 12 13 13
REMARK SMILES IDX 14 14 15 15 16 16 17 17 18 18 19 19 20 20
REMARK H PARENT
REMARK Flexibility Score: inf
ROOT
ATOM      1  C   UNL     1     -18.322  64.437  -0.384  1.00  0.00     0.000 C 
ENDROOT
BRANCH   1   2
ATOM      2  C   UNL     1     -17.925  65.780  -1.022  1.00  0.00     0.000 C 
BRANCH   2   3
ATOM      3  C   UNL     1     -16.403  65.926  -1.193  1.00  0.00     0.000 C 
BRANCH   3   4
ATOM      4  C   UNL     1     -16.025  67.040  -2.184  1.00  0.00     0.000 C 
BRANCH   4   5
ATOM      5  C   UNL     1     -15.221  68.171  -1.523  1.00  0.00     0.000 C 
BRANCH   5   6
ATOM      6  C   UNL     1     -14.041  68.647  -2.391  1.00  0.00     0.006 C 
BRANCH   6   7
ATOM      7  C   UNL     1     -12.820  69.030  -1.545  1.00  0.00     0.053 C 
BRANCH   7   8
ATOM      8  C   UNL     1     -12.156  67.826  -0.950  1.00  0.00     0.041 C 
ATOM      9  O   UNL     1     -11.875  67.798   0.278  1.00  0.00    -0.550 OA
ATOM     10  O   UNL     1     -11.875  66.722  -1.744  1.00  0.00    -0.550 OA
ENDBRANCH   7   8
ENDBRANCH   6   7
ENDBRANCH   5   6
ENDBRANCH   4   5
ENDBRANCH   3   4
ENDBRANCH   2   3
ENDBRANCH   1   2
BRANCH   1  11
ATOM     11  C   UNL     1     -19.765  64.027  -0.721  1.00  0.00     0.000 C 
BRANCH  11  12
ATOM     12  C   UNL     1     -19.865  63.227  -2.029  1.00  0.00     0.000 C 
BRANCH  12  13
ATOM     13  C   UNL     1     -19.421  61.775  -1.819  1.00  0.00     0.000 C 
BRANCH  13  14
ATOM     14  C   UNL     1     -18.112  61.485  -2.569  1.00  0.00     0.000 C 
BRANCH  14  15
ATOM     15  C   UNL     1     -16.865  61.756  -1.712  1.00  0.00     0.000 C 
BRANCH  15  16
ATOM     16  C   UNL     1     -15.557  61.486  -2.469  1.00  0.00     0.006 C 
BRANCH  16  17
ATOM     17  C   UNL     1     -14.671  60.502  -1.699  1.00  0.00     0.053 C 
BRANCH  17  18
ATOM     18  C   UNL     1     -13.242  60.948  -1.730  1.00  0.00     0.041 C 
ATOM     19  O   UNL     1     -12.880  61.860  -2.519  1.00  0.00    -0.550 OA
ATOM     20  O   UNL     1     -12.301  60.323  -0.922  1.00  0.00    -0.550 OA
ENDBRANCH  17  18
ENDBRANCH  16  17
ENDBRANCH  15  16
ENDBRANCH  14  15
ENDBRANCH  13  14
ENDBRANCH  12  13
ENDBRANCH  11  12
ENDBRANCH   1  11
TORSDOF 15
ENDMDL
