MODEL 1
REMARK VINA RESULT:    -2.145      0.000      0.000
REMARK INTER + INTRA:          -5.055
REMARK INTER:                  -4.026
REMARK INTRA:                  -1.028
REMARK UNBOUND:                -1.028
REMARK SMILES O=C([O-])CCCCCCCCCCCCCCC(=O)[O-]
REMARK SMILES IDX 10 1 9 2 8 3 7 4 6 5 5 6 4 7 2 8 1 9 3 10 11 11 12 12 13 13
REMARK SMILES IDX 14 14 15 15 16 16 17 17 18 18 19 19 20 20
REMARK H PARENT
REMARK Flexibility Score: inf
ROOT
ATOM      1  C   UNL     1     -23.689   1.840 -33.761  1.00  0.00     0.000 C 
ENDROOT
BRANCH   1   2
ATOM      2  C   UNL     1     -24.435   2.240 -32.477  1.00  0.00     0.000 C 
BRANCH   2   3
ATOM      3  C   UNL     1     -25.269   3.523 -32.651  1.00  0.00     0.000 C 
BRANCH   3   4
ATOM      4  C   UNL     1     -26.314   3.403 -33.771  1.00  0.00     0.000 C 
BRANCH   4   5
ATOM      5  C   UNL     1     -26.932   4.761 -34.149  1.00  0.00     0.000 C 
BRANCH   5   6
ATOM      6  C   UNL     1     -27.320   4.840 -35.635  1.00  0.00     0.006 C 
BRANCH   6   7
ATOM      7  C   UNL     1     -26.102   4.840 -36.567  1.00  0.00     0.053 C 
BRANCH   7   8
ATOM      8  C   UNL     1     -26.539   4.885 -37.997  1.00  0.00     0.041 C 
ATOM      9  O   UNL     1     -27.756   4.752 -38.292  1.00  0.00    -0.550 OA
ATOM     10  O   UNL     1     -25.608   5.123 -39.001  1.00  0.00    -0.550 OA
ENDBRANCH   7   8
ENDBRANCH   6   7
ENDBRANCH   5   6
ENDBRANCH   4   5
ENDBRANCH   3   4
ENDBRANCH   2   3
ENDBRANCH   1   2
BRANCH   1  11
ATOM     11  C   UNL     1     -22.498   2.766 -34.062  1.00  0.00     0.000 C 
BRANCH  11  12
ATOM     12  C   UNL     1     -22.920   4.049 -34.796  1.00  0.00     0.000 C 
BRANCH  12  13
ATOM     13  C   UNL     1     -22.540   4.031 -36.288  1.00  0.00     0.000 C 
BRANCH  13  14
ATOM     14  C   UNL     1     -22.148   2.628 -36.783  1.00  0.00     0.000 C 
BRANCH  14  15
ATOM     15  C   UNL     1     -23.273   1.951 -37.586  1.00  0.00     0.000 C 
BRANCH  15  16
ATOM     16  C   UNL     1     -22.764   1.290 -38.881  1.00  0.00     0.006 C 
BRANCH  16  17
ATOM     17  C   UNL     1     -23.304  -0.128 -39.123  1.00  0.00     0.053 C 
BRANCH  17  18
ATOM     18  C   UNL     1     -22.487  -1.168 -38.418  1.00  0.00     0.041 C 
ATOM     19  O   UNL     1     -22.685  -2.390 -38.645  1.00  0.00    -0.550 OA
ATOM     20  O   UNL     1     -21.487  -0.785 -37.533  1.00  0.00    -0.550 OA
ENDBRANCH  17  18
ENDBRANCH  16  17
ENDBRANCH  15  16
ENDBRANCH  14  15
ENDBRANCH  13  14
ENDBRANCH  12  13
ENDBRANCH  11  12
ENDBRANCH   1  11
TORSDOF 15
ENDMDL
MODEL 2
REMARK VINA RESULT:    -1.774      1.323      5.657
REMARK INTER + INTRA:          -4.358
REMARK INTER:                  -3.776
REMARK INTRA:                  -0.582
REMARK UNBOUND:                -1.028
REMARK SMILES O=C([O-])CCCCCCCCCCCCCCC(=O)[O-]
REMARK SMILES IDX 10 1 9 2 8 3 7 4 6 5 5 6 4 7 2 8 1 9 3 10 11 11 12 12 13 13
REMARK SMILES IDX 14 14 15 15 16 16 17 17 18 18 19 19 20 20
REMARK H PARENT
REMARK Flexibility Score: inf
ROOT
ATOM      1  C   UNL     1     -24.599   2.618 -32.988  1.00  0.00     0.000 C 
ENDROOT
BRANCH   1   2
ATOM      2  C   UNL     1     -24.063   3.721 -33.915  1.00  0.00     0.000 C 
BRANCH   2   3
ATOM      3  C   UNL     1     -22.800   3.289 -34.682  1.00  0.00     0.000 C 
BRANCH   3   4
ATOM      4  C   UNL     1     -22.673   1.762 -34.802  1.00  0.00     0.000 C 
BRANCH   4   5
ATOM      5  C   UNL     1     -22.209   1.316 -36.200  1.00  0.00     0.000 C 
BRANCH   5   6
ATOM      6  C   UNL     1     -23.189   1.738 -37.308  1.00  0.00     0.006 C 
BRANCH   6   7
ATOM      7  C   UNL     1     -22.805   1.179 -38.683  1.00  0.00     0.053 C 
BRANCH   7   8
ATOM      8  C   UNL     1     -22.739  -0.315 -38.639  1.00  0.00     0.041 C 
ATOM      9  O   UNL     1     -23.701  -1.006 -39.067  1.00  0.00    -0.550 OA
ATOM     10  O   UNL     1     -21.593  -0.947 -38.169  1.00  0.00    -0.550 OA
ENDBRANCH   7   8
ENDBRANCH   6   7
ENDBRANCH   5   6
ENDBRANCH   4   5
ENDBRANCH   3   4
ENDBRANCH   2   3
ENDBRANCH   1   2
BRANCH   1  11
ATOM     11  C   UNL     1     -26.073   2.278 -33.267  1.00  0.00     0.000 C 
BRANCH  11  12
ATOM     12  C   UNL     1     -26.951   3.532 -33.404  1.00  0.00     0.000 C 
BRANCH  12  13
ATOM     13  C   UNL     1     -28.382   3.207 -33.869  1.00  0.00     0.000 C 
BRANCH  13  14
ATOM     14  C   UNL     1     -28.789   3.990 -35.129  1.00  0.00     0.000 C 
BRANCH  14  15
ATOM     15  C   UNL     1     -27.805   5.125 -35.461  1.00  0.00     0.000 C 
BRANCH  15  16
ATOM     16  C   UNL     1     -26.847   4.764 -36.612  1.00  0.00     0.006 C 
BRANCH  16  17
ATOM     17  C   UNL     1     -25.376   5.124 -36.349  1.00  0.00     0.053 C 
BRANCH  17  18
ATOM     18  C   UNL     1     -24.521   4.911 -37.561  1.00  0.00     0.041 C 
ATOM     19  O   UNL     1     -25.046   4.843 -38.703  1.00  0.00    -0.550 OA
ATOM     20  O   UNL     1     -23.141   4.820 -37.430  1.00  0.00    -0.550 OA
ENDBRANCH  17  18
ENDBRANCH  16  17
ENDBRANCH  15  16
ENDBRANCH  14  15
ENDBRANCH  13  14
ENDBRANCH  12  13
ENDBRANCH  11  12
ENDBRANCH   1  11
TORSDOF 15
ENDMDL
MODEL 3
REMARK VINA RESULT:    -1.769      1.059      6.042
REMARK INTER + INTRA:          -4.349
REMARK INTER:                  -4.557
REMARK INTRA:                   0.208
REMARK UNBOUND:                -1.028
REMARK SMILES O=C([O-])CCCCCCCCCCCCCCC(=O)[O-]
REMARK SMILES IDX 10 1 9 2 8 3 7 4 6 5 5 6 4 7 2 8 1 9 3 10 11 11 12 12 13 13
REMARK SMILES IDX 14 14 15 15 16 16 17 17 18 18 19 19 20 20
REMARK H PARENT
REMARK Flexibility Score: inf
ROOT
ATOM      1  C   UNL     1     -23.128   1.643 -33.963  1.00  0.00     0.000 C 
ENDROOT
BRANCH   1   2
ATOM      2  C   UNL     1     -22.436   2.622 -34.926  1.00  0.00     0.000 C 
BRANCH   2   3
ATOM      3  C   UNL     1     -22.834   2.390 -36.394  1.00  0.00     0.000 C 
BRANCH   3   4
ATOM      4  C   UNL     1     -23.121   3.700 -37.145  1.00  0.00     0.000 C 
BRANCH   4   5
ATOM      5  C   UNL     1     -23.142   3.512 -38.673  1.00  0.00     0.000 C 
BRANCH   5   6
ATOM      6  C   UNL     1     -22.641   2.122 -39.103  1.00  0.00     0.006 C 
BRANCH   6   7
ATOM      7  C   UNL     1     -23.317   0.983 -38.329  1.00  0.00     0.053 C 
BRANCH   7   8
ATOM      8  C   UNL     1     -22.908  -0.342 -38.889  1.00  0.00     0.041 C 
ATOM      9  O   UNL     1     -21.692  -0.590 -39.108  1.00  0.00    -0.550 OA
ATOM     10  O   UNL     1     -23.863  -1.323 -39.123  1.00  0.00    -0.550 OA
ENDBRANCH   7   8
ENDBRANCH   6   7
ENDBRANCH   5   6
ENDBRANCH   4   5
ENDBRANCH   3   4
ENDBRANCH   2   3
ENDBRANCH   1   2
BRANCH   1  11
ATOM     11  C   UNL     1     -24.288   2.295 -33.191  1.00  0.00     0.000 C 
BRANCH  11  12
ATOM     12  C   UNL     1     -24.261   3.830 -33.274  1.00  0.00     0.000 C 
BRANCH  12  13
ATOM     13  C   UNL     1     -25.618   4.467 -32.921  1.00  0.00     0.000 C 
BRANCH  13  14
ATOM     14  C   UNL     1     -26.804   3.731 -33.568  1.00  0.00     0.000 C 
BRANCH  14  15
ATOM     15  C   UNL     1     -27.981   4.671 -33.881  1.00  0.00     0.000 C 
BRANCH  15  16
ATOM     16  C   UNL     1     -28.288   4.757 -35.388  1.00  0.00     0.006 C 
BRANCH  16  17
ATOM     17  C   UNL     1     -27.076   5.117 -36.262  1.00  0.00     0.053 C 
BRANCH  17  18
ATOM     18  C   UNL     1     -27.359   4.925 -37.721  1.00  0.00     0.041 C 
ATOM     19  O   UNL     1     -26.410   4.845 -38.545  1.00  0.00    -0.550 OA
ATOM     20  O   UNL     1     -28.669   4.802 -38.165  1.00  0.00    -0.550 OA
ENDBRANCH  17  18
ENDBRANCH  16  17
ENDBRANCH  15  16
ENDBRANCH  14  15
ENDBRANCH  13  14
ENDBRANCH  12  13
ENDBRANCH  11  12
ENDBRANCH   1  11
TORSDOF 15
ENDMDL
MODEL 4
REMARK VINA RESULT:    -1.533      1.655      2.361
REMARK INTER + INTRA:          -3.905
REMARK INTER:                  -2.679
REMARK INTRA:                  -1.225
REMARK UNBOUND:                -1.028
REMARK SMILES O=C([O-])CCCCCCCCCCCCCCC(=O)[O-]
REMARK SMILES IDX 10 1 9 2 8 3 7 4 6 5 5 6 4 7 2 8 1 9 3 10 11 11 12 12 13 13
REMARK SMILES IDX 14 14 15 15 16 16 17 17 18 18 19 19 20 20
REMARK H PARENT
REMARK Flexibility Score: inf
ROOT
ATOM      1  C   UNL     1     -24.945   2.388 -33.314  1.00  0.00     0.000 C 
ENDROOT
BRANCH   1   2
ATOM      2  C   UNL     1     -26.088   3.375 -33.025  1.00  0.00     0.000 C 
BRANCH   2   3
ATOM      3  C   UNL     1     -27.208   3.310 -34.080  1.00  0.00     0.000 C 
BRANCH   3   4
ATOM      4  C   UNL     1     -28.535   3.897 -33.572  1.00  0.00     0.000 C 
BRANCH   4   5
ATOM      5  C   UNL     1     -29.080   5.005 -34.490  1.00  0.00     0.000 C 
BRANCH   5   6
ATOM      6  C   UNL     1     -28.290   5.124 -35.804  1.00  0.00     0.006 C 
BRANCH   6   7
ATOM      7  C   UNL     1     -29.094   4.656 -37.024  1.00  0.00     0.053 C 
BRANCH   7   8
ATOM      8  C   UNL     1     -28.179   4.368 -38.172  1.00  0.00     0.041 C 
ATOM      9  O   UNL     1     -28.472   3.471 -39.006  1.00  0.00    -0.550 OA
ATOM     10  O   UNL     1     -27.027   5.125 -38.351  1.00  0.00    -0.550 OA
ENDBRANCH   7   8
ENDBRANCH   6   7
ENDBRANCH   5   6
ENDBRANCH   4   5
ENDBRANCH   3   4
ENDBRANCH   2   3
ENDBRANCH   1   2
BRANCH   1  11
ATOM     11  C   UNL     1     -23.559   2.995 -33.037  1.00  0.00     0.000 C 
BRANCH  11  12
ATOM     12  C   UNL     1     -22.662   3.011 -34.286  1.00  0.00     0.000 C 
BRANCH  12  13
ATOM     13  C   UNL     1     -22.744   4.340 -35.057  1.00  0.00     0.000 C 
BRANCH  13  14
ATOM     14  C   UNL     1     -24.009   4.445 -35.926  1.00  0.00     0.000 C 
BRANCH  14  15
ATOM     15  C   UNL     1     -23.735   5.098 -37.292  1.00  0.00     0.000 C 
BRANCH  15  16
ATOM     16  C   UNL     1     -23.626   4.068 -38.432  1.00  0.00     0.006 C 
BRANCH  16  17
ATOM     17  C   UNL     1     -22.471   3.067 -38.274  1.00  0.00     0.053 C 
BRANCH  17  18
ATOM     18  C   UNL     1     -22.963   1.658 -38.144  1.00  0.00     0.041 C 
ATOM     19  O   UNL     1     -22.812   0.844 -39.093  1.00  0.00    -0.550 OA
ATOM     20  O   UNL     1     -23.559   1.235 -36.963  1.00  0.00    -0.550 OA
ENDBRANCH  17  18
ENDBRANCH  16  17
ENDBRANCH  15  16
ENDBRANCH  14  15
ENDBRANCH  13  14
ENDBRANCH  12  13
ENDBRANCH  11  12
ENDBRANCH   1  11
TORSDOF 15
ENDMDL
MODEL 5
REMARK VINA RESULT:    -1.443      1.783      2.343
REMARK INTER + INTRA:          -3.736
REMARK INTER:                  -2.422
REMARK INTRA:                  -1.314
REMARK UNBOUND:                -1.028
REMARK SMILES O=C([O-])CCCCCCCCCCCCCCC(=O)[O-]
REMARK SMILES IDX 10 1 9 2 8 3 7 4 6 5 5 6 4 7 2 8 1 9 3 10 11 11 12 12 13 13
REMARK SMILES IDX 14 14 15 15 16 16 17 17 18 18 19 19 20 20
REMARK H PARENT
REMARK Flexibility Score: inf
ROOT
ATOM      1  C   UNL     1     -22.935   1.413 -34.575  1.00  0.00     0.000 C 
ENDROOT
BRANCH   1   2
ATOM      2  C   UNL     1     -23.494   1.667 -33.165  1.00  0.00     0.000 C 
BRANCH   2   3
ATOM      3  C   UNL     1     -23.509   3.161 -32.794  1.00  0.00     0.000 C 
BRANCH   3   4
ATOM      4  C   UNL     1     -24.914   3.778 -32.881  1.00  0.00     0.000 C 
BRANCH   4   5
ATOM      5  C   UNL     1     -24.944   5.058 -33.735  1.00  0.00     0.000 C 
BRANCH   5   6
ATOM      6  C   UNL     1     -26.160   5.111 -34.675  1.00  0.00     0.006 C 
BRANCH   6   7
ATOM      7  C   UNL     1     -27.025   3.848 -34.597  1.00  0.00     0.053 C 
BRANCH   7   8
ATOM      8  C   UNL     1     -28.471   4.195 -34.761  1.00  0.00     0.041 C 
ATOM      9  O   UNL     1     -29.124   4.665 -33.792  1.00  0.00    -0.550 OA
ATOM     10  O   UNL     1     -29.086   4.047 -35.999  1.00  0.00    -0.550 OA
ENDBRANCH   7   8
ENDBRANCH   6   7
ENDBRANCH   5   6
ENDBRANCH   4   5
ENDBRANCH   3   4
ENDBRANCH   2   3
ENDBRANCH   1   2
BRANCH   1  11
ATOM     11  C   UNL     1     -23.298   2.535 -35.563  1.00  0.00     0.000 C 
BRANCH  11  12
ATOM     12  C   UNL     1     -22.056   3.205 -36.175  1.00  0.00     0.000 C 
BRANCH  12  13
ATOM     13  C   UNL     1     -22.391   4.516 -36.909  1.00  0.00     0.000 C 
BRANCH  13  14
ATOM     14  C   UNL     1     -23.559   4.360 -37.898  1.00  0.00     0.000 C 
BRANCH  14  15
ATOM     15  C   UNL     1     -23.183   3.512 -39.125  1.00  0.00     0.000 C 
BRANCH  15  16
ATOM     16  C   UNL     1     -23.547   2.025 -38.953  1.00  0.00     0.006 C 
BRANCH  16  17
ATOM     17  C   UNL     1     -22.363   1.059 -39.125  1.00  0.00     0.053 C 
BRANCH  17  18
ATOM     18  C   UNL     1     -22.779  -0.372 -38.971  1.00  0.00     0.041 C 
ATOM     19  O   UNL     1     -23.996  -0.690 -39.046  1.00  0.00    -0.550 OA
ATOM     20  O   UNL     1     -21.821  -1.358 -38.777  1.00  0.00    -0.550 OA
ENDBRANCH  17  18
ENDBRANCH  16  17
ENDBRANCH  15  16
ENDBRANCH  14  15
ENDBRANCH  13  14
ENDBRANCH  12  13
ENDBRANCH  11  12
ENDBRANCH   1  11
TORSDOF 15
ENDMDL
MODEL 6
REMARK VINA RESULT:    -1.442      2.054      6.260
REMARK INTER + INTRA:          -3.734
REMARK INTER:                  -2.962
REMARK INTRA:                  -0.772
REMARK UNBOUND:                -1.028
REMARK SMILES O=C([O-])CCCCCCCCCCCCCCC(=O)[O-]
REMARK SMILES IDX 10 1 9 2 8 3 7 4 6 5 5 6 4 7 2 8 1 9 3 10 11 11 12 12 13 13
REMARK SMILES IDX 14 14 15 15 16 16 17 17 18 18 19 19 20 20
REMARK H PARENT
REMARK Flexibility Score: inf
ROOT
ATOM      1  C   UNL     1     -23.635   1.996 -34.011  1.00  0.00     0.000 C 
ENDROOT
BRANCH   1   2
ATOM      2  C   UNL     1     -22.514   3.019 -34.255  1.00  0.00     0.000 C 
BRANCH   2   3
ATOM      3  C   UNL     1     -22.430   3.467 -35.725  1.00  0.00     0.000 C 
BRANCH   3   4
ATOM      4  C   UNL     1     -22.884   2.374 -36.705  1.00  0.00     0.000 C 
BRANCH   4   5
ATOM      5  C   UNL     1     -22.305   2.570 -38.117  1.00  0.00     0.000 C 
BRANCH   5   6
ATOM      6  C   UNL     1     -22.791   1.498 -39.108  1.00  0.00     0.006 C 
BRANCH   6   7
ATOM      7  C   UNL     1     -23.586   0.378 -38.426  1.00  0.00     0.053 C 
BRANCH   7   8
ATOM      8  C   UNL     1     -23.003  -0.957 -38.765  1.00  0.00     0.041 C 
ATOM      9  O   UNL     1     -21.760  -1.144 -38.685  1.00  0.00    -0.550 OA
ATOM     10  O   UNL     1     -23.836  -2.010 -39.121  1.00  0.00    -0.550 OA
ENDBRANCH   7   8
ENDBRANCH   6   7
ENDBRANCH   5   6
ENDBRANCH   4   5
ENDBRANCH   3   4
ENDBRANCH   2   3
ENDBRANCH   1   2
BRANCH   1  11
ATOM     11  C   UNL     1     -24.972   2.662 -33.644  1.00  0.00     0.000 C 
BRANCH  11  12
ATOM     12  C   UNL     1     -24.850   4.188 -33.499  1.00  0.00     0.000 C 
BRANCH  12  13
ATOM     13  C   UNL     1     -25.878   4.949 -34.356  1.00  0.00     0.000 C 
BRANCH  13  14
ATOM     14  C   UNL     1     -25.480   5.015 -35.840  1.00  0.00     0.000 C 
BRANCH  14  15
ATOM     15  C   UNL     1     -26.622   4.581 -36.776  1.00  0.00     0.000 C 
BRANCH  15  16
ATOM     16  C   UNL     1     -27.996   5.107 -36.322  1.00  0.00     0.006 C 
BRANCH  16  17
ATOM     17  C   UNL     1     -28.919   4.033 -35.724  1.00  0.00     0.053 C 
BRANCH  17  18
ATOM     18  C   UNL     1     -28.765   3.922 -34.238  1.00  0.00     0.041 C 
ATOM     19  O   UNL     1     -29.084   4.887 -33.494  1.00  0.00    -0.550 OA
ATOM     20  O   UNL     1     -28.298   2.742 -33.674  1.00  0.00    -0.550 OA
ENDBRANCH  17  18
ENDBRANCH  16  17
ENDBRANCH  15  16
ENDBRANCH  14  15
ENDBRANCH  13  14
ENDBRANCH  12  13
ENDBRANCH  11  12
ENDBRANCH   1  11
TORSDOF 15
ENDMDL
MODEL 7
REMARK VINA RESULT:     0.444      2.779      3.628
REMARK INTER + INTRA:          -0.194
REMARK INTER:                  -1.353
REMARK INTRA:                   1.158
REMARK UNBOUND:                -1.028
REMARK SMILES O=C([O-])CCCCCCCCCCCCCCC(=O)[O-]
REMARK SMILES IDX 10 1 9 2 8 3 7 4 6 5 5 6 4 7 2 8 1 9 3 10 11 11 12 12 13 13
REMARK SMILES IDX 14 14 15 15 16 16 17 17 18 18 19 19 20 20
REMARK H PARENT
REMARK Flexibility Score: inf
ROOT
ATOM      1  C   UNL     1     -23.677   1.303 -32.890  1.00  0.00     0.000 C 
ENDROOT
BRANCH   1   2
ATOM      2  C   UNL     1     -24.271   2.701 -32.652  1.00  0.00     0.000 C 
BRANCH   2   3
ATOM      3  C   UNL     1     -23.914   3.695 -33.771  1.00  0.00     0.000 C 
BRANCH   3   4
ATOM      4  C   UNL     1     -24.579   5.068 -33.579  1.00  0.00     0.000 C 
BRANCH   4   5
ATOM      5  C   UNL     1     -25.689   5.041 -32.513  1.00  0.00     0.000 C 
BRANCH   5   6
ATOM      6  C   UNL     1     -27.098   5.110 -33.127  1.00  0.00     0.006 C 
BRANCH   6   7
ATOM      7  C   UNL     1     -27.118   4.715 -34.609  1.00  0.00     0.053 C 
BRANCH   7   8
ATOM      8  C   UNL     1     -28.492   4.286 -35.015  1.00  0.00     0.041 C 
ATOM      9  O   UNL     1     -29.105   3.409 -34.351  1.00  0.00    -0.550 OA
ATOM     10  O   UNL     1     -29.118   4.891 -36.099  1.00  0.00    -0.550 OA
ENDBRANCH   7   8
ENDBRANCH   6   7
ENDBRANCH   5   6
ENDBRANCH   4   5
ENDBRANCH   3   4
ENDBRANCH   2   3
ENDBRANCH   1   2
BRANCH   1  11
ATOM     11  C   UNL     1     -22.593   1.301 -33.982  1.00  0.00     0.000 C 
BRANCH  11  12
ATOM     12  C   UNL     1     -22.932   2.241 -35.150  1.00  0.00     0.000 C 
BRANCH  12  13
ATOM     13  C   UNL     1     -22.369   1.744 -36.494  1.00  0.00     0.000 C 
BRANCH  13  14
ATOM     14  C   UNL     1     -23.382   1.872 -37.644  1.00  0.00     0.000 C 
BRANCH  14  15
ATOM     15  C   UNL     1     -22.708   2.195 -38.989  1.00  0.00     0.000 C 
BRANCH  15  16
ATOM     16  C   UNL     1     -22.319   3.680 -39.118  1.00  0.00     0.006 C 
BRANCH  16  17
ATOM     17  C   UNL     1     -23.496   4.658 -38.973  1.00  0.00     0.053 C 
BRANCH  17  18
ATOM     18  C   UNL     1     -23.816   4.943 -37.538  1.00  0.00     0.041 C 
ATOM     19  O   UNL     1     -25.014   4.991 -37.153  1.00  0.00    -0.550 OA
ATOM     20  O   UNL     1     -22.790   5.125 -36.619  1.00  0.00    -0.550 OA
ENDBRANCH  17  18
ENDBRANCH  16  17
ENDBRANCH  15  16
ENDBRANCH  14  15
ENDBRANCH  13  14
ENDBRANCH  12  13
ENDBRANCH  11  12
ENDBRANCH   1  11
TORSDOF 15
ENDMDL
