MODEL 1
REMARK VINA RESULT:    -3.720      0.000      0.000
REMARK INTER + INTRA:          -4.621
REMARK INTER:                  -4.481
REMARK INTRA:                  -0.139
REMARK UNBOUND:                -0.139
REMARK SMILES CC[C@@H](C)[C@@H]([NH3+])C(=O)[O-]
REMARK SMILES IDX 3 1 4 2 5 3 6 4 7 8 8 9 9 10 2 11 1 12
REMARK H PARENT 6 5 6 6 6 7
REMARK Flexibility Score: inf
ROOT
ATOM      1  C   UNL     1     111.925 108.813 121.992  1.00  0.00     0.050 C 
ATOM      2  C   UNL     1     111.673 110.038 121.096  1.00  0.00     0.014 C 
ENDROOT
BRANCH   1   3
ATOM      3  C   UNL     1     110.705 108.564 122.942  1.00  0.00     0.230 C 
BRANCH   3   4
ATOM      4  N   UNL     1     109.414 108.611 122.238  1.00  0.00    -0.350 N 
ATOM      5  H   UNL     1     109.581 108.687 121.208  1.00  0.00     0.345 HD
ATOM      6  H   UNL     1     108.873 107.734 122.407  1.00  0.00     0.345 HD
ATOM      7  H   UNL     1     108.844 109.433 122.543  1.00  0.00     0.345 HD
ENDBRANCH   3   4
BRANCH   3   8
ATOM      8  C   UNL     1     110.853 107.282 123.729  1.00  0.00     0.099 C 
ATOM      9  O   UNL     1     110.085 106.310 123.495  1.00  0.00    -0.544 OA
ATOM     10  O   UNL     1     111.848 107.142 124.690  1.00  0.00    -0.544 OA
ENDBRANCH   3   8
ENDBRANCH   1   3
BRANCH   1  11
ATOM     11  C   UNL     1     112.332 107.606 121.107  1.00  0.00     0.006 C 
ATOM     12  C   UNL     1     113.730 107.069 121.407  1.00  0.00     0.004 C 
ENDBRANCH   1  11
TORSDOF 4
ENDMDL
MODEL 2
REMARK VINA RESULT:    -3.642      0.962      1.623
REMARK INTER + INTRA:          -4.527
REMARK INTER:                  -4.448
REMARK INTRA:                  -0.080
REMARK UNBOUND:                -0.139
REMARK SMILES CC[C@@H](C)[C@@H]([NH3+])C(=O)[O-]
REMARK SMILES IDX 3 1 4 2 5 3 6 4 7 8 8 9 9 10 2 11 1 12
REMARK H PARENT 6 5 6 6 6 7
REMARK Flexibility Score: inf
ROOT
ATOM      1  C   UNL     1     111.870 108.367 121.799  1.00  0.00     0.050 C 
ATOM      2  C   UNL     1     113.181 108.019 122.525  1.00  0.00     0.014 C 
ENDROOT
BRANCH   1   3
ATOM      3  C   UNL     1     110.686 108.475 122.819  1.00  0.00     0.230 C 
BRANCH   3   4
ATOM      4  N   UNL     1     109.394 108.746 122.168  1.00  0.00    -0.350 N 
ATOM      5  H   UNL     1     108.834 109.399 122.763  1.00  0.00     0.345 HD
ATOM      6  H   UNL     1     109.540 109.208 121.243  1.00  0.00     0.345 HD
ATOM      7  H   UNL     1     108.845 107.867 122.033  1.00  0.00     0.345 HD
ENDBRANCH   3   4
BRANCH   3   8
ATOM      8  C   UNL     1     110.602 107.263 123.719  1.00  0.00     0.099 C 
ATOM      9  O   UNL     1     110.263 106.148 123.239  1.00  0.00    -0.544 OA
ATOM     10  O   UNL     1     110.925 107.349 125.068  1.00  0.00    -0.544 OA
ENDBRANCH   3   8
ENDBRANCH   1   3
BRANCH   1  11
ATOM     11  C   UNL     1     112.093 109.619 120.909  1.00  0.00     0.006 C 
ATOM     12  C   UNL     1     112.659 109.296 119.527  1.00  0.00     0.004 C 
ENDBRANCH   1  11
TORSDOF 4
ENDMDL
MODEL 3
REMARK VINA RESULT:    -3.600      1.442      2.089
REMARK INTER + INTRA:          -4.476
REMARK INTER:                  -4.437
REMARK INTRA:                  -0.038
REMARK UNBOUND:                -0.139
REMARK SMILES CC[C@@H](C)[C@@H]([NH3+])C(=O)[O-]
REMARK SMILES IDX 3 1 4 2 5 3 6 4 7 8 8 9 9 10 2 11 1 12
REMARK H PARENT 6 5 6 6 6 7
REMARK Flexibility Score: inf
ROOT
ATOM      1  C   UNL     1     111.579 107.354 121.643  1.00  0.00     0.050 C 
ATOM      2  C   UNL     1     110.790 106.086 122.011  1.00  0.00     0.014 C 
ENDROOT
BRANCH   1   3
ATOM      3  C   UNL     1     110.894 108.626 122.249  1.00  0.00     0.230 C 
BRANCH   3   4
ATOM      4  N   UNL     1     109.425 108.565 122.193  1.00  0.00    -0.350 N 
ATOM      5  H   UNL     1     109.125 107.587 121.972  1.00  0.00     0.345 HD
ATOM      6  H   UNL     1     109.013 108.821 123.117  1.00  0.00     0.345 HD
ATOM      7  H   UNL     1     109.046 109.202 121.456  1.00  0.00     0.345 HD
ENDBRANCH   3   4
BRANCH   3   8
ATOM      8  C   UNL     1     111.376 108.914 123.652  1.00  0.00     0.099 C 
ATOM      9  O   UNL     1     110.926 108.244 124.620  1.00  0.00    -0.544 OA
ATOM     10  O   UNL     1     112.338 109.889 123.894  1.00  0.00    -0.544 OA
ENDBRANCH   3   8
ENDBRANCH   1   3
BRANCH   1  11
ATOM     11  C   UNL     1     113.070 107.160 122.025  1.00  0.00     0.006 C 
ATOM     12  C   UNL     1     113.945 106.690 120.863  1.00  0.00     0.004 C 
ENDBRANCH   1  11
TORSDOF 4
ENDMDL
MODEL 4
REMARK VINA RESULT:    -3.559      2.053      2.439
REMARK INTER + INTRA:          -4.427
REMARK INTER:                  -4.339
REMARK INTRA:                  -0.088
REMARK UNBOUND:                -0.139
REMARK SMILES CC[C@@H](C)[C@@H]([NH3+])C(=O)[O-]
REMARK SMILES IDX 3 1 4 2 5 3 6 4 7 8 8 9 9 10 2 11 1 12
REMARK H PARENT 6 5 6 6 6 7
REMARK Flexibility Score: inf
ROOT
ATOM      1  C   UNL     1     111.229 107.964 124.044  1.00  0.00     0.050 C 
ATOM      2  C   UNL     1     111.773 109.333 123.601  1.00  0.00     0.014 C 
ENDROOT
BRANCH   1   3
ATOM      3  C   UNL     1     110.272 107.371 122.955  1.00  0.00     0.230 C 
BRANCH   3   4
ATOM      4  N   UNL     1     109.537 108.409 122.215  1.00  0.00    -0.350 N 
ATOM      5  H   UNL     1     109.916 109.351 122.467  1.00  0.00     0.345 HD
ATOM      6  H   UNL     1     109.661 108.283 121.186  1.00  0.00     0.345 HD
ATOM      7  H   UNL     1     108.517 108.389 122.445  1.00  0.00     0.345 HD
ENDBRANCH   3   4
BRANCH   3   8
ATOM      8  C   UNL     1     110.997 106.438 122.012  1.00  0.00     0.099 C 
ATOM      9  O   UNL     1     110.868 105.191 122.141  1.00  0.00    -0.544 OA
ATOM     10  O   UNL     1     111.785 106.933 120.979  1.00  0.00    -0.544 OA
ENDBRANCH   3   8
ENDBRANCH   1   3
BRANCH   1  11
ATOM     11  C   UNL     1     112.413 107.049 124.453  1.00  0.00     0.006 C 
ATOM     12  C   UNL     1     113.776 107.569 123.999  1.00  0.00     0.004 C 
ENDBRANCH   1  11
TORSDOF 4
ENDMDL
MODEL 5
REMARK VINA RESULT:    -3.452      2.232      3.077
REMARK INTER + INTRA:          -4.298
REMARK INTER:                  -4.274
REMARK INTRA:                  -0.023
REMARK UNBOUND:                -0.139
REMARK SMILES CC[C@@H](C)[C@@H]([NH3+])C(=O)[O-]
REMARK SMILES IDX 3 1 4 2 5 3 6 4 7 8 8 9 9 10 2 11 1 12
REMARK H PARENT 6 5 6 6 6 7
REMARK Flexibility Score: inf
ROOT
ATOM      1  C   UNL     1     111.307 107.028 123.129  1.00  0.00     0.050 C 
ATOM      2  C   UNL     1     110.860 107.378 124.559  1.00  0.00     0.014 C 
ENDROOT
BRANCH   1   3
ATOM      3  C   UNL     1     110.870 108.147 122.124  1.00  0.00     0.230 C 
BRANCH   3   4
ATOM      4  N   UNL     1     109.478 108.581 122.324  1.00  0.00    -0.350 N 
ATOM      5  H   UNL     1     108.830 107.883 121.889  1.00  0.00     0.345 HD
ATOM      6  H   UNL     1     109.252 108.629 123.342  1.00  0.00     0.345 HD
ATOM      7  H   UNL     1     109.304 109.513 121.886  1.00  0.00     0.345 HD
ENDBRANCH   3   4
BRANCH   3   8
ATOM      8  C   UNL     1     111.818 109.325 122.141  1.00  0.00     0.099 C 
ATOM      9  O   UNL     1     111.775 110.151 123.091  1.00  0.00    -0.544 OA
ATOM     10  O   UNL     1     112.764 109.496 121.137  1.00  0.00    -0.544 OA
ENDBRANCH   3   8
ENDBRANCH   1   3
BRANCH   1  11
ATOM     11  C   UNL     1     112.823 106.697 123.133  1.00  0.00     0.006 C 
ATOM     12  C   UNL     1     113.407 106.509 124.532  1.00  0.00     0.004 C 
ENDBRANCH   1  11
TORSDOF 4
ENDMDL
MODEL 6
REMARK VINA RESULT:    -3.412      2.431      3.457
REMARK INTER + INTRA:          -4.250
REMARK INTER:                  -4.169
REMARK INTRA:                  -0.081
REMARK UNBOUND:                -0.139
REMARK SMILES CC[C@@H](C)[C@@H]([NH3+])C(=O)[O-]
REMARK SMILES IDX 3 1 4 2 5 3 6 4 7 8 8 9 9 10 2 11 1 12
REMARK H PARENT 6 5 6 6 6 7
REMARK Flexibility Score: inf
ROOT
ATOM      1  C   UNL     1     114.126 106.872 120.310  1.00  0.00     0.050 C 
ATOM      2  C   UNL     1     114.311 106.173 118.952  1.00  0.00     0.014 C 
ENDROOT
BRANCH   1   3
ATOM      3  C   UNL     1     112.627 106.815 120.761  1.00  0.00     0.230 C 
BRANCH   3   4
ATOM      4  N   UNL     1     111.976 105.540 120.419  1.00  0.00    -0.350 N 
ATOM      5  H   UNL     1     112.381 105.170 119.528  1.00  0.00     0.345 HD
ATOM      6  H   UNL     1     112.150 104.829 121.164  1.00  0.00     0.345 HD
ATOM      7  H   UNL     1     110.946 105.662 120.290  1.00  0.00     0.345 HD
ENDBRANCH   3   4
BRANCH   3   8
ATOM      8  C   UNL     1     112.466 107.134 122.230  1.00  0.00     0.099 C 
ATOM      9  O   UNL     1     112.642 108.314 122.638  1.00  0.00    -0.544 OA
ATOM     10  O   UNL     1     112.092 106.152 123.140  1.00  0.00    -0.544 OA
ENDBRANCH   3   8
ENDBRANCH   1   3
BRANCH   1  11
ATOM     11  C   UNL     1     115.146 106.295 121.327  1.00  0.00     0.006 C 
ATOM     12  C   UNL     1     116.331 105.586 120.673  1.00  0.00     0.004 C 
ENDBRANCH   1  11
TORSDOF 4
ENDMDL
MODEL 7
REMARK VINA RESULT:    -3.398      2.222      2.844
REMARK INTER + INTRA:          -4.233
REMARK INTER:                  -4.139
REMARK INTRA:                  -0.093
REMARK UNBOUND:                -0.139
REMARK SMILES CC[C@@H](C)[C@@H]([NH3+])C(=O)[O-]
REMARK SMILES IDX 3 1 4 2 5 3 6 4 7 8 8 9 9 10 2 11 1 12
REMARK H PARENT 6 5 6 6 6 7
REMARK Flexibility Score: inf
ROOT
ATOM      1  C   UNL     1     113.844 107.027 121.373  1.00  0.00     0.050 C 
ATOM      2  C   UNL     1     114.074 108.544 121.260  1.00  0.00     0.014 C 
ENDROOT
BRANCH   1   3
ATOM      3  C   UNL     1     112.313 106.697 121.350  1.00  0.00     0.230 C 
BRANCH   3   4
ATOM      4  N   UNL     1     111.968 105.654 120.372  1.00  0.00    -0.350 N 
ATOM      5  H   UNL     1     110.966 105.376 120.497  1.00  0.00     0.345 HD
ATOM      6  H   UNL     1     112.076 106.015 119.398  1.00  0.00     0.345 HD
ATOM      7  H   UNL     1     112.565 104.805 120.495  1.00  0.00     0.345 HD
ENDBRANCH   3   4
BRANCH   3   8
ATOM      8  C   UNL     1     111.788 106.352 122.726  1.00  0.00     0.099 C 
ATOM      9  O   UNL     1     112.592 106.203 123.685  1.00  0.00    -0.544 OA
ATOM     10  O   UNL     1     110.423 106.228 122.961  1.00  0.00    -0.544 OA
ENDBRANCH   3   8
ENDBRANCH   1   3
BRANCH   1  11
ATOM     11  C   UNL     1     114.694 106.298 120.299  1.00  0.00     0.006 C 
ATOM     12  C   UNL     1     116.020 105.756 120.830  1.00  0.00     0.004 C 
ENDBRANCH   1  11
TORSDOF 4
ENDMDL
MODEL 8
REMARK VINA RESULT:    -3.375      3.432      4.150
REMARK INTER + INTRA:          -4.205
REMARK INTER:                  -4.102
REMARK INTRA:                  -0.104
REMARK UNBOUND:                -0.139
REMARK SMILES CC[C@@H](C)[C@@H]([NH3+])C(=O)[O-]
REMARK SMILES IDX 3 1 4 2 5 3 6 4 7 8 8 9 9 10 2 11 1 12
REMARK H PARENT 6 5 6 6 6 7
REMARK Flexibility Score: inf
ROOT
ATOM      1  C   UNL     1     112.598 107.167 123.779  1.00  0.00     0.050 C 
ATOM      2  C   UNL     1     111.300 107.362 124.581  1.00  0.00     0.014 C 
ENDROOT
BRANCH   1   3
ATOM      3  C   UNL     1     113.604 106.262 124.567  1.00  0.00     0.230 C 
BRANCH   3   4
ATOM      4  N   UNL     1     113.822 104.957 123.925  1.00  0.00    -0.350 N 
ATOM      5  H   UNL     1     114.691 104.995 123.342  1.00  0.00     0.345 HD
ATOM      6  H   UNL     1     113.957 104.212 124.645  1.00  0.00     0.345 HD
ATOM      7  H   UNL     1     113.020 104.698 123.307  1.00  0.00     0.345 HD
ENDBRANCH   3   4
BRANCH   3   8
ATOM      8  C   UNL     1     114.915 106.968 124.829  1.00  0.00     0.099 C 
ATOM      9  O   UNL     1     115.146 108.083 124.289  1.00  0.00    -0.544 OA
ATOM     10  O   UNL     1     115.864 106.422 125.686  1.00  0.00    -0.544 OA
ENDBRANCH   3   8
ENDBRANCH   1   3
BRANCH   1  11
ATOM     11  C   UNL     1     112.249 106.678 122.349  1.00  0.00     0.006 C 
ATOM     12  C   UNL     1     110.835 106.113 122.221  1.00  0.00     0.004 C 
ENDBRANCH   1  11
TORSDOF 4
ENDMDL
MODEL 9
REMARK VINA RESULT:    -3.285      2.494      3.081
REMARK INTER + INTRA:          -4.097
REMARK INTER:                  -4.009
REMARK INTRA:                  -0.088
REMARK UNBOUND:                -0.139
REMARK SMILES CC[C@@H](C)[C@@H]([NH3+])C(=O)[O-]
REMARK SMILES IDX 3 1 4 2 5 3 6 4 7 8 8 9 9 10 2 11 1 12
REMARK H PARENT 6 5 6 6 6 7
REMARK Flexibility Score: inf
ROOT
ATOM      1  C   UNL     1     113.667 106.991 122.737  1.00  0.00     0.050 C 
ATOM      2  C   UNL     1     112.841 106.794 121.454  1.00  0.00     0.014 C 
ENDROOT
BRANCH   1   3
ATOM      3  C   UNL     1     112.827 106.605 124.001  1.00  0.00     0.230 C 
BRANCH   3   4
ATOM      4  N   UNL     1     113.585 106.742 125.254  1.00  0.00    -0.350 N 
ATOM      5  H   UNL     1     114.337 107.460 125.130  1.00  0.00     0.345 HD
ATOM      6  H   UNL     1     112.962 107.067 126.026  1.00  0.00     0.345 HD
ATOM      7  H   UNL     1     114.032 105.838 125.528  1.00  0.00     0.345 HD
ENDBRANCH   3   4
BRANCH   3   8
ATOM      8  C   UNL     1     111.522 107.365 124.066  1.00  0.00     0.099 C 
ATOM      9  O   UNL     1     111.531 108.617 124.215  1.00  0.00    -0.544 OA
ATOM     10  O   UNL     1     110.303 106.708 123.932  1.00  0.00    -0.544 OA
ENDBRANCH   3   8
ENDBRANCH   1   3
BRANCH   1  11
ATOM     11  C   UNL     1     115.023 106.251 122.592  1.00  0.00     0.006 C 
ATOM     12  C   UNL     1     115.585 106.272 121.171  1.00  0.00     0.004 C 
ENDBRANCH   1  11
TORSDOF 4
ENDMDL
