MODEL 1
REMARK VINA RESULT:    -4.370      0.000      0.000
REMARK INTER + INTRA:          -6.321
REMARK INTER:                  -5.903
REMARK INTRA:                  -0.418
REMARK UNBOUND:                -0.418
REMARK SMILES [NH3+]CCCC[C@H]([NH3+])C(=O)[O-]
REMARK SMILES IDX 4 1 3 2 2 3 1 4 5 8 6 9 7 10 8 14 9 15 10 16
REMARK H PARENT 1 5 1 6 1 7 7 11 7 12 7 13
REMARK Flexibility Score: inf
ROOT
ATOM      1  C   UNL     1     -14.678 -31.622  -8.026  1.00  0.00     0.012 C 
ENDROOT
BRANCH   1   2
ATOM      2  C   UNL     1     -15.392 -32.346  -9.181  1.00  0.00     0.061 C 
BRANCH   2   3
ATOM      3  C   UNL     1     -14.647 -32.303 -10.530  1.00  0.00     0.258 C 
BRANCH   3   4
ATOM      4  N   UNL     1     -13.246 -32.709 -10.405  1.00  0.00    -0.358 N 
ATOM      5  H   UNL     1     -12.734 -32.524 -11.298  1.00  0.00     0.344 HD
ATOM      6  H   UNL     1     -13.180 -33.723 -10.158  1.00  0.00     0.344 HD
ATOM      7  H   UNL     1     -12.796 -32.148  -9.648  1.00  0.00     0.344 HD
ENDBRANCH   3   4
ENDBRANCH   2   3
ENDBRANCH   1   2
BRANCH   1   8
ATOM      8  C   UNL     1     -14.839 -32.346  -6.677  1.00  0.00     0.072 C 
BRANCH   8   9
ATOM      9  C   UNL     1     -13.484 -32.811  -6.100  1.00  0.00     0.227 C 
BRANCH   9  10
ATOM     10  N   UNL     1     -12.584 -31.666  -5.916  1.00  0.00    -0.350 N 
ATOM     11  H   UNL     1     -13.112 -30.773  -6.055  1.00  0.00     0.345 HD
ATOM     12  H   UNL     1     -11.793 -31.705  -6.600  1.00  0.00     0.345 HD
ATOM     13  H   UNL     1     -12.198 -31.669  -4.943  1.00  0.00     0.345 HD
ENDBRANCH   9  10
BRANCH   9  14
ATOM     14  C   UNL     1     -12.834 -33.834  -6.996  1.00  0.00     0.099 C 
ATOM     15  O   UNL     1     -13.199 -35.038  -6.950  1.00  0.00    -0.544 OA
ATOM     16  O   UNL     1     -11.831 -33.455  -7.880  1.00  0.00    -0.544 OA
ENDBRANCH   9  14
ENDBRANCH   8   9
ENDBRANCH   1   8
TORSDOF 7
ENDMDL
MODEL 2
REMARK VINA RESULT:    -4.346      2.119      2.600
REMARK INTER + INTRA:          -6.289
REMARK INTER:                  -5.782
REMARK INTRA:                  -0.506
REMARK UNBOUND:                -0.418
REMARK SMILES [NH3+]CCCC[C@H]([NH3+])C(=O)[O-]
REMARK SMILES IDX 4 1 3 2 2 3 1 4 5 8 6 9 7 10 8 14 9 15 10 16
REMARK H PARENT 1 5 1 6 1 7 7 11 7 12 7 13
REMARK Flexibility Score: inf
ROOT
ATOM      1  C   UNL     1     -11.443 -32.826  -8.447  1.00  0.00     0.012 C 
ENDROOT
BRANCH   1   2
ATOM      2  C   UNL     1     -12.054 -32.758  -9.858  1.00  0.00     0.061 C 
BRANCH   2   3
ATOM      3  C   UNL     1     -13.005 -33.919 -10.207  1.00  0.00     0.258 C 
BRANCH   3   4
ATOM      4  N   UNL     1     -14.410 -33.575  -9.983  1.00  0.00    -0.358 N 
ATOM      5  H   UNL     1     -14.829 -34.211  -9.266  1.00  0.00     0.344 HD
ATOM      6  H   UNL     1     -14.950 -33.637 -10.877  1.00  0.00     0.344 HD
ATOM      7  H   UNL     1     -14.467 -32.596  -9.623  1.00  0.00     0.344 HD
ENDBRANCH   3   4
ENDBRANCH   2   3
ENDBRANCH   1   2
BRANCH   1   8
ATOM      8  C   UNL     1     -11.920 -31.684  -7.532  1.00  0.00     0.072 C 
BRANCH   8   9
ATOM      9  C   UNL     1     -12.762 -32.201  -6.345  1.00  0.00     0.227 C 
BRANCH   9  10
ATOM     10  N   UNL     1     -12.018 -33.218  -5.592  1.00  0.00    -0.350 N 
ATOM     11  H   UNL     1     -12.680 -33.794  -5.023  1.00  0.00     0.345 HD
ATOM     12  H   UNL     1     -11.320 -32.768  -4.955  1.00  0.00     0.345 HD
ATOM     13  H   UNL     1     -11.517 -33.855  -6.255  1.00  0.00     0.345 HD
ENDBRANCH   9  10
BRANCH   9  14
ATOM     14  C   UNL     1     -14.074 -32.773  -6.818  1.00  0.00     0.099 C 
ATOM     15  O   UNL     1     -15.012 -32.005  -7.161  1.00  0.00    -0.544 OA
ATOM     16  O   UNL     1     -14.257 -34.149  -6.881  1.00  0.00    -0.544 OA
ENDBRANCH   9  14
ENDBRANCH   8   9
ENDBRANCH   1   8
TORSDOF 7
ENDMDL
MODEL 3
REMARK VINA RESULT:    -4.318      1.484      1.883
REMARK INTER + INTRA:          -6.251
REMARK INTER:                  -5.766
REMARK INTRA:                  -0.485
REMARK UNBOUND:                -0.418
REMARK SMILES [NH3+]CCCC[C@H]([NH3+])C(=O)[O-]
REMARK SMILES IDX 4 1 3 2 2 3 1 4 5 8 6 9 7 10 8 14 9 15 10 16
REMARK H PARENT 1 5 1 6 1 7 7 11 7 12 7 13
REMARK Flexibility Score: inf
ROOT
ATOM      1  C   UNL     1     -14.635 -32.333  -6.944  1.00  0.00     0.012 C 
ENDROOT
BRANCH   1   2
ATOM      2  C   UNL     1     -14.999 -31.590  -8.242  1.00  0.00     0.061 C 
BRANCH   2   3
ATOM      3  C   UNL     1     -15.373 -32.502  -9.426  1.00  0.00     0.258 C 
BRANCH   3   4
ATOM      4  N   UNL     1     -14.485 -32.314 -10.575  1.00  0.00    -0.358 N 
ATOM      5  H   UNL     1     -15.033 -32.000 -11.408  1.00  0.00     0.344 HD
ATOM      6  H   UNL     1     -13.977 -33.202 -10.794  1.00  0.00     0.344 HD
ATOM      7  H   UNL     1     -13.785 -31.573 -10.346  1.00  0.00     0.344 HD
ENDBRANCH   3   4
ENDBRANCH   2   3
ENDBRANCH   1   2
BRANCH   1   8
ATOM      8  C   UNL     1     -14.012 -33.716  -7.201  1.00  0.00     0.072 C 
BRANCH   8   9
ATOM      9  C   UNL     1     -12.476 -33.704  -7.036  1.00  0.00     0.227 C 
BRANCH   9  10
ATOM     10  N   UNL     1     -12.105 -33.142  -5.732  1.00  0.00    -0.350 N 
ATOM     11  H   UNL     1     -11.827 -32.140  -5.843  1.00  0.00     0.345 HD
ATOM     12  H   UNL     1     -11.308 -33.675  -5.313  1.00  0.00     0.345 HD
ATOM     13  H   UNL     1     -12.924 -33.182  -5.081  1.00  0.00     0.345 HD
ENDBRANCH   9  10
BRANCH   9  14
ATOM     14  C   UNL     1     -11.818 -32.916  -8.139  1.00  0.00     0.099 C 
ATOM     15  O   UNL     1     -11.199 -31.852  -7.874  1.00  0.00    -0.544 OA
ATOM     16  O   UNL     1     -11.888 -33.358  -9.455  1.00  0.00    -0.544 OA
ENDBRANCH   9  14
ENDBRANCH   8   9
ENDBRANCH   1   8
TORSDOF 7
ENDMDL
MODEL 4
REMARK VINA RESULT:    -4.292      2.162      2.493
REMARK INTER + INTRA:          -6.216
REMARK INTER:                  -5.707
REMARK INTRA:                  -0.509
REMARK UNBOUND:                -0.418
REMARK SMILES [NH3+]CCCC[C@H]([NH3+])C(=O)[O-]
REMARK SMILES IDX 4 1 3 2 2 3 1 4 5 8 6 9 7 10 8 14 9 15 10 16
REMARK H PARENT 1 5 1 6 1 7 7 11 7 12 7 13
REMARK Flexibility Score: inf
ROOT
ATOM      1  C   UNL     1     -14.242 -34.983  -7.876  1.00  0.00     0.012 C 
ENDROOT
BRANCH   1   2
ATOM      2  C   UNL     1     -13.865 -35.572  -9.246  1.00  0.00     0.061 C 
BRANCH   2   3
ATOM      3  C   UNL     1     -13.838 -34.553 -10.402  1.00  0.00     0.258 C 
BRANCH   3   4
ATOM      4  N   UNL     1     -12.474 -34.171 -10.776  1.00  0.00    -0.358 N 
ATOM      5  H   UNL     1     -11.787 -34.572 -10.097  1.00  0.00     0.344 HD
ATOM      6  H   UNL     1     -12.382 -33.130 -10.808  1.00  0.00     0.344 HD
ATOM      7  H   UNL     1     -12.261 -34.558 -11.723  1.00  0.00     0.344 HD
ENDBRANCH   3   4
ENDBRANCH   2   3
ENDBRANCH   1   2
BRANCH   1   8
ATOM      8  C   UNL     1     -13.084 -35.036  -6.863  1.00  0.00     0.072 C 
BRANCH   8   9
ATOM      9  C   UNL     1     -12.693 -33.632  -6.351  1.00  0.00     0.227 C 
BRANCH   9  10
ATOM     10  N   UNL     1     -13.770 -33.067  -5.529  1.00  0.00    -0.350 N 
ATOM     11  H   UNL     1     -13.546 -33.193  -4.515  1.00  0.00     0.345 HD
ATOM     12  H   UNL     1     -14.680 -33.538  -5.739  1.00  0.00     0.345 HD
ATOM     13  H   UNL     1     -13.861 -32.042  -5.718  1.00  0.00     0.345 HD
ENDBRANCH   9  10
BRANCH   9  14
ATOM     14  C   UNL     1     -12.381 -32.703  -7.496  1.00  0.00     0.099 C 
ATOM     15  O   UNL     1     -13.148 -31.738  -7.754  1.00  0.00    -0.544 OA
ATOM     16  O   UNL     1     -11.247 -32.905  -8.274  1.00  0.00    -0.544 OA
ENDBRANCH   9  14
ENDBRANCH   8   9
ENDBRANCH   1   8
TORSDOF 7
ENDMDL
MODEL 5
REMARK VINA RESULT:    -4.263      2.125      3.837
REMARK INTER + INTRA:          -6.176
REMARK INTER:                  -5.654
REMARK INTRA:                  -0.522
REMARK UNBOUND:                -0.418
REMARK SMILES [NH3+]CCCC[C@H]([NH3+])C(=O)[O-]
REMARK SMILES IDX 4 1 3 2 2 3 1 4 5 8 6 9 7 10 8 14 9 15 10 16
REMARK H PARENT 1 5 1 6 1 7 7 11 7 12 7 13
REMARK Flexibility Score: inf
ROOT
ATOM      1  C   UNL     1     -13.273 -34.642  -6.848  1.00  0.00     0.012 C 
ENDROOT
BRANCH   1   2
ATOM      2  C   UNL     1     -13.712 -33.243  -6.383  1.00  0.00     0.061 C 
BRANCH   2   3
ATOM      3  C   UNL     1     -12.590 -32.383  -5.771  1.00  0.00     0.258 C 
BRANCH   3   4
ATOM      4  N   UNL     1     -11.610 -31.952  -6.770  1.00  0.00    -0.358 N 
ATOM      5  H   UNL     1     -11.399 -32.734  -7.431  1.00  0.00     0.344 HD
ATOM      6  H   UNL     1     -10.730 -31.629  -6.305  1.00  0.00     0.344 HD
ATOM      7  H   UNL     1     -12.011 -31.160  -7.319  1.00  0.00     0.344 HD
ENDBRANCH   3   4
ENDBRANCH   2   3
ENDBRANCH   1   2
BRANCH   1   8
ATOM      8  C   UNL     1     -13.833 -35.016  -8.232  1.00  0.00     0.072 C 
BRANCH   8   9
ATOM      9  C   UNL     1     -13.993 -33.784  -9.149  1.00  0.00     0.227 C 
BRANCH   9  10
ATOM     10  N   UNL     1     -15.167 -33.938 -10.016  1.00  0.00    -0.350 N 
ATOM     11  H   UNL     1     -15.447 -34.945 -10.059  1.00  0.00     0.345 HD
ATOM     12  H   UNL     1     -14.958 -33.600 -10.984  1.00  0.00     0.345 HD
ATOM     13  H   UNL     1     -15.971 -33.393  -9.627  1.00  0.00     0.345 HD
ENDBRANCH   9  10
BRANCH   9  14
ATOM     14  C   UNL     1     -12.760 -33.568  -9.989  1.00  0.00     0.099 C 
ATOM     15  O   UNL     1     -12.508 -34.339 -10.953  1.00  0.00    -0.544 OA
ATOM     16  O   UNL     1     -11.894 -32.518  -9.708  1.00  0.00    -0.544 OA
ENDBRANCH   9  14
ENDBRANCH   8   9
ENDBRANCH   1   8
TORSDOF 7
ENDMDL
MODEL 6
REMARK VINA RESULT:    -4.248      1.969      3.683
REMARK INTER + INTRA:          -6.156
REMARK INTER:                  -5.621
REMARK INTRA:                  -0.535
REMARK UNBOUND:                -0.418
REMARK SMILES [NH3+]CCCC[C@H]([NH3+])C(=O)[O-]
REMARK SMILES IDX 4 1 3 2 2 3 1 4 5 8 6 9 7 10 8 14 9 15 10 16
REMARK H PARENT 1 5 1 6 1 7 7 11 7 12 7 13
REMARK Flexibility Score: inf
ROOT
ATOM      1  C   UNL     1     -14.636 -32.102  -7.113  1.00  0.00     0.012 C 
ENDROOT
BRANCH   1   2
ATOM      2  C   UNL     1     -13.113 -32.147  -6.896  1.00  0.00     0.061 C 
BRANCH   2   3
ATOM      3  C   UNL     1     -12.653 -33.041  -5.729  1.00  0.00     0.258 C 
BRANCH   3   4
ATOM      4  N   UNL     1     -13.004 -34.448  -5.932  1.00  0.00    -0.358 N 
ATOM      5  H   UNL     1     -12.267 -34.926  -6.499  1.00  0.00     0.344 HD
ATOM      6  H   UNL     1     -13.932 -34.528  -6.408  1.00  0.00     0.344 HD
ATOM      7  H   UNL     1     -13.060 -34.921  -5.002  1.00  0.00     0.344 HD
ENDBRANCH   3   4
ENDBRANCH   2   3
ENDBRANCH   1   2
BRANCH   1   8
ATOM      8  C   UNL     1     -15.037 -32.299  -8.586  1.00  0.00     0.072 C 
BRANCH   8   9
ATOM      9  C   UNL     1     -14.002 -33.141  -9.364  1.00  0.00     0.227 C 
BRANCH   9  10
ATOM     10  N   UNL     1     -13.867 -32.644 -10.739  1.00  0.00    -0.350 N 
ATOM     11  H   UNL     1     -13.204 -31.835 -10.761  1.00  0.00     0.345 HD
ATOM     12  H   UNL     1     -14.794 -32.337 -11.114  1.00  0.00     0.345 HD
ATOM     13  H   UNL     1     -13.480 -33.398 -11.353  1.00  0.00     0.345 HD
ENDBRANCH   9  10
BRANCH   9  14
ATOM     14  C   UNL     1     -14.389 -34.597  -9.382  1.00  0.00     0.099 C 
ATOM     15  O   UNL     1     -13.774 -35.424  -8.659  1.00  0.00    -0.544 OA
ATOM     16  O   UNL     1     -15.428 -35.037 -10.194  1.00  0.00    -0.544 OA
ENDBRANCH   9  14
ENDBRANCH   8   9
ENDBRANCH   1   8
TORSDOF 7
ENDMDL
MODEL 7
REMARK VINA RESULT:    -4.205      2.414      4.250
REMARK INTER + INTRA:          -6.099
REMARK INTER:                  -5.575
REMARK INTRA:                  -0.524
REMARK UNBOUND:                -0.418
REMARK SMILES [NH3+]CCCC[C@H]([NH3+])C(=O)[O-]
REMARK SMILES IDX 4 1 3 2 2 3 1 4 5 8 6 9 7 10 8 14 9 15 10 16
REMARK H PARENT 1 5 1 6 1 7 7 11 7 12 7 13
REMARK Flexibility Score: inf
ROOT
ATOM      1  C   UNL     1     -11.652 -32.378  -7.800  1.00  0.00     0.012 C 
ENDROOT
BRANCH   1   2
ATOM      2  C   UNL     1     -12.397 -33.344  -6.863  1.00  0.00     0.061 C 
BRANCH   2   3
ATOM      3  C   UNL     1     -13.182 -32.665  -5.724  1.00  0.00     0.258 C 
BRANCH   3   4
ATOM      4  N   UNL     1     -14.383 -31.980  -6.206  1.00  0.00    -0.358 N 
ATOM      5  H   UNL     1     -14.133 -31.044  -6.599  1.00  0.00     0.344 HD
ATOM      6  H   UNL     1     -15.077 -31.870  -5.431  1.00  0.00     0.344 HD
ATOM      7  H   UNL     1     -14.815 -32.549  -6.968  1.00  0.00     0.344 HD
ENDBRANCH   3   4
ENDBRANCH   2   3
ENDBRANCH   1   2
BRANCH   1   8
ATOM      8  C   UNL     1     -11.981 -32.611  -9.285  1.00  0.00     0.072 C 
BRANCH   8   9
ATOM      9  C   UNL     1     -13.254 -33.465  -9.473  1.00  0.00     0.227 C 
BRANCH   9  10
ATOM     10  N   UNL     1     -13.029 -34.506 -10.483  1.00  0.00    -0.350 N 
ATOM     11  H   UNL     1     -12.005 -34.705 -10.566  1.00  0.00     0.345 HD
ATOM     12  H   UNL     1     -13.396 -34.203 -11.415  1.00  0.00     0.345 HD
ATOM     13  H   UNL     1     -13.510 -35.391 -10.196  1.00  0.00     0.345 HD
ENDBRANCH   9  10
BRANCH   9  14
ATOM     14  C   UNL     1     -14.428 -32.609  -9.874  1.00  0.00     0.099 C 
ATOM     15  O   UNL     1     -14.497 -32.135 -11.038  1.00  0.00    -0.544 OA
ATOM     16  O   UNL     1     -15.442 -32.338  -8.962  1.00  0.00    -0.544 OA
ENDBRANCH   9  14
ENDBRANCH   8   9
ENDBRANCH   1   8
TORSDOF 7
ENDMDL
MODEL 8
REMARK VINA RESULT:    -4.202      1.791      2.228
REMARK INTER + INTRA:          -6.094
REMARK INTER:                  -5.549
REMARK INTRA:                  -0.544
REMARK UNBOUND:                -0.418
REMARK SMILES [NH3+]CCCC[C@H]([NH3+])C(=O)[O-]
REMARK SMILES IDX 4 1 3 2 2 3 1 4 5 8 6 9 7 10 8 14 9 15 10 16
REMARK H PARENT 1 5 1 6 1 7 7 11 7 12 7 13
REMARK Flexibility Score: inf
ROOT
ATOM      1  C   UNL     1     -12.014 -32.280  -7.862  1.00  0.00     0.012 C 
ENDROOT
BRANCH   1   2
ATOM      2  C   UNL     1     -11.483 -32.500  -9.289  1.00  0.00     0.061 C 
BRANCH   2   3
ATOM      3  C   UNL     1     -12.568 -32.781 -10.346  1.00  0.00     0.258 C 
BRANCH   3   4
ATOM      4  N   UNL     1     -12.621 -34.194 -10.729  1.00  0.00    -0.358 N 
ATOM      5  H   UNL     1     -13.348 -34.343 -11.465  1.00  0.00     0.344 HD
ATOM      6  H   UNL     1     -12.827 -34.791  -9.895  1.00  0.00     0.344 HD
ATOM      7  H   UNL     1     -11.695 -34.473 -11.123  1.00  0.00     0.344 HD
ENDBRANCH   3   4
ENDBRANCH   2   3
ENDBRANCH   1   2
BRANCH   1   8
ATOM      8  C   UNL     1     -13.547 -32.170  -7.803  1.00  0.00     0.072 C 
BRANCH   8   9
ATOM      9  C   UNL     1     -14.171 -33.209  -6.847  1.00  0.00     0.227 C 
BRANCH   9  10
ATOM     10  N   UNL     1     -13.647 -33.034  -5.487  1.00  0.00    -0.350 N 
ATOM     11  H   UNL     1     -12.802 -33.635  -5.352  1.00  0.00     0.345 HD
ATOM     12  H   UNL     1     -14.370 -33.296  -4.776  1.00  0.00     0.345 HD
ATOM     13  H   UNL     1     -13.366 -32.037  -5.340  1.00  0.00     0.345 HD
ENDBRANCH   9  10
BRANCH   9  14
ATOM     14  C   UNL     1     -13.903 -34.614  -7.322  1.00  0.00     0.099 C 
ATOM     15  O   UNL     1     -13.144 -35.372  -6.661  1.00  0.00    -0.544 OA
ATOM     16  O   UNL     1     -14.490 -35.083  -8.491  1.00  0.00    -0.544 OA
ENDBRANCH   9  14
ENDBRANCH   8   9
ENDBRANCH   1   8
TORSDOF 7
ENDMDL
MODEL 9
REMARK VINA RESULT:    -4.182      2.157      3.878
REMARK INTER + INTRA:          -6.067
REMARK INTER:                  -5.559
REMARK INTRA:                  -0.509
REMARK UNBOUND:                -0.418
REMARK SMILES [NH3+]CCCC[C@H]([NH3+])C(=O)[O-]
REMARK SMILES IDX 4 1 3 2 2 3 1 4 5 8 6 9 7 10 8 14 9 15 10 16
REMARK H PARENT 1 5 1 6 1 7 7 11 7 12 7 13
REMARK Flexibility Score: inf
ROOT
ATOM      1  C   UNL     1     -11.635 -32.775  -7.690  1.00  0.00     0.012 C 
ENDROOT
BRANCH   1   2
ATOM      2  C   UNL     1     -12.372 -32.004  -6.581  1.00  0.00     0.061 C 
BRANCH   2   3
ATOM      3  C   UNL     1     -13.651 -32.686  -6.059  1.00  0.00     0.258 C 
BRANCH   3   4
ATOM      4  N   UNL     1     -14.866 -31.980  -6.471  1.00  0.00    -0.358 N 
ATOM      5  H   UNL     1     -14.829 -31.761  -7.492  1.00  0.00     0.344 HD
ATOM      6  H   UNL     1     -14.982 -31.099  -5.920  1.00  0.00     0.344 HD
ATOM      7  H   UNL     1     -15.692 -32.596  -6.299  1.00  0.00     0.344 HD
ENDBRANCH   3   4
ENDBRANCH   2   3
ENDBRANCH   1   2
BRANCH   1   8
ATOM      8  C   UNL     1     -12.076 -32.356  -9.104  1.00  0.00     0.072 C 
BRANCH   8   9
ATOM      9  C   UNL     1     -12.586 -33.554  -9.934  1.00  0.00     0.227 C 
BRANCH   9  10
ATOM     10  N   UNL     1     -12.834 -33.147 -11.323  1.00  0.00    -0.350 N 
ATOM     11  H   UNL     1     -12.094 -32.476 -11.633  1.00  0.00     0.345 HD
ATOM     12  H   UNL     1     -13.771 -32.690 -11.412  1.00  0.00     0.345 HD
ATOM     13  H   UNL     1     -12.798 -33.984 -11.950  1.00  0.00     0.345 HD
ENDBRANCH   9  10
BRANCH   9  14
ATOM     14  C   UNL     1     -13.843 -34.132  -9.338  1.00  0.00     0.099 C 
ATOM     15  O   UNL     1     -13.840 -35.300  -8.865  1.00  0.00    -0.544 OA
ATOM     16  O   UNL     1     -15.013 -33.382  -9.304  1.00  0.00    -0.544 OA
ENDBRANCH   9  14
ENDBRANCH   8   9
ENDBRANCH   1   8
TORSDOF 7
ENDMDL
