MODEL 1
REMARK VINA RESULT:    -0.630      0.000      0.000
REMARK INTER + INTRA:          -1.418
REMARK INTER:                  -0.962
REMARK INTRA:                  -0.456
REMARK UNBOUND:                -0.456
REMARK SMILES CC(=O)CCC=C(C)CCC=C(C)CCC=C(C)C
REMARK SMILES IDX 10 1 11 2 12 3 13 4 14 5 15 6 16 7 18 8 17 9 19 10 9 11 7 12
REMARK SMILES IDX 6 13 8 14 5 15 4 16 2 17 3 18 1 19
REMARK H PARENT
REMARK Flexibility Score: inf
ROOT
ATOM      1  C   UNL     1       5.218  32.433 -25.225  1.00  0.00     0.032 C 
ENDROOT
BRANCH   1   2
ATOM      2  C   UNL     1       4.226  33.341 -25.912  1.00  0.00    -0.028 C 
ATOM      3  C   UNL     1       3.448  34.250 -25.281  1.00  0.00    -0.077 C 
ATOM      4  C   UNL     1       3.453  34.395 -23.776  1.00  0.00     0.039 C 
BRANCH   3   5
ATOM      5  C   UNL     1       2.549  35.142 -26.107  1.00  0.00     0.034 C 
BRANCH   5   6
ATOM      6  C   UNL     1       1.266  35.486 -25.342  1.00  0.00     0.032 C 
BRANCH   6   7
ATOM      7  C   UNL     1       1.146  36.976 -25.140  1.00  0.00    -0.028 C 
ATOM      8  C   UNL     1       1.917  36.876 -22.759  1.00  0.00     0.039 C 
ATOM      9  C   UNL     1       1.411  37.612 -23.978  1.00  0.00    -0.080 C 
ATOM     10  C   UNL     1       1.209  39.104 -23.915  1.00  0.00     0.039 C 
ENDBRANCH   6   7
ENDBRANCH   5   6
ENDBRANCH   3   5
ENDBRANCH   1   2
BRANCH   1  11
ATOM     11  C   UNL     1       6.479  32.224 -26.075  1.00  0.00     0.034 C 
BRANCH  11  12
ATOM     12  C   UNL     1       7.568  31.508 -25.303  1.00  0.00    -0.077 C 
ATOM     13  C   UNL     1       8.247  30.503 -25.903  1.00  0.00    -0.028 C 
ATOM     14  C   UNL     1       7.885  31.957 -23.896  1.00  0.00     0.039 C 
BRANCH  13  15
ATOM     15  C   UNL     1       9.333  29.688 -25.243  1.00  0.00     0.035 C 
BRANCH  15  16
ATOM     16  C   UNL     1      10.601  29.608 -26.103  1.00  0.00     0.079 C 
BRANCH  16  17
ATOM     17  C   UNL     1      11.837  29.947 -25.308  1.00  0.00     0.130 C 
ATOM     18  O   UNL     1      11.727  30.303 -24.145  1.00  0.00    -0.300 OA
ATOM     19  C   UNL     1      13.204  29.867 -25.921  1.00  0.00     0.087 C 
ENDBRANCH  16  17
ENDBRANCH  15  16
ENDBRANCH  13  15
ENDBRANCH  11  12
ENDBRANCH   1  11
TORSDOF 9
ENDMDL
MODEL 2
REMARK VINA RESULT:    -0.591      2.244      3.993
REMARK INTER + INTRA:          -1.357
REMARK INTER:                  -0.891
REMARK INTRA:                  -0.466
REMARK UNBOUND:                -0.456
REMARK SMILES CC(=O)CCC=C(C)CCC=C(C)CCC=C(C)C
REMARK SMILES IDX 10 1 11 2 12 3 13 4 14 5 15 6 16 7 18 8 17 9 19 10 9 11 7 12
REMARK SMILES IDX 6 13 8 14 5 15 4 16 2 17 3 18 1 19
REMARK H PARENT
REMARK Flexibility Score: inf
ROOT
ATOM      1  C   UNL     1       8.137  30.871 -24.119  1.00  0.00     0.032 C 
ENDROOT
BRANCH   1   2
ATOM      2  C   UNL     1       7.332  31.992 -24.731  1.00  0.00    -0.028 C 
ATOM      3  C   UNL     1       6.315  31.820 -25.606  1.00  0.00    -0.077 C 
ATOM      4  C   UNL     1       5.925  30.452 -26.116  1.00  0.00     0.039 C 
BRANCH   3   5
ATOM      5  C   UNL     1       5.549  33.034 -26.085  1.00  0.00     0.034 C 
BRANCH   5   6
ATOM      6  C   UNL     1       4.534  33.493 -25.033  1.00  0.00     0.032 C 
BRANCH   6   7
ATOM      7  C   UNL     1       3.399  34.248 -25.678  1.00  0.00    -0.028 C 
ATOM      8  C   UNL     1       2.725  35.373 -23.544  1.00  0.00     0.039 C 
ATOM      9  C   UNL     1       2.562  35.078 -25.017  1.00  0.00    -0.080 C 
ATOM     10  C   UNL     1       1.447  35.736 -25.788  1.00  0.00     0.039 C 
ENDBRANCH   6   7
ENDBRANCH   5   6
ENDBRANCH   3   5
ENDBRANCH   1   2
BRANCH   1  11
ATOM     11  C   UNL     1       8.929  30.097 -25.181  1.00  0.00     0.034 C 
BRANCH  11  12
ATOM     12  C   UNL     1      10.425  30.197 -24.956  1.00  0.00    -0.077 C 
ATOM     13  C   UNL     1      10.883  30.555 -23.734  1.00  0.00    -0.028 C 
ATOM     14  C   UNL     1      11.361  29.867 -26.094  1.00  0.00     0.039 C 
BRANCH  13  15
ATOM     15  C   UNL     1      12.341  30.721 -23.380  1.00  0.00     0.035 C 
BRANCH  15  16
ATOM     16  C   UNL     1      12.562  30.817 -21.864  1.00  0.00     0.079 C 
BRANCH  16  17
ATOM     17  C   UNL     1      12.557  32.248 -21.390  1.00  0.00     0.130 C 
ATOM     18  O   UNL     1      13.589  32.900 -21.432  1.00  0.00    -0.300 OA
ATOM     19  C   UNL     1      11.310  32.888 -20.854  1.00  0.00     0.087 C 
ENDBRANCH  16  17
ENDBRANCH  15  16
ENDBRANCH  13  15
ENDBRANCH  11  12
ENDBRANCH   1  11
TORSDOF 9
ENDMDL
MODEL 3
REMARK VINA RESULT:     0.378      8.849     12.704
REMARK INTER + INTRA:           0.122
REMARK INTER:                   1.100
REMARK INTRA:                  -0.979
REMARK UNBOUND:                -0.456
REMARK SMILES CC(=O)CCC=C(C)CCC=C(C)CCC=C(C)C
REMARK SMILES IDX 10 1 11 2 12 3 13 4 14 5 15 6 16 7 18 8 17 9 19 10 9 11 7 12
REMARK SMILES IDX 6 13 8 14 5 15 4 16 2 17 3 18 1 19
REMARK H PARENT
REMARK Flexibility Score: inf
ROOT
ATOM      1  C   UNL     1      11.822  36.028 -19.910  1.00  0.00     0.032 C 
ENDROOT
BRANCH   1   2
ATOM      2  C   UNL     1      12.719  34.956 -20.483  1.00  0.00    -0.028 C 
ATOM      3  C   UNL     1      12.300  33.730 -20.873  1.00  0.00    -0.077 C 
ATOM      4  C   UNL     1      10.866  33.285 -20.701  1.00  0.00     0.039 C 
BRANCH   3   5
ATOM      5  C   UNL     1      13.300  32.780 -21.496  1.00  0.00     0.034 C 
BRANCH   5   6
ATOM      6  C   UNL     1      12.801  31.333 -21.419  1.00  0.00     0.032 C 
BRANCH   6   7
ATOM      7  C   UNL     1      13.644  30.527 -20.461  1.00  0.00    -0.028 C 
ATOM      8  C   UNL     1      11.866  30.468 -18.698  1.00  0.00     0.039 C 
ATOM      9  C   UNL     1      13.246  30.153 -19.225  1.00  0.00    -0.080 C 
ATOM     10  C   UNL     1      14.212  29.381 -18.364  1.00  0.00     0.039 C 
ENDBRANCH   6   7
ENDBRANCH   5   6
ENDBRANCH   3   5
ENDBRANCH   1   2
BRANCH   1  11
ATOM     11  C   UNL     1      11.659  35.877 -18.391  1.00  0.00     0.034 C 
BRANCH  11  12
ATOM     12  C   UNL     1      12.362  36.986 -17.635  1.00  0.00    -0.077 C 
ATOM     13  C   UNL     1      11.828  38.229 -17.645  1.00  0.00    -0.028 C 
ATOM     14  C   UNL     1      13.622  36.664 -16.867  1.00  0.00     0.039 C 
BRANCH  13  15
ATOM     15  C   UNL     1      12.437  39.429 -16.960  1.00  0.00     0.035 C 
BRANCH  15  16
ATOM     16  C   UNL     1      12.038  39.516 -15.481  1.00  0.00     0.079 C 
BRANCH  16  17
ATOM     17  C   UNL     1      11.100  40.668 -15.223  1.00  0.00     0.130 C 
ATOM     18  O   UNL     1       9.893  40.477 -15.230  1.00  0.00    -0.300 OA
ATOM     19  C   UNL     1      11.618  42.053 -14.968  1.00  0.00     0.087 C 
ENDBRANCH  16  17
ENDBRANCH  15  16
ENDBRANCH  13  15
ENDBRANCH  11  12
ENDBRANCH   1  11
TORSDOF 9
ENDMDL
MODEL 4
REMARK VINA RESULT:     0.551      4.852      8.646
REMARK INTER + INTRA:           0.385
REMARK INTER:                   1.265
REMARK INTRA:                  -0.881
REMARK UNBOUND:                -0.456
REMARK SMILES CC(=O)CCC=C(C)CCC=C(C)CCC=C(C)C
REMARK SMILES IDX 10 1 11 2 12 3 13 4 14 5 15 6 16 7 18 8 17 9 19 10 9 11 7 12
REMARK SMILES IDX 6 13 8 14 5 15 4 16 2 17 3 18 1 19
REMARK H PARENT
REMARK Flexibility Score: inf
ROOT
ATOM      1  C   UNL     1      12.416  30.942 -22.945  1.00  0.00     0.032 C 
ENDROOT
BRANCH   1   2
ATOM      2  C   UNL     1      11.288  30.594 -23.886  1.00  0.00    -0.028 C 
ATOM      3  C   UNL     1      11.451  30.201 -25.171  1.00  0.00    -0.077 C 
ATOM      4  C   UNL     1      12.815  30.139 -25.819  1.00  0.00     0.039 C 
BRANCH   3   5
ATOM      5  C   UNL     1      10.230  29.816 -25.978  1.00  0.00     0.034 C 
BRANCH   5   6
ATOM      6  C   UNL     1       8.978  29.782 -25.094  1.00  0.00     0.032 C 
BRANCH   6   7
ATOM      7  C   UNL     1       7.848  30.545 -25.739  1.00  0.00    -0.028 C 
ATOM      8  C   UNL     1       7.473  31.997 -23.732  1.00  0.00     0.039 C 
ATOM      9  C   UNL     1       7.145  31.526 -25.130  1.00  0.00    -0.080 C 
ATOM     10  C   UNL     1       6.015  32.174 -25.887  1.00  0.00     0.039 C 
ENDBRANCH   6   7
ENDBRANCH   5   6
ENDBRANCH   3   5
ENDBRANCH   1   2
BRANCH   1  11
ATOM     11  C   UNL     1      11.894  31.550 -21.636  1.00  0.00     0.034 C 
BRANCH  11  12
ATOM     12  C   UNL     1      12.635  32.820 -21.268  1.00  0.00    -0.077 C 
ATOM     13  C   UNL     1      11.929  33.888 -20.828  1.00  0.00    -0.028 C 
ATOM     14  C   UNL     1      14.141  32.848 -21.376  1.00  0.00     0.039 C 
BRANCH  13  15
ATOM     15  C   UNL     1      12.534  35.221 -20.457  1.00  0.00     0.035 C 
BRANCH  15  16
ATOM     16  C   UNL     1      11.732  35.935 -19.361  1.00  0.00     0.079 C 
BRANCH  16  17
ATOM     17  C   UNL     1      12.633  36.532 -18.309  1.00  0.00     0.130 C 
ATOM     18  O   UNL     1      13.792  36.154 -18.223  1.00  0.00    -0.300 OA
ATOM     19  C   UNL     1      12.133  37.576 -17.355  1.00  0.00     0.087 C 
ENDBRANCH  16  17
ENDBRANCH  15  16
ENDBRANCH  13  15
ENDBRANCH  11  12
ENDBRANCH   1  11
TORSDOF 9
ENDMDL
MODEL 5
REMARK VINA RESULT:     0.623      7.655     11.573
REMARK INTER + INTRA:           0.494
REMARK INTER:                   0.771
REMARK INTRA:                  -0.276
REMARK UNBOUND:                -0.456
REMARK SMILES CC(=O)CCC=C(C)CCC=C(C)CCC=C(C)C
REMARK SMILES IDX 10 1 11 2 12 3 13 4 14 5 15 6 16 7 18 8 17 9 19 10 9 11 7 12
REMARK SMILES IDX 6 13 8 14 5 15 4 16 2 17 3 18 1 19
REMARK H PARENT
REMARK Flexibility Score: inf
ROOT
ATOM      1  C   UNL     1      12.510  35.312 -20.531  1.00  0.00     0.032 C 
ENDROOT
BRANCH   1   2
ATOM      2  C   UNL     1      11.936  33.965 -20.899  1.00  0.00    -0.028 C 
ATOM      3  C   UNL     1      12.671  32.884 -21.246  1.00  0.00    -0.077 C 
ATOM      4  C   UNL     1      14.176  32.948 -21.367  1.00  0.00     0.039 C 
BRANCH   3   5
ATOM      5  C   UNL     1      11.962  31.576 -21.522  1.00  0.00     0.034 C 
BRANCH   5   6
ATOM      6  C   UNL     1      12.349  31.023 -22.898  1.00  0.00     0.032 C 
BRANCH   6   7
ATOM      7  C   UNL     1      11.124  30.588 -23.664  1.00  0.00    -0.028 C 
ATOM      8  C   UNL     1      12.396  30.194 -25.785  1.00  0.00     0.039 C 
ATOM      9  C   UNL     1      11.125  30.237 -24.968  1.00  0.00    -0.080 C 
ATOM     10  C   UNL     1       9.816  29.860 -25.611  1.00  0.00     0.039 C 
ENDBRANCH   6   7
ENDBRANCH   5   6
ENDBRANCH   3   5
ENDBRANCH   1   2
BRANCH   1  11
ATOM     11  C   UNL     1      11.762  35.944 -19.349  1.00  0.00     0.034 C 
BRANCH  11  12
ATOM     12  C   UNL     1      12.693  36.264 -18.197  1.00  0.00    -0.077 C 
ATOM     13  C   UNL     1      12.164  36.592 -16.996  1.00  0.00    -0.028 C 
ATOM     14  C   UNL     1      14.185  36.179 -18.416  1.00  0.00     0.039 C 
BRANCH  13  15
ATOM     15  C   UNL     1      12.972  36.962 -15.775  1.00  0.00     0.035 C 
BRANCH  15  16
ATOM     16  C   UNL     1      13.289  38.462 -15.723  1.00  0.00     0.079 C 
BRANCH  16  17
ATOM     17  C   UNL     1      12.210  39.283 -16.387  1.00  0.00     0.130 C 
ATOM     18  O   UNL     1      12.198  39.391 -17.603  1.00  0.00    -0.300 OA
ATOM     19  C   UNL     1      11.156  39.981 -15.580  1.00  0.00     0.087 C 
ENDBRANCH  16  17
ENDBRANCH  15  16
ENDBRANCH  13  15
ENDBRANCH  11  12
ENDBRANCH   1  11
TORSDOF 9
ENDMDL
MODEL 6
REMARK VINA RESULT:     0.641      8.388     10.369
REMARK INTER + INTRA:           0.522
REMARK INTER:                   0.745
REMARK INTRA:                  -0.223
REMARK UNBOUND:                -0.456
REMARK SMILES CC(=O)CCC=C(C)CCC=C(C)CCC=C(C)C
REMARK SMILES IDX 10 1 11 2 12 3 13 4 14 5 15 6 16 7 18 8 17 9 19 10 9 11 7 12
REMARK SMILES IDX 6 13 8 14 5 15 4 16 2 17 3 18 1 19
REMARK H PARENT
REMARK Flexibility Score: inf
ROOT
ATOM      1  C   UNL     1      11.695  35.978 -20.131  1.00  0.00     0.032 C 
ENDROOT
BRANCH   1   2
ATOM      2  C   UNL     1      11.673  36.107 -18.627  1.00  0.00    -0.028 C 
ATOM      3  C   UNL     1      12.763  36.330 -17.858  1.00  0.00    -0.077 C 
ATOM      4  C   UNL     1      14.153  36.405 -18.447  1.00  0.00     0.039 C 
BRANCH   3   5
ATOM      5  C   UNL     1      12.581  36.507 -16.366  1.00  0.00     0.034 C 
BRANCH   5   6
ATOM      6  C   UNL     1      13.482  37.627 -15.834  1.00  0.00     0.032 C 
BRANCH   6   7
ATOM      7  C   UNL     1      12.655  38.785 -15.333  1.00  0.00    -0.028 C 
ATOM      8  C   UNL     1      12.117  39.605 -17.638  1.00  0.00     0.039 C 
ATOM      9  C   UNL     1      12.056  39.697 -16.131  1.00  0.00    -0.080 C 
ATOM     10  C   UNL     1      11.293  40.824 -15.486  1.00  0.00     0.039 C 
ENDBRANCH   6   7
ENDBRANCH   5   6
ENDBRANCH   3   5
ENDBRANCH   1   2
BRANCH   1  11
ATOM     11  C   UNL     1      12.797  35.019 -20.601  1.00  0.00     0.034 C 
BRANCH  11  12
ATOM     12  C   UNL     1      12.267  33.617 -20.830  1.00  0.00    -0.077 C 
ATOM     13  C   UNL     1      13.126  32.643 -21.207  1.00  0.00    -0.028 C 
ATOM     14  C   UNL     1      10.799  33.343 -20.602  1.00  0.00     0.039 C 
BRANCH  13  15
ATOM     15  C   UNL     1      12.729  31.215 -21.496  1.00  0.00     0.035 C 
BRANCH  15  16
ATOM     16  C   UNL     1      13.611  30.206 -20.747  1.00  0.00     0.079 C 
BRANCH  16  17
ATOM     17  C   UNL     1      13.227  30.103 -19.292  1.00  0.00     0.130 C 
ATOM     18  O   UNL     1      12.168  30.578 -18.913  1.00  0.00    -0.300 OA
ATOM     19  C   UNL     1      14.128  29.436 -18.295  1.00  0.00     0.087 C 
ENDBRANCH  16  17
ENDBRANCH  15  16
ENDBRANCH  13  15
ENDBRANCH  11  12
ENDBRANCH   1  11
TORSDOF 9
ENDMDL
MODEL 7
REMARK VINA RESULT:     0.686      5.165      7.702
REMARK INTER + INTRA:           0.590
REMARK INTER:                   1.471
REMARK INTRA:                  -0.880
REMARK UNBOUND:                -0.456
REMARK SMILES CC(=O)CCC=C(C)CCC=C(C)CCC=C(C)C
REMARK SMILES IDX 10 1 11 2 12 3 13 4 14 5 15 6 16 7 18 8 17 9 19 10 9 11 7 12
REMARK SMILES IDX 6 13 8 14 5 15 4 16 2 17 3 18 1 19
REMARK H PARENT
REMARK Flexibility Score: inf
ROOT
ATOM      1  C   UNL     1      10.242  32.317 -21.743  1.00  0.00     0.032 C 
ENDROOT
BRANCH   1   2
ATOM      2  C   UNL     1       9.709  31.594 -22.957  1.00  0.00    -0.028 C 
ATOM      3  C   UNL     1       8.398  31.478 -23.268  1.00  0.00    -0.077 C 
ATOM      4  C   UNL     1       7.312  32.018 -22.365  1.00  0.00     0.039 C 
BRANCH   3   5
ATOM      5  C   UNL     1       8.011  30.785 -24.556  1.00  0.00     0.034 C 
BRANCH   5   6
ATOM      6  C   UNL     1       7.415  31.781 -25.557  1.00  0.00     0.032 C 
BRANCH   6   7
ATOM      7  C   UNL     1       6.013  31.380 -25.940  1.00  0.00    -0.028 C 
ATOM      8  C   UNL     1       5.004  33.517 -25.107  1.00  0.00     0.039 C 
ATOM      9  C   UNL     1       4.916  32.139 -25.722  1.00  0.00    -0.080 C 
ATOM     10  C   UNL     1       3.572  31.590 -26.125  1.00  0.00     0.039 C 
ENDBRANCH   6   7
ENDBRANCH   5   6
ENDBRANCH   3   5
ENDBRANCH   1   2
BRANCH   1  11
ATOM     11  C   UNL     1      11.708  31.952 -21.465  1.00  0.00     0.034 C 
BRANCH  11  12
ATOM     12  C   UNL     1      12.524  33.163 -21.059  1.00  0.00    -0.077 C 
ATOM     13  C   UNL     1      11.896  34.216 -20.486  1.00  0.00    -0.028 C 
ATOM     14  C   UNL     1      14.018  33.147 -21.280  1.00  0.00     0.039 C 
BRANCH  13  15
ATOM     15  C   UNL     1      12.581  35.493 -20.061  1.00  0.00     0.035 C 
BRANCH  15  16
ATOM     16  C   UNL     1      11.742  36.292 -19.055  1.00  0.00     0.079 C 
BRANCH  16  17
ATOM     17  C   UNL     1      12.581  36.804 -17.911  1.00  0.00     0.130 C 
ATOM     18  O   UNL     1      13.718  36.383 -17.762  1.00  0.00    -0.300 OA
ATOM     19  C   UNL     1      12.043  37.816 -16.942  1.00  0.00     0.087 C 
ENDBRANCH  16  17
ENDBRANCH  15  16
ENDBRANCH  13  15
ENDBRANCH  11  12
ENDBRANCH   1  11
TORSDOF 9
ENDMDL
MODEL 8
REMARK VINA RESULT:     0.991      5.616      8.926
REMARK INTER + INTRA:           1.056
REMARK INTER:                   1.131
REMARK INTRA:                  -0.075
REMARK UNBOUND:                -0.456
REMARK SMILES CC(=O)CCC=C(C)CCC=C(C)CCC=C(C)C
REMARK SMILES IDX 10 1 11 2 12 3 13 4 14 5 15 6 16 7 18 8 17 9 19 10 9 11 7 12
REMARK SMILES IDX 6 13 8 14 5 15 4 16 2 17 3 18 1 19
REMARK H PARENT
REMARK Flexibility Score: inf
ROOT
ATOM      1  C   UNL     1       9.935  32.045 -21.394  1.00  0.00     0.032 C 
ENDROOT
BRANCH   1   2
ATOM      2  C   UNL     1      10.482  33.374 -20.931  1.00  0.00    -0.028 C 
ATOM      3  C   UNL     1      11.794  33.701 -20.912  1.00  0.00    -0.077 C 
ATOM      4  C   UNL     1      12.869  32.711 -21.299  1.00  0.00     0.039 C 
BRANCH   3   5
ATOM      5  C   UNL     1      12.193  35.098 -20.488  1.00  0.00     0.034 C 
BRANCH   5   6
ATOM      6  C   UNL     1      11.750  35.381 -19.049  1.00  0.00     0.032 C 
BRANCH   6   7
ATOM      7  C   UNL     1      11.829  36.856 -18.745  1.00  0.00    -0.028 C 
ATOM      8  C   UNL     1      12.576  36.493 -16.383  1.00  0.00     0.039 C 
ATOM      9  C   UNL     1      12.174  37.371 -17.544  1.00  0.00    -0.080 C 
ATOM     10  C   UNL     1      12.172  38.869 -17.378  1.00  0.00     0.039 C 
ENDBRANCH   6   7
ENDBRANCH   5   6
ENDBRANCH   3   5
ENDBRANCH   1   2
BRANCH   1  11
ATOM     11  C   UNL     1       8.436  32.129 -21.714  1.00  0.00     0.034 C 
BRANCH  11  12
ATOM     12  C   UNL     1       8.145  31.758 -23.154  1.00  0.00    -0.077 C 
ATOM     13  C   UNL     1       7.047  32.271 -23.756  1.00  0.00    -0.028 C 
ATOM     14  C   UNL     1       9.105  30.850 -23.885  1.00  0.00     0.039 C 
BRANCH  13  15
ATOM     15  C   UNL     1       6.623  31.962 -25.172  1.00  0.00     0.035 C 
BRANCH  15  16
ATOM     16  C   UNL     1       5.122  32.197 -25.391  1.00  0.00     0.079 C 
BRANCH  16  17
ATOM     17  C   UNL     1       4.753  33.649 -25.210  1.00  0.00     0.130 C 
ATOM     18  O   UNL     1       5.488  34.381 -24.566  1.00  0.00    -0.300 OA
ATOM     19  C   UNL     1       3.493  34.211 -25.798  1.00  0.00     0.087 C 
ENDBRANCH  16  17
ENDBRANCH  15  16
ENDBRANCH  13  15
ENDBRANCH  11  12
ENDBRANCH   1  11
TORSDOF 9
ENDMDL
