MODEL 1
REMARK VINA RESULT:    -2.465      0.000      0.000
REMARK INTER + INTRA:          -3.039
REMARK INTER:                  -3.762
REMARK INTRA:                   0.723
REMARK UNBOUND:                 0.723
REMARK SMILES CC1=CCC[C@H](C)C(=O)C[C@H](C(C)C)C(=O)C1
REMARK SMILES IDX 8 1 9 2 6 3 7 4 5 5 4 6 3 7 2 8 1 9 10 11 11 12 15 13 16 14
REMARK SMILES IDX 17 15 12 17 13 18 14 19
REMARK H PARENT
REMARK Flexibility Score: 70.00
ROOT
ATOM      1  C   UNL     1      27.290  35.735  23.024  1.00  0.00     0.136 C 
ATOM      2  O   UNL     1      27.223  36.143  24.175  1.00  0.00    -0.299 OA
ENDROOT
BRANCH   1   3
ATOM      3  C   UNL     1      28.214  34.583  22.685  1.00  0.00     0.053 C 
ATOM      4  C   UNL     1      28.052  33.476  23.732  1.00  0.00     0.016 C 
BRANCH   3   5
ATOM      5  C   UNL     1      27.956  34.019  21.267  1.00  0.00     0.015 C 
BRANCH   5   6
ATOM      6  C   UNL     1      29.116  34.247  20.287  1.00  0.00     0.028 C 
BRANCH   6   7
ATOM      7  C   UNL     1      28.793  35.337  19.294  1.00  0.00    -0.028 C 
ATOM      8  C   UNL     1      28.799  36.661  19.567  1.00  0.00    -0.070 CG0
ATOM      9  C   UNL     1      28.446  37.616  18.455  1.00  0.00     0.039 C 
ATOM     10  G   UNL     1      29.133  37.219  20.938  1.00  0.00     0.000 G0
ENDBRANCH   6   7
ENDBRANCH   5   6
ENDBRANCH   3   5
ENDBRANCH   1   3
BRANCH   1  11
ATOM     11  C   UNL     1      26.492  36.431  21.949  1.00  0.00     0.087 C 
BRANCH  11  12
ATOM     12  C   UNL     1      26.716  37.966  21.894  1.00  0.00     0.066 C 
BRANCH  12  13
ATOM     13  C   UNL     1      28.145  38.276  21.454  1.00  0.00     0.140 C 
ATOM     14  O   UNL     1      28.568  39.416  21.592  1.00  0.00    -0.299 OA
BRANCH  13  15
ATOM     15  C   UNL     1      29.104  37.219  20.942  1.00  0.00     0.106 CG0
ATOM     16  G   UNL     1      28.770  36.687  19.560  1.00  0.00     0.000 G0
ENDBRANCH  13  15
ENDBRANCH  12  13
BRANCH  12  17
ATOM     17  C   UNL     1      25.693  38.659  20.937  1.00  0.00    -0.006 C 
ATOM     18  C   UNL     1      24.392  37.848  20.791  1.00  0.00     0.008 C 
ATOM     19  C   UNL     1      25.341  40.078  21.417  1.00  0.00     0.008 C 
ENDBRANCH  12  17
ENDBRANCH  11  12
ENDBRANCH   1  11
TORSDOF 1
ENDMDL
MODEL 2
REMARK VINA RESULT:    -2.133      2.110      3.263
REMARK INTER + INTRA:          -2.532
REMARK INTER:                  -4.458
REMARK INTRA:                   1.926
REMARK UNBOUND:                 0.723
REMARK SMILES CC1=CCC[C@H](C)C(=O)C[C@H](C(C)C)C(=O)C1
REMARK SMILES IDX 8 1 9 2 6 3 7 4 5 5 4 6 3 7 2 8 1 9 10 11 11 12 15 13 16 14
REMARK SMILES IDX 17 15 12 17 13 18 14 19
REMARK H PARENT
REMARK Flexibility Score: 70.00
ROOT
ATOM      1  C   UNL     1      27.636  36.156  21.921  1.00  0.00     0.136 C 
ATOM      2  O   UNL     1      27.648  36.141  23.144  1.00  0.00    -0.299 OA
ENDROOT
BRANCH   1   3
ATOM      3  C   UNL     1      28.932  36.331  21.157  1.00  0.00     0.053 C 
ATOM      4  C   UNL     1      28.968  35.346  19.984  1.00  0.00     0.016 C 
BRANCH   3   5
ATOM      5  C   UNL     1      29.123  37.779  20.644  1.00  0.00     0.015 C 
BRANCH   5   6
ATOM      6  C   UNL     1      28.683  37.985  19.187  1.00  0.00     0.028 C 
BRANCH   6   7
ATOM      7  C   UNL     1      28.436  39.444  18.888  1.00  0.00    -0.028 C 
ATOM      8  C   UNL     1      27.473  40.201  19.459  1.00  0.00    -0.070 CG0
ATOM      9  C   UNL     1      27.364  41.646  19.039  1.00  0.00     0.039 C 
ATOM     10  G   UNL     1      26.499  39.657  20.488  1.00  0.00     0.000 G0
ENDBRANCH   6   7
ENDBRANCH   5   6
ENDBRANCH   3   5
ENDBRANCH   1   3
BRANCH   1  11
ATOM     11  C   UNL     1      26.315  36.063  21.197  1.00  0.00     0.087 C 
BRANCH  11  12
ATOM     12  C   UNL     1      25.449  37.347  21.301  1.00  0.00     0.066 C 
BRANCH  12  13
ATOM     13  C   UNL     1      25.848  38.344  20.215  1.00  0.00     0.140 C 
ATOM     14  O   UNL     1      25.583  38.082  19.050  1.00  0.00    -0.299 OA
BRANCH  13  15
ATOM     15  C   UNL     1      26.471  39.693  20.517  1.00  0.00     0.106 CG0
ATOM     16  G   UNL     1      27.447  40.182  19.462  1.00  0.00     0.000 G0
ENDBRANCH  13  15
ENDBRANCH  12  13
BRANCH  12  17
ATOM     17  C   UNL     1      23.925  37.017  21.199  1.00  0.00    -0.006 C 
ATOM     18  C   UNL     1      23.045  38.263  21.416  1.00  0.00     0.008 C 
ATOM     19  C   UNL     1      23.570  36.394  19.837  1.00  0.00     0.008 C 
ENDBRANCH  12  17
ENDBRANCH  11  12
ENDBRANCH   1  11
TORSDOF 1
ENDMDL
MODEL 3
REMARK VINA RESULT:    -2.120      1.744      4.029
REMARK INTER + INTRA:          -2.512
REMARK INTER:                  -2.741
REMARK INTRA:                   0.229
REMARK UNBOUND:                 0.723
REMARK SMILES CC1=CCC[C@H](C)C(=O)C[C@H](C(C)C)C(=O)C1
REMARK SMILES IDX 8 1 9 2 6 3 7 4 5 5 4 6 3 7 2 8 1 9 10 11 11 12 15 13 16 14
REMARK SMILES IDX 17 15 12 17 13 18 14 19
REMARK H PARENT
REMARK Flexibility Score: 70.00
ROOT
ATOM      1  C   UNL     1      25.108  36.344  21.912  1.00  0.00     0.136 C 
ATOM      2  O   UNL     1      24.103  36.393  22.607  1.00  0.00    -0.299 OA
ENDROOT
BRANCH   1   3
ATOM      3  C   UNL     1      25.024  36.688  20.439  1.00  0.00     0.053 C 
ATOM      4  C   UNL     1      23.687  36.193  19.877  1.00  0.00     0.016 C 
BRANCH   3   5
ATOM      5  C   UNL     1      25.183  38.205  20.179  1.00  0.00     0.015 C 
BRANCH   5   6
ATOM      6  C   UNL     1      26.188  38.544  19.068  1.00  0.00     0.028 C 
BRANCH   6   7
ATOM      7  C   UNL     1      27.123  39.651  19.490  1.00  0.00    -0.028 C 
ATOM      8  C   UNL     1      28.317  39.470  20.096  1.00  0.00    -0.070 CG0
ATOM      9  C   UNL     1      29.125  40.692  20.454  1.00  0.00     0.039 C 
ATOM     10  G   UNL     1      28.867  38.097  20.438  1.00  0.00     0.000 G0
ENDBRANCH   6   7
ENDBRANCH   5   6
ENDBRANCH   3   5
ENDBRANCH   1   3
BRANCH   1  11
ATOM     11  C   UNL     1      26.406  35.880  22.527  1.00  0.00     0.087 C 
BRANCH  11  12
ATOM     12  C   UNL     1      27.630  36.008  21.581  1.00  0.00     0.066 C 
BRANCH  12  13
ATOM     13  C   UNL     1      28.193  37.427  21.632  1.00  0.00     0.140 C 
ATOM     14  O   UNL     1      28.160  38.035  22.692  1.00  0.00    -0.299 OA
BRANCH  13  15
ATOM     15  C   UNL     1      28.881  38.088  20.454  1.00  0.00     0.106 CG0
ATOM     16  G   UNL     1      28.325  39.453  20.090  1.00  0.00     0.000 G0
ENDBRANCH  13  15
ENDBRANCH  12  13
BRANCH  12  17
ATOM     17  C   UNL     1      28.743  34.972  21.944  1.00  0.00    -0.006 C 
ATOM     18  C   UNL     1      28.428  34.213  23.248  1.00  0.00     0.008 C 
ATOM     19  C   UNL     1      28.952  33.948  20.815  1.00  0.00     0.008 C 
ENDBRANCH  12  17
ENDBRANCH  11  12
ENDBRANCH   1  11
TORSDOF 1
ENDMDL
MODEL 4
REMARK VINA RESULT:    -1.937      2.615      4.727
REMARK INTER + INTRA:          -2.233
REMARK INTER:                  -3.240
REMARK INTRA:                   1.007
REMARK UNBOUND:                 0.723
REMARK SMILES CC1=CCC[C@H](C)C(=O)C[C@H](C(C)C)C(=O)C1
REMARK SMILES IDX 8 1 9 2 6 3 7 4 5 5 4 6 3 7 2 8 1 9 10 11 11 12 15 13 16 14
REMARK SMILES IDX 17 15 12 17 13 18 14 19
REMARK H PARENT
REMARK Flexibility Score: 70.00
ROOT
ATOM      1  C   UNL     1      28.212  39.801  18.829  1.00  0.00     0.136 C 
ATOM      2  O   UNL     1      27.626  40.438  17.965  1.00  0.00    -0.299 OA
ENDROOT
BRANCH   1   3
ATOM      3  C   UNL     1      28.328  38.295  18.708  1.00  0.00     0.053 C 
ATOM      4  C   UNL     1      29.006  37.942  17.380  1.00  0.00     0.016 C 
BRANCH   3   5
ATOM      5  C   UNL     1      29.107  37.668  19.888  1.00  0.00     0.015 C 
BRANCH   5   6
ATOM      6  C   UNL     1      28.266  36.720  20.755  1.00  0.00     0.028 C 
BRANCH   6   7
ATOM      7  C   UNL     1      26.795  37.051  20.665  1.00  0.00    -0.028 C 
ATOM      8  C   UNL     1      26.211  38.144  21.204  1.00  0.00    -0.070 CG0
ATOM      9  C   UNL     1      24.725  38.317  21.022  1.00  0.00     0.039 C 
ATOM     10  G   UNL     1      26.984  39.188  21.989  1.00  0.00     0.000 G0
ENDBRANCH   6   7
ENDBRANCH   5   6
ENDBRANCH   3   5
ENDBRANCH   1   3
BRANCH   1  11
ATOM     11  C   UNL     1      28.757  40.526  20.036  1.00  0.00     0.087 C 
BRANCH  11  12
ATOM     12  C   UNL     1      27.725  41.453  20.731  1.00  0.00     0.066 C 
BRANCH  12  13
ATOM     13  C   UNL     1      26.738  40.626  21.552  1.00  0.00     0.140 C 
ATOM     14  O   UNL     1      25.644  41.106  21.815  1.00  0.00    -0.299 OA
BRANCH  13  15
ATOM     15  C   UNL     1      27.008  39.196  21.979  1.00  0.00     0.106 CG0
ATOM     16  G   UNL     1      26.228  38.153  21.200  1.00  0.00     0.000 G0
ENDBRANCH  13  15
ENDBRANCH  12  13
BRANCH  12  17
ATOM     17  C   UNL     1      28.429  42.513  21.639  1.00  0.00    -0.006 C 
ATOM     18  C   UNL     1      27.651  43.842  21.692  1.00  0.00     0.008 C 
ATOM     19  C   UNL     1      28.616  41.992  23.075  1.00  0.00     0.008 C 
ENDBRANCH  12  17
ENDBRANCH  11  12
ENDBRANCH   1  11
TORSDOF 1
ENDMDL
MODEL 5
REMARK VINA RESULT:    -1.906      2.693      5.616
REMARK INTER + INTRA:          -2.186
REMARK INTER:                  -3.589
REMARK INTRA:                   1.403
REMARK UNBOUND:                 0.723
REMARK SMILES CC1=CCC[C@H](C)C(=O)C[C@H](C(C)C)C(=O)C1
REMARK SMILES IDX 8 1 9 2 6 3 7 4 5 5 4 6 3 7 2 8 1 9 10 11 11 12 15 13 16 14
REMARK SMILES IDX 17 15 12 17 13 18 14 19
REMARK H PARENT
REMARK Flexibility Score: 70.00
ROOT
ATOM      1  C   UNL     1      27.579  41.780  19.395  1.00  0.00     0.136 C 
ATOM      2  O   UNL     1      26.517  42.385  19.393  1.00  0.00    -0.299 OA
ENDROOT
BRANCH   1   3
ATOM      3  C   UNL     1      28.692  42.213  20.327  1.00  0.00     0.053 C 
ATOM      4  C   UNL     1      28.245  43.450  21.113  1.00  0.00     0.016 C 
BRANCH   3   5
ATOM      5  C   UNL     1      29.117  41.087  21.301  1.00  0.00     0.015 C 
BRANCH   5   6
ATOM      6  C   UNL     1      27.955  40.496  22.112  1.00  0.00     0.028 C 
BRANCH   6   7
ATOM      7  C   UNL     1      28.158  39.023  22.372  1.00  0.00    -0.028 C 
ATOM      8  C   UNL     1      27.436  38.029  21.809  1.00  0.00    -0.070 CG0
ATOM      9  C   UNL     1      27.771  36.607  22.184  1.00  0.00     0.039 C 
ATOM     10  G   UNL     1      26.304  38.285  20.831  1.00  0.00     0.000 G0
ENDBRANCH   6   7
ENDBRANCH   5   6
ENDBRANCH   3   5
ENDBRANCH   1   3
BRANCH   1  11
ATOM     11  C   UNL     1      27.782  40.646  18.420  1.00  0.00     0.087 C 
BRANCH  11  12
ATOM     12  C   UNL     1      28.083  39.282  19.095  1.00  0.00     0.066 C 
BRANCH  12  13
ATOM     13  C   UNL     1      26.781  38.549  19.413  1.00  0.00     0.140 C 
ATOM     14  O   UNL     1      26.121  38.097  18.488  1.00  0.00    -0.299 OA
BRANCH  13  15
ATOM     15  C   UNL     1      26.312  38.268  20.827  1.00  0.00     0.106 CG0
ATOM     16  G   UNL     1      27.431  38.009  21.818  1.00  0.00     0.000 G0
ENDBRANCH  13  15
ENDBRANCH  12  13
BRANCH  12  17
ATOM     17  C   UNL     1      29.000  38.390  18.198  1.00  0.00    -0.006 C 
ATOM     18  C   UNL     1      29.086  36.941  18.714  1.00  0.00     0.008 C 
ATOM     19  C   UNL     1      28.514  38.367  16.738  1.00  0.00     0.008 C 
ENDBRANCH  12  17
ENDBRANCH  11  12
ENDBRANCH   1  11
TORSDOF 1
ENDMDL
MODEL 6
REMARK VINA RESULT:    -0.332      2.054      4.477
REMARK INTER + INTRA:           0.217
REMARK INTER:                  -2.428
REMARK INTRA:                   2.645
REMARK UNBOUND:                 0.723
REMARK SMILES CC1=CCC[C@H](C)C(=O)C[C@H](C(C)C)C(=O)C1
REMARK SMILES IDX 8 1 9 2 6 3 7 4 5 5 4 6 3 7 2 8 1 9 10 11 11 12 15 13 16 14
REMARK SMILES IDX 17 15 12 17 13 18 14 19
REMARK H PARENT
REMARK Flexibility Score: 70.00
ROOT
ATOM      1  C   UNL     1      27.139  40.782  20.932  1.00  0.00     0.136 C 
ATOM      2  O   UNL     1      26.277  41.544  21.348  1.00  0.00    -0.299 OA
ENDROOT
BRANCH   1   3
ATOM      3  C   UNL     1      28.427  40.604  21.709  1.00  0.00     0.053 C 
ATOM      4  C   UNL     1      28.223  41.084  23.150  1.00  0.00     0.016 C 
BRANCH   3   5
ATOM      5  C   UNL     1      28.922  39.137  21.700  1.00  0.00     0.015 C 
BRANCH   5   6
ATOM      6  C   UNL     1      27.998  38.165  22.448  1.00  0.00     0.028 C 
BRANCH   6   7
ATOM      7  C   UNL     1      28.415  36.731  22.229  1.00  0.00    -0.028 C 
ATOM      8  C   UNL     1      27.822  35.873  21.369  1.00  0.00    -0.070 CG0
ATOM      9  C   UNL     1      28.365  34.470  21.278  1.00  0.00     0.039 C 
ATOM     10  G   UNL     1      26.634  36.260  20.507  1.00  0.00     0.000 G0
ENDBRANCH   6   7
ENDBRANCH   5   6
ENDBRANCH   3   5
ENDBRANCH   1   3
BRANCH   1  11
ATOM     11  C   UNL     1      26.924  40.079  19.613  1.00  0.00     0.087 C 
BRANCH  11  12
ATOM     12  C   UNL     1      27.429  38.612  19.594  1.00  0.00     0.066 C 
BRANCH  12  13
ATOM     13  C   UNL     1      26.385  37.685  20.214  1.00  0.00     0.140 C 
ATOM     14  O   UNL     1      25.270  38.129  20.449  1.00  0.00    -0.299 OA
BRANCH  13  15
ATOM     15  C   UNL     1      26.631  36.210  20.466  1.00  0.00     0.106 CG0
ATOM     16  G   UNL     1      27.811  35.918  21.375  1.00  0.00     0.000 G0
ENDBRANCH  13  15
ENDBRANCH  12  13
BRANCH  12  17
ATOM     17  C   UNL     1      27.773  38.144  18.143  1.00  0.00    -0.006 C 
ATOM     18  C   UNL     1      27.806  39.319  17.147  1.00  0.00     0.008 C 
ATOM     19  C   UNL     1      29.125  37.412  18.090  1.00  0.00     0.008 C 
ENDBRANCH  12  17
ENDBRANCH  11  12
ENDBRANCH   1  11
TORSDOF 1
ENDMDL
