MODEL 1
REMARK VINA RESULT:    -3.766      0.000      0.000
REMARK INTER + INTRA:          -4.096
REMARK INTER:                  -4.096
REMARK INTRA:                   0.000
REMARK UNBOUND:                 0.000
REMARK SMILES [NH3+]CC(=O)[O-]
REMARK SMILES IDX 2 1 1 2 3 6 4 7 5 8
REMARK H PARENT 1 3 1 4 1 5
REMARK Flexibility Score: inf
ROOT
ATOM      1  C   UNL     1      27.947 -68.388  -1.973  1.00  0.00     0.312 C 
ENDROOT
BRANCH   1   2
ATOM      2  N   UNL     1      28.439 -69.193  -3.090  1.00  0.00    -0.353 N 
ATOM      3  H   UNL     1      28.864 -68.574  -3.817  1.00  0.00     0.344 HD
ATOM      4  H   UNL     1      29.168 -69.854  -2.739  1.00  0.00     0.344 HD
ATOM      5  H   UNL     1      27.654 -69.744  -3.508  1.00  0.00     0.344 HD
ENDBRANCH   1   2
BRANCH   1   6
ATOM      6  C   UNL     1      26.792 -67.537  -2.402  1.00  0.00     0.096 C 
ATOM      7  O   UNL     1      25.621 -67.832  -2.045  1.00  0.00    -0.544 OA
ATOM      8  O   UNL     1      27.003 -66.450  -3.241  1.00  0.00    -0.544 OA
ENDBRANCH   1   6
TORSDOF 2
ENDMDL
MODEL 2
REMARK VINA RESULT:    -3.576     19.964     19.991
REMARK INTER + INTRA:          -3.890
REMARK INTER:                  -3.890
REMARK INTRA:                   0.000
REMARK UNBOUND:                 0.000
REMARK SMILES [NH3+]CC(=O)[O-]
REMARK SMILES IDX 2 1 1 2 3 6 4 7 5 8
REMARK H PARENT 1 3 1 4 1 5
REMARK Flexibility Score: inf
ROOT
ATOM      1  C   UNL     1      27.666 -58.080  13.897  1.00  0.00     0.312 C 
ENDROOT
BRANCH   1   2
ATOM      2  N   UNL     1      29.053 -58.258  14.323  1.00  0.00    -0.353 N 
ATOM      3  H   UNL     1      29.087 -58.806  15.212  1.00  0.00     0.344 HD
ATOM      4  H   UNL     1      29.573 -58.780  13.582  1.00  0.00     0.344 HD
ATOM      5  H   UNL     1      29.507 -57.326  14.463  1.00  0.00     0.344 HD
ENDBRANCH   1   2
BRANCH   1   6
ATOM      6  C   UNL     1      27.179 -56.707  14.242  1.00  0.00     0.096 C 
ATOM      7  O   UNL     1      26.368 -56.542  15.191  1.00  0.00    -0.544 OA
ATOM      8  O   UNL     1      27.579 -55.615  13.482  1.00  0.00    -0.544 OA
ENDBRANCH   1   6
TORSDOF 2
ENDMDL
MODEL 3
REMARK VINA RESULT:    -3.296     17.256     17.585
REMARK INTER + INTRA:          -3.585
REMARK INTER:                  -3.585
REMARK INTRA:                   0.000
REMARK UNBOUND:                 0.000
REMARK SMILES [NH3+]CC(=O)[O-]
REMARK SMILES IDX 2 1 1 2 3 6 4 7 5 8
REMARK H PARENT 1 3 1 4 1 5
REMARK Flexibility Score: inf
ROOT
ATOM      1  C   UNL     1      17.380 -63.866  11.316  1.00  0.00     0.312 C 
ENDROOT
BRANCH   1   2
ATOM      2  N   UNL     1      15.979 -64.265  11.439  1.00  0.00    -0.353 N 
ATOM      3  H   UNL     1      15.846 -64.846  12.297  1.00  0.00     0.344 HD
ATOM      4  H   UNL     1      15.386 -63.408  11.514  1.00  0.00     0.344 HD
ATOM      5  H   UNL     1      15.685 -64.807  10.594  1.00  0.00     0.344 HD
ENDBRANCH   1   2
BRANCH   1   6
ATOM      6  C   UNL     1      17.488 -62.461  10.808  1.00  0.00     0.096 C 
ATOM      7  O   UNL     1      17.260 -61.491  11.577  1.00  0.00    -0.544 OA
ATOM      8  O   UNL     1      17.788 -62.227   9.472  1.00  0.00    -0.544 OA
ENDBRANCH   1   6
TORSDOF 2
ENDMDL
MODEL 4
REMARK VINA RESULT:    -3.289     17.149     17.560
REMARK INTER + INTRA:          -3.578
REMARK INTER:                  -3.578
REMARK INTRA:                   0.000
REMARK UNBOUND:                 0.000
REMARK SMILES [NH3+]CC(=O)[O-]
REMARK SMILES IDX 2 1 1 2 3 6 4 7 5 8
REMARK H PARENT 1 3 1 4 1 5
REMARK Flexibility Score: inf
ROOT
ATOM      1  C   UNL     1      17.349 -62.403  10.737  1.00  0.00     0.312 C 
ENDROOT
BRANCH   1   2
ATOM      2  N   UNL     1      18.678 -61.842  10.976  1.00  0.00    -0.353 N 
ATOM      3  H   UNL     1      18.826 -61.002  10.371  1.00  0.00     0.344 HD
ATOM      4  H   UNL     1      18.752 -61.555  11.978  1.00  0.00     0.344 HD
ATOM      5  H   UNL     1      19.412 -62.559  10.773  1.00  0.00     0.344 HD
ENDBRANCH   1   2
BRANCH   1   6
ATOM      6  C   UNL     1      17.228 -63.759  11.362  1.00  0.00     0.096 C 
ATOM      7  O   UNL     1      16.895 -63.872  12.570  1.00  0.00    -0.544 OA
ATOM      8  O   UNL     1      17.534 -64.895  10.622  1.00  0.00    -0.544 OA
ENDBRANCH   1   6
TORSDOF 2
ENDMDL
MODEL 5
REMARK VINA RESULT:    -3.231     19.800     19.848
REMARK INTER + INTRA:          -3.514
REMARK INTER:                  -3.514
REMARK INTRA:                   0.000
REMARK UNBOUND:                 0.000
REMARK SMILES [NH3+]CC(=O)[O-]
REMARK SMILES IDX 2 1 1 2 3 6 4 7 5 8
REMARK H PARENT 1 3 1 4 1 5
REMARK Flexibility Score: inf
ROOT
ATOM      1  C   UNL     1      27.271 -56.148  14.048  1.00  0.00     0.312 C 
ENDROOT
BRANCH   1   2
ATOM      2  N   UNL     1      26.625 -56.234  15.356  1.00  0.00    -0.353 N 
ATOM      3  H   UNL     1      25.632 -55.915  15.287  1.00  0.00     0.344 HD
ATOM      4  H   UNL     1      26.641 -57.227  15.681  1.00  0.00     0.344 HD
ATOM      5  H   UNL     1      27.140 -55.643  16.050  1.00  0.00     0.344 HD
ENDBRANCH   1   2
BRANCH   1   6
ATOM      6  C   UNL     1      27.833 -57.478  13.648  1.00  0.00     0.096 C 
ATOM      7  O   UNL     1      27.236 -58.539  13.966  1.00  0.00    -0.544 OA
ATOM      8  O   UNL     1      29.043 -57.545  12.968  1.00  0.00    -0.544 OA
ENDBRANCH   1   6
TORSDOF 2
ENDMDL
MODEL 6
REMARK VINA RESULT:    -3.155      2.152      2.570
REMARK INTER + INTRA:          -3.431
REMARK INTER:                  -3.431
REMARK INTRA:                   0.000
REMARK UNBOUND:                 0.000
REMARK SMILES [NH3+]CC(=O)[O-]
REMARK SMILES IDX 2 1 1 2 3 6 4 7 5 8
REMARK H PARENT 1 3 1 4 1 5
REMARK Flexibility Score: inf
ROOT
ATOM      1  C   UNL     1      26.862 -67.131  -2.209  1.00  0.00     0.312 C 
ENDROOT
BRANCH   1   2
ATOM      2  N   UNL     1      26.967 -66.298  -3.405  1.00  0.00    -0.353 N 
ATOM      3  H   UNL     1      27.862 -66.500  -3.906  1.00  0.00     0.344 HD
ATOM      4  H   UNL     1      26.167 -66.513  -4.042  1.00  0.00     0.344 HD
ATOM      5  H   UNL     1      26.929 -65.286  -3.142  1.00  0.00     0.344 HD
ENDBRANCH   1   2
BRANCH   1   6
ATOM      6  C   UNL     1      26.930 -68.583  -2.568  1.00  0.00     0.096 C 
ATOM      7  O   UNL     1      28.032 -69.108  -2.879  1.00  0.00    -0.544 OA
ATOM      8  O   UNL     1      25.769 -69.344  -2.611  1.00  0.00    -0.544 OA
ENDBRANCH   1   6
TORSDOF 2
ENDMDL
MODEL 7
REMARK VINA RESULT:    -2.909      5.559      5.965
REMARK INTER + INTRA:          -3.164
REMARK INTER:                  -3.164
REMARK INTRA:                   0.000
REMARK UNBOUND:                 0.000
REMARK SMILES [NH3+]CC(=O)[O-]
REMARK SMILES IDX 2 1 1 2 3 6 4 7 5 8
REMARK H PARENT 1 3 1 4 1 5
REMARK Flexibility Score: inf
ROOT
ATOM      1  C   UNL     1      22.437 -68.383  -0.392  1.00  0.00     0.312 C 
ENDROOT
BRANCH   1   2
ATOM      2  N   UNL     1      23.790 -67.977  -0.768  1.00  0.00    -0.353 N 
ATOM      3  H   UNL     1      24.101 -67.175  -0.174  1.00  0.00     0.344 HD
ATOM      4  H   UNL     1      24.441 -68.781  -0.619  1.00  0.00     0.344 HD
ATOM      5  H   UNL     1      23.814 -67.703  -1.777  1.00  0.00     0.344 HD
ENDBRANCH   1   2
BRANCH   1   6
ATOM      6  C   UNL     1      22.418 -68.937   0.999  1.00  0.00     0.096 C 
ATOM      7  O   UNL     1      22.987 -68.317   1.936  1.00  0.00    -0.544 OA
ATOM      8  O   UNL     1      21.817 -70.164   1.251  1.00  0.00    -0.544 OA
ENDBRANCH   1   6
TORSDOF 2
ENDMDL
MODEL 8
REMARK VINA RESULT:    -2.893      8.405      8.676
REMARK INTER + INTRA:          -3.147
REMARK INTER:                  -3.147
REMARK INTRA:                   0.000
REMARK UNBOUND:                 0.000
REMARK SMILES [NH3+]CC(=O)[O-]
REMARK SMILES IDX 2 1 1 2 3 6 4 7 5 8
REMARK H PARENT 1 3 1 4 1 5
REMARK Flexibility Score: inf
ROOT
ATOM      1  C   UNL     1      18.989 -68.632  -1.477  1.00  0.00     0.312 C 
ENDROOT
BRANCH   1   2
ATOM      2  N   UNL     1      17.884 -69.298  -0.790  1.00  0.00    -0.353 N 
ATOM      3  H   UNL     1      18.225 -69.733   0.098  1.00  0.00     0.344 HD
ATOM      4  H   UNL     1      17.150 -68.591  -0.561  1.00  0.00     0.344 HD
ATOM      5  H   UNL     1      17.468 -70.032  -1.408  1.00  0.00     0.344 HD
ENDBRANCH   1   2
BRANCH   1   6
ATOM      6  C   UNL     1      19.135 -67.220  -1.001  1.00  0.00     0.096 C 
ATOM      7  O   UNL     1      19.588 -66.335  -1.773  1.00  0.00    -0.544 OA
ATOM      8  O   UNL     1      18.821 -66.894   0.313  1.00  0.00    -0.544 OA
ENDBRANCH   1   6
TORSDOF 2
ENDMDL
MODEL 9
REMARK VINA RESULT:    -2.837      6.422      6.676
REMARK INTER + INTRA:          -3.085
REMARK INTER:                  -3.085
REMARK INTRA:                   0.000
REMARK UNBOUND:                 0.000
REMARK SMILES [NH3+]CC(=O)[O-]
REMARK SMILES IDX 2 1 1 2 3 6 4 7 5 8
REMARK H PARENT 1 3 1 4 1 5
REMARK Flexibility Score: inf
ROOT
ATOM      1  C   UNL     1      22.475 -68.817   1.281  1.00  0.00     0.312 C 
ENDROOT
BRANCH   1   2
ATOM      2  N   UNL     1      23.194 -68.314   0.113  1.00  0.00    -0.353 N 
ATOM      3  H   UNL     1      22.685 -68.576  -0.762  1.00  0.00     0.344 HD
ATOM      4  H   UNL     1      23.254 -67.272   0.171  1.00  0.00     0.344 HD
ATOM      5  H   UNL     1      24.163 -68.709   0.091  1.00  0.00     0.344 HD
ENDBRANCH   1   2
BRANCH   1   6
ATOM      6  C   UNL     1      21.563 -69.941   0.898  1.00  0.00     0.096 C 
ATOM      7  O   UNL     1      21.650 -71.054   1.480  1.00  0.00    -0.544 OA
ATOM      8  O   UNL     1      20.653 -69.775  -0.139  1.00  0.00    -0.544 OA
ENDBRANCH   1   6
TORSDOF 2
ENDMDL
