MODEL 1
REMARK VINA RESULT:    -3.814      0.000      0.000
REMARK INTER + INTRA:          -4.078
REMARK INTER:                  -4.706
REMARK INTRA:                   0.629
REMARK UNBOUND:                 0.629
REMARK SMILES C=C1[C@@H]2CC[C@H]3[C@@H]2C(C)(C)CCC[C@@]13C
REMARK SMILES IDX 14 1 6 2 7 3 3 4 2 5 1 6 4 7 5 8 15 9 8 10 9 11 10 12 11 13
REMARK SMILES IDX 13 15 12 16
REMARK H PARENT
REMARK Flexibility Score: 80.00
ROOT
ATOM      1  C   UNL     1      14.794   5.672  18.490  1.00  0.00    -0.008 C 
ATOM      2  C   UNL     1      14.656   6.312  17.051  1.00  0.00     0.003 C 
ATOM      3  C   UNL     1      13.301   5.796  16.523  1.00  0.00     0.006 C 
ATOM      4  C   UNL     1      13.637   4.331  16.808  1.00  0.00     0.019 C 
ATOM      5  C   UNL     1      14.055   4.379  18.251  1.00  0.00    -0.068 C 
ATOM      6  C   UNL     1      13.877   3.392  19.136  1.00  0.00     0.009 C 
ATOM      7  C   UNL     1      14.931   4.159  15.978  1.00  0.00     0.008 C 
ATOM      8  C   UNL     1      15.587   5.561  16.059  1.00  0.00     0.005 C 
ATOM      9  C   UNL     1      16.264   5.394  18.905  1.00  0.00     0.016 C 
ENDROOT
BRANCH   3  10
ATOM     10  C   UNL     1      11.947   6.419  17.074  1.00  0.00    -0.032 C 
ATOM     11  C   UNL     1      11.370   7.352  15.973  1.00  0.00     0.011 C 
ATOM     12  C   UNL     1      10.875   5.325  17.315  1.00  0.00     0.011 C 
BRANCH  10  13
ATOM     13  C   UNL     1      12.102   7.318  18.333  1.00  0.00     0.007 CG0
ATOM     14  G   UNL     1      12.641   6.627  19.583  1.00  0.00     0.000 G0
ENDBRANCH  10  13
ENDBRANCH   3  10
BRANCH   1  15
ATOM     15  C   UNL     1      14.155   6.547  19.600  1.00  0.00     0.011 C 
BRANCH  15  16
ATOM     16  C   UNL     1      12.632   6.631  19.592  1.00  0.00     0.001 CG0
ATOM     17  G   UNL     1      12.092   7.311  18.337  1.00  0.00     0.000 G0
ENDBRANCH  15  16
ENDBRANCH   1  15
TORSDOF 0
ENDMDL
MODEL 2
REMARK VINA RESULT:    -3.682      1.332      2.877
REMARK INTER + INTRA:          -3.915
REMARK INTER:                  -4.556
REMARK INTRA:                   0.642
REMARK UNBOUND:                 0.629
REMARK SMILES C=C1[C@@H]2CC[C@H]3[C@@H]2C(C)(C)CCC[C@@]13C
REMARK SMILES IDX 14 1 6 2 7 3 3 4 2 5 1 6 4 7 5 8 15 9 8 10 9 11 10 12 11 13
REMARK SMILES IDX 13 15 12 16
REMARK H PARENT
REMARK Flexibility Score: 80.00
ROOT
ATOM      1  C   UNL     1      13.767   6.373  17.231  1.00  0.00    -0.008 C 
ATOM      2  C   UNL     1      12.703   7.534  17.099  1.00  0.00     0.003 C 
ATOM      3  C   UNL     1      11.696   7.270  18.237  1.00  0.00     0.006 C 
ATOM      4  C   UNL     1      11.467   5.815  17.829  1.00  0.00     0.019 C 
ATOM      5  C   UNL     1      12.870   5.282  17.760  1.00  0.00    -0.068 C 
ATOM      6  C   UNL     1      13.229   4.023  18.036  1.00  0.00     0.009 C 
ATOM      7  C   UNL     1      10.988   5.990  16.368  1.00  0.00     0.008 C 
ATOM      8  C   UNL     1      11.766   7.244  15.894  1.00  0.00     0.005 C 
ATOM      9  C   UNL     1      14.398   5.954  15.875  1.00  0.00     0.016 C 
ENDROOT
BRANCH   3  10
ATOM     10  C   UNL     1      12.085   7.620  19.737  1.00  0.00    -0.032 C 
ATOM     11  C   UNL     1      11.308   8.904  20.144  1.00  0.00     0.011 C 
ATOM     12  C   UNL     1      11.625   6.511  20.717  1.00  0.00     0.011 C 
BRANCH  10  13
ATOM     13  C   UNL     1      13.586   7.960  19.964  1.00  0.00     0.007 CG0
ATOM     14  G   UNL     1      14.575   6.837  19.665  1.00  0.00     0.000 G0
ENDBRANCH  10  13
ENDBRANCH   3  10
BRANCH   1  15
ATOM     15  C   UNL     1      14.930   6.731  18.193  1.00  0.00     0.011 C 
BRANCH  15  16
ATOM     16  C   UNL     1      14.569   6.830  19.671  1.00  0.00     0.001 CG0
ATOM     17  G   UNL     1      13.582   7.959  19.956  1.00  0.00     0.000 G0
ENDBRANCH  15  16
ENDBRANCH   1  15
TORSDOF 0
ENDMDL
MODEL 3
REMARK VINA RESULT:    -3.612      1.478      3.560
REMARK INTER + INTRA:          -3.828
REMARK INTER:                  -4.457
REMARK INTRA:                   0.629
REMARK UNBOUND:                 0.629
REMARK SMILES C=C1[C@@H]2CC[C@H]3[C@@H]2C(C)(C)CCC[C@@]13C
REMARK SMILES IDX 14 1 6 2 7 3 3 4 2 5 1 6 4 7 5 8 15 9 8 10 9 11 10 12 11 13
REMARK SMILES IDX 13 15 12 16
REMARK H PARENT
REMARK Flexibility Score: 80.00
ROOT
ATOM      1  C   UNL     1      12.886   6.347  18.914  1.00  0.00    -0.008 C 
ATOM      2  C   UNL     1      14.300   5.846  19.413  1.00  0.00     0.003 C 
ATOM      3  C   UNL     1      14.699   4.744  18.410  1.00  0.00     0.006 C 
ATOM      4  C   UNL     1      13.384   3.981  18.575  1.00  0.00     0.019 C 
ATOM      5  C   UNL     1      12.363   5.056  18.335  1.00  0.00    -0.068 C 
ATOM      6  C   UNL     1      11.159   4.865  17.784  1.00  0.00     0.009 C 
ATOM      7  C   UNL     1      13.391   3.710  20.098  1.00  0.00     0.008 C 
ATOM      8  C   UNL     1      14.118   4.953  20.671  1.00  0.00     0.005 C 
ATOM      9  C   UNL     1      11.966   6.847  20.061  1.00  0.00     0.016 C 
ENDROOT
BRANCH   3  10
ATOM     10  C   UNL     1      15.206   5.140  16.958  1.00  0.00    -0.032 C 
ATOM     11  C   UNL     1      16.748   4.940  16.921  1.00  0.00     0.011 C 
ATOM     12  C   UNL     1      14.624   4.196  15.875  1.00  0.00     0.011 C 
BRANCH  10  13
ATOM     13  C   UNL     1      14.977   6.628  16.565  1.00  0.00     0.007 CG0
ATOM     14  G   UNL     1      13.522   7.088  16.520  1.00  0.00     0.000 G0
ENDBRANCH  10  13
ENDBRANCH   3  10
BRANCH   1  15
ATOM     15  C   UNL     1      12.989   7.490  17.870  1.00  0.00     0.011 C 
BRANCH  15  16
ATOM     16  C   UNL     1      13.534   7.098  16.501  1.00  0.00     0.001 CG0
ATOM     17  G   UNL     1      14.988   6.638  16.562  1.00  0.00     0.000 G0
ENDBRANCH  15  16
ENDBRANCH   1  15
TORSDOF 0
ENDMDL
MODEL 4
REMARK VINA RESULT:    -3.591      1.292      1.966
REMARK INTER + INTRA:          -3.802
REMARK INTER:                  -4.425
REMARK INTRA:                   0.624
REMARK UNBOUND:                 0.629
REMARK SMILES C=C1[C@@H]2CC[C@H]3[C@@H]2C(C)(C)CCC[C@@]13C
REMARK SMILES IDX 14 1 6 2 7 3 3 4 2 5 1 6 4 7 5 8 15 9 8 10 9 11 10 12 11 13
REMARK SMILES IDX 13 15 12 16
REMARK H PARENT
REMARK Flexibility Score: 80.00
ROOT
ATOM      1  C   UNL     1      15.444   6.062  17.095  1.00  0.00    -0.008 C 
ATOM      2  C   UNL     1      14.452   5.299  16.131  1.00  0.00     0.003 C 
ATOM      3  C   UNL     1      13.169   5.105  16.965  1.00  0.00     0.006 C 
ATOM      4  C   UNL     1      13.913   4.475  18.143  1.00  0.00     0.019 C 
ATOM      5  C   UNL     1      14.990   5.487  18.413  1.00  0.00    -0.068 C 
ATOM      6  C   UNL     1      15.511   5.752  19.617  1.00  0.00     0.009 C 
ATOM      7  C   UNL     1      14.599   3.274  17.449  1.00  0.00     0.008 C 
ATOM      8  C   UNL     1      14.879   3.809  16.022  1.00  0.00     0.005 C 
ATOM      9  C   UNL     1      16.939   5.727  16.838  1.00  0.00     0.016 C 
ENDROOT
BRANCH   3  10
ATOM     10  C   UNL     1      12.192   6.333  17.211  1.00  0.00    -0.032 C 
ATOM     11  C   UNL     1      10.949   6.145  16.296  1.00  0.00     0.011 C 
ATOM     12  C   UNL     1      11.656   6.350  18.666  1.00  0.00     0.011 C 
BRANCH  10  13
ATOM     13  C   UNL     1      12.775   7.724  16.829  1.00  0.00     0.007 CG0
ATOM     14  G   UNL     1      14.012   8.164  17.606  1.00  0.00     0.000 G0
ENDBRANCH  10  13
ENDBRANCH   3  10
BRANCH   1  15
ATOM     15  C   UNL     1      15.293   7.604  17.015  1.00  0.00     0.011 C 
BRANCH  15  16
ATOM     16  C   UNL     1      14.002   8.180  17.587  1.00  0.00     0.001 CG0
ATOM     17  G   UNL     1      12.766   7.706  16.828  1.00  0.00     0.000 G0
ENDBRANCH  15  16
ENDBRANCH   1  15
TORSDOF 0
ENDMDL
MODEL 5
REMARK VINA RESULT:    -3.573      1.850      3.934
REMARK INTER + INTRA:          -3.779
REMARK INTER:                  -4.406
REMARK INTRA:                   0.627
REMARK UNBOUND:                 0.629
REMARK SMILES C=C1[C@@H]2CC[C@H]3[C@@H]2C(C)(C)CCC[C@@]13C
REMARK SMILES IDX 14 1 6 2 7 3 3 4 2 5 1 6 4 7 5 8 15 9 8 10 9 11 10 12 11 13
REMARK SMILES IDX 13 15 12 16
REMARK H PARENT
REMARK Flexibility Score: 80.00
ROOT
ATOM      1  C   UNL     1      11.603   7.310  17.340  1.00  0.00    -0.008 C 
ATOM      2  C   UNL     1      10.942   6.300  18.359  1.00  0.00     0.003 C 
ATOM      3  C   UNL     1      12.012   6.092  19.451  1.00  0.00     0.006 C 
ATOM      4  C   UNL     1      13.109   5.739  18.447  1.00  0.00     0.019 C 
ATOM      5  C   UNL     1      13.045   6.896  17.491  1.00  0.00    -0.068 C 
ATOM      6  C   UNL     1      14.089   7.402  16.823  1.00  0.00     0.009 C 
ATOM      7  C   UNL     1      12.468   4.532  17.722  1.00  0.00     0.008 C 
ATOM      8  C   UNL     1      10.955   4.869  17.753  1.00  0.00     0.005 C 
ATOM      9  C   UNL     1      11.126   7.112  15.875  1.00  0.00     0.016 C 
ENDROOT
BRANCH   3  10
ATOM     10  C   UNL     1      12.267   7.224  20.536  1.00  0.00    -0.032 C 
ATOM     11  C   UNL     1      11.623   6.757  21.872  1.00  0.00     0.011 C 
ATOM     12  C   UNL     1      13.779   7.402  20.827  1.00  0.00     0.011 C 
BRANCH  10  13
ATOM     13  C   UNL     1      11.606   8.596  20.221  1.00  0.00     0.007 CG0
ATOM     14  G   UNL     1      12.083   9.288  18.947  1.00  0.00     0.000 G0
ENDBRANCH  10  13
ENDBRANCH   3  10
BRANCH   1  15
ATOM     15  C   UNL     1      11.348   8.794  17.715  1.00  0.00     0.011 C 
BRANCH  15  16
ATOM     16  C   UNL     1      12.076   9.305  18.953  1.00  0.00     0.001 CG0
ATOM     17  G   UNL     1      11.611   8.611  20.231  1.00  0.00     0.000 G0
ENDBRANCH  15  16
ENDBRANCH   1  15
TORSDOF 0
ENDMDL
MODEL 6
REMARK VINA RESULT:    -3.570      1.572      3.487
REMARK INTER + INTRA:          -3.777
REMARK INTER:                  -4.405
REMARK INTRA:                   0.629
REMARK UNBOUND:                 0.629
REMARK SMILES C=C1[C@@H]2CC[C@H]3[C@@H]2C(C)(C)CCC[C@@]13C
REMARK SMILES IDX 14 1 6 2 7 3 3 4 2 5 1 6 4 7 5 8 15 9 8 10 9 11 10 12 11 13
REMARK SMILES IDX 13 15 12 16
REMARK H PARENT
REMARK Flexibility Score: 80.00
ROOT
ATOM      1  C   UNL     1      13.628   6.293  17.670  1.00  0.00    -0.008 C 
ATOM      2  C   UNL     1      12.373   6.771  18.502  1.00  0.00     0.003 C 
ATOM      3  C   UNL     1      12.045   5.582  19.429  1.00  0.00     0.006 C 
ATOM      4  C   UNL     1      12.010   4.571  18.282  1.00  0.00     0.019 C 
ATOM      5  C   UNL     1      13.328   4.817  17.605  1.00  0.00    -0.068 C 
ATOM      6  C   UNL     1      14.054   3.886  16.974  1.00  0.00     0.009 C 
ATOM      7  C   UNL     1      10.923   5.194  17.374  1.00  0.00     0.008 C 
ATOM      8  C   UNL     1      11.105   6.716  17.606  1.00  0.00     0.005 C 
ATOM      9  C   UNL     1      13.693   6.903  16.243  1.00  0.00     0.016 C 
ENDROOT
BRANCH   3  10
ATOM     10  C   UNL     1      12.948   5.299  20.705  1.00  0.00    -0.032 C 
ATOM     11  C   UNL     1      12.157   5.763  21.961  1.00  0.00     0.011 C 
ATOM     12  C   UNL     1      13.204   3.782  20.895  1.00  0.00     0.011 C 
BRANCH  10  13
ATOM     13  C   UNL     1      14.287   6.089  20.750  1.00  0.00     0.007 CG0
ATOM     14  G   UNL     1      15.266   5.804  19.614  1.00  0.00     0.000 G0
ENDBRANCH  10  13
ENDBRANCH   3  10
BRANCH   1  15
ATOM     15  C   UNL     1      14.973   6.615  18.373  1.00  0.00     0.011 C 
BRANCH  15  16
ATOM     16  C   UNL     1      15.281   5.806  19.629  1.00  0.00     0.001 CG0
ATOM     17  G   UNL     1      14.288   6.080  20.756  1.00  0.00     0.000 G0
ENDBRANCH  15  16
ENDBRANCH   1  15
TORSDOF 0
ENDMDL
MODEL 7
REMARK VINA RESULT:    -3.513      1.550      3.048
REMARK INTER + INTRA:          -3.706
REMARK INTER:                  -4.330
REMARK INTRA:                   0.624
REMARK UNBOUND:                 0.629
REMARK SMILES C=C1[C@@H]2CC[C@H]3[C@@H]2C(C)(C)CCC[C@@]13C
REMARK SMILES IDX 14 1 6 2 7 3 3 4 2 5 1 6 4 7 5 8 15 9 8 10 9 11 10 12 11 13
REMARK SMILES IDX 13 15 12 16
REMARK H PARENT
REMARK Flexibility Score: 80.00
ROOT
ATOM      1  C   UNL     1      13.067   5.415  18.047  1.00  0.00    -0.008 C 
ATOM      2  C   UNL     1      14.628   5.167  18.052  1.00  0.00     0.003 C 
ATOM      3  C   UNL     1      15.177   6.119  16.970  1.00  0.00     0.006 C 
ATOM      4  C   UNL     1      14.208   5.619  15.898  1.00  0.00     0.019 C 
ATOM      5  C   UNL     1      12.880   5.750  16.588  1.00  0.00    -0.068 C 
ATOM      6  C   UNL     1      11.720   6.025  15.980  1.00  0.00     0.009 C 
ATOM      7  C   UNL     1      14.548   4.110  15.875  1.00  0.00     0.008 C 
ATOM      8  C   UNL     1      14.939   3.818  17.346  1.00  0.00     0.005 C 
ATOM      9  C   UNL     1      12.239   4.159  18.432  1.00  0.00     0.016 C 
ENDROOT
BRANCH   3  10
ATOM     10  C   UNL     1      15.292   7.676  17.269  1.00  0.00    -0.032 C 
ATOM     11  C   UNL     1      16.792   8.005  17.507  1.00  0.00     0.011 C 
ATOM     12  C   UNL     1      14.854   8.523  16.046  1.00  0.00     0.011 C 
BRANCH  10  13
ATOM     13  C   UNL     1      14.558   8.153  18.554  1.00  0.00     0.007 CG0
ATOM     14  G   UNL     1      13.042   7.975  18.561  1.00  0.00     0.000 G0
ENDBRANCH  10  13
ENDBRANCH   3  10
BRANCH   1  15
ATOM     15  C   UNL     1      12.639   6.562  18.999  1.00  0.00     0.011 C 
BRANCH  15  16
ATOM     16  C   UNL     1      13.039   7.971  18.571  1.00  0.00     0.001 CG0
ATOM     17  G   UNL     1      14.553   8.161  18.535  1.00  0.00     0.000 G0
ENDBRANCH  15  16
ENDBRANCH   1  15
TORSDOF 0
ENDMDL
MODEL 8
REMARK VINA RESULT:    -3.508      1.355      3.781
REMARK INTER + INTRA:          -3.699
REMARK INTER:                  -4.334
REMARK INTRA:                   0.635
REMARK UNBOUND:                 0.629
REMARK SMILES C=C1[C@@H]2CC[C@H]3[C@@H]2C(C)(C)CCC[C@@]13C
REMARK SMILES IDX 14 1 6 2 7 3 3 4 2 5 1 6 4 7 5 8 15 9 8 10 9 11 10 12 11 13
REMARK SMILES IDX 13 15 12 16
REMARK H PARENT
REMARK Flexibility Score: 80.00
ROOT
ATOM      1  C   UNL     1      12.420   7.081  18.703  1.00  0.00    -0.008 C 
ATOM      2  C   UNL     1      12.095   5.720  17.968  1.00  0.00     0.003 C 
ATOM      3  C   UNL     1      13.214   5.568  16.917  1.00  0.00     0.006 C 
ATOM      4  C   UNL     1      12.989   6.963  16.332  1.00  0.00     0.019 C 
ATOM      5  C   UNL     1      13.048   7.832  17.556  1.00  0.00    -0.068 C 
ATOM      6  C   UNL     1      13.499   9.091  17.584  1.00  0.00     0.009 C 
ATOM      7  C   UNL     1      11.499   6.873  15.924  1.00  0.00     0.008 C 
ATOM      8  C   UNL     1      10.900   5.929  16.997  1.00  0.00     0.005 C 
ATOM      9  C   UNL     1      11.157   7.823  19.219  1.00  0.00     0.016 C 
ENDROOT
BRANCH   3  10
ATOM     10  C   UNL     1      14.672   5.126  17.370  1.00  0.00    -0.032 C 
ATOM     11  C   UNL     1      14.870   3.641  16.956  1.00  0.00     0.011 C 
ATOM     12  C   UNL     1      15.767   5.931  16.625  1.00  0.00     0.011 C 
BRANCH  10  13
ATOM     13  C   UNL     1      14.920   5.160  18.906  1.00  0.00     0.007 CG0
ATOM     14  G   UNL     1      14.813   6.531  19.568  1.00  0.00     0.000 G0
ENDBRANCH  10  13
ENDBRANCH   3  10
BRANCH   1  15
ATOM     15  C   UNL     1      13.375   6.897  19.911  1.00  0.00     0.011 C 
BRANCH  15  16
ATOM     16  C   UNL     1      14.816   6.527  19.575  1.00  0.00     0.001 CG0
ATOM     17  G   UNL     1      14.927   5.158  18.910  1.00  0.00     0.000 G0
ENDBRANCH  15  16
ENDBRANCH   1  15
TORSDOF 0
ENDMDL
MODEL 9
REMARK VINA RESULT:    -3.482      1.372      2.231
REMARK INTER + INTRA:          -3.667
REMARK INTER:                  -4.307
REMARK INTRA:                   0.640
REMARK UNBOUND:                 0.629
REMARK SMILES C=C1[C@@H]2CC[C@H]3[C@@H]2C(C)(C)CCC[C@@]13C
REMARK SMILES IDX 14 1 6 2 7 3 3 4 2 5 1 6 4 7 5 8 15 9 8 10 9 11 10 12 11 13
REMARK SMILES IDX 13 15 12 16
REMARK H PARENT
REMARK Flexibility Score: 80.00
ROOT
ATOM      1  C   UNL     1      14.880   5.505  18.176  1.00  0.00    -0.008 C 
ATOM      2  C   UNL     1      14.390   6.981  18.452  1.00  0.00     0.003 C 
ATOM      3  C   UNL     1      13.292   7.232  17.398  1.00  0.00     0.006 C 
ATOM      4  C   UNL     1      14.180   6.802  16.229  1.00  0.00     0.019 C 
ATOM      5  C   UNL     1      14.669   5.456  16.683  1.00  0.00    -0.068 C 
ATOM      6  C   UNL     1      14.952   4.427  15.875  1.00  0.00     0.009 C 
ATOM      7  C   UNL     1      15.368   7.780  16.387  1.00  0.00     0.008 C 
ATOM      8  C   UNL     1      15.449   7.987  17.921  1.00  0.00     0.005 C 
ATOM      9  C   UNL     1      16.376   5.273  18.525  1.00  0.00     0.016 C 
ENDROOT
BRANCH   3  10
ATOM     10  C   UNL     1      11.855   6.580  17.581  1.00  0.00    -0.032 C 
ATOM     11  C   UNL     1      10.875   7.705  18.021  1.00  0.00     0.011 C 
ATOM     12  C   UNL     1      11.305   6.031  16.240  1.00  0.00     0.011 C 
BRANCH  10  13
ATOM     13  C   UNL     1      11.761   5.497  18.693  1.00  0.00     0.007 CG0
ATOM     14  G   UNL     1      12.609   4.247  18.478  1.00  0.00     0.000 G0
ENDBRANCH  10  13
ENDBRANCH   3  10
BRANCH   1  15
ATOM     15  C   UNL     1      14.054   4.443  18.947  1.00  0.00     0.011 C 
BRANCH  15  16
ATOM     16  C   UNL     1      12.618   4.241  18.475  1.00  0.00     0.001 CG0
ATOM     17  G   UNL     1      11.755   5.482  18.683  1.00  0.00     0.000 G0
ENDBRANCH  15  16
ENDBRANCH   1  15
TORSDOF 0
ENDMDL
