MODEL 1
REMARK VINA RESULT:    -3.968      0.000      0.000
REMARK INTER + INTRA:          -4.278
REMARK INTER:                  -4.896
REMARK INTRA:                   0.618
REMARK UNBOUND:                 0.618
REMARK SMILES COC(=O)c1ccccc1C(=O)OC
REMARK SMILES IDX 5 1 6 2 7 3 8 4 9 5 10 6 3 7 4 8 2 9 1 10 11 11 12 12 13 13
REMARK SMILES IDX 14 14
REMARK H PARENT
REMARK Flexibility Score: inf
ROOT
ATOM      1  C   UNL     1      47.187  49.840  29.675  1.00  0.00     0.074 A 
ATOM      2  C   UNL     1      47.367  48.745  28.809  1.00  0.00     0.016 A 
ATOM      3  C   UNL     1      48.025  48.902  27.588  1.00  0.00     0.001 A 
ATOM      4  C   UNL     1      48.512  50.152  27.213  1.00  0.00     0.001 A 
ATOM      5  C   UNL     1      48.365  51.246  28.066  1.00  0.00     0.016 A 
ATOM      6  C   UNL     1      47.725  51.106  29.311  1.00  0.00     0.074 A 
ENDROOT
BRANCH   1   7
ATOM      7  C   UNL     1      46.381  49.626  30.900  1.00  0.00     0.338 C 
ATOM      8  O   UNL     1      46.191  48.459  31.341  1.00  0.00    -0.246 OA
BRANCH   7   9
ATOM      9  O   UNL     1      45.880  50.730  31.596  1.00  0.00    -0.465 OA
ATOM     10  C   UNL     1      45.875  50.804  33.016  1.00  0.00     0.282 C 
ENDBRANCH   7   9
ENDBRANCH   1   7
BRANCH   6  11
ATOM     11  C   UNL     1      47.704  52.280  30.214  1.00  0.00     0.338 C 
ATOM     12  O   UNL     1      48.742  52.617  30.846  1.00  0.00    -0.246 OA
BRANCH  11  13
ATOM     13  O   UNL     1      46.540  53.050  30.316  1.00  0.00    -0.465 OA
ATOM     14  C   UNL     1      45.888  53.611  29.183  1.00  0.00     0.282 C 
ENDBRANCH  11  13
ENDBRANCH   6  11
TORSDOF 4
ENDMDL
MODEL 2
REMARK VINA RESULT:    -3.948      1.843      3.598
REMARK INTER + INTRA:          -4.253
REMARK INTER:                  -4.182
REMARK INTRA:                  -0.071
REMARK UNBOUND:                 0.618
REMARK SMILES COC(=O)c1ccccc1C(=O)OC
REMARK SMILES IDX 5 1 6 2 7 3 8 4 9 5 10 6 3 7 4 8 2 9 1 10 11 11 12 12 13 13
REMARK SMILES IDX 14 14
REMARK H PARENT
REMARK Flexibility Score: inf
ROOT
ATOM      1  C   UNL     1      46.913  49.939  29.741  1.00  0.00     0.074 A 
ATOM      2  C   UNL     1      46.229  48.940  30.460  1.00  0.00     0.016 A 
ATOM      3  C   UNL     1      45.875  49.137  31.795  1.00  0.00     0.001 A 
ATOM      4  C   UNL     1      46.199  50.332  32.434  1.00  0.00     0.001 A 
ATOM      5  C   UNL     1      46.856  51.345  31.736  1.00  0.00     0.016 A 
ATOM      6  C   UNL     1      47.203  51.177  30.382  1.00  0.00     0.074 A 
ENDROOT
BRANCH   1   7
ATOM      7  C   UNL     1      47.358  49.619  28.365  1.00  0.00     0.338 C 
ATOM      8  O   UNL     1      46.753  50.108  27.371  1.00  0.00    -0.246 OA
BRANCH   7   9
ATOM      9  O   UNL     1      48.487  48.817  28.176  1.00  0.00    -0.465 OA
ATOM     10  C   UNL     1      49.258  48.847  26.981  1.00  0.00     0.282 C 
ENDBRANCH   7   9
ENDBRANCH   1   7
BRANCH   6  11
ATOM     11  C   UNL     1      47.796  52.332  29.672  1.00  0.00     0.338 C 
ATOM     12  O   UNL     1      48.876  52.203  29.033  1.00  0.00    -0.246 OA
BRANCH  11  13
ATOM     13  O   UNL     1      47.119  53.557  29.663  1.00  0.00    -0.465 OA
ATOM     14  C   UNL     1      45.875  53.742  28.998  1.00  0.00     0.282 C 
ENDBRANCH  11  13
ENDBRANCH   6  11
TORSDOF 4
ENDMDL
MODEL 3
REMARK VINA RESULT:    -3.813      1.674      4.300
REMARK INTER + INTRA:          -4.086
REMARK INTER:                  -3.898
REMARK INTRA:                  -0.188
REMARK UNBOUND:                 0.618
REMARK SMILES COC(=O)c1ccccc1C(=O)OC
REMARK SMILES IDX 5 1 6 2 7 3 8 4 9 5 10 6 3 7 4 8 2 9 1 10 11 11 12 12 13 13
REMARK SMILES IDX 14 14
REMARK H PARENT
REMARK Flexibility Score: inf
ROOT
ATOM      1  C   UNL     1      46.953  51.238  30.882  1.00  0.00     0.074 A 
ATOM      2  C   UNL     1      46.569  51.202  32.236  1.00  0.00     0.016 A 
ATOM      3  C   UNL     1      46.035  50.040  32.795  1.00  0.00     0.001 A 
ATOM      4  C   UNL     1      45.875  48.898  32.013  1.00  0.00     0.001 A 
ATOM      5  C   UNL     1      46.270  48.905  30.675  1.00  0.00     0.016 A 
ATOM      6  C   UNL     1      46.831  50.058  30.096  1.00  0.00     0.074 A 
ENDROOT
BRANCH   1   7
ATOM      7  C   UNL     1      47.405  52.535  30.327  1.00  0.00     0.338 C 
ATOM      8  O   UNL     1      48.586  52.670  29.905  1.00  0.00    -0.246 OA
BRANCH   7   9
ATOM      9  O   UNL     1      46.496  53.593  30.221  1.00  0.00    -0.465 OA
ATOM     10  C   UNL     1      45.888  53.961  28.989  1.00  0.00     0.282 C 
ENDBRANCH   7   9
ENDBRANCH   1   7
BRANCH   6  11
ATOM     11  C   UNL     1      47.332  49.960  28.706  1.00  0.00     0.338 C 
ATOM     12  O   UNL     1      46.654  50.425  27.750  1.00  0.00    -0.246 OA
BRANCH  11  13
ATOM     13  O   UNL     1      48.593  49.403  28.466  1.00  0.00    -0.465 OA
ATOM     14  C   UNL     1      49.071  49.121  27.156  1.00  0.00     0.282 C 
ENDBRANCH  11  13
ENDBRANCH   6  11
TORSDOF 4
ENDMDL
MODEL 4
REMARK VINA RESULT:    -2.203      2.558      4.082
REMARK INTER + INTRA:          -2.100
REMARK INTER:                  -2.549
REMARK INTRA:                   0.449
REMARK UNBOUND:                 0.618
REMARK SMILES COC(=O)c1ccccc1C(=O)OC
REMARK SMILES IDX 5 1 6 2 7 3 8 4 9 5 10 6 3 7 4 8 2 9 1 10 11 11 12 12 13 13
REMARK SMILES IDX 14 14
REMARK H PARENT
REMARK Flexibility Score: inf
ROOT
ATOM      1  C   UNL     1      47.745  49.497  28.893  1.00  0.00     0.074 A 
ATOM      2  C   UNL     1      46.994  48.891  29.917  1.00  0.00     0.016 A 
ATOM      3  C   UNL     1      46.454  49.653  30.953  1.00  0.00     0.001 A 
ATOM      4  C   UNL     1      46.655  51.031  30.985  1.00  0.00     0.001 A 
ATOM      5  C   UNL     1      47.378  51.657  29.968  1.00  0.00     0.016 A 
ATOM      6  C   UNL     1      47.913  50.911  28.902  1.00  0.00     0.074 A 
ENDROOT
BRANCH   1   7
ATOM      7  C   UNL     1      48.384  48.614  27.890  1.00  0.00     0.338 C 
ATOM      8  O   UNL     1      47.691  47.781  27.243  1.00  0.00    -0.246 OA
BRANCH   7   9
ATOM      9  O   UNL     1      49.750  48.751  27.622  1.00  0.00    -0.465 OA
ATOM     10  C   UNL     1      50.300  48.558  26.325  1.00  0.00     0.282 C 
ENDBRANCH   7   9
ENDBRANCH   1   7
BRANCH   6  11
ATOM     11  C   UNL     1      48.569  51.651  27.801  1.00  0.00     0.338 C 
ATOM     12  O   UNL     1      49.315  52.637  28.050  1.00  0.00    -0.246 OA
BRANCH  11  13
ATOM     13  O   UNL     1      48.405  51.212  26.482  1.00  0.00    -0.465 OA
ATOM     14  C   UNL     1      47.136  51.170  25.839  1.00  0.00     0.282 C 
ENDBRANCH  11  13
ENDBRANCH   6  11
TORSDOF 4
ENDMDL
MODEL 5
REMARK VINA RESULT:    -2.198      2.026      3.684
REMARK INTER + INTRA:          -2.094
REMARK INTER:                  -1.901
REMARK INTRA:                  -0.193
REMARK UNBOUND:                 0.618
REMARK SMILES COC(=O)c1ccccc1C(=O)OC
REMARK SMILES IDX 5 1 6 2 7 3 8 4 9 5 10 6 3 7 4 8 2 9 1 10 11 11 12 12 13 13
REMARK SMILES IDX 14 14
REMARK H PARENT
REMARK Flexibility Score: inf
ROOT
ATOM      1  C   UNL     1      46.907  51.264  30.276  1.00  0.00     0.074 A 
ATOM      2  C   UNL     1      46.454  52.122  31.297  1.00  0.00     0.016 A 
ATOM      3  C   UNL     1      46.138  53.452  31.022  1.00  0.00     0.001 A 
ATOM      4  C   UNL     1      46.269  53.948  29.727  1.00  0.00     0.001 A 
ATOM      5  C   UNL     1      46.694  53.110  28.695  1.00  0.00     0.016 A 
ATOM      6  C   UNL     1      46.997  51.760  28.945  1.00  0.00     0.074 A 
ENDROOT
BRANCH   1   7
ATOM      7  C   UNL     1      47.333  49.898  30.660  1.00  0.00     0.338 C 
ATOM      8  O   UNL     1      48.559  49.602  30.700  1.00  0.00    -0.246 OA
BRANCH   7   9
ATOM      9  O   UNL     1      46.370  48.956  31.035  1.00  0.00    -0.465 OA
ATOM     10  C   UNL     1      45.875  48.853  32.364  1.00  0.00     0.282 C 
ENDBRANCH   7   9
ENDBRANCH   1   7
BRANCH   6  11
ATOM     11  C   UNL     1      47.332  50.900  27.787  1.00  0.00     0.338 C 
ATOM     12  O   UNL     1      46.417  50.367  27.102  1.00  0.00    -0.246 OA
BRANCH  11  13
ATOM     13  O   UNL     1      48.672  50.732  27.419  1.00  0.00    -0.465 OA
ATOM     14  C   UNL     1      49.098  49.725  26.509  1.00  0.00     0.282 C 
ENDBRANCH  11  13
ENDBRANCH   6  11
TORSDOF 4
ENDMDL
MODEL 6
REMARK VINA RESULT:    -2.182      2.358      4.851
REMARK INTER + INTRA:          -2.074
REMARK INTER:                  -2.817
REMARK INTRA:                   0.743
REMARK UNBOUND:                 0.618
REMARK SMILES COC(=O)c1ccccc1C(=O)OC
REMARK SMILES IDX 5 1 6 2 7 3 8 4 9 5 10 6 3 7 4 8 2 9 1 10 11 11 12 12 13 13
REMARK SMILES IDX 14 14
REMARK H PARENT
REMARK Flexibility Score: inf
ROOT
ATOM      1  C   UNL     1      47.803  50.946  29.304  1.00  0.00     0.074 A 
ATOM      2  C   UNL     1      47.282  51.634  30.416  1.00  0.00     0.016 A 
ATOM      3  C   UNL     1      46.536  50.963  31.386  1.00  0.00     0.001 A 
ATOM      4  C   UNL     1      46.300  49.596  31.263  1.00  0.00     0.001 A 
ATOM      5  C   UNL     1      46.827  48.888  30.182  1.00  0.00     0.016 A 
ATOM      6  C   UNL     1      47.599  49.540  29.203  1.00  0.00     0.074 A 
ENDROOT
BRANCH   1   7
ATOM      7  C   UNL     1      48.486  51.740  28.257  1.00  0.00     0.338 C 
ATOM      8  O   UNL     1      49.281  52.666  28.578  1.00  0.00    -0.246 OA
BRANCH   7   9
ATOM      9  O   UNL     1      48.287  51.420  26.910  1.00  0.00    -0.465 OA
ATOM     10  C   UNL     1      46.997  51.178  26.362  1.00  0.00     0.282 C 
ENDBRANCH   7   9
ENDBRANCH   1   7
BRANCH   6  11
ATOM     11  C   UNL     1      48.221  48.710  28.146  1.00  0.00     0.338 C 
ATOM     12  O   UNL     1      47.527  47.884  27.493  1.00  0.00    -0.246 OA
BRANCH  11  13
ATOM     13  O   UNL     1      49.573  48.891  27.835  1.00  0.00    -0.465 OA
ATOM     14  C   UNL     1      50.108  48.617  26.546  1.00  0.00     0.282 C 
ENDBRANCH  11  13
ENDBRANCH   6  11
TORSDOF 4
ENDMDL
MODEL 7
REMARK VINA RESULT:    -2.124      3.423      5.199
REMARK INTER + INTRA:          -2.002
REMARK INTER:                  -2.726
REMARK INTRA:                   0.724
REMARK UNBOUND:                 0.618
REMARK SMILES COC(=O)c1ccccc1C(=O)OC
REMARK SMILES IDX 5 1 6 2 7 3 8 4 9 5 10 6 3 7 4 8 2 9 1 10 11 11 12 12 13 13
REMARK SMILES IDX 14 14
REMARK H PARENT
REMARK Flexibility Score: inf
ROOT
ATOM      1  C   UNL     1      49.347  49.892  25.337  1.00  0.00     0.074 A 
ATOM      2  C   UNL     1      49.997  49.844  24.089  1.00  0.00     0.016 A 
ATOM      3  C   UNL     1      51.076  48.984  23.880  1.00  0.00     0.001 A 
ATOM      4  C   UNL     1      51.522  48.160  24.910  1.00  0.00     0.001 A 
ATOM      5  C   UNL     1      50.878  48.174  26.148  1.00  0.00     0.016 A 
ATOM      6  C   UNL     1      49.775  49.017  26.375  1.00  0.00     0.074 A 
ENDROOT
BRANCH   1   7
ATOM      7  C   UNL     1      48.285  50.908  25.523  1.00  0.00     0.338 C 
ATOM      8  O   UNL     1      47.806  51.518  24.528  1.00  0.00    -0.246 OA
BRANCH   7   9
ATOM      9  O   UNL     1      47.777  51.146  26.804  1.00  0.00    -0.465 OA
ATOM     10  C   UNL     1      46.407  50.949  27.134  1.00  0.00     0.282 C 
ENDBRANCH   7   9
ENDBRANCH   1   7
BRANCH   6  11
ATOM     11  C   UNL     1      49.069  48.900  27.671  1.00  0.00     0.338 C 
ATOM     12  O   UNL     1      48.166  48.034  27.829  1.00  0.00    -0.246 OA
BRANCH  11  13
ATOM     13  O   UNL     1      49.453  49.716  28.741  1.00  0.00    -0.465 OA
ATOM     14  C   UNL     1      48.564  50.076  29.790  1.00  0.00     0.282 C 
ENDBRANCH  11  13
ENDBRANCH   6  11
TORSDOF 4
ENDMDL
