MODEL 1
REMARK VINA RESULT:    -5.010      0.000      0.000
REMARK INTER + INTRA:          -7.781
REMARK INTER:                  -7.646
REMARK INTRA:                  -0.135
REMARK UNBOUND:                -0.135
REMARK SMILES CC1=CCC[C@H](C)C(=O)C[C@H](C(C)C)C(=O)C1
REMARK SMILES IDX 8 1 9 2 6 3 7 4 5 5 4 6 3 7 2 8 1 9 10 11 11 12 15 13 16 14
REMARK SMILES IDX 17 15 12 17 13 18 14 19
REMARK H PARENT
REMARK Flexibility Score: 70.00
ROOT
ATOM      1  C   UNL     1      -8.643  31.439  23.134  1.00  0.00     0.136 C 
ATOM      2  O   UNL     1      -9.585  31.980  22.573  1.00  0.00    -0.299 OA
ENDROOT
BRANCH   1   3
ATOM      3  C   UNL     1      -8.307  29.982  22.839  1.00  0.00     0.053 C 
ATOM      4  C   UNL     1      -6.791  29.742  22.729  1.00  0.00     0.016 C 
BRANCH   3   5
ATOM      5  C   UNL     1      -8.953  29.013  23.856  1.00  0.00     0.015 C 
BRANCH   5   6
ATOM      6  C   UNL     1     -10.074  29.664  24.685  1.00  0.00     0.028 C 
BRANCH   6   7
ATOM      7  C   UNL     1      -9.878  29.519  26.176  1.00  0.00    -0.028 C 
ATOM      8  C   UNL     1      -9.791  30.528  27.082  1.00  0.00    -0.070 CG0
ATOM      9  C   UNL     1      -9.468  30.146  28.507  1.00  0.00     0.039 C 
ATOM     10  G   UNL     1     -10.071  32.000  26.778  1.00  0.00     0.000 G0
ENDBRANCH   6   7
ENDBRANCH   5   6
ENDBRANCH   3   5
ENDBRANCH   1   3
BRANCH   1  11
ATOM     11  C   UNL     1      -7.846  32.217  24.155  1.00  0.00     0.087 C 
BRANCH  11  12
ATOM     12  C   UNL     1      -8.667  33.275  24.950  1.00  0.00     0.066 C 
BRANCH  12  13
ATOM     13  C   UNL     1      -8.859  32.839  26.402  1.00  0.00     0.140 C 
ATOM     14  O   UNL     1      -8.079  33.210  27.269  1.00  0.00    -0.299 OA
BRANCH  13  15
ATOM     15  C   UNL     1     -10.060  32.013  26.793  1.00  0.00     0.106 CG0
ATOM     16  G   UNL     1      -9.763  30.542  27.084  1.00  0.00     0.000 G0
ENDBRANCH  13  15
ENDBRANCH  12  13
BRANCH  12  17
ATOM     17  C   UNL     1      -8.132  34.745  24.834  1.00  0.00    -0.006 C 
ATOM     18  C   UNL     1      -7.547  35.069  23.448  1.00  0.00     0.008 C 
ATOM     19  C   UNL     1      -9.252  35.759  25.139  1.00  0.00     0.008 C 
ENDBRANCH  12  17
ENDBRANCH  11  12
ENDBRANCH   1  11
TORSDOF 1
ENDMDL
MODEL 2
REMARK VINA RESULT:    -4.845      2.539      5.793
REMARK INTER + INTRA:          -7.530
REMARK INTER:                  -7.780
REMARK INTRA:                   0.250
REMARK UNBOUND:                -0.135
REMARK SMILES CC1=CCC[C@H](C)C(=O)C[C@H](C(C)C)C(=O)C1
REMARK SMILES IDX 8 1 9 2 6 3 7 4 5 5 4 6 3 7 2 8 1 9 10 11 11 12 15 13 16 14
REMARK SMILES IDX 17 15 12 17 13 18 14 19
REMARK H PARENT
REMARK Flexibility Score: 70.00
ROOT
ATOM      1  C   UNL     1      -8.784  31.971  25.353  1.00  0.00     0.136 C 
ATOM      2  O   UNL     1      -8.017  31.217  25.935  1.00  0.00    -0.299 OA
ENDROOT
BRANCH   1   3
ATOM      3  C   UNL     1      -8.648  33.481  25.516  1.00  0.00     0.053 C 
ATOM      4  C   UNL     1      -8.316  33.886  26.962  1.00  0.00     0.016 C 
BRANCH   3   5
ATOM      5  C   UNL     1      -7.635  34.089  24.519  1.00  0.00     0.015 C 
BRANCH   5   6
ATOM      6  C   UNL     1      -8.302  34.928  23.413  1.00  0.00     0.028 C 
BRANCH   6   7
ATOM      7  C   UNL     1      -7.720  34.680  22.041  1.00  0.00    -0.028 C 
ATOM      8  C   UNL     1      -7.917  33.581  21.266  1.00  0.00    -0.070 CG0
ATOM      9  C   UNL     1      -7.130  33.499  19.979  1.00  0.00     0.039 C 
ATOM     10  G   UNL     1      -8.925  32.473  21.564  1.00  0.00     0.000 G0
ENDBRANCH   6   7
ENDBRANCH   5   6
ENDBRANCH   3   5
ENDBRANCH   1   3
BRANCH   1  11
ATOM     11  C   UNL     1      -9.893  31.389  24.509  1.00  0.00     0.087 C 
BRANCH  11  12
ATOM     12  C   UNL     1      -9.408  30.546  23.292  1.00  0.00     0.066 C 
BRANCH  12  13
ATOM     13  C   UNL     1      -8.423  31.340  22.435  1.00  0.00     0.140 C 
ATOM     14  O   UNL     1      -7.236  31.039  22.415  1.00  0.00    -0.299 OA
BRANCH  13  15
ATOM     15  C   UNL     1      -8.918  32.451  21.543  1.00  0.00     0.106 CG0
ATOM     16  G   UNL     1      -7.904  33.562  21.275  1.00  0.00     0.000 G0
ENDBRANCH  13  15
ENDBRANCH  12  13
BRANCH  12  17
ATOM     17  C   UNL     1      -8.868  29.118  23.655  1.00  0.00    -0.006 C 
ATOM     18  C   UNL     1      -9.790  28.350  24.619  1.00  0.00     0.008 C 
ATOM     19  C   UNL     1      -8.676  28.268  22.384  1.00  0.00     0.008 C 
ENDBRANCH  12  17
ENDBRANCH  11  12
ENDBRANCH   1  11
TORSDOF 1
ENDMDL
MODEL 3
REMARK VINA RESULT:    -4.505      1.830      2.532
REMARK INTER + INTRA:          -7.009
REMARK INTER:                  -7.262
REMARK INTRA:                   0.253
REMARK UNBOUND:                -0.135
REMARK SMILES CC1=CCC[C@H](C)C(=O)C[C@H](C(C)C)C(=O)C1
REMARK SMILES IDX 8 1 9 2 6 3 7 4 5 5 4 6 3 7 2 8 1 9 10 11 11 12 15 13 16 14
REMARK SMILES IDX 17 15 12 17 13 18 14 19
REMARK H PARENT
REMARK Flexibility Score: 70.00
ROOT
ATOM      1  C   UNL     1      -7.297  30.207  22.909  1.00  0.00     0.136 C 
ATOM      2  O   UNL     1      -6.304  29.510  23.055  1.00  0.00    -0.299 OA
ENDROOT
BRANCH   1   3
ATOM      3  C   UNL     1      -8.654  29.566  22.640  1.00  0.00     0.053 C 
ATOM      4  C   UNL     1      -8.528  28.115  22.147  1.00  0.00     0.016 C 
BRANCH   3   5
ATOM      5  C   UNL     1      -9.599  29.661  23.860  1.00  0.00     0.015 C 
BRANCH   5   6
ATOM      6  C   UNL     1      -8.867  29.516  25.207  1.00  0.00     0.028 C 
BRANCH   6   7
ATOM      7  C   UNL     1      -9.381  30.456  26.272  1.00  0.00    -0.028 C 
ATOM      8  C   UNL     1      -9.058  31.768  26.416  1.00  0.00    -0.070 CG0
ATOM      9  C   UNL     1      -9.600  32.479  27.634  1.00  0.00     0.039 C 
ATOM     10  G   UNL     1      -8.257  32.586  25.404  1.00  0.00     0.000 G0
ENDBRANCH   6   7
ENDBRANCH   5   6
ENDBRANCH   3   5
ENDBRANCH   1   3
BRANCH   1  11
ATOM     11  C   UNL     1      -7.156  31.711  22.952  1.00  0.00     0.087 C 
BRANCH  11  12
ATOM     12  C   UNL     1      -8.496  32.492  22.805  1.00  0.00     0.066 C 
BRANCH  12  13
ATOM     13  C   UNL     1      -8.992  32.987  24.163  1.00  0.00     0.140 C 
ATOM     14  O   UNL     1     -10.032  33.627  24.248  1.00  0.00    -0.299 OA
BRANCH  13  15
ATOM     15  C   UNL     1      -8.246  32.620  25.422  1.00  0.00     0.106 CG0
ATOM     16  G   UNL     1      -9.039  31.771  26.416  1.00  0.00     0.000 G0
ENDBRANCH  13  15
ENDBRANCH  12  13
BRANCH  12  17
ATOM     17  C   UNL     1      -8.478  33.631  21.725  1.00  0.00    -0.006 C 
ATOM     18  C   UNL     1      -7.862  34.944  22.240  1.00  0.00     0.008 C 
ATOM     19  C   UNL     1      -7.697  33.184  20.474  1.00  0.00     0.008 C 
ENDBRANCH  12  17
ENDBRANCH  11  12
ENDBRANCH   1  11
TORSDOF 1
ENDMDL
MODEL 4
REMARK VINA RESULT:    -4.486      1.600      3.940
REMARK INTER + INTRA:          -6.981
REMARK INTER:                  -7.475
REMARK INTRA:                   0.494
REMARK UNBOUND:                -0.135
REMARK SMILES CC1=CCC[C@H](C)C(=O)C[C@H](C(C)C)C(=O)C1
REMARK SMILES IDX 8 1 9 2 6 3 7 4 5 5 4 6 3 7 2 8 1 9 10 11 11 12 15 13 16 14
REMARK SMILES IDX 17 15 12 17 13 18 14 19
REMARK H PARENT
REMARK Flexibility Score: 70.00
ROOT
ATOM      1  C   UNL     1      -7.819  31.903  22.563  1.00  0.00     0.136 C 
ATOM      2  O   UNL     1      -7.793  31.291  21.505  1.00  0.00    -0.299 OA
ENDROOT
BRANCH   1   3
ATOM      3  C   UNL     1      -8.519  33.254  22.653  1.00  0.00     0.053 C 
ATOM      4  C   UNL     1     -10.021  33.115  22.952  1.00  0.00     0.016 C 
BRANCH   3   5
ATOM      5  C   UNL     1      -7.834  34.204  23.662  1.00  0.00     0.015 C 
BRANCH   5   6
ATOM      6  C   UNL     1      -8.781  34.694  24.773  1.00  0.00     0.028 C 
BRANCH   6   7
ATOM      7  C   UNL     1      -8.356  34.260  26.156  1.00  0.00    -0.028 C 
ATOM      8  C   UNL     1      -8.620  33.064  26.745  1.00  0.00    -0.070 CG0
ATOM      9  C   UNL     1      -8.200  32.902  28.186  1.00  0.00     0.039 C 
ATOM     10  G   UNL     1      -9.235  31.859  26.035  1.00  0.00     0.000 G0
ENDBRANCH   6   7
ENDBRANCH   5   6
ENDBRANCH   3   5
ENDBRANCH   1   3
BRANCH   1  11
ATOM     11  C   UNL     1      -7.111  31.327  23.767  1.00  0.00     0.087 C 
BRANCH  11  12
ATOM     12  C   UNL     1      -7.892  30.195  24.499  1.00  0.00     0.066 C 
BRANCH  12  13
ATOM     13  C   UNL     1      -8.342  30.650  25.886  1.00  0.00     0.140 C 
ATOM     14  O   UNL     1      -7.922  30.088  26.889  1.00  0.00    -0.299 OA
BRANCH  13  15
ATOM     15  C   UNL     1      -9.243  31.851  26.035  1.00  0.00     0.106 CG0
ATOM     16  G   UNL     1      -8.604  33.055  26.726  1.00  0.00     0.000 G0
ENDBRANCH  13  15
ENDBRANCH  12  13
BRANCH  12  17
ATOM     17  C   UNL     1      -9.064  29.562  23.669  1.00  0.00    -0.006 C 
ATOM     18  C   UNL     1      -8.590  28.490  22.672  1.00  0.00     0.008 C 
ATOM     19  C   UNL     1     -10.114  28.929  24.603  1.00  0.00     0.008 C 
ENDBRANCH  12  17
ENDBRANCH  11  12
ENDBRANCH   1  11
TORSDOF 1
ENDMDL
MODEL 5
REMARK VINA RESULT:    -4.160      1.745      4.395
REMARK INTER + INTRA:          -6.484
REMARK INTER:                  -6.924
REMARK INTRA:                   0.440
REMARK UNBOUND:                -0.135
REMARK SMILES CC1=CCC[C@H](C)C(=O)C[C@H](C(C)C)C(=O)C1
REMARK SMILES IDX 8 1 9 2 6 3 7 4 5 5 4 6 3 7 2 8 1 9 10 11 11 12 15 13 16 14
REMARK SMILES IDX 17 15 12 17 13 18 14 19
REMARK H PARENT
REMARK Flexibility Score: 70.00
ROOT
ATOM      1  C   UNL     1      -7.994  31.355  22.798  1.00  0.00     0.136 C 
ATOM      2  O   UNL     1      -6.845  31.031  23.058  1.00  0.00    -0.299 OA
ENDROOT
BRANCH   1   3
ATOM      3  C   UNL     1      -8.301  32.158  21.539  1.00  0.00     0.053 C 
ATOM      4  C   UNL     1      -9.724  31.901  21.014  1.00  0.00     0.016 C 
BRANCH   3   5
ATOM      5  C   UNL     1      -8.040  33.669  21.730  1.00  0.00     0.015 C 
BRANCH   5   6
ATOM      6  C   UNL     1      -7.055  33.976  22.872  1.00  0.00     0.028 C 
BRANCH   6   7
ATOM      7  C   UNL     1      -7.577  34.996  23.856  1.00  0.00    -0.028 C 
ATOM      8  C   UNL     1      -8.692  34.883  24.623  1.00  0.00    -0.070 CG0
ATOM      9  C   UNL     1      -9.086  36.088  25.444  1.00  0.00     0.039 C 
ATOM     10  G   UNL     1      -9.523  33.609  24.772  1.00  0.00     0.000 G0
ENDBRANCH   6   7
ENDBRANCH   5   6
ENDBRANCH   3   5
ENDBRANCH   1   3
BRANCH   1  11
ATOM     11  C   UNL     1      -9.100  30.990  23.761  1.00  0.00     0.087 C 
BRANCH  11  12
ATOM     12  C   UNL     1      -8.727  31.146  25.266  1.00  0.00     0.066 C 
BRANCH  12  13
ATOM     13  C   UNL     1      -8.928  32.587  25.732  1.00  0.00     0.140 C 
ATOM     14  O   UNL     1      -8.549  32.937  26.842  1.00  0.00    -0.299 OA
BRANCH  13  15
ATOM     15  C   UNL     1      -9.521  33.611  24.797  1.00  0.00     0.106 CG0
ATOM     16  G   UNL     1      -8.693  34.884  24.627  1.00  0.00     0.000 G0
ENDBRANCH  13  15
ENDBRANCH  12  13
BRANCH  12  17
ATOM     17  C   UNL     1      -9.411  30.107  26.223  1.00  0.00    -0.006 C 
ATOM     18  C   UNL     1     -10.029  28.911  25.477  1.00  0.00     0.008 C 
ATOM     19  C   UNL     1      -8.401  29.569  27.255  1.00  0.00     0.008 C 
ENDBRANCH  12  17
ENDBRANCH  11  12
ENDBRANCH   1  11
TORSDOF 1
ENDMDL
MODEL 6
REMARK VINA RESULT:    -4.092      1.874      2.928
REMARK INTER + INTRA:          -6.380
REMARK INTER:                  -7.213
REMARK INTRA:                   0.833
REMARK UNBOUND:                -0.135
REMARK SMILES CC1=CCC[C@H](C)C(=O)C[C@H](C(C)C)C(=O)C1
REMARK SMILES IDX 8 1 9 2 6 3 7 4 5 5 4 6 3 7 2 8 1 9 10 11 11 12 15 13 16 14
REMARK SMILES IDX 17 15 12 17 13 18 14 19
REMARK H PARENT
REMARK Flexibility Score: 70.00
ROOT
ATOM      1  C   UNL     1      -8.432  33.185  23.021  1.00  0.00     0.136 C 
ATOM      2  O   UNL     1      -7.285  33.382  23.396  1.00  0.00    -0.299 OA
ENDROOT
BRANCH   1   3
ATOM      3  C   UNL     1      -8.706  32.730  21.592  1.00  0.00     0.053 C 
ATOM      4  C   UNL     1      -7.605  33.176  20.615  1.00  0.00     0.016 C 
BRANCH   3   5
ATOM      5  C   UNL     1      -8.951  31.207  21.499  1.00  0.00     0.015 C 
BRANCH   5   6
ATOM      6  C   UNL     1      -7.946  30.379  22.320  1.00  0.00     0.028 C 
BRANCH   6   7
ATOM      7  C   UNL     1      -8.575  29.196  23.019  1.00  0.00    -0.028 C 
ATOM      8  C   UNL     1      -9.397  29.238  24.100  1.00  0.00    -0.070 CG0
ATOM      9  C   UNL     1      -9.804  27.916  24.705  1.00  0.00     0.039 C 
ATOM     10  G   UNL     1      -9.993  30.514  24.693  1.00  0.00     0.000 G0
ENDBRANCH   6   7
ENDBRANCH   5   6
ENDBRANCH   3   5
ENDBRANCH   1   3
BRANCH   1  11
ATOM     11  C   UNL     1      -9.575  33.442  23.974  1.00  0.00     0.087 C 
BRANCH  11  12
ATOM     12  C   UNL     1      -9.335  32.932  25.427  1.00  0.00     0.066 C 
BRANCH  12  13
ATOM     13  C   UNL     1      -9.083  31.426  25.443  1.00  0.00     0.140 C 
ATOM     14  O   UNL     1      -8.158  30.959  26.096  1.00  0.00    -0.299 OA
BRANCH  13  15
ATOM     15  C   UNL     1     -10.021  30.492  24.720  1.00  0.00     0.106 CG0
ATOM     16  G   UNL     1      -9.361  29.251  24.121  1.00  0.00     0.000 G0
ENDBRANCH  13  15
ENDBRANCH  12  13
BRANCH  12  17
ATOM     17  C   UNL     1      -8.248  33.729  26.232  1.00  0.00    -0.006 C 
ATOM     18  C   UNL     1      -8.394  35.255  26.099  1.00  0.00     0.008 C 
ATOM     19  C   UNL     1      -8.301  33.363  27.728  1.00  0.00     0.008 C 
ENDBRANCH  12  17
ENDBRANCH  11  12
ENDBRANCH   1  11
TORSDOF 1
ENDMDL
MODEL 7
REMARK VINA RESULT:    -3.862      1.698      4.265
REMARK INTER + INTRA:          -6.030
REMARK INTER:                  -6.757
REMARK INTRA:                   0.727
REMARK UNBOUND:                -0.135
REMARK SMILES CC1=CCC[C@H](C)C(=O)C[C@H](C(C)C)C(=O)C1
REMARK SMILES IDX 8 1 9 2 6 3 7 4 5 5 4 6 3 7 2 8 1 9 10 11 11 12 15 13 16 14
REMARK SMILES IDX 17 15 12 17 13 18 14 19
REMARK H PARENT
REMARK Flexibility Score: 70.00
ROOT
ATOM      1  C   UNL     1      -7.595  33.882  22.573  1.00  0.00     0.136 C 
ATOM      2  O   UNL     1      -7.819  34.475  21.528  1.00  0.00    -0.299 OA
ENDROOT
BRANCH   1   3
ATOM      3  C   UNL     1      -7.389  34.658  23.869  1.00  0.00     0.053 C 
ATOM      4  C   UNL     1      -6.037  35.389  23.904  1.00  0.00     0.016 C 
BRANCH   3   5
ATOM      5  C   UNL     1      -8.557  35.628  24.162  1.00  0.00     0.015 C 
BRANCH   5   6
ATOM      6  C   UNL     1      -9.239  35.365  25.517  1.00  0.00     0.028 C 
BRANCH   6   7
ATOM      7  C   UNL     1      -8.419  34.497  26.442  1.00  0.00    -0.028 C 
ATOM      8  C   UNL     1      -8.582  33.166  26.659  1.00  0.00    -0.070 CG0
ATOM      9  C   UNL     1      -7.721  32.533  27.725  1.00  0.00     0.039 C 
ATOM     10  G   UNL     1      -9.511  32.258  25.853  1.00  0.00     0.000 G0
ENDBRANCH   6   7
ENDBRANCH   5   6
ENDBRANCH   3   5
ENDBRANCH   1   3
BRANCH   1  11
ATOM     11  C   UNL     1      -7.478  32.375  22.557  1.00  0.00     0.087 C 
BRANCH  11  12
ATOM     12  C   UNL     1      -7.841  31.682  23.905  1.00  0.00     0.066 C 
BRANCH  12  13
ATOM     13  C   UNL     1      -9.217  32.129  24.395  1.00  0.00     0.140 C 
ATOM     14  O   UNL     1     -10.120  32.345  23.597  1.00  0.00    -0.299 OA
BRANCH  13  15
ATOM     15  C   UNL     1      -9.500  32.227  25.874  1.00  0.00     0.106 CG0
ATOM     16  G   UNL     1      -8.587  33.181  26.643  1.00  0.00     0.000 G0
ENDBRANCH  13  15
ENDBRANCH  12  13
BRANCH  12  17
ATOM     17  C   UNL     1      -7.684  30.121  23.904  1.00  0.00    -0.006 C 
ATOM     18  C   UNL     1      -9.011  29.379  24.144  1.00  0.00     0.008 C 
ATOM     19  C   UNL     1      -7.088  29.633  22.569  1.00  0.00     0.008 C 
ENDBRANCH  12  17
ENDBRANCH  11  12
ENDBRANCH   1  11
TORSDOF 1
ENDMDL
MODEL 8
REMARK VINA RESULT:    -3.707      2.564      4.174
REMARK INTER + INTRA:          -5.793
REMARK INTER:                  -6.236
REMARK INTRA:                   0.443
REMARK UNBOUND:                -0.135
REMARK SMILES CC1=CCC[C@H](C)C(=O)C[C@H](C(C)C)C(=O)C1
REMARK SMILES IDX 8 1 9 2 6 3 7 4 5 5 4 6 3 7 2 8 1 9 10 11 11 12 15 13 16 14
REMARK SMILES IDX 17 15 12 17 13 18 14 19
REMARK H PARENT
REMARK Flexibility Score: 70.00
ROOT
ATOM      1  C   UNL     1      -9.217  31.548  25.126  1.00  0.00     0.136 C 
ATOM      2  O   UNL     1     -10.125  30.745  25.283  1.00  0.00    -0.299 OA
ENDROOT
BRANCH   1   3
ATOM      3  C   UNL     1      -7.796  31.195  25.547  1.00  0.00     0.053 C 
ATOM      4  C   UNL     1      -7.695  30.871  27.048  1.00  0.00     0.016 C 
BRANCH   3   5
ATOM      5  C   UNL     1      -7.195  30.058  24.689  1.00  0.00     0.015 C 
BRANCH   5   6
ATOM      6  C   UNL     1      -6.759  30.522  23.287  1.00  0.00     0.028 C 
BRANCH   6   7
ATOM      7  C   UNL     1      -7.907  30.641  22.312  1.00  0.00    -0.028 C 
ATOM      8  C   UNL     1      -8.355  31.783  21.726  1.00  0.00    -0.070 CG0
ATOM      9  C   UNL     1      -9.600  31.677  20.879  1.00  0.00     0.039 C 
ATOM     10  G   UNL     1      -7.650  33.137  21.801  1.00  0.00     0.000 G0
ENDBRANCH   6   7
ENDBRANCH   5   6
ENDBRANCH   3   5
ENDBRANCH   1   3
BRANCH   1  11
ATOM     11  C   UNL     1      -9.528  32.911  24.552  1.00  0.00     0.087 C 
BRANCH  11  12
ATOM     12  C   UNL     1      -8.278  33.792  24.258  1.00  0.00     0.066 C 
BRANCH  12  13
ATOM     13  C   UNL     1      -8.191  34.140  22.773  1.00  0.00     0.140 C 
ATOM     14  O   UNL     1      -8.505  35.256  22.378  1.00  0.00    -0.299 OA
BRANCH  13  15
ATOM     15  C   UNL     1      -7.641  33.137  21.789  1.00  0.00     0.106 CG0
ATOM     16  G   UNL     1      -8.368  31.793  21.765  1.00  0.00     0.000 G0
ENDBRANCH  13  15
ENDBRANCH  12  13
BRANCH  12  17
ATOM     17  C   UNL     1      -8.133  35.056  25.177  1.00  0.00    -0.006 C 
ATOM     18  C   UNL     1      -9.350  35.994  25.112  1.00  0.00     0.008 C 
ATOM     19  C   UNL     1      -7.916  34.640  26.645  1.00  0.00     0.008 C 
ENDBRANCH  12  17
ENDBRANCH  11  12
ENDBRANCH   1  11
TORSDOF 1
ENDMDL
MODEL 9
REMARK VINA RESULT:    -3.481      1.986      4.386
REMARK INTER + INTRA:          -5.447
REMARK INTER:                  -6.589
REMARK INTRA:                   1.142
REMARK UNBOUND:                -0.135
REMARK SMILES CC1=CCC[C@H](C)C(=O)C[C@H](C(C)C)C(=O)C1
REMARK SMILES IDX 8 1 9 2 6 3 7 4 5 5 4 6 3 7 2 8 1 9 10 11 11 12 15 13 16 14
REMARK SMILES IDX 17 15 12 17 13 18 14 19
REMARK H PARENT
REMARK Flexibility Score: 70.00
ROOT
ATOM      1  C   UNL     1      -9.922  29.555  25.090  1.00  0.00     0.136 C 
ATOM      2  O   UNL     1      -9.926  28.411  24.657  1.00  0.00    -0.299 OA
ENDROOT
BRANCH   1   3
ATOM      3  C   UNL     1      -9.762  29.811  26.584  1.00  0.00     0.053 C 
ATOM      4  C   UNL     1      -9.331  28.549  27.351  1.00  0.00     0.016 C 
BRANCH   3   5
ATOM      5  C   UNL     1      -8.811  30.994  26.878  1.00  0.00     0.015 C 
BRANCH   5   6
ATOM      6  C   UNL     1      -9.528  32.357  26.901  1.00  0.00     0.028 C 
BRANCH   6   7
ATOM      7  C   UNL     1      -8.659  33.498  26.430  1.00  0.00    -0.028 C 
ATOM      8  C   UNL     1      -8.497  33.916  25.147  1.00  0.00    -0.070 CG0
ATOM      9  C   UNL     1      -7.477  35.002  24.901  1.00  0.00     0.039 C 
ATOM     10  G   UNL     1      -9.322  33.422  23.958  1.00  0.00     0.000 G0
ENDBRANCH   6   7
ENDBRANCH   5   6
ENDBRANCH   3   5
ENDBRANCH   1   3
BRANCH   1  11
ATOM     11  C   UNL     1     -10.123  30.707  24.134  1.00  0.00     0.087 C 
BRANCH  11  12
ATOM     12  C   UNL     1      -8.944  30.941  23.143  1.00  0.00     0.066 C 
BRANCH  12  13
ATOM     13  C   UNL     1      -8.584  32.424  23.063  1.00  0.00     0.140 C 
ATOM     14  O   UNL     1      -7.758  32.819  22.250  1.00  0.00    -0.299 OA
BRANCH  13  15
ATOM     15  C   UNL     1      -9.304  33.427  23.930  1.00  0.00     0.106 CG0
ATOM     16  G   UNL     1      -8.509  33.924  25.137  1.00  0.00     0.000 G0
ENDBRANCH  13  15
ENDBRANCH  12  13
BRANCH  12  17
ATOM     17  C   UNL     1      -7.688  30.034  23.390  1.00  0.00    -0.006 C 
ATOM     18  C   UNL     1      -7.701  28.742  22.555  1.00  0.00     0.008 C 
ATOM     19  C   UNL     1      -6.390  30.804  23.077  1.00  0.00     0.008 C 
ENDBRANCH  12  17
ENDBRANCH  11  12
ENDBRANCH   1  11
TORSDOF 1
ENDMDL
