MODEL 1
REMARK VINA RESULT:    -3.387      0.000      0.000
REMARK INTER + INTRA:          -4.539
REMARK INTER:                  -4.772
REMARK INTRA:                   0.233
REMARK UNBOUND:                 0.233
REMARK SMILES CC1=CCC(=C(C)C)C(=O)CC(C)=CCC1
REMARK SMILES IDX 12 1 14 2 13 3 15 4 16 5 2 6 1 7 3 8 11 10 9 11 10 12 5 13
REMARK SMILES IDX 6 14 7 15 8 16 4 17
REMARK H PARENT
REMARK Flexibility Score: 60.00
ROOT
ATOM      1  C   UNL     1       6.289  17.127  14.666  1.00  0.00    -0.070 C 
ATOM      2  C   UNL     1       5.849  18.404  14.727  1.00  0.00    -0.027 C 
ATOM      3  C   UNL     1       5.332  16.074  14.166  1.00  0.00     0.039 C 
ENDROOT
BRANCH   2   4
ATOM      4  C   UNL     1       6.623  19.577  15.287  1.00  0.00     0.032 C 
BRANCH   4   5
ATOM      5  C   UNL     1       7.772  20.084  14.392  1.00  0.00     0.034 C 
BRANCH   5   6
ATOM      6  C   UNL     1       9.110  20.132  15.109  1.00  0.00    -0.077 C 
ATOM      7  C   UNL     1       9.252  21.091  16.264  1.00  0.00     0.039 C 
ATOM      8  C   UNL     1      10.202  19.422  14.735  1.00  0.00    -0.023 CG0
ATOM      9  G   UNL     1      10.289  18.392  13.626  1.00  0.00     0.000 G0
ENDBRANCH   5   6
ENDBRANCH   4   5
ENDBRANCH   2   4
BRANCH   1  10
ATOM     10  C   UNL     1       7.654  16.692  15.160  1.00  0.00     0.111 C 
BRANCH  10  11
ATOM     11  C   UNL     1       8.622  16.503  14.022  1.00  0.00     0.163 C 
ATOM     12  O   UNL     1       8.228  15.870  13.006  1.00  0.00    -0.294 OA
BRANCH  11  13
ATOM     13  C   UNL     1      10.036  16.982  14.084  1.00  0.00    -0.002 C 
ATOM     14  C   UNL     1      11.017  16.194  14.618  1.00  0.00    -0.069 C 
ATOM     15  C   UNL     1      10.743  14.761  15.018  1.00  0.00     0.039 C 
ATOM     16  C   UNL     1      12.423  16.708  14.840  1.00  0.00     0.039 C 
BRANCH  13  17
ATOM     17  C   UNL     1      10.310  18.404  13.620  1.00  0.00     0.066 CG0
ATOM     18  G   UNL     1      10.214  19.407  14.752  1.00  0.00     0.000 G0
ENDBRANCH  13  17
ENDBRANCH  11  13
ENDBRANCH  10  11
ENDBRANCH   1  10
TORSDOF 0
ENDMDL
MODEL 2
REMARK VINA RESULT:    -3.361      2.054      3.965
REMARK INTER + INTRA:          -4.503
REMARK INTER:                  -4.655
REMARK INTRA:                   0.152
REMARK UNBOUND:                 0.233
REMARK SMILES CC1=CCC(=C(C)C)C(=O)CC(C)=CCC1
REMARK SMILES IDX 12 1 14 2 13 3 15 4 16 5 2 6 1 7 3 8 11 10 9 11 10 12 5 13
REMARK SMILES IDX 6 14 7 15 8 16 4 17
REMARK H PARENT
REMARK Flexibility Score: 60.00
ROOT
ATOM      1  C   UNL     1       7.665  19.260  15.704  1.00  0.00    -0.070 C 
ATOM      2  C   UNL     1       6.336  19.504  15.661  1.00  0.00    -0.027 C 
ATOM      3  C   UNL     1       8.593  20.438  15.872  1.00  0.00     0.039 C 
ENDROOT
BRANCH   2   4
ATOM      4  C   UNL     1       5.259  18.474  15.403  1.00  0.00     0.032 C 
BRANCH   4   5
ATOM      5  C   UNL     1       5.115  18.041  13.930  1.00  0.00     0.034 C 
BRANCH   5   6
ATOM      6  C   UNL     1       5.121  16.533  13.748  1.00  0.00    -0.077 C 
ATOM      7  C   UNL     1       3.993  15.747  14.367  1.00  0.00     0.039 C 
ATOM      8  C   UNL     1       6.108  15.843  13.126  1.00  0.00    -0.023 CG0
ATOM      9  G   UNL     1       7.320  16.416  12.419  1.00  0.00     0.000 G0
ENDBRANCH   5   6
ENDBRANCH   4   5
ENDBRANCH   2   4
BRANCH   1  10
ATOM     10  C   UNL     1       8.266  17.884  15.500  1.00  0.00     0.111 C 
BRANCH  10  11
ATOM     11  C   UNL     1       8.779  17.705  14.096  1.00  0.00     0.163 C 
ATOM     12  O   UNL     1       9.368  18.677  13.550  1.00  0.00    -0.294 OA
BRANCH  11  13
ATOM     13  C   UNL     1       8.560  16.450  13.316  1.00  0.00    -0.002 C 
ATOM     14  C   UNL     1       9.475  15.434  13.356  1.00  0.00    -0.069 C 
ATOM     15  C   UNL     1      10.653  15.476  14.304  1.00  0.00     0.039 C 
ATOM     16  C   UNL     1       9.362  14.220  12.460  1.00  0.00     0.039 C 
BRANCH  13  17
ATOM     17  C   UNL     1       7.338  16.395  12.414  1.00  0.00     0.066 CG0
ATOM     18  G   UNL     1       6.120  15.842  13.127  1.00  0.00     0.000 G0
ENDBRANCH  13  17
ENDBRANCH  11  13
ENDBRANCH  10  11
ENDBRANCH   1  10
TORSDOF 0
ENDMDL
MODEL 3
REMARK VINA RESULT:    -3.213      1.836      4.919
REMARK INTER + INTRA:          -4.294
REMARK INTER:                  -4.803
REMARK INTRA:                   0.509
REMARK UNBOUND:                 0.233
REMARK SMILES CC1=CCC(=C(C)C)C(=O)CC(C)=CCC1
REMARK SMILES IDX 12 1 14 2 13 3 15 4 16 5 2 6 1 7 3 8 11 10 9 11 10 12 5 13
REMARK SMILES IDX 6 14 7 15 8 16 4 17
REMARK H PARENT
REMARK Flexibility Score: 60.00
ROOT
ATOM      1  C   UNL     1       8.879  20.278  15.017  1.00  0.00    -0.070 C 
ATOM      2  C   UNL     1       9.707  19.741  14.094  1.00  0.00    -0.027 C 
ATOM      3  C   UNL     1       9.500  20.985  16.196  1.00  0.00     0.039 C 
ENDROOT
BRANCH   2   4
ATOM      4  C   UNL     1       9.280  18.916  12.900  1.00  0.00     0.032 C 
BRANCH   4   5
ATOM      5  C   UNL     1       9.835  17.476  12.874  1.00  0.00     0.034 C 
BRANCH   5   6
ATOM      6  C   UNL     1       9.493  16.682  14.123  1.00  0.00    -0.077 C 
ATOM      7  C   UNL     1      10.635  16.135  14.941  1.00  0.00     0.039 C 
ATOM      8  C   UNL     1       8.231  16.377  14.511  1.00  0.00    -0.023 CG0
ATOM      9  G   UNL     1       6.938  16.830  13.862  1.00  0.00     0.000 G0
ENDBRANCH   5   6
ENDBRANCH   4   5
ENDBRANCH   2   4
BRANCH   1  10
ATOM     10  C   UNL     1       7.372  20.124  14.973  1.00  0.00     0.111 C 
BRANCH  10  11
ATOM     11  C   UNL     1       6.932  18.798  15.533  1.00  0.00     0.163 C 
ATOM     12  O   UNL     1       7.289  18.500  16.705  1.00  0.00    -0.294 OA
BRANCH  11  13
ATOM     13  C   UNL     1       6.149  17.809  14.733  1.00  0.00    -0.002 C 
ATOM     14  C   UNL     1       4.789  17.734  14.852  1.00  0.00    -0.069 C 
ATOM     15  C   UNL     1       4.016  18.743  15.672  1.00  0.00     0.039 C 
ATOM     16  C   UNL     1       3.986  16.643  14.178  1.00  0.00     0.039 C 
BRANCH  13  17
ATOM     17  C   UNL     1       6.934  16.839  13.864  1.00  0.00     0.066 CG0
ATOM     18  G   UNL     1       8.224  16.392  14.521  1.00  0.00     0.000 G0
ENDBRANCH  13  17
ENDBRANCH  11  13
ENDBRANCH  10  11
ENDBRANCH   1  10
TORSDOF 0
ENDMDL
MODEL 4
REMARK VINA RESULT:    -3.162     11.255     13.546
REMARK INTER + INTRA:          -4.222
REMARK INTER:                  -4.722
REMARK INTRA:                   0.500
REMARK UNBOUND:                 0.233
REMARK SMILES CC1=CCC(=C(C)C)C(=O)CC(C)=CCC1
REMARK SMILES IDX 12 1 14 2 13 3 15 4 16 5 2 6 1 7 3 8 11 10 9 11 10 12 5 13
REMARK SMILES IDX 6 14 7 15 8 16 4 17
REMARK H PARENT
REMARK Flexibility Score: 60.00
ROOT
ATOM      1  C   UNL     1       5.565  29.281  15.087  1.00  0.00    -0.070 C 
ATOM      2  C   UNL     1       6.275  28.328  14.443  1.00  0.00    -0.027 C 
ATOM      3  C   UNL     1       4.084  29.363  14.813  1.00  0.00     0.039 C 
ENDROOT
BRANCH   2   4
ATOM      4  C   UNL     1       7.776  28.150  14.511  1.00  0.00     0.032 C 
BRANCH   4   5
ATOM      5  C   UNL     1       8.518  28.376  13.178  1.00  0.00     0.034 C 
BRANCH   5   6
ATOM      6  C   UNL     1       9.249  29.706  13.119  1.00  0.00    -0.077 C 
ATOM      7  C   UNL     1      10.738  29.698  13.352  1.00  0.00     0.039 C 
ATOM      8  C   UNL     1       8.640  30.904  12.940  1.00  0.00    -0.023 CG0
ATOM      9  G   UNL     1       7.170  31.152  12.670  1.00  0.00     0.000 G0
ENDBRANCH   5   6
ENDBRANCH   4   5
ENDBRANCH   2   4
BRANCH   1  10
ATOM     10  C   UNL     1       6.196  30.320  15.992  1.00  0.00     0.111 C 
BRANCH  10  11
ATOM     11  C   UNL     1       6.873  31.408  15.201  1.00  0.00     0.163 C 
ATOM     12  O   UNL     1       7.816  32.041  15.748  1.00  0.00    -0.294 OA
BRANCH  11  13
ATOM     13  C   UNL     1       6.426  31.799  13.830  1.00  0.00    -0.002 C 
ATOM     14  C   UNL     1       5.347  32.620  13.655  1.00  0.00    -0.069 C 
ATOM     15  C   UNL     1       4.667  33.285  14.831  1.00  0.00     0.039 C 
ATOM     16  C   UNL     1       4.774  32.906  12.283  1.00  0.00     0.039 C 
BRANCH  13  17
ATOM     17  C   UNL     1       7.158  31.172  12.655  1.00  0.00     0.066 CG0
ATOM     18  G   UNL     1       8.622  30.920  12.956  1.00  0.00     0.000 G0
ENDBRANCH  13  17
ENDBRANCH  11  13
ENDBRANCH  10  11
ENDBRANCH   1  10
TORSDOF 0
ENDMDL
MODEL 5
REMARK VINA RESULT:    -3.149      3.587      6.114
REMARK INTER + INTRA:          -4.204
REMARK INTER:                  -4.532
REMARK INTRA:                   0.328
REMARK UNBOUND:                 0.233
REMARK SMILES CC1=CCC(=C(C)C)C(=O)CC(C)=CCC1
REMARK SMILES IDX 12 1 14 2 13 3 15 4 16 5 2 6 1 7 3 8 11 10 9 11 10 12 5 13
REMARK SMILES IDX 6 14 7 15 8 16 4 17
REMARK H PARENT
REMARK Flexibility Score: 60.00
ROOT
ATOM      1  C   UNL     1      13.653  15.091  16.591  1.00  0.00    -0.070 C 
ATOM      2  C   UNL     1      12.501  14.659  16.031  1.00  0.00    -0.027 C 
ATOM      3  C   UNL     1      14.529  14.073  17.278  1.00  0.00     0.039 C 
ENDROOT
BRANCH   2   4
ATOM      4  C   UNL     1      11.451  15.536  15.387  1.00  0.00     0.032 C 
BRANCH   4   5
ATOM      5  C   UNL     1      11.845  16.118  14.013  1.00  0.00     0.034 C 
BRANCH   5   6
ATOM      6  C   UNL     1      11.804  17.636  13.974  1.00  0.00    -0.077 C 
ATOM      7  C   UNL     1      10.465  18.306  14.152  1.00  0.00     0.039 C 
ATOM      8  C   UNL     1      12.879  18.422  13.721  1.00  0.00    -0.023 CG0
ATOM      9  G   UNL     1      14.315  17.975  13.530  1.00  0.00     0.000 G0
ENDBRANCH   5   6
ENDBRANCH   4   5
ENDBRANCH   2   4
BRANCH   1  10
ATOM     10  C   UNL     1      14.057  16.551  16.643  1.00  0.00     0.111 C 
BRANCH  10  11
ATOM     11  C   UNL     1      15.165  16.855  15.669  1.00  0.00     0.163 C 
ATOM     12  O   UNL     1      16.161  16.082  15.642  1.00  0.00    -0.294 OA
BRANCH  11  13
ATOM     13  C   UNL     1      15.151  18.062  14.789  1.00  0.00    -0.002 C 
ATOM     14  C   UNL     1      15.789  19.210  15.168  1.00  0.00    -0.069 C 
ATOM     15  C   UNL     1      16.659  19.253  16.406  1.00  0.00     0.039 C 
ATOM     16  C   UNL     1      15.661  20.494  14.378  1.00  0.00     0.039 C 
BRANCH  13  17
ATOM     17  C   UNL     1      14.323  17.986  13.517  1.00  0.00     0.066 CG0
ATOM     18  G   UNL     1      12.885  18.410  13.739  1.00  0.00     0.000 G0
ENDBRANCH  13  17
ENDBRANCH  11  13
ENDBRANCH  10  11
ENDBRANCH   1  10
TORSDOF 0
ENDMDL
MODEL 6
REMARK VINA RESULT:    -3.113      3.140      5.603
REMARK INTER + INTRA:          -4.153
REMARK INTER:                  -4.631
REMARK INTRA:                   0.478
REMARK UNBOUND:                 0.233
REMARK SMILES CC1=CCC(=C(C)C)C(=O)CC(C)=CCC1
REMARK SMILES IDX 12 1 14 2 13 3 15 4 16 5 2 6 1 7 3 8 11 10 9 11 10 12 5 13
REMARK SMILES IDX 6 14 7 15 8 16 4 17
REMARK H PARENT
REMARK Flexibility Score: 60.00
ROOT
ATOM      1  C   UNL     1       6.218  16.776  14.557  1.00  0.00    -0.070 C 
ATOM      2  C   UNL     1       7.238  17.475  15.105  1.00  0.00    -0.027 C 
ATOM      3  C   UNL     1       6.556  15.724  13.531  1.00  0.00     0.039 C 
ENDROOT
BRANCH   2   4
ATOM      4  C   UNL     1       7.096  18.629  16.073  1.00  0.00     0.032 C 
BRANCH   4   5
ATOM      5  C   UNL     1       7.773  19.940  15.623  1.00  0.00     0.034 C 
BRANCH   5   6
ATOM      6  C   UNL     1       7.129  20.551  14.389  1.00  0.00    -0.077 C 
ATOM      7  C   UNL     1       8.037  20.977  13.263  1.00  0.00     0.039 C 
ATOM      8  C   UNL     1       5.803  20.801  14.265  1.00  0.00    -0.023 CG0
ATOM      9  G   UNL     1       4.708  20.445  15.251  1.00  0.00     0.000 G0
ENDBRANCH   5   6
ENDBRANCH   4   5
ENDBRANCH   2   4
BRANCH   1  10
ATOM     10  C   UNL     1       4.760  17.061  14.854  1.00  0.00     0.111 C 
BRANCH  10  11
ATOM     11  C   UNL     1       4.244  18.220  14.043  1.00  0.00     0.163 C 
ATOM     12  O   UNL     1       4.339  18.156  12.788  1.00  0.00    -0.294 OA
BRANCH  11  13
ATOM     13  C   UNL     1       3.688  19.455  14.673  1.00  0.00    -0.002 C 
ATOM     14  C   UNL     1       2.344  19.707  14.647  1.00  0.00    -0.069 C 
ATOM     15  C   UNL     1       1.362  18.681  14.125  1.00  0.00     0.039 C 
ATOM     16  C   UNL     1       1.767  21.019  15.134  1.00  0.00     0.039 C 
BRANCH  13  17
ATOM     17  C   UNL     1       4.681  20.450  15.250  1.00  0.00     0.066 CG0
ATOM     18  G   UNL     1       5.782  20.799  14.269  1.00  0.00     0.000 G0
ENDBRANCH  13  17
ENDBRANCH  11  13
ENDBRANCH  10  11
ENDBRANCH   1  10
TORSDOF 0
ENDMDL
MODEL 7
REMARK VINA RESULT:    -3.089      2.830      4.791
REMARK INTER + INTRA:          -4.120
REMARK INTER:                  -4.390
REMARK INTRA:                   0.269
REMARK UNBOUND:                 0.233
REMARK SMILES CC1=CCC(=C(C)C)C(=O)CC(C)=CCC1
REMARK SMILES IDX 12 1 14 2 13 3 15 4 16 5 2 6 1 7 3 8 11 10 9 11 10 12 5 13
REMARK SMILES IDX 6 14 7 15 8 16 4 17
REMARK H PARENT
REMARK Flexibility Score: 60.00
ROOT
ATOM      1  C   UNL     1       8.074  20.593  15.217  1.00  0.00    -0.070 C 
ATOM      2  C   UNL     1       7.168  21.596  15.242  1.00  0.00    -0.027 C 
ATOM      3  C   UNL     1       9.348  20.773  16.004  1.00  0.00     0.039 C 
ENDROOT
BRANCH   2   4
ATOM      4  C   UNL     1       5.883  21.643  14.445  1.00  0.00     0.032 C 
BRANCH   4   5
ATOM      5  C   UNL     1       4.805  20.634  14.892  1.00  0.00     0.034 C 
BRANCH   5   6
ATOM      6  C   UNL     1       4.264  19.794  13.748  1.00  0.00    -0.077 C 
ATOM      7  C   UNL     1       3.613  20.515  12.595  1.00  0.00     0.039 C 
ATOM      8  C   UNL     1       4.268  18.438  13.729  1.00  0.00    -0.023 CG0
ATOM      9  G   UNL     1       4.878  17.510  14.759  1.00  0.00     0.000 G0
ENDBRANCH   5   6
ENDBRANCH   4   5
ENDBRANCH   2   4
BRANCH   1  10
ATOM     10  C   UNL     1       7.913  19.347  14.368  1.00  0.00     0.111 C 
BRANCH  10  11
ATOM     11  C   UNL     1       7.300  18.217  15.152  1.00  0.00     0.163 C 
ATOM     12  O   UNL     1       7.651  18.068  16.353  1.00  0.00    -0.294 OA
BRANCH  11  13
ATOM     13  C   UNL     1       6.349  17.241  14.540  1.00  0.00    -0.002 C 
ATOM     14  C   UNL     1       6.805  16.226  13.744  1.00  0.00    -0.069 C 
ATOM     15  C   UNL     1       8.285  15.961  13.582  1.00  0.00     0.039 C 
ATOM     16  C   UNL     1       5.860  15.320  12.985  1.00  0.00     0.039 C 
BRANCH  13  17
ATOM     17  C   UNL     1       4.865  17.483  14.762  1.00  0.00     0.066 CG0
ATOM     18  G   UNL     1       4.277  18.435  13.740  1.00  0.00     0.000 G0
ENDBRANCH  13  17
ENDBRANCH  11  13
ENDBRANCH  10  11
ENDBRANCH   1  10
TORSDOF 0
ENDMDL
MODEL 8
REMARK VINA RESULT:    -3.008     10.829     13.332
REMARK INTER + INTRA:          -4.005
REMARK INTER:                  -4.418
REMARK INTRA:                   0.412
REMARK UNBOUND:                 0.233
REMARK SMILES CC1=CCC(=C(C)C)C(=O)CC(C)=CCC1
REMARK SMILES IDX 12 1 14 2 13 3 15 4 16 5 2 6 1 7 3 8 11 10 9 11 10 12 5 13
REMARK SMILES IDX 6 14 7 15 8 16 4 17
REMARK H PARENT
REMARK Flexibility Score: 60.00
ROOT
ATOM      1  C   UNL     1       7.192  30.368  14.979  1.00  0.00    -0.070 C 
ATOM      2  C   UNL     1       6.830  31.670  15.021  1.00  0.00    -0.027 C 
ATOM      3  C   UNL     1       8.374  29.993  14.120  1.00  0.00     0.039 C 
ENDROOT
BRANCH   2   4
ATOM      4  C   UNL     1       5.622  32.226  15.743  1.00  0.00     0.032 C 
BRANCH   4   5
ATOM      5  C   UNL     1       4.558  32.868  14.829  1.00  0.00     0.034 C 
BRANCH   5   6
ATOM      6  C   UNL     1       4.203  32.005  13.630  1.00  0.00    -0.077 C 
ATOM      7  C   UNL     1       4.479  32.565  12.257  1.00  0.00     0.039 C 
ATOM      8  C   UNL     1       3.593  30.798  13.712  1.00  0.00    -0.023 CG0
ATOM      9  G   UNL     1       3.239  30.035  14.973  1.00  0.00     0.000 G0
ENDBRANCH   5   6
ENDBRANCH   4   5
ENDBRANCH   2   4
BRANCH   1  10
ATOM     10  C   UNL     1       6.419  29.266  15.674  1.00  0.00     0.111 C 
BRANCH  10  11
ATOM     11  C   UNL     1       5.393  28.647  14.762  1.00  0.00     0.163 C 
ATOM     12  O   UNL     1       5.792  28.131  13.684  1.00  0.00    -0.294 OA
BRANCH  11  13
ATOM     13  C   UNL     1       3.930  28.681  15.061  1.00  0.00    -0.002 C 
ATOM     14  C   UNL     1       3.244  27.527  15.322  1.00  0.00    -0.069 C 
ATOM     15  C   UNL     1       3.961  26.203  15.472  1.00  0.00     0.039 C 
ATOM     16  C   UNL     1       1.738  27.509  15.471  1.00  0.00     0.039 C 
BRANCH  13  17
ATOM     17  C   UNL     1       3.231  30.028  14.968  1.00  0.00     0.066 CG0
ATOM     18  G   UNL     1       3.608  30.786  13.711  1.00  0.00     0.000 G0
ENDBRANCH  13  17
ENDBRANCH  11  13
ENDBRANCH  10  11
ENDBRANCH   1  10
TORSDOF 0
ENDMDL
MODEL 9
REMARK VINA RESULT:    -2.914     11.201     12.771
REMARK INTER + INTRA:          -3.873
REMARK INTER:                  -4.396
REMARK INTRA:                   0.523
REMARK UNBOUND:                 0.233
REMARK SMILES CC1=CCC(=C(C)C)C(=O)CC(C)=CCC1
REMARK SMILES IDX 12 1 14 2 13 3 15 4 16 5 2 6 1 7 3 8 11 10 9 11 10 12 5 13
REMARK SMILES IDX 6 14 7 15 8 16 4 17
REMARK H PARENT
REMARK Flexibility Score: 60.00
ROOT
ATOM      1  C   UNL     1       6.296  31.749  15.521  1.00  0.00    -0.070 C 
ATOM      2  C   UNL     1       5.641  30.636  15.919  1.00  0.00    -0.027 C 
ATOM      3  C   UNL     1       5.484  32.997  15.279  1.00  0.00     0.039 C 
ENDROOT
BRANCH   2   4
ATOM      4  C   UNL     1       6.262  29.271  16.118  1.00  0.00     0.032 C 
BRANCH   4   5
ATOM      5  C   UNL     1       5.697  28.162  15.205  1.00  0.00     0.034 C 
BRANCH   5   6
ATOM      6  C   UNL     1       5.768  28.511  13.729  1.00  0.00    -0.077 C 
ATOM      7  C   UNL     1       4.473  28.564  12.958  1.00  0.00     0.039 C 
ATOM      8  C   UNL     1       6.921  28.709  13.045  1.00  0.00    -0.023 CG0
ATOM      9  G   UNL     1       8.328  28.724  13.609  1.00  0.00     0.000 G0
ENDBRANCH   5   6
ENDBRANCH   4   5
ENDBRANCH   2   4
BRANCH   1  10
ATOM     10  C   UNL     1       7.781  31.779  15.221  1.00  0.00     0.111 C 
BRANCH  10  11
ATOM     11  C   UNL     1       8.078  31.270  13.835  1.00  0.00     0.163 C 
ATOM     12  O   UNL     1       7.506  31.831  12.862  1.00  0.00    -0.294 OA
BRANCH  11  13
ATOM     13  C   UNL     1       8.968  30.097  13.585  1.00  0.00    -0.002 C 
ATOM     14  C   UNL     1      10.284  30.276  13.260  1.00  0.00    -0.069 C 
ATOM     15  C   UNL     1      10.923  31.647  13.296  1.00  0.00     0.039 C 
ATOM     16  C   UNL     1      11.170  29.120  12.847  1.00  0.00     0.039 C 
BRANCH  13  17
ATOM     17  C   UNL     1       8.327  28.719  13.613  1.00  0.00     0.066 CG0
ATOM     18  G   UNL     1       6.926  28.723  13.035  1.00  0.00     0.000 G0
ENDBRANCH  13  17
ENDBRANCH  11  13
ENDBRANCH  10  11
ENDBRANCH   1  10
TORSDOF 0
ENDMDL
