MODEL 1
REMARK VINA RESULT:    -1.324      0.000      0.000
REMARK INTER + INTRA:          -3.745
REMARK INTER:                  -2.098
REMARK INTRA:                  -1.647
REMARK UNBOUND:                -1.647
REMARK SMILES CCCCCCCCCCCC(=O)[O-]
REMARK SMILES IDX 7 1 8 2 9 3 10 4 11 5 12 6 13 7 14 8 6 9 5 10 4 11 3 12 2 13
REMARK SMILES IDX 1 14
REMARK H PARENT
REMARK Flexibility Score: inf
ROOT
ATOM      1  C   UNL     1     139.251  57.125 -10.287  1.00  0.00     0.000 C 
ENDROOT
BRANCH   1   2
ATOM      2  C   UNL     1     139.368  56.855 -11.794  1.00  0.00     0.000 C 
BRANCH   2   3
ATOM      3  C   UNL     1     140.825  56.878 -12.287  1.00  0.00     0.000 C 
BRANCH   3   4
ATOM      4  C   UNL     1     141.168  55.672 -13.179  1.00  0.00     0.006 C 
BRANCH   4   5
ATOM      5  C   UNL     1     140.738  54.343 -12.544  1.00  0.00     0.053 C 
BRANCH   5   6
ATOM      6  C   UNL     1     139.971  53.492 -13.509  1.00  0.00     0.041 C 
ATOM      7  O   UNL     1     140.539  52.535 -14.101  1.00  0.00    -0.550 OA
ATOM      8  O   UNL     1     138.621  53.732 -13.731  1.00  0.00    -0.550 OA
ENDBRANCH   5   6
ENDBRANCH   4   5
ENDBRANCH   3   4
ENDBRANCH   2   3
ENDBRANCH   1   2
BRANCH   1   9
ATOM      9  C   UNL     1     138.453  56.011  -9.592  1.00  0.00     0.000 C 
BRANCH   9  10
ATOM     10  C   UNL     1     139.347  54.866  -9.092  1.00  0.00    -0.000 C 
BRANCH  10  11
ATOM     11  C   UNL     1     140.673  55.368  -8.495  1.00  0.00    -0.000 C 
BRANCH  11  12
ATOM     12  C   UNL     1     141.895  54.633  -9.067  1.00  0.00    -0.000 C 
BRANCH  12  13
ATOM     13  C   UNL     1     142.986  55.596  -9.559  1.00  0.00    -0.003 C 
ATOM     14  C   UNL     1     142.717  57.021  -9.082  1.00  0.00     0.004 C 
ENDBRANCH  12  13
ENDBRANCH  11  12
ENDBRANCH  10  11
ENDBRANCH   9  10
ENDBRANCH   1   9
TORSDOF 10
ENDMDL
MODEL 2
REMARK VINA RESULT:    -1.323      1.179      3.056
REMARK INTER + INTRA:          -3.744
REMARK INTER:                  -2.364
REMARK INTRA:                  -1.379
REMARK UNBOUND:                -1.647
REMARK SMILES CCCCCCCCCCCC(=O)[O-]
REMARK SMILES IDX 7 1 8 2 9 3 10 4 11 5 12 6 13 7 14 8 6 9 5 10 4 11 3 12 2 13
REMARK SMILES IDX 1 14
REMARK H PARENT
REMARK Flexibility Score: inf
ROOT
ATOM      1  C   UNL     1     142.738  55.653 -10.037  1.00  0.00     0.000 C 
ENDROOT
BRANCH   1   2
ATOM      2  C   UNL     1     142.986  56.242 -11.434  1.00  0.00     0.000 C 
BRANCH   2   3
ATOM      3  C   UNL     1     141.824  57.124 -11.919  1.00  0.00     0.000 C 
BRANCH   3   4
ATOM      4  C   UNL     1     141.135  56.560 -13.173  1.00  0.00     0.006 C 
BRANCH   4   5
ATOM      5  C   UNL     1     139.778  55.922 -12.850  1.00  0.00     0.053 C 
BRANCH   5   6
ATOM      6  C   UNL     1     139.793  54.442 -13.078  1.00  0.00     0.041 C 
ATOM      7  O   UNL     1     138.801  53.871 -13.605  1.00  0.00    -0.550 OA
ATOM      8  O   UNL     1     140.916  53.697 -12.741  1.00  0.00    -0.550 OA
ENDBRANCH   5   6
ENDBRANCH   4   5
ENDBRANCH   3   4
ENDBRANCH   2   3
ENDBRANCH   1   2
BRANCH   1   9
ATOM      9  C   UNL     1     142.057  56.682  -9.122  1.00  0.00     0.000 C 
BRANCH   9  10
ATOM     10  C   UNL     1     140.828  56.109  -8.401  1.00  0.00    -0.000 C 
BRANCH  10  11
ATOM     11  C   UNL     1     140.151  54.976  -9.192  1.00  0.00    -0.000 C 
BRANCH  11  12
ATOM     12  C   UNL     1     138.667  55.254  -9.471  1.00  0.00    -0.000 C 
BRANCH  12  13
ATOM     13  C   UNL     1     138.366  56.752  -9.629  1.00  0.00    -0.003 C 
ATOM     14  C   UNL     1     137.029  57.115  -8.988  1.00  0.00     0.004 C 
ENDBRANCH  12  13
ENDBRANCH  11  12
ENDBRANCH  10  11
ENDBRANCH   9  10
ENDBRANCH   1   9
TORSDOF 10
ENDMDL
MODEL 3
REMARK VINA RESULT:    -1.168      2.599      4.167
REMARK INTER + INTRA:          -3.497
REMARK INTER:                  -1.969
REMARK INTRA:                  -1.528
REMARK UNBOUND:                -1.647
REMARK SMILES CCCCCCCCCCCC(=O)[O-]
REMARK SMILES IDX 7 1 8 2 9 3 10 4 11 5 12 6 13 7 14 8 6 9 5 10 4 11 3 12 2 13
REMARK SMILES IDX 1 14
REMARK H PARENT
REMARK Flexibility Score: inf
ROOT
ATOM      1  C   UNL     1     139.699  56.948 -10.674  1.00  0.00     0.000 C 
ENDROOT
BRANCH   1   2
ATOM      2  C   UNL     1     138.363  57.125  -9.936  1.00  0.00     0.000 C 
BRANCH   2   3
ATOM      3  C   UNL     1     138.154  56.077  -8.831  1.00  0.00     0.000 C 
BRANCH   3   4
ATOM      4  C   UNL     1     139.297  55.050  -8.765  1.00  0.00     0.006 C 
BRANCH   4   5
ATOM      5  C   UNL     1     138.780  53.606  -8.826  1.00  0.00     0.053 C 
BRANCH   5   6
ATOM      6  C   UNL     1     139.790  52.635  -8.295  1.00  0.00     0.041 C 
ATOM      7  O   UNL     1     139.842  51.462  -8.752  1.00  0.00    -0.550 OA
ATOM      8  O   UNL     1     140.695  53.034  -7.320  1.00  0.00    -0.550 OA
ENDBRANCH   5   6
ENDBRANCH   4   5
ENDBRANCH   3   4
ENDBRANCH   2   3
ENDBRANCH   1   2
BRANCH   1   9
ATOM      9  C   UNL     1     139.507  57.076 -12.192  1.00  0.00     0.000 C 
BRANCH   9  10
ATOM     10  C   UNL     1     140.067  55.871 -12.964  1.00  0.00    -0.000 C 
BRANCH  10  11
ATOM     11  C   UNL     1     139.515  54.530 -12.449  1.00  0.00    -0.000 C 
BRANCH  11  12
ATOM     12  C   UNL     1     140.625  53.570 -11.994  1.00  0.00    -0.000 C 
BRANCH  12  13
ATOM     13  C   UNL     1     141.976  54.276 -11.806  1.00  0.00    -0.003 C 
ATOM     14  C   UNL     1     142.514  54.068 -10.393  1.00  0.00     0.004 C 
ENDBRANCH  12  13
ENDBRANCH  11  12
ENDBRANCH  10  11
ENDBRANCH   9  10
ENDBRANCH   1   9
TORSDOF 10
ENDMDL
MODEL 4
REMARK VINA RESULT:    -1.167      9.270     11.428
REMARK INTER + INTRA:          -3.496
REMARK INTER:                  -2.224
REMARK INTRA:                  -1.272
REMARK UNBOUND:                -1.647
REMARK SMILES CCCCCCCCCCCC(=O)[O-]
REMARK SMILES IDX 7 1 8 2 9 3 10 4 11 5 12 6 13 7 14 8 6 9 5 10 4 11 3 12 2 13
REMARK SMILES IDX 1 14
REMARK H PARENT
REMARK Flexibility Score: inf
ROOT
ATOM      1  C   UNL     1     129.118  55.700 -12.279  1.00  0.00     0.000 C 
ENDROOT
BRANCH   1   2
ATOM      2  C   UNL     1     128.160  56.530 -11.411  1.00  0.00     0.000 C 
BRANCH   2   3
ATOM      3  C   UNL     1     128.787  56.946 -10.070  1.00  0.00     0.000 C 
BRANCH   3   4
ATOM      4  C   UNL     1     129.042  55.749  -9.138  1.00  0.00     0.006 C 
BRANCH   4   5
ATOM      5  C   UNL     1     128.305  55.891  -7.800  1.00  0.00     0.053 C 
BRANCH   5   6
ATOM      6  C   UNL     1     129.179  56.504  -6.749  1.00  0.00     0.041 C 
ATOM      7  O   UNL     1     130.425  56.571  -6.921  1.00  0.00    -0.550 OA
ATOM      8  O   UNL     1     128.615  57.033  -5.595  1.00  0.00    -0.550 OA
ENDBRANCH   5   6
ENDBRANCH   4   5
ENDBRANCH   3   4
ENDBRANCH   2   3
ENDBRANCH   1   2
BRANCH   1   9
ATOM      9  C   UNL     1     129.697  56.549 -13.421  1.00  0.00     0.000 C 
BRANCH   9  10
ATOM     10  C   UNL     1     131.231  56.621 -13.385  1.00  0.00    -0.000 C 
BRANCH  10  11
ATOM     11  C   UNL     1     131.821  56.041 -12.088  1.00  0.00    -0.000 C 
BRANCH  11  12
ATOM     12  C   UNL     1     132.391  57.125 -11.161  1.00  0.00    -0.000 C 
BRANCH  12  13
ATOM     13  C   UNL     1     132.780  56.576  -9.780  1.00  0.00    -0.003 C 
ATOM     14  C   UNL     1     132.641  55.057  -9.734  1.00  0.00     0.004 C 
ENDBRANCH  12  13
ENDBRANCH  11  12
ENDBRANCH  10  11
ENDBRANCH   9  10
ENDBRANCH   1   9
TORSDOF 10
ENDMDL
MODEL 5
REMARK VINA RESULT:    -1.154      3.078      5.045
REMARK INTER + INTRA:          -3.475
REMARK INTER:                  -1.973
REMARK INTRA:                  -1.502
REMARK UNBOUND:                -1.647
REMARK SMILES CCCCCCCCCCCC(=O)[O-]
REMARK SMILES IDX 7 1 8 2 9 3 10 4 11 5 12 6 13 7 14 8 6 9 5 10 4 11 3 12 2 13
REMARK SMILES IDX 1 14
REMARK H PARENT
REMARK Flexibility Score: inf
ROOT
ATOM      1  C   UNL     1     140.497  53.021 -10.825  1.00  0.00     0.000 C 
ENDROOT
BRANCH   1   2
ATOM      2  C   UNL     1     140.515  53.648  -9.423  1.00  0.00     0.000 C 
BRANCH   2   3
ATOM      3  C   UNL     1     139.108  53.788  -8.820  1.00  0.00     0.000 C 
BRANCH   3   4
ATOM      4  C   UNL     1     138.840  55.196  -8.262  1.00  0.00     0.006 C 
BRANCH   4   5
ATOM      5  C   UNL     1     137.831  55.974  -9.117  1.00  0.00     0.053 C 
BRANCH   5   6
ATOM      6  C   UNL     1     136.560  56.238  -8.370  1.00  0.00     0.041 C 
ATOM      7  O   UNL     1     136.542  56.187  -7.111  1.00  0.00    -0.550 OA
ATOM      8  O   UNL     1     135.403  56.573  -9.061  1.00  0.00    -0.550 OA
ENDBRANCH   5   6
ENDBRANCH   4   5
ENDBRANCH   3   4
ENDBRANCH   2   3
ENDBRANCH   1   2
BRANCH   1   9
ATOM      9  C   UNL     1     139.381  53.633 -11.685  1.00  0.00     0.000 C 
BRANCH   9  10
ATOM     10  C   UNL     1     139.870  54.048 -13.081  1.00  0.00    -0.000 C 
BRANCH  10  11
ATOM     11  C   UNL     1     140.559  55.424 -13.082  1.00  0.00    -0.000 C 
BRANCH  11  12
ATOM     12  C   UNL     1     139.891  56.420 -12.122  1.00  0.00    -0.000 C 
BRANCH  12  13
ATOM     13  C   UNL     1     140.859  56.949 -11.053  1.00  0.00    -0.003 C 
ATOM     14  C   UNL     1     142.259  56.370 -11.245  1.00  0.00     0.004 C 
ENDBRANCH  12  13
ENDBRANCH  11  12
ENDBRANCH  10  11
ENDBRANCH   9  10
ENDBRANCH   1   9
TORSDOF 10
ENDMDL
MODEL 6
REMARK VINA RESULT:    -1.139      2.599      4.353
REMARK INTER + INTRA:          -3.451
REMARK INTER:                  -1.896
REMARK INTRA:                  -1.555
REMARK UNBOUND:                -1.647
REMARK SMILES CCCCCCCCCCCC(=O)[O-]
REMARK SMILES IDX 7 1 8 2 9 3 10 4 11 5 12 6 13 7 14 8 6 9 5 10 4 11 3 12 2 13
REMARK SMILES IDX 1 14
REMARK H PARENT
REMARK Flexibility Score: inf
ROOT
ATOM      1  C   UNL     1     140.469  53.475 -13.338  1.00  0.00     0.000 C 
ENDROOT
BRANCH   1   2
ATOM      2  C   UNL     1     139.481  54.576 -12.923  1.00  0.00     0.000 C 
BRANCH   2   3
ATOM      3  C   UNL     1     140.143  55.960 -12.827  1.00  0.00     0.000 C 
BRANCH   3   4
ATOM      4  C   UNL     1     139.505  56.849 -11.746  1.00  0.00     0.006 C 
BRANCH   4   5
ATOM      5  C   UNL     1     140.318  56.849 -10.444  1.00  0.00     0.053 C 
BRANCH   5   6
ATOM      6  C   UNL     1     139.484  56.431  -9.272  1.00  0.00     0.041 C 
ATOM      7  O   UNL     1     139.955  56.492  -8.105  1.00  0.00    -0.550 OA
ATOM      8  O   UNL     1     138.176  56.006  -9.464  1.00  0.00    -0.550 OA
ENDBRANCH   5   6
ENDBRANCH   4   5
ENDBRANCH   3   4
ENDBRANCH   2   3
ENDBRANCH   1   2
BRANCH   1   9
ATOM      9  C   UNL     1     141.875  54.054 -13.551  1.00  0.00     0.000 C 
BRANCH   9  10
ATOM     10  C   UNL     1     142.926  53.406 -12.636  1.00  0.00    -0.000 C 
BRANCH  10  11
ATOM     11  C   UNL     1     142.303  52.748 -11.392  1.00  0.00    -0.000 C 
BRANCH  11  12
ATOM     12  C   UNL     1     142.243  53.699 -10.188  1.00  0.00    -0.000 C 
BRANCH  12  13
ATOM     13  C   UNL     1     141.292  53.201  -9.089  1.00  0.00    -0.003 C 
ATOM     14  C   UNL     1     139.945  52.785  -9.676  1.00  0.00     0.004 C 
ENDBRANCH  12  13
ENDBRANCH  11  12
ENDBRANCH  10  11
ENDBRANCH   9  10
ENDBRANCH   1   9
TORSDOF 10
ENDMDL
MODEL 7
REMARK VINA RESULT:    -1.132      9.337     11.250
REMARK INTER + INTRA:          -3.441
REMARK INTER:                  -1.802
REMARK INTRA:                  -1.639
REMARK UNBOUND:                -1.647
REMARK SMILES CCCCCCCCCCCC(=O)[O-]
REMARK SMILES IDX 7 1 8 2 9 3 10 4 11 5 12 6 13 7 14 8 6 9 5 10 4 11 3 12 2 13
REMARK SMILES IDX 1 14
REMARK H PARENT
REMARK Flexibility Score: inf
ROOT
ATOM      1  C   UNL     1     131.610  53.116 -12.123  1.00  0.00     0.000 C 
ENDROOT
BRANCH   1   2
ATOM      2  C   UNL     1     130.939  53.329 -10.757  1.00  0.00     0.000 C 
BRANCH   2   3
ATOM      3  C   UNL     1     129.405  53.373 -10.852  1.00  0.00     0.000 C 
BRANCH   3   4
ATOM      4  C   UNL     1     128.786  54.444  -9.939  1.00  0.00     0.006 C 
BRANCH   4   5
ATOM      5  C   UNL     1     129.608  54.660  -8.661  1.00  0.00     0.053 C 
BRANCH   5   6
ATOM      6  C   UNL     1     129.347  56.005  -8.057  1.00  0.00     0.041 C 
ATOM      7  O   UNL     1     128.202  56.293  -7.618  1.00  0.00    -0.550 OA
ATOM      8  O   UNL     1     130.378  56.930  -7.946  1.00  0.00    -0.550 OA
ENDBRANCH   5   6
ENDBRANCH   4   5
ENDBRANCH   3   4
ENDBRANCH   2   3
ENDBRANCH   1   2
BRANCH   1   9
ATOM      9  C   UNL     1     130.811  53.805 -13.239  1.00  0.00     0.000 C 
BRANCH   9  10
ATOM     10  C   UNL     1     131.684  54.711 -14.120  1.00  0.00    -0.000 C 
BRANCH  10  11
ATOM     11  C   UNL     1     131.702  56.171 -13.633  1.00  0.00    -0.000 C 
BRANCH  11  12
ATOM     12  C   UNL     1     130.415  56.561 -12.890  1.00  0.00    -0.000 C 
BRANCH  12  13
ATOM     13  C   UNL     1     130.690  57.116 -11.484  1.00  0.00    -0.003 C 
ATOM     14  C   UNL     1     132.130  56.842 -11.057  1.00  0.00     0.004 C 
ENDBRANCH  12  13
ENDBRANCH  11  12
ENDBRANCH  10  11
ENDBRANCH   9  10
ENDBRANCH   1   9
TORSDOF 10
ENDMDL
MODEL 8
REMARK VINA RESULT:    -1.081      2.369      4.198
REMARK INTER + INTRA:          -3.360
REMARK INTER:                  -1.652
REMARK INTRA:                  -1.708
REMARK UNBOUND:                -1.647
REMARK SMILES CCCCCCCCCCCC(=O)[O-]
REMARK SMILES IDX 7 1 8 2 9 3 10 4 11 5 12 6 13 7 14 8 6 9 5 10 4 11 3 12 2 13
REMARK SMILES IDX 1 14
REMARK H PARENT
REMARK Flexibility Score: inf
ROOT
ATOM      1  C   UNL     1     142.364  53.743 -13.667  1.00  0.00     0.000 C 
ENDROOT
BRANCH   1   2
ATOM      2  C   UNL     1     141.278  52.666 -13.523  1.00  0.00     0.000 C 
BRANCH   2   3
ATOM      3  C   UNL     1     139.907  53.137 -14.035  1.00  0.00     0.000 C 
BRANCH   3   4
ATOM      4  C   UNL     1     138.788  52.939 -12.999  1.00  0.00     0.006 C 
BRANCH   4   5
ATOM      5  C   UNL     1     139.265  52.143 -11.777  1.00  0.00     0.053 C 
BRANCH   5   6
ATOM      6  C   UNL     1     138.625  50.791 -11.713  1.00  0.00     0.041 C 
ATOM      7  O   UNL     1     139.028  49.862 -12.463  1.00  0.00    -0.550 OA
ATOM      8  O   UNL     1     137.606  50.545 -10.801  1.00  0.00    -0.550 OA
ENDBRANCH   5   6
ENDBRANCH   4   5
ENDBRANCH   3   4
ENDBRANCH   2   3
ENDBRANCH   1   2
BRANCH   1   9
ATOM      9  C   UNL     1     143.135  53.922 -12.350  1.00  0.00     0.000 C 
BRANCH   9  10
ATOM     10  C   UNL     1     142.219  54.295 -11.175  1.00  0.00    -0.000 C 
BRANCH  10  11
ATOM     11  C   UNL     1     141.762  55.764 -11.223  1.00  0.00    -0.000 C 
BRANCH  11  12
ATOM     12  C   UNL     1     140.235  55.906 -11.312  1.00  0.00    -0.000 C 
BRANCH  12  13
ATOM     13  C   UNL     1     139.782  56.616 -12.596  1.00  0.00    -0.003 C 
ATOM     14  C   UNL     1     140.979  57.125 -13.395  1.00  0.00     0.004 C 
ENDBRANCH  12  13
ENDBRANCH  11  12
ENDBRANCH  10  11
ENDBRANCH   9  10
ENDBRANCH   1   9
TORSDOF 10
ENDMDL
