MODEL 1
REMARK VINA RESULT:    -3.735      0.000      0.000
REMARK INTER + INTRA:          -8.953
REMARK INTER:                  -7.010
REMARK INTRA:                  -1.944
REMARK UNBOUND:                -1.944
REMARK SMILES O=C([O-])CCCCCCCCCCCCCCC(=O)[O-]
REMARK SMILES IDX 10 1 9 2 8 3 7 4 6 5 5 6 4 7 2 8 1 9 3 10 11 11 12 12 13 13
REMARK SMILES IDX 14 14 15 15 16 16 17 17 18 18 19 19 20 20
REMARK H PARENT
REMARK Flexibility Score: inf
ROOT
ATOM      1  C   UNL     1      -5.961  -2.868   8.671  1.00  0.00     0.000 C 
ENDROOT
BRANCH   1   2
ATOM      2  C   UNL     1      -5.297  -3.245   7.329  1.00  0.00     0.000 C 
BRANCH   2   3
ATOM      3  C   UNL     1      -4.363  -4.467   7.422  1.00  0.00     0.000 C 
BRANCH   3   4
ATOM      4  C   UNL     1      -3.083  -4.376   6.569  1.00  0.00     0.000 C 
BRANCH   4   5
ATOM      5  C   UNL     1      -2.008  -3.418   7.113  1.00  0.00     0.000 C 
BRANCH   5   6
ATOM      6  C   UNL     1      -1.889  -2.125   6.293  1.00  0.00     0.006 C 
BRANCH   6   7
ATOM      7  C   UNL     1      -0.504  -2.012   5.649  1.00  0.00     0.053 C 
BRANCH   7   8
ATOM      8  C   UNL     1      -0.625  -1.608   4.214  1.00  0.00     0.041 C 
ATOM      9  O   UNL     1       0.395  -1.246   3.569  1.00  0.00    -0.550 OA
ATOM     10  O   UNL     1      -1.856  -1.676   3.574  1.00  0.00    -0.550 OA
ENDBRANCH   7   8
ENDBRANCH   6   7
ENDBRANCH   5   6
ENDBRANCH   4   5
ENDBRANCH   3   4
ENDBRANCH   2   3
ENDBRANCH   1   2
BRANCH   1  11
ATOM     11  C   UNL     1      -5.806  -3.972   9.732  1.00  0.00     0.000 C 
BRANCH  11  12
ATOM     12  C   UNL     1      -5.661  -3.407  11.153  1.00  0.00     0.000 C 
BRANCH  12  13
ATOM     13  C   UNL     1      -5.953  -1.898  11.219  1.00  0.00     0.000 C 
BRANCH  13  14
ATOM     14  C   UNL     1      -4.757  -1.084  11.743  1.00  0.00     0.000 C 
BRANCH  14  15
ATOM     15  C   UNL     1      -3.383  -1.757  11.562  1.00  0.00     0.000 C 
BRANCH  15  16
ATOM     16  C   UNL     1      -2.785  -1.657  10.144  1.00  0.00     0.006 C 
BRANCH  16  17
ATOM     17  C   UNL     1      -3.025  -0.308   9.448  1.00  0.00     0.053 C 
BRANCH  17  18
ATOM     18  C   UNL     1      -2.111   0.759   9.968  1.00  0.00     0.041 C 
ATOM     19  O   UNL     1      -0.881   0.726   9.702  1.00  0.00    -0.550 OA
ATOM     20  O   UNL     1      -2.625   1.808  10.720  1.00  0.00    -0.550 OA
ENDBRANCH  17  18
ENDBRANCH  16  17
ENDBRANCH  15  16
ENDBRANCH  14  15
ENDBRANCH  13  14
ENDBRANCH  12  13
ENDBRANCH  11  12
ENDBRANCH   1  11
TORSDOF 15
ENDMDL
MODEL 2
REMARK VINA RESULT:    -3.683      1.315      2.196
REMARK INTER + INTRA:          -8.856
REMARK INTER:                  -7.094
REMARK INTRA:                  -1.763
REMARK UNBOUND:                -1.944
REMARK SMILES O=C([O-])CCCCCCCCCCCCCCC(=O)[O-]
REMARK SMILES IDX 10 1 9 2 8 3 7 4 6 5 5 6 4 7 2 8 1 9 3 10 11 11 12 12 13 13
REMARK SMILES IDX 14 14 15 15 16 16 17 17 18 18 19 19 20 20
REMARK H PARENT
REMARK Flexibility Score: inf
ROOT
ATOM      1  C   UNL     1      -4.463  -2.673   7.187  1.00  0.00     0.000 C 
ENDROOT
BRANCH   1   2
ATOM      2  C   UNL     1      -3.402  -3.787   7.314  1.00  0.00     0.000 C 
BRANCH   2   3
ATOM      3  C   UNL     1      -1.961  -3.300   7.069  1.00  0.00     0.000 C 
BRANCH   3   4
ATOM      4  C   UNL     1      -1.754  -2.506   5.765  1.00  0.00     0.000 C 
BRANCH   4   5
ATOM      5  C   UNL     1      -0.330  -1.960   5.557  1.00  0.00     0.000 C 
BRANCH   5   6
ATOM      6  C   UNL     1      -0.029  -1.618   4.090  1.00  0.00     0.006 C 
BRANCH   6   7
ATOM      7  C   UNL     1      -1.282  -1.090   3.384  1.00  0.00     0.053 C 
BRANCH   7   8
ATOM      8  C   UNL     1      -1.471  -1.778   2.069  1.00  0.00     0.041 C 
ATOM      9  O   UNL     1      -1.287  -3.020   1.972  1.00  0.00    -0.550 OA
ATOM     10  O   UNL     1      -1.898  -1.056   0.962  1.00  0.00    -0.550 OA
ENDBRANCH   7   8
ENDBRANCH   6   7
ENDBRANCH   5   6
ENDBRANCH   4   5
ENDBRANCH   3   4
ENDBRANCH   2   3
ENDBRANCH   1   2
BRANCH   1  11
ATOM     11  C   UNL     1      -5.593  -2.819   8.223  1.00  0.00     0.000 C 
BRANCH  11  12
ATOM     12  C   UNL     1      -5.428  -4.067   9.103  1.00  0.00     0.000 C 
BRANCH  12  13
ATOM     13  C   UNL     1      -5.954  -3.852  10.533  1.00  0.00     0.000 C 
BRANCH  13  14
ATOM     14  C   UNL     1      -5.531  -2.497  11.124  1.00  0.00     0.000 C 
BRANCH  14  15
ATOM     15  C   UNL     1      -4.097  -2.451  11.687  1.00  0.00     0.000 C 
BRANCH  15  16
ATOM     16  C   UNL     1      -3.303  -1.172  11.355  1.00  0.00     0.006 C 
BRANCH  16  17
ATOM     17  C   UNL     1      -2.340  -1.313  10.165  1.00  0.00     0.053 C 
BRANCH  17  18
ATOM     18  C   UNL     1      -2.548  -0.234   9.147  1.00  0.00     0.041 C 
ATOM     19  O   UNL     1      -1.618   0.085   8.361  1.00  0.00    -0.550 OA
ATOM     20  O   UNL     1      -3.781   0.400   9.047  1.00  0.00    -0.550 OA
ENDBRANCH  17  18
ENDBRANCH  16  17
ENDBRANCH  15  16
ENDBRANCH  14  15
ENDBRANCH  13  14
ENDBRANCH  12  13
ENDBRANCH  11  12
ENDBRANCH   1  11
TORSDOF 15
ENDMDL
MODEL 3
REMARK VINA RESULT:    -3.676      2.408      4.967
REMARK INTER + INTRA:          -8.844
REMARK INTER:                  -7.274
REMARK INTRA:                  -1.570
REMARK UNBOUND:                -1.944
REMARK SMILES O=C([O-])CCCCCCCCCCCCCCC(=O)[O-]
REMARK SMILES IDX 10 1 9 2 8 3 7 4 6 5 5 6 4 7 2 8 1 9 3 10 11 11 12 12 13 13
REMARK SMILES IDX 14 14 15 15 16 16 17 17 18 18 19 19 20 20
REMARK H PARENT
REMARK Flexibility Score: inf
ROOT
ATOM      1  C   UNL     1      -5.423  -2.147  10.968  1.00  0.00     0.000 C 
ENDROOT
BRANCH   1   2
ATOM      2  C   UNL     1      -6.152  -3.474  10.667  1.00  0.00     0.000 C 
BRANCH   2   3
ATOM      3  C   UNL     1      -5.562  -4.247   9.472  1.00  0.00     0.000 C 
BRANCH   3   4
ATOM      4  C   UNL     1      -5.169  -3.377   8.263  1.00  0.00     0.000 C 
BRANCH   4   5
ATOM      5  C   UNL     1      -4.992  -4.145   6.940  1.00  0.00     0.000 C 
BRANCH   5   6
ATOM      6  C   UNL     1      -3.861  -5.183   7.000  1.00  0.00     0.006 C 
BRANCH   6   7
ATOM      7  C   UNL     1      -4.423  -6.607   6.943  1.00  0.00     0.053 C 
BRANCH   7   8
ATOM      8  C   UNL     1      -4.422  -7.113   5.536  1.00  0.00     0.041 C 
ATOM      9  O   UNL     1      -5.393  -7.792   5.106  1.00  0.00    -0.550 OA
ATOM     10  O   UNL     1      -3.374  -6.795   4.682  1.00  0.00    -0.550 OA
ENDBRANCH   7   8
ENDBRANCH   6   7
ENDBRANCH   5   6
ENDBRANCH   4   5
ENDBRANCH   3   4
ENDBRANCH   2   3
ENDBRANCH   1   2
BRANCH   1  11
ATOM     11  C   UNL     1      -4.067  -2.367  11.663  1.00  0.00     0.000 C 
BRANCH  11  12
ATOM     12  C   UNL     1      -3.014  -1.330  11.244  1.00  0.00     0.000 C 
BRANCH  12  13
ATOM     13  C   UNL     1      -2.456  -1.596   9.834  1.00  0.00     0.000 C 
BRANCH  13  14
ATOM     14  C   UNL     1      -2.818  -0.486   8.833  1.00  0.00     0.000 C 
BRANCH  14  15
ATOM     15  C   UNL     1      -1.993  -0.489   7.531  1.00  0.00     0.000 C 
BRANCH  15  16
ATOM     16  C   UNL     1      -1.980  -1.829   6.767  1.00  0.00     0.006 C 
BRANCH  16  17
ATOM     17  C   UNL     1      -0.689  -2.098   5.980  1.00  0.00     0.053 C 
BRANCH  17  18
ATOM     18  C   UNL     1      -0.851  -1.798   4.521  1.00  0.00     0.041 C 
ATOM     19  O   UNL     1      -1.974  -1.927   3.968  1.00  0.00    -0.550 OA
ATOM     20  O   UNL     1       0.233  -1.344   3.779  1.00  0.00    -0.550 OA
ENDBRANCH  17  18
ENDBRANCH  16  17
ENDBRANCH  15  16
ENDBRANCH  14  15
ENDBRANCH  13  14
ENDBRANCH  12  13
ENDBRANCH  11  12
ENDBRANCH   1  11
TORSDOF 15
ENDMDL
MODEL 4
REMARK VINA RESULT:    -3.657      1.107      2.161
REMARK INTER + INTRA:          -8.808
REMARK INTER:                  -6.422
REMARK INTRA:                  -2.386
REMARK UNBOUND:                -1.944
REMARK SMILES O=C([O-])CCCCCCCCCCCCCCC(=O)[O-]
REMARK SMILES IDX 10 1 9 2 8 3 7 4 6 5 5 6 4 7 2 8 1 9 3 10 11 11 12 12 13 13
REMARK SMILES IDX 14 14 15 15 16 16 17 17 18 18 19 19 20 20
REMARK H PARENT
REMARK Flexibility Score: inf
ROOT
ATOM      1  C   UNL     1      -6.358  -3.458  11.043  1.00  0.00     0.000 C 
ENDROOT
BRANCH   1   2
ATOM      2  C   UNL     1      -5.604  -3.809   9.742  1.00  0.00     0.000 C 
BRANCH   2   3
ATOM      3  C   UNL     1      -5.908  -2.852   8.574  1.00  0.00     0.000 C 
BRANCH   3   4
ATOM      4  C   UNL     1      -5.107  -3.120   7.285  1.00  0.00     0.000 C 
BRANCH   4   5
ATOM      5  C   UNL     1      -3.940  -4.113   7.442  1.00  0.00     0.000 C 
BRANCH   5   6
ATOM      6  C   UNL     1      -2.855  -3.934   6.370  1.00  0.00     0.006 C 
BRANCH   6   7
ATOM      7  C   UNL     1      -1.644  -3.188   6.939  1.00  0.00     0.053 C 
BRANCH   7   8
ATOM      8  C   UNL     1      -1.285  -2.030   6.063  1.00  0.00     0.041 C 
ATOM      9  O   UNL     1      -2.055  -1.036   5.979  1.00  0.00    -0.550 OA
ATOM     10  O   UNL     1      -0.077  -2.024   5.378  1.00  0.00    -0.550 OA
ENDBRANCH   7   8
ENDBRANCH   6   7
ENDBRANCH   5   6
ENDBRANCH   4   5
ENDBRANCH   3   4
ENDBRANCH   2   3
ENDBRANCH   1   2
BRANCH   1  11
ATOM     11  C   UNL     1      -6.906  -2.020  11.033  1.00  0.00     0.000 C 
BRANCH  11  12
ATOM     12  C   UNL     1      -6.594  -1.261  12.332  1.00  0.00     0.000 C 
BRANCH  12  13
ATOM     13  C   UNL     1      -5.116  -1.387  12.746  1.00  0.00     0.000 C 
BRANCH  13  14
ATOM     14  C   UNL     1      -4.166  -0.656  11.783  1.00  0.00     0.000 C 
BRANCH  14  15
ATOM     15  C   UNL     1      -2.960  -1.488  11.303  1.00  0.00     0.000 C 
BRANCH  15  16
ATOM     16  C   UNL     1      -2.709  -1.460   9.781  1.00  0.00     0.006 C 
BRANCH  16  17
ATOM     17  C   UNL     1      -3.326  -0.253   9.058  1.00  0.00     0.053 C 
BRANCH  17  18
ATOM     18  C   UNL     1      -2.346   0.870   8.909  1.00  0.00     0.041 C 
ATOM     19  O   UNL     1      -2.731   2.066   8.999  1.00  0.00    -0.550 OA
ATOM     20  O   UNL     1      -1.000   0.595   8.701  1.00  0.00    -0.550 OA
ENDBRANCH  17  18
ENDBRANCH  16  17
ENDBRANCH  15  16
ENDBRANCH  14  15
ENDBRANCH  13  14
ENDBRANCH  12  13
ENDBRANCH  11  12
ENDBRANCH   1  11
TORSDOF 15
ENDMDL
MODEL 5
REMARK VINA RESULT:    -3.642      0.972      5.244
REMARK INTER + INTRA:          -8.780
REMARK INTER:                  -6.921
REMARK INTRA:                  -1.859
REMARK UNBOUND:                -1.944
REMARK SMILES O=C([O-])CCCCCCCCCCCCCCC(=O)[O-]
REMARK SMILES IDX 10 1 9 2 8 3 7 4 6 5 5 6 4 7 2 8 1 9 3 10 11 11 12 12 13 13
REMARK SMILES IDX 14 14 15 15 16 16 17 17 18 18 19 19 20 20
REMARK H PARENT
REMARK Flexibility Score: inf
ROOT
ATOM      1  C   UNL     1      -6.233  -3.751  10.002  1.00  0.00     0.000 C 
ENDROOT
BRANCH   1   2
ATOM      2  C   UNL     1      -5.554  -3.163  11.258  1.00  0.00     0.000 C 
BRANCH   2   3
ATOM      3  C   UNL     1      -4.948  -1.764  11.037  1.00  0.00     0.000 C 
BRANCH   3   4
ATOM      4  C   UNL     1      -3.469  -1.622  11.443  1.00  0.00     0.000 C 
BRANCH   4   5
ATOM      5  C   UNL     1      -2.469  -1.653  10.273  1.00  0.00     0.000 C 
BRANCH   5   6
ATOM      6  C   UNL     1      -2.419  -0.330   9.495  1.00  0.00     0.006 C 
BRANCH   6   7
ATOM      7  C   UNL     1      -1.325   0.588  10.048  1.00  0.00     0.053 C 
BRANCH   7   8
ATOM      8  C   UNL     1      -1.307   1.887   9.306  1.00  0.00     0.041 C 
ATOM      9  O   UNL     1      -2.388   2.449   8.987  1.00  0.00    -0.550 OA
ATOM     10  O   UNL     1      -0.098   2.502   9.010  1.00  0.00    -0.550 OA
ENDBRANCH   7   8
ENDBRANCH   6   7
ENDBRANCH   5   6
ENDBRANCH   4   5
ENDBRANCH   3   4
ENDBRANCH   2   3
ENDBRANCH   1   2
BRANCH   1  11
ATOM     11  C   UNL     1      -5.249  -3.927   8.832  1.00  0.00     0.000 C 
BRANCH  11  12
ATOM     12  C   UNL     1      -5.475  -2.901   7.711  1.00  0.00     0.000 C 
BRANCH  12  13
ATOM     13  C   UNL     1      -4.178  -2.558   6.957  1.00  0.00     0.000 C 
BRANCH  13  14
ATOM     14  C   UNL     1      -3.138  -3.689   7.018  1.00  0.00     0.000 C 
BRANCH  14  15
ATOM     15  C   UNL     1      -1.670  -3.222   7.058  1.00  0.00     0.000 C 
BRANCH  15  16
ATOM     16  C   UNL     1      -1.398  -1.857   6.392  1.00  0.00     0.006 C 
BRANCH  16  17
ATOM     17  C   UNL     1      -0.392  -1.906   5.232  1.00  0.00     0.053 C 
BRANCH  17  18
ATOM     18  C   UNL     1      -1.020  -1.506   3.932  1.00  0.00     0.041 C 
ATOM     19  O   UNL     1      -0.305  -1.326   2.911  1.00  0.00    -0.550 OA
ATOM     20  O   UNL     1      -2.399  -1.363   3.840  1.00  0.00    -0.550 OA
ENDBRANCH  17  18
ENDBRANCH  16  17
ENDBRANCH  15  16
ENDBRANCH  14  15
ENDBRANCH  13  14
ENDBRANCH  12  13
ENDBRANCH  11  12
ENDBRANCH   1  11
TORSDOF 15
ENDMDL
MODEL 6
REMARK VINA RESULT:    -3.624      1.322      5.687
REMARK INTER + INTRA:          -8.745
REMARK INTER:                  -6.967
REMARK INTRA:                  -1.778
REMARK UNBOUND:                -1.944
REMARK SMILES O=C([O-])CCCCCCCCCCCCCCC(=O)[O-]
REMARK SMILES IDX 10 1 9 2 8 3 7 4 6 5 5 6 4 7 2 8 1 9 3 10 11 11 12 12 13 13
REMARK SMILES IDX 14 14 15 15 16 16 17 17 18 18 19 19 20 20
REMARK H PARENT
REMARK Flexibility Score: inf
ROOT
ATOM      1  C   UNL     1      -5.317  -2.833   7.589  1.00  0.00     0.000 C 
ENDROOT
BRANCH   1   2
ATOM      2  C   UNL     1      -5.313  -3.896   8.708  1.00  0.00     0.000 C 
BRANCH   2   3
ATOM      3  C   UNL     1      -6.253  -3.562   9.882  1.00  0.00     0.000 C 
BRANCH   3   4
ATOM      4  C   UNL     1      -5.546  -3.240  11.212  1.00  0.00     0.000 C 
BRANCH   4   5
ATOM      5  C   UNL     1      -4.893  -1.847  11.279  1.00  0.00     0.000 C 
BRANCH   5   6
ATOM      6  C   UNL     1      -3.370  -1.909  11.467  1.00  0.00     0.006 C 
BRANCH   6   7
ATOM      7  C   UNL     1      -2.645  -1.630  10.147  1.00  0.00     0.053 C 
BRANCH   7   8
ATOM      8  C   UNL     1      -2.057  -0.255  10.154  1.00  0.00     0.041 C 
ATOM      9  O   UNL     1      -1.948   0.393   9.079  1.00  0.00    -0.550 OA
ATOM     10  O   UNL     1      -1.675   0.333  11.353  1.00  0.00    -0.550 OA
ENDBRANCH   7   8
ENDBRANCH   6   7
ENDBRANCH   5   6
ENDBRANCH   4   5
ENDBRANCH   3   4
ENDBRANCH   2   3
ENDBRANCH   1   2
BRANCH   1  11
ATOM     11  C   UNL     1      -4.276  -3.131   6.495  1.00  0.00     0.000 C 
BRANCH  11  12
ATOM     12  C   UNL     1      -3.228  -4.161   6.942  1.00  0.00     0.000 C 
BRANCH  12  13
ATOM     13  C   UNL     1      -1.813  -3.561   7.031  1.00  0.00     0.000 C 
BRANCH  13  14
ATOM     14  C   UNL     1      -1.738  -2.132   6.468  1.00  0.00     0.000 C 
BRANCH  14  15
ATOM     15  C   UNL     1      -0.489  -1.834   5.616  1.00  0.00     0.000 C 
BRANCH  15  16
ATOM     16  C   UNL     1      -0.723  -1.820   4.091  1.00  0.00     0.006 C 
BRANCH  16  17
ATOM     17  C   UNL     1      -2.120  -1.342   3.668  1.00  0.00     0.053 C 
BRANCH  17  18
ATOM     18  C   UNL     1      -2.170   0.144   3.485  1.00  0.00     0.041 C 
ATOM     19  O   UNL     1      -2.496   0.891   4.444  1.00  0.00    -0.550 OA
ATOM     20  O   UNL     1      -1.826   0.706   2.261  1.00  0.00    -0.550 OA
ENDBRANCH  17  18
ENDBRANCH  16  17
ENDBRANCH  15  16
ENDBRANCH  14  15
ENDBRANCH  13  14
ENDBRANCH  12  13
ENDBRANCH  11  12
ENDBRANCH   1  11
TORSDOF 15
ENDMDL
MODEL 7
REMARK VINA RESULT:    -3.597      3.383      7.317
REMARK INTER + INTRA:          -8.695
REMARK INTER:                  -6.901
REMARK INTRA:                  -1.794
REMARK UNBOUND:                -1.944
REMARK SMILES O=C([O-])CCCCCCCCCCCCCCC(=O)[O-]
REMARK SMILES IDX 10 1 9 2 8 3 7 4 6 5 5 6 4 7 2 8 1 9 3 10 11 11 12 12 13 13
REMARK SMILES IDX 14 14 15 15 16 16 17 17 18 18 19 19 20 20
REMARK H PARENT
REMARK Flexibility Score: inf
ROOT
ATOM      1  C   UNL     1      -2.118   0.387   7.765  1.00  0.00     0.000 C 
ENDROOT
BRANCH   1   2
ATOM      2  C   UNL     1      -2.805   0.372   9.147  1.00  0.00     0.000 C 
BRANCH   2   3
ATOM      3  C   UNL     1      -2.084  -0.506  10.187  1.00  0.00     0.000 C 
BRANCH   3   4
ATOM      4  C   UNL     1      -2.787  -1.838  10.515  1.00  0.00     0.000 C 
BRANCH   4   5
ATOM      5  C   UNL     1      -4.321  -1.754  10.618  1.00  0.00     0.000 C 
BRANCH   5   6
ATOM      6  C   UNL     1      -5.037  -2.611   9.564  1.00  0.00     0.006 C 
BRANCH   6   7
ATOM      7  C   UNL     1      -5.753  -3.797  10.219  1.00  0.00     0.053 C 
BRANCH   7   8
ATOM      8  C   UNL     1      -7.209  -3.500  10.388  1.00  0.00     0.041 C 
ATOM      9  O   UNL     1      -7.888  -4.127  11.244  1.00  0.00    -0.550 OA
ATOM     10  O   UNL     1      -7.806  -2.497   9.636  1.00  0.00    -0.550 OA
ENDBRANCH   7   8
ENDBRANCH   6   7
ENDBRANCH   5   6
ENDBRANCH   4   5
ENDBRANCH   3   4
ENDBRANCH   2   3
ENDBRANCH   1   2
BRANCH   1  11
ATOM     11  C   UNL     1      -2.717  -0.652   6.800  1.00  0.00     0.000 C 
BRANCH  11  12
ATOM     12  C   UNL     1      -1.647  -1.355   5.952  1.00  0.00     0.000 C 
BRANCH  12  13
ATOM     13  C   UNL     1      -1.273  -2.741   6.507  1.00  0.00     0.000 C 
BRANCH  13  14
ATOM     14  C   UNL     1      -2.451  -3.439   7.206  1.00  0.00     0.000 C 
BRANCH  14  15
ATOM     15  C   UNL     1      -3.211  -4.460   6.336  1.00  0.00     0.000 C 
BRANCH  15  16
ATOM     16  C   UNL     1      -4.285  -5.282   7.078  1.00  0.00     0.006 C 
BRANCH  16  17
ATOM     17  C   UNL     1      -4.250  -6.789   6.777  1.00  0.00     0.053 C 
BRANCH  17  18
ATOM     18  C   UNL     1      -4.642  -7.085   5.362  1.00  0.00     0.041 C 
ATOM     19  O   UNL     1      -5.797  -6.798   4.950  1.00  0.00    -0.550 OA
ATOM     20  O   UNL     1      -3.721  -7.650   4.488  1.00  0.00    -0.550 OA
ENDBRANCH  17  18
ENDBRANCH  16  17
ENDBRANCH  15  16
ENDBRANCH  14  15
ENDBRANCH  13  14
ENDBRANCH  12  13
ENDBRANCH  11  12
ENDBRANCH   1  11
TORSDOF 15
ENDMDL
MODEL 8
REMARK VINA RESULT:    -3.489      2.339      5.921
REMARK INTER + INTRA:          -8.493
REMARK INTER:                  -5.904
REMARK INTRA:                  -2.588
REMARK UNBOUND:                -1.944
REMARK SMILES O=C([O-])CCCCCCCCCCCCCCC(=O)[O-]
REMARK SMILES IDX 10 1 9 2 8 3 7 4 6 5 5 6 4 7 2 8 1 9 3 10 11 11 12 12 13 13
REMARK SMILES IDX 14 14 15 15 16 16 17 17 18 18 19 19 20 20
REMARK H PARENT
REMARK Flexibility Score: inf
ROOT
ATOM      1  C   UNL     1      -5.637  -1.549   7.758  1.00  0.00     0.000 C 
ENDROOT
BRANCH   1   2
ATOM      2  C   UNL     1      -4.509  -0.519   7.537  1.00  0.00     0.000 C 
BRANCH   2   3
ATOM      3  C   UNL     1      -3.989   0.120   8.839  1.00  0.00     0.000 C 
BRANCH   3   4
ATOM      4  C   UNL     1      -2.536  -0.239   9.207  1.00  0.00     0.000 C 
BRANCH   4   5
ATOM      5  C   UNL     1      -2.390  -1.337  10.275  1.00  0.00     0.000 C 
BRANCH   5   6
ATOM      6  C   UNL     1      -3.391  -1.184  11.430  1.00  0.00     0.006 C 
BRANCH   6   7
ATOM      7  C   UNL     1      -3.970  -2.543  11.836  1.00  0.00     0.053 C 
BRANCH   7   8
ATOM      8  C   UNL     1      -5.339  -2.721  11.261  1.00  0.00     0.041 C 
ATOM      9  O   UNL     1      -5.710  -3.850  10.845  1.00  0.00    -0.550 OA
ATOM     10  O   UNL     1      -6.224  -1.651  11.230  1.00  0.00    -0.550 OA
ENDBRANCH   7   8
ENDBRANCH   6   7
ENDBRANCH   5   6
ENDBRANCH   4   5
ENDBRANCH   3   4
ENDBRANCH   2   3
ENDBRANCH   1   2
BRANCH   1  11
ATOM     11  C   UNL     1      -5.331  -2.904   7.093  1.00  0.00     0.000 C 
BRANCH  11  12
ATOM     12  C   UNL     1      -4.173  -3.647   7.775  1.00  0.00     0.000 C 
BRANCH  12  13
ATOM     13  C   UNL     1      -3.045  -4.007   6.792  1.00  0.00     0.000 C 
BRANCH  13  14
ATOM     14  C   UNL     1      -1.724  -3.287   7.115  1.00  0.00     0.000 C 
BRANCH  14  15
ATOM     15  C   UNL     1      -1.447  -2.028   6.270  1.00  0.00     0.000 C 
BRANCH  15  16
ATOM     16  C   UNL     1      -1.763  -2.164   4.767  1.00  0.00     0.006 C 
BRANCH  16  17
ATOM     17  C   UNL     1      -2.933  -1.293   4.283  1.00  0.00     0.053 C 
BRANCH  17  18
ATOM     18  C   UNL     1      -2.489   0.094   3.934  1.00  0.00     0.041 C 
ATOM     19  O   UNL     1      -1.949   0.327   2.820  1.00  0.00    -0.550 OA
ATOM     20  O   UNL     1      -2.700   1.138   4.827  1.00  0.00    -0.550 OA
ENDBRANCH  17  18
ENDBRANCH  16  17
ENDBRANCH  15  16
ENDBRANCH  14  15
ENDBRANCH  13  14
ENDBRANCH  12  13
ENDBRANCH  11  12
ENDBRANCH   1  11
TORSDOF 15
ENDMDL
MODEL 9
REMARK VINA RESULT:    -3.464      2.641      3.981
REMARK INTER + INTRA:          -8.445
REMARK INTER:                  -6.041
REMARK INTRA:                  -2.404
REMARK UNBOUND:                -1.944
REMARK SMILES O=C([O-])CCCCCCCCCCCCCCC(=O)[O-]
REMARK SMILES IDX 10 1 9 2 8 3 7 4 6 5 5 6 4 7 2 8 1 9 3 10 11 11 12 12 13 13
REMARK SMILES IDX 14 14 15 15 16 16 17 17 18 18 19 19 20 20
REMARK H PARENT
REMARK Flexibility Score: inf
ROOT
ATOM      1  C   UNL     1      -4.165  -0.424   7.641  1.00  0.00     0.000 C 
ENDROOT
BRANCH   1   2
ATOM      2  C   UNL     1      -2.712  -0.891   7.407  1.00  0.00     0.000 C 
BRANCH   2   3
ATOM      3  C   UNL     1      -2.327  -2.143   8.218  1.00  0.00     0.000 C 
BRANCH   3   4
ATOM      4  C   UNL     1      -2.004  -3.392   7.376  1.00  0.00     0.000 C 
BRANCH   4   5
ATOM      5  C   UNL     1      -2.483  -3.330   5.914  1.00  0.00     0.000 C 
BRANCH   5   6
ATOM      6  C   UNL     1      -3.489  -4.438   5.567  1.00  0.00     0.006 C 
BRANCH   6   7
ATOM      7  C   UNL     1      -4.096  -5.042   6.837  1.00  0.00     0.053 C 
BRANCH   7   8
ATOM      8  C   UNL     1      -4.195  -6.529   6.713  1.00  0.00     0.041 C 
ATOM      9  O   UNL     1      -3.563  -7.133   5.805  1.00  0.00    -0.550 OA
ATOM     10  O   UNL     1      -4.945  -7.255   7.628  1.00  0.00    -0.550 OA
ENDBRANCH   7   8
ENDBRANCH   6   7
ENDBRANCH   5   6
ENDBRANCH   4   5
ENDBRANCH   3   4
ENDBRANCH   2   3
ENDBRANCH   1   2
BRANCH   1  11
ATOM     11  C   UNL     1      -5.155  -1.072   6.656  1.00  0.00     0.000 C 
BRANCH  11  12
ATOM     12  C   UNL     1      -6.280  -1.837   7.369  1.00  0.00     0.000 C 
BRANCH  12  13
ATOM     13  C   UNL     1      -6.072  -1.904   8.893  1.00  0.00     0.000 C 
BRANCH  13  14
ATOM     14  C   UNL     1      -5.718  -3.318   9.383  1.00  0.00     0.000 C 
BRANCH  14  15
ATOM     15  C   UNL     1      -5.632  -3.474  10.914  1.00  0.00     0.000 C 
BRANCH  15  16
ATOM     16  C   UNL     1      -5.192  -2.208  11.678  1.00  0.00     0.006 C 
BRANCH  16  17
ATOM     17  C   UNL     1      -3.678  -1.949  11.658  1.00  0.00     0.053 C 
BRANCH  17  18
ATOM     18  C   UNL     1      -3.360  -0.522  11.331  1.00  0.00     0.041 C 
ATOM     19  O   UNL     1      -2.164  -0.154  11.194  1.00  0.00    -0.550 OA
ATOM     20  O   UNL     1      -4.388   0.395  11.147  1.00  0.00    -0.550 OA
ENDBRANCH  17  18
ENDBRANCH  16  17
ENDBRANCH  15  16
ENDBRANCH  14  15
ENDBRANCH  13  14
ENDBRANCH  12  13
ENDBRANCH  11  12
ENDBRANCH   1  11
TORSDOF 15
ENDMDL
