MODEL 1
REMARK VINA RESULT:    -6.935      0.000      0.000
REMARK INTER + INTRA:         -11.597
REMARK INTER:                 -10.584
REMARK INTRA:                  -1.013
REMARK UNBOUND:                -1.013
REMARK SMILES OC[C@@H]1O[C@@](CO)(O[C@H]2O[C@H](CO)[C@H](O)[C@H](O)[C@@H]2O)[C@@H](O)[C@@H]1O
REMARK SMILES IDX 8 1 9 2 11 3 14 4 10 5 16 6 18 7 12 8 13 9 15 11 17 13 19 15
REMARK SMILES IDX 5 17 20 18 4 19 22 20 3 21 6 22 7 23 21 25 23 27 2 29 1 30
REMARK H PARENT 13 10 15 12 17 14 19 16 7 24 21 26 23 28 1 31
REMARK Flexibility Score: inf
ROOT
ATOM      1  O   UNL     1     159.584 156.404 230.198  1.00  0.00    -0.313 OA
ENDROOT
BRANCH   1   2
ATOM      2  C   UNL     1     160.555 157.328 230.677  1.00  0.00     0.285 C 
ATOM      3  C   UNL     1     161.838 157.148 228.713  1.00  0.00     0.178 C 
ATOM      4  C   UNL     1     161.544 158.597 228.257  1.00  0.00     0.177 C 
ATOM      5  O   UNL     1     161.839 157.056 230.130  1.00  0.00    -0.341 OA
ATOM      6  C   UNL     1     160.195 159.053 228.836  1.00  0.00     0.179 C 
ATOM      7  C   UNL     1     160.100 158.768 230.351  1.00  0.00     0.202 C 
BRANCH   3   8
ATOM      8  C   UNL     1     163.192 156.648 228.192  1.00  0.00     0.191 C 
BRANCH   8   9
ATOM      9  O   UNL     1     163.222 155.247 228.185  1.00  0.00    -0.394 OA
ATOM     10  H   UNL     1     163.649 154.975 229.039  1.00  0.00     0.210 HD
ENDBRANCH   8   9
ENDBRANCH   3   8
BRANCH   4  11
ATOM     11  O   UNL     1     162.565 159.469 228.678  1.00  0.00    -0.387 OA
ATOM     12  H   UNL     1     162.322 160.379 228.367  1.00  0.00     0.211 HD
ENDBRANCH   4  11
BRANCH   6  13
ATOM     13  O   UNL     1     160.003 160.419 228.575  1.00  0.00    -0.387 OA
ATOM     14  H   UNL     1     159.233 160.710 229.131  1.00  0.00     0.211 HD
ENDBRANCH   6  13
BRANCH   7  15
ATOM     15  O   UNL     1     160.816 159.721 231.100  1.00  0.00    -0.385 OA
ATOM     16  H   UNL     1     160.998 160.505 230.521  1.00  0.00     0.211 HD
ENDBRANCH   7  15
ENDBRANCH   1   2
BRANCH   1  17
ATOM     17  C   UNL     1     159.638 155.124 230.831  1.00  0.00     0.224 C 
ATOM     18  C   UNL     1     158.408 154.289 230.383  1.00  0.00     0.208 C 
ATOM     19  O   UNL     1     160.814 154.410 230.476  1.00  0.00    -0.337 OA
ATOM     20  C   UNL     1     159.004 152.967 229.958  1.00  0.00     0.180 C 
ATOM     21  C   UNL     1     160.433 153.365 229.616  1.00  0.00     0.179 C 
BRANCH  17  22
ATOM     22  C   UNL     1     159.615 155.323 232.363  1.00  0.00     0.225 C 
BRANCH  22  23
ATOM     23  O   UNL     1     160.138 154.200 233.023  1.00  0.00    -0.391 OA
ATOM     24  H   UNL     1     160.888 153.858 232.469  1.00  0.00     0.210 HD
ENDBRANCH  22  23
ENDBRANCH  17  22
BRANCH  18  25
ATOM     25  O   UNL     1     157.763 154.875 229.278  1.00  0.00    -0.385 OA
ATOM     26  H   UNL     1     156.822 154.556 229.293  1.00  0.00     0.211 HD
ENDBRANCH  18  25
BRANCH  20  27
ATOM     27  O   UNL     1     158.970 152.052 231.025  1.00  0.00    -0.387 OA
ATOM     28  H   UNL     1     158.467 152.492 231.759  1.00  0.00     0.211 HD
ENDBRANCH  20  27
BRANCH  21  29
ATOM     29  C   UNL     1     161.443 152.211 229.689  1.00  0.00     0.191 C 
BRANCH  29  30
ATOM     30  O   UNL     1     162.715 152.643 229.287  1.00  0.00    -0.394 OA
ATOM     31  H   UNL     1     162.977 153.353 229.927  1.00  0.00     0.210 HD
ENDBRANCH  29  30
ENDBRANCH  21  29
ENDBRANCH   1  17
TORSDOF 13
ENDMDL
MODEL 2
REMARK VINA RESULT:    -6.916      4.769      8.957
REMARK INTER + INTRA:         -11.567
REMARK INTER:                 -10.549
REMARK INTRA:                  -1.018
REMARK UNBOUND:                -1.013
REMARK SMILES OC[C@@H]1O[C@@](CO)(O[C@H]2O[C@H](CO)[C@H](O)[C@H](O)[C@@H]2O)[C@@H](O)[C@@H]1O
REMARK SMILES IDX 8 1 9 2 11 3 14 4 10 5 16 6 18 7 12 8 13 9 15 11 17 13 19 15
REMARK SMILES IDX 5 17 20 18 4 19 22 20 3 21 6 22 7 23 21 25 23 27 2 29 1 30
REMARK H PARENT 13 10 15 12 17 14 19 16 7 24 21 26 23 28 1 31
REMARK Flexibility Score: inf
ROOT
ATOM      1  O   UNL     1     158.445 161.583 230.209  1.00  0.00    -0.313 OA
ENDROOT
BRANCH   1   2
ATOM      2  C   UNL     1     157.474 160.665 230.699  1.00  0.00     0.285 C 
ATOM      3  C   UNL     1     156.200 160.810 228.726  1.00  0.00     0.178 C 
ATOM      4  C   UNL     1     156.499 159.354 228.296  1.00  0.00     0.177 C 
ATOM      5  O   UNL     1     156.192 160.925 230.141  1.00  0.00    -0.341 OA
ATOM      6  C   UNL     1     157.846 158.910 228.889  1.00  0.00     0.179 C 
ATOM      7  C   UNL     1     157.934 159.220 230.399  1.00  0.00     0.202 C 
BRANCH   3   8
ATOM      8  C   UNL     1     154.848 161.298 228.190  1.00  0.00     0.191 C 
BRANCH   8   9
ATOM      9  O   UNL     1     154.808 162.699 228.180  1.00  0.00    -0.394 OA
ATOM     10  H   UNL     1     155.724 163.004 228.410  1.00  0.00     0.210 HD
ENDBRANCH   8   9
ENDBRANCH   3   8
BRANCH   4  11
ATOM     11  O   UNL     1     155.478 158.487 228.726  1.00  0.00    -0.387 OA
ATOM     12  H   UNL     1     155.915 157.713 229.168  1.00  0.00     0.211 HD
ENDBRANCH   4  11
BRANCH   6  13
ATOM     13  O   UNL     1     158.043 157.540 228.652  1.00  0.00    -0.387 OA
ATOM     14  H   UNL     1     157.154 157.159 228.427  1.00  0.00     0.211 HD
ENDBRANCH   6  13
BRANCH   7  15
ATOM     15  O   UNL     1     157.216 158.279 231.161  1.00  0.00    -0.385 OA
ATOM     16  H   UNL     1     157.717 158.104 231.999  1.00  0.00     0.211 HD
ENDBRANCH   7  15
ENDBRANCH   1   2
BRANCH   1  17
ATOM     17  C   UNL     1     158.399 162.867 230.834  1.00  0.00     0.224 C 
ATOM     18  C   UNL     1     159.608 163.709 230.345  1.00  0.00     0.208 C 
ATOM     19  O   UNL     1     157.206 163.568 230.508  1.00  0.00    -0.337 OA
ATOM     20  C   UNL     1     158.988 165.023 229.928  1.00  0.00     0.180 C 
ATOM     21  C   UNL     1     157.553 164.610 229.630  1.00  0.00     0.179 C 
BRANCH  17  22
ATOM     22  C   UNL     1     158.467 162.680 232.367  1.00  0.00     0.225 C 
BRANCH  22  23
ATOM     23  O   UNL     1     157.959 163.806 233.032  1.00  0.00    -0.391 OA
ATOM     24  H   UNL     1     158.337 164.607 232.585  1.00  0.00     0.210 HD
ENDBRANCH  22  23
ENDBRANCH  17  22
BRANCH  18  25
ATOM     25  O   UNL     1     160.226 163.121 229.226  1.00  0.00    -0.385 OA
ATOM     26  H   UNL     1     160.066 163.729 228.457  1.00  0.00     0.211 HD
ENDBRANCH  18  25
BRANCH  20  27
ATOM     27  O   UNL     1     159.045 165.946 230.987  1.00  0.00    -0.387 OA
ATOM     28  H   UNL     1     158.943 166.847 230.583  1.00  0.00     0.211 HD
ENDBRANCH  20  27
BRANCH  21  29
ATOM     29  C   UNL     1     156.535 165.756 229.723  1.00  0.00     0.191 C 
BRANCH  29  30
ATOM     30  O   UNL     1     155.272 165.329 229.293  1.00  0.00    -0.394 OA
ATOM     31  H   UNL     1     155.425 164.495 228.779  1.00  0.00     0.210 HD
ENDBRANCH  29  30
ENDBRANCH  21  29
ENDBRANCH   1  17
TORSDOF 13
ENDMDL
MODEL 3
REMARK VINA RESULT:    -6.544      1.542      6.064
REMARK INTER + INTRA:         -11.001
REMARK INTER:                  -9.734
REMARK INTRA:                  -1.267
REMARK UNBOUND:                -1.013
REMARK SMILES OC[C@@H]1O[C@@](CO)(O[C@H]2O[C@H](CO)[C@H](O)[C@H](O)[C@@H]2O)[C@@H](O)[C@@H]1O
REMARK SMILES IDX 8 1 9 2 11 3 14 4 10 5 16 6 18 7 12 8 13 9 15 11 17 13 19 15
REMARK SMILES IDX 5 17 20 18 4 19 22 20 3 21 6 22 7 23 21 25 23 27 2 29 1 30
REMARK H PARENT 13 10 15 12 17 14 19 16 7 24 21 26 23 28 1 31
REMARK Flexibility Score: inf
ROOT
ATOM      1  O   UNL     1     160.819 156.003 229.734  1.00  0.00    -0.313 OA
ENDROOT
BRANCH   1   2
ATOM      2  C   UNL     1     161.622 154.939 230.233  1.00  0.00     0.285 C 
ATOM      3  C   UNL     1     159.941 154.239 231.723  1.00  0.00     0.178 C 
ATOM      4  C   UNL     1     159.682 152.908 230.977  1.00  0.00     0.177 C 
ATOM      5  O   UNL     1     161.297 154.637 231.584  1.00  0.00    -0.341 OA
ATOM      6  C   UNL     1     160.055 153.069 229.494  1.00  0.00     0.179 C 
ATOM      7  C   UNL     1     161.455 153.699 229.325  1.00  0.00     0.202 C 
BRANCH   3   8
ATOM      8  C   UNL     1     159.617 154.129 233.218  1.00  0.00     0.191 C 
BRANCH   8   9
ATOM      9  O   UNL     1     160.745 153.695 233.929  1.00  0.00    -0.394 OA
ATOM     10  H   UNL     1     160.991 154.439 234.536  1.00  0.00     0.210 HD
ENDBRANCH   8   9
ENDBRANCH   3   8
BRANCH   4  11
ATOM     11  O   UNL     1     160.430 151.862 231.548  1.00  0.00    -0.387 OA
ATOM     12  H   UNL     1     159.805 151.108 231.711  1.00  0.00     0.211 HD
ENDBRANCH   4  11
BRANCH   6  13
ATOM     13  O   UNL     1     159.990 151.824 228.849  1.00  0.00    -0.387 OA
ATOM     14  H   UNL     1     159.707 152.003 227.914  1.00  0.00     0.211 HD
ENDBRANCH   6  13
BRANCH   7  15
ATOM     15  O   UNL     1     162.475 152.754 229.545  1.00  0.00    -0.385 OA
ATOM     16  H   UNL     1     163.050 153.078 230.285  1.00  0.00     0.211 HD
ENDBRANCH   7  15
ENDBRANCH   1   2
BRANCH   1  17
ATOM     17  C   UNL     1     161.543 157.208 229.480  1.00  0.00     0.224 C 
ATOM     18  C   UNL     1     160.596 158.230 228.794  1.00  0.00     0.208 C 
ATOM     19  O   UNL     1     162.033 157.791 230.680  1.00  0.00    -0.337 OA
ATOM     20  C   UNL     1     160.784 159.494 229.601  1.00  0.00     0.180 C 
ATOM     21  C   UNL     1     161.271 158.944 230.934  1.00  0.00     0.179 C 
BRANCH  17  22
ATOM     22  C   UNL     1     162.738 156.887 228.554  1.00  0.00     0.225 C 
BRANCH  22  23
ATOM     23  O   UNL     1     162.756 157.746 227.443  1.00  0.00    -0.391 OA
ATOM     24  H   UNL     1     162.991 157.196 226.651  1.00  0.00     0.210 HD
ENDBRANCH  22  23
ENDBRANCH  17  22
BRANCH  18  25
ATOM     25  O   UNL     1     159.251 157.826 228.886  1.00  0.00    -0.385 OA
ATOM     26  H   UNL     1     159.228 157.046 229.501  1.00  0.00     0.211 HD
ENDBRANCH  18  25
BRANCH  20  27
ATOM     27  O   UNL     1     161.756 160.314 229.001  1.00  0.00    -0.387 OA
ATOM     28  H   UNL     1     162.427 160.518 229.703  1.00  0.00     0.211 HD
ENDBRANCH  20  27
BRANCH  21  29
ATOM     29  C   UNL     1     162.073 159.947 231.775  1.00  0.00     0.191 C 
BRANCH  29  30
ATOM     30  O   UNL     1     163.447 159.804 231.536  1.00  0.00    -0.394 OA
ATOM     31  H   UNL     1     163.527 159.408 230.631  1.00  0.00     0.210 HD
ENDBRANCH  29  30
ENDBRANCH  21  29
ENDBRANCH   1  17
TORSDOF 13
ENDMDL
MODEL 4
REMARK VINA RESULT:    -6.540      2.448      5.967
REMARK INTER + INTRA:         -10.995
REMARK INTER:                  -9.647
REMARK INTRA:                  -1.347
REMARK UNBOUND:                -1.013
REMARK SMILES OC[C@@H]1O[C@@](CO)(O[C@H]2O[C@H](CO)[C@H](O)[C@H](O)[C@@H]2O)[C@@H](O)[C@@H]1O
REMARK SMILES IDX 8 1 9 2 11 3 14 4 10 5 16 6 18 7 12 8 13 9 15 11 17 13 19 15
REMARK SMILES IDX 5 17 20 18 4 19 22 20 3 21 6 22 7 23 21 25 23 27 2 29 1 30
REMARK H PARENT 13 10 15 12 17 14 19 16 7 24 21 26 23 28 1 31
REMARK Flexibility Score: inf
ROOT
ATOM      1  O   UNL     1     160.381 158.380 230.908  1.00  0.00    -0.313 OA
ENDROOT
BRANCH   1   2
ATOM      2  C   UNL     1     159.914 157.836 229.679  1.00  0.00     0.285 C 
ATOM      3  C   UNL     1     159.492 155.738 230.657  1.00  0.00     0.178 C 
ATOM      4  C   UNL     1     157.956 155.855 230.508  1.00  0.00     0.177 C 
ATOM      5  O   UNL     1     160.153 156.435 229.612  1.00  0.00    -0.341 OA
ATOM      6  C   UNL     1     157.553 157.339 230.501  1.00  0.00     0.179 C 
ATOM      7  C   UNL     1     158.411 158.157 229.512  1.00  0.00     0.202 C 
BRANCH   3   8
ATOM      8  C   UNL     1     159.958 154.276 230.637  1.00  0.00     0.191 C 
BRANCH   8   9
ATOM      9  O   UNL     1     160.084 153.825 229.316  1.00  0.00    -0.394 OA
ATOM     10  H   UNL     1     159.554 154.452 228.758  1.00  0.00     0.210 HD
ENDBRANCH   8   9
ENDBRANCH   3   8
BRANCH   4  11
ATOM     11  O   UNL     1     157.520 155.235 229.323  1.00  0.00    -0.387 OA
ATOM     12  H   UNL     1     157.887 155.759 228.564  1.00  0.00     0.211 HD
ENDBRANCH   4  11
BRANCH   6  13
ATOM     13  O   UNL     1     156.189 157.460 230.193  1.00  0.00    -0.387 OA
ATOM     14  H   UNL     1     155.854 158.252 230.689  1.00  0.00     0.211 HD
ENDBRANCH   6  13
BRANCH   7  15
ATOM     15  O   UNL     1     157.986 157.969 228.183  1.00  0.00    -0.385 OA
ATOM     16  H   UNL     1     158.407 157.143 227.831  1.00  0.00     0.211 HD
ENDBRANCH   7  15
ENDBRANCH   1   2
BRANCH   1  17
ATOM     17  C   UNL     1     161.435 159.332 230.759  1.00  0.00     0.224 C 
ATOM     18  C   UNL     1     160.922 160.727 231.211  1.00  0.00     0.208 C 
ATOM     19  O   UNL     1     162.566 158.995 231.551  1.00  0.00    -0.337 OA
ATOM     20  C   UNL     1     161.994 161.216 232.158  1.00  0.00     0.180 C 
ATOM     21  C   UNL     1     162.625 159.909 232.618  1.00  0.00     0.179 C 
BRANCH  17  22
ATOM     22  C   UNL     1     161.860 159.380 229.273  1.00  0.00     0.225 C 
BRANCH  22  23
ATOM     23  O   UNL     1     162.014 160.705 228.838  1.00  0.00    -0.391 OA
ATOM     24  H   UNL     1     161.187 160.950 228.345  1.00  0.00     0.210 HD
ENDBRANCH  22  23
ENDBRANCH  17  22
BRANCH  18  25
ATOM     25  O   UNL     1     159.707 160.625 231.913  1.00  0.00    -0.385 OA
ATOM     26  H   UNL     1     158.981 160.765 231.249  1.00  0.00     0.211 HD
ENDBRANCH  18  25
BRANCH  20  27
ATOM     27  O   UNL     1     162.923 162.017 231.470  1.00  0.00    -0.387 OA
ATOM     28  H   UNL     1     162.775 162.949 231.777  1.00  0.00     0.211 HD
ENDBRANCH  20  27
BRANCH  21  29
ATOM     29  C   UNL     1     164.065 160.049 233.129  1.00  0.00     0.191 C 
BRANCH  29  30
ATOM     30  O   UNL     1     164.982 159.807 232.097  1.00  0.00    -0.394 OA
ATOM     31  H   UNL     1     165.609 159.123 232.443  1.00  0.00     0.210 HD
ENDBRANCH  29  30
ENDBRANCH  21  29
ENDBRANCH   1  17
TORSDOF 13
ENDMDL
MODEL 5
REMARK VINA RESULT:    -6.524      4.028      6.219
REMARK INTER + INTRA:         -10.970
REMARK INTER:                  -9.619
REMARK INTRA:                  -1.351
REMARK UNBOUND:                -1.013
REMARK SMILES OC[C@@H]1O[C@@](CO)(O[C@H]2O[C@H](CO)[C@H](O)[C@H](O)[C@@H]2O)[C@@H](O)[C@@H]1O
REMARK SMILES IDX 8 1 9 2 11 3 14 4 10 5 16 6 18 7 12 8 13 9 15 11 17 13 19 15
REMARK SMILES IDX 5 17 20 18 4 19 22 20 3 21 6 22 7 23 21 25 23 27 2 29 1 30
REMARK H PARENT 13 10 15 12 17 14 19 16 7 24 21 26 23 28 1 31
REMARK Flexibility Score: inf
ROOT
ATOM      1  O   UNL     1     157.549 159.651 230.934  1.00  0.00    -0.313 OA
ENDROOT
BRANCH   1   2
ATOM      2  C   UNL     1     158.030 160.189 229.708  1.00  0.00     0.285 C 
ATOM      3  C   UNL     1     158.452 162.288 230.683  1.00  0.00     0.178 C 
ATOM      4  C   UNL     1     159.989 162.164 230.550  1.00  0.00     0.177 C 
ATOM      5  O   UNL     1     157.798 161.590 229.634  1.00  0.00    -0.341 OA
ATOM      6  C   UNL     1     160.385 160.678 230.550  1.00  0.00     0.179 C 
ATOM      7  C   UNL     1     159.532 159.861 229.556  1.00  0.00     0.202 C 
BRANCH   3   8
ATOM      8  C   UNL     1     157.993 163.752 230.655  1.00  0.00     0.191 C 
BRANCH   8   9
ATOM      9  O   UNL     1     157.915 164.210 229.333  1.00  0.00    -0.394 OA
ATOM     10  H   UNL     1     158.813 164.572 229.113  1.00  0.00     0.210 HD
ENDBRANCH   8   9
ENDBRANCH   3   8
BRANCH   4  11
ATOM     11  O   UNL     1     160.438 162.778 229.367  1.00  0.00    -0.387 OA
ATOM     12  H   UNL     1     160.402 162.095 228.648  1.00  0.00     0.211 HD
ENDBRANCH   4  11
BRANCH   6  13
ATOM     13  O   UNL     1     161.752 160.549 230.255  1.00  0.00    -0.387 OA
ATOM     14  H   UNL     1     161.839 160.633 229.270  1.00  0.00     0.211 HD
ENDBRANCH   6  13
BRANCH   7  15
ATOM     15  O   UNL     1     159.971 160.043 228.231  1.00  0.00    -0.385 OA
ATOM     16  H   UNL     1     160.947 159.869 228.195  1.00  0.00     0.211 HD
ENDBRANCH   7  15
ENDBRANCH   1   2
BRANCH   1  17
ATOM     17  C   UNL     1     156.498 158.695 230.777  1.00  0.00     0.224 C 
ATOM     18  C   UNL     1     157.032 157.291 231.170  1.00  0.00     0.208 C 
ATOM     19  O   UNL     1     155.384 158.997 231.607  1.00  0.00    -0.337 OA
ATOM     20  C   UNL     1     155.986 156.761 232.124  1.00  0.00     0.180 C 
ATOM     21  C   UNL     1     155.357 158.047 232.643  1.00  0.00     0.179 C 
BRANCH  17  22
ATOM     22  C   UNL     1     156.039 158.695 229.302  1.00  0.00     0.225 C 
BRANCH  22  23
ATOM     23  O   UNL     1     155.948 157.385 228.805  1.00  0.00    -0.391 OA
ATOM     24  H   UNL     1     155.791 156.787 229.582  1.00  0.00     0.210 HD
ENDBRANCH  22  23
ENDBRANCH  17  22
BRANCH  18  25
ATOM     25  O   UNL     1     158.263 157.379 231.846  1.00  0.00    -0.385 OA
ATOM     26  H   UNL     1     158.800 156.591 231.566  1.00  0.00     0.211 HD
ENDBRANCH  18  25
BRANCH  20  27
ATOM     27  O   UNL     1     155.047 155.977 231.431  1.00  0.00    -0.387 OA
ATOM     28  H   UNL     1     154.260 156.557 231.267  1.00  0.00     0.211 HD
ENDBRANCH  20  27
BRANCH  21  29
ATOM     29  C   UNL     1     153.930 157.878 233.183  1.00  0.00     0.191 C 
BRANCH  29  30
ATOM     30  O   UNL     1     152.989 158.100 232.169  1.00  0.00    -0.394 OA
ATOM     31  H   UNL     1     152.199 158.502 232.613  1.00  0.00     0.210 HD
ENDBRANCH  29  30
ENDBRANCH  21  29
ENDBRANCH   1  17
TORSDOF 13
ENDMDL
MODEL 6
REMARK VINA RESULT:    -6.397      1.402      1.875
REMARK INTER + INTRA:         -10.776
REMARK INTER:                  -9.682
REMARK INTRA:                  -1.094
REMARK UNBOUND:                -1.013
REMARK SMILES OC[C@@H]1O[C@@](CO)(O[C@H]2O[C@H](CO)[C@H](O)[C@H](O)[C@@H]2O)[C@@H](O)[C@@H]1O
REMARK SMILES IDX 8 1 9 2 11 3 14 4 10 5 16 6 18 7 12 8 13 9 15 11 17 13 19 15
REMARK SMILES IDX 5 17 20 18 4 19 22 20 3 21 6 22 7 23 21 25 23 27 2 29 1 30
REMARK H PARENT 13 10 15 12 17 14 19 16 7 24 21 26 23 28 1 31
REMARK Flexibility Score: inf
ROOT
ATOM      1  O   UNL     1     160.053 155.551 229.967  1.00  0.00    -0.313 OA
ENDROOT
BRANCH   1   2
ATOM      2  C   UNL     1     159.793 156.736 230.711  1.00  0.00     0.285 C 
ATOM      3  C   UNL     1     161.165 158.034 229.308  1.00  0.00     0.178 C 
ATOM      4  C   UNL     1     159.985 158.848 228.724  1.00  0.00     0.177 C 
ATOM      5  O   UNL     1     160.891 157.638 230.643  1.00  0.00    -0.341 OA
ATOM      6  C   UNL     1     158.699 158.008 228.792  1.00  0.00     0.179 C 
ATOM      7  C   UNL     1     158.494 157.395 230.194  1.00  0.00     0.202 C 
BRANCH   3   8
ATOM      8  C   UNL     1     162.473 158.836 229.296  1.00  0.00     0.191 C 
BRANCH   8   9
ATOM      9  O   UNL     1     162.538 159.642 228.151  1.00  0.00    -0.394 OA
ATOM     10  H   UNL     1     162.983 160.483 228.431  1.00  0.00     0.210 HD
ENDBRANCH   8   9
ENDBRANCH   3   8
BRANCH   4  11
ATOM     11  O   UNL     1     159.810 160.050 229.432  1.00  0.00    -0.387 OA
ATOM     12  H   UNL     1     160.520 160.675 229.132  1.00  0.00     0.211 HD
ENDBRANCH   4  11
BRANCH   6  13
ATOM     13  O   UNL     1     157.596 158.796 228.429  1.00  0.00    -0.387 OA
ATOM     14  H   UNL     1     157.592 158.842 227.437  1.00  0.00     0.211 HD
ENDBRANCH   6  13
BRANCH   7  15
ATOM     15  O   UNL     1     157.997 158.346 231.105  1.00  0.00    -0.385 OA
ATOM     16  H   UNL     1     158.765 158.788 231.550  1.00  0.00     0.211 HD
ENDBRANCH   7  15
ENDBRANCH   1   2
BRANCH   1  17
ATOM     17  C   UNL     1     160.004 154.354 230.745  1.00  0.00     0.224 C 
ATOM     18  C   UNL     1     158.704 153.580 230.397  1.00  0.00     0.208 C 
ATOM     19  O   UNL     1     161.113 153.506 230.476  1.00  0.00    -0.337 OA
ATOM     20  C   UNL     1     159.183 152.172 230.130  1.00  0.00     0.180 C 
ATOM     21  C   UNL     1     160.637 152.404 229.745  1.00  0.00     0.179 C 
BRANCH  17  22
ATOM     22  C   UNL     1     160.012 154.731 232.244  1.00  0.00     0.225 C 
BRANCH  22  23
ATOM     23  O   UNL     1     160.412 153.641 233.033  1.00  0.00    -0.391 OA
ATOM     24  H   UNL     1     160.724 152.930 232.414  1.00  0.00     0.210 HD
ENDBRANCH  22  23
ENDBRANCH  17  22
BRANCH  18  25
ATOM     25  O   UNL     1     158.100 154.086 229.231  1.00  0.00    -0.385 OA
ATOM     26  H   UNL     1     158.668 153.799 228.467  1.00  0.00     0.211 HD
ENDBRANCH  18  25
BRANCH  20  27
ATOM     27  O   UNL     1     159.081 151.393 231.297  1.00  0.00    -0.387 OA
ATOM     28  H   UNL     1     159.957 150.941 231.412  1.00  0.00     0.211 HD
ENDBRANCH  20  27
BRANCH  21  29
ATOM     29  C   UNL     1     161.547 151.185 229.952  1.00  0.00     0.191 C 
BRANCH  29  30
ATOM     30  O   UNL     1     161.929 150.639 228.718  1.00  0.00    -0.394 OA
ATOM     31  H   UNL     1     162.898 150.445 228.794  1.00  0.00     0.210 HD
ENDBRANCH  29  30
ENDBRANCH  21  29
ENDBRANCH   1  17
TORSDOF 13
ENDMDL
MODEL 7
REMARK VINA RESULT:    -6.340      4.704      8.793
REMARK INTER + INTRA:         -10.689
REMARK INTER:                  -9.590
REMARK INTRA:                  -1.099
REMARK UNBOUND:                -1.013
REMARK SMILES OC[C@@H]1O[C@@](CO)(O[C@H]2O[C@H](CO)[C@H](O)[C@H](O)[C@@H]2O)[C@@H](O)[C@@H]1O
REMARK SMILES IDX 8 1 9 2 11 3 14 4 10 5 16 6 18 7 12 8 13 9 15 11 17 13 19 15
REMARK SMILES IDX 5 17 20 18 4 19 22 20 3 21 6 22 7 23 21 25 23 27 2 29 1 30
REMARK H PARENT 13 10 15 12 17 14 19 16 7 24 21 26 23 28 1 31
REMARK Flexibility Score: inf
ROOT
ATOM      1  O   UNL     1     157.891 162.106 229.842  1.00  0.00    -0.313 OA
ENDROOT
BRANCH   1   2
ATOM      2  C   UNL     1     158.152 160.882 230.519  1.00  0.00     0.285 C 
ATOM      3  C   UNL     1     157.135 159.612 228.820  1.00  0.00     0.178 C 
ATOM      4  C   UNL     1     158.461 158.958 228.363  1.00  0.00     0.177 C 
ATOM      5  O   UNL     1     157.169 159.902 230.209  1.00  0.00    -0.341 OA
ATOM      6  C   UNL     1     159.635 159.892 228.698  1.00  0.00     0.179 C 
ATOM      7  C   UNL     1     159.571 160.386 230.160  1.00  0.00     0.202 C 
BRANCH   3   8
ATOM      8  C   UNL     1     155.927 158.709 228.541  1.00  0.00     0.191 C 
BRANCH   8   9
ATOM      9  O   UNL     1     155.927 157.614 229.416  1.00  0.00    -0.394 OA
ATOM     10  H   UNL     1     155.678 156.823 228.869  1.00  0.00     0.210 HD
ENDBRANCH   8   9
ENDBRANCH   3   8
BRANCH   4  11
ATOM     11  O   UNL     1     158.645 157.713 228.991  1.00  0.00    -0.387 OA
ATOM     12  H   UNL     1     157.764 157.429 229.348  1.00  0.00     0.211 HD
ENDBRANCH   4  11
BRANCH   6  13
ATOM     13  O   UNL     1     160.852 159.237 228.449  1.00  0.00    -0.387 OA
ATOM     14  H   UNL     1     161.480 159.923 228.103  1.00  0.00     0.211 HD
ENDBRANCH   6  13
BRANCH   7  15
ATOM     15  O   UNL     1     160.017 159.398 231.058  1.00  0.00    -0.385 OA
ATOM     16  H   UNL     1     159.931 158.512 230.620  1.00  0.00     0.211 HD
ENDBRANCH   7  15
ENDBRANCH   1   2
BRANCH   1  17
ATOM     17  C   UNL     1     157.744 163.231 230.709  1.00  0.00     0.224 C 
ATOM     18  C   UNL     1     159.012 164.121 230.599  1.00  0.00     0.208 C 
ATOM     19  O   UNL     1     156.615 164.020 230.361  1.00  0.00    -0.337 OA
ATOM     20  C   UNL     1     158.460 165.511 230.380  1.00  0.00     0.180 C 
ATOM     21  C   UNL     1     157.090 165.213 229.787  1.00  0.00     0.179 C 
BRANCH  17  22
ATOM     22  C   UNL     1     157.575 162.725 232.160  1.00  0.00     0.225 C 
BRANCH  22  23
ATOM     23  O   UNL     1     157.128 163.756 233.001  1.00  0.00    -0.391 OA
ATOM     24  H   UNL     1     157.006 164.564 232.437  1.00  0.00     0.210 HD
ENDBRANCH  22  23
ENDBRANCH  17  22
BRANCH  18  25
ATOM     25  O   UNL     1     159.798 163.762 229.489  1.00  0.00    -0.385 OA
ATOM     26  H   UNL     1     160.214 164.598 229.150  1.00  0.00     0.211 HD
ENDBRANCH  18  25
BRANCH  20  27
ATOM     27  O   UNL     1     158.349 166.190 231.606  1.00  0.00    -0.387 OA
ATOM     28  H   UNL     1     157.427 166.555 231.645  1.00  0.00     0.211 HD
ENDBRANCH  20  27
BRANCH  21  29
ATOM     29  C   UNL     1     156.067 166.343 229.964  1.00  0.00     0.191 C 
BRANCH  29  30
ATOM     30  O   UNL     1     156.068 167.189 228.846  1.00  0.00    -0.394 OA
ATOM     31  H   UNL     1     155.166 167.110 228.443  1.00  0.00     0.210 HD
ENDBRANCH  29  30
ENDBRANCH  21  29
ENDBRANCH   1  17
TORSDOF 13
ENDMDL
MODEL 8
REMARK VINA RESULT:    -6.238     12.857     15.092
REMARK INTER + INTRA:         -10.533
REMARK INTER:                  -9.404
REMARK INTRA:                  -1.129
REMARK UNBOUND:                -1.013
REMARK SMILES OC[C@@H]1O[C@@](CO)(O[C@H]2O[C@H](CO)[C@H](O)[C@H](O)[C@@H]2O)[C@@H](O)[C@@H]1O
REMARK SMILES IDX 8 1 9 2 11 3 14 4 10 5 16 6 18 7 12 8 13 9 15 11 17 13 19 15
REMARK SMILES IDX 5 17 20 18 4 19 22 20 3 21 6 22 7 23 21 25 23 27 2 29 1 30
REMARK H PARENT 13 10 15 12 17 14 19 16 7 24 21 26 23 28 1 31
REMARK Flexibility Score: inf
ROOT
ATOM      1  O   UNL     1     163.904 155.675 214.897  1.00  0.00    -0.313 OA
ENDROOT
BRANCH   1   2
ATOM      2  C   UNL     1     164.265 155.462 216.257  1.00  0.00     0.285 C 
ATOM      3  C   UNL     1     165.522 153.546 215.724  1.00  0.00     0.178 C 
ATOM      4  C   UNL     1     166.877 154.201 216.082  1.00  0.00     0.177 C 
ATOM      5  O   UNL     1     164.478 154.081 216.524  1.00  0.00    -0.341 OA
ATOM      6  C   UNL     1     166.775 155.724 215.899  1.00  0.00     0.179 C 
ATOM      7  C   UNL     1     165.521 156.298 216.594  1.00  0.00     0.202 C 
BRANCH   3   8
ATOM      8  C   UNL     1     165.554 152.025 215.920  1.00  0.00     0.191 C 
BRANCH   8   9
ATOM      9  O   UNL     1     165.239 151.700 217.247  1.00  0.00    -0.394 OA
ATOM     10  H   UNL     1     164.321 152.041 217.405  1.00  0.00     0.210 HD
ENDBRANCH   8   9
ENDBRANCH   3   8
BRANCH   4  11
ATOM     11  O   UNL     1     167.242 153.902 217.407  1.00  0.00    -0.387 OA
ATOM     12  H   UNL     1     167.978 153.238 217.367  1.00  0.00     0.211 HD
ENDBRANCH   4  11
BRANCH   6  13
ATOM     13  O   UNL     1     167.938 156.342 216.385  1.00  0.00    -0.387 OA
ATOM     14  H   UNL     1     168.691 156.009 215.831  1.00  0.00     0.211 HD
ENDBRANCH   6  13
BRANCH   7  15
ATOM     15  O   UNL     1     165.710 156.414 217.984  1.00  0.00    -0.385 OA
ATOM     16  H   UNL     1     166.641 156.712 218.151  1.00  0.00     0.211 HD
ENDBRANCH   7  15
ENDBRANCH   1   2
BRANCH   1  17
ATOM     17  C   UNL     1     162.570 156.155 214.719  1.00  0.00     0.224 C 
ATOM     18  C   UNL     1     161.738 155.068 213.985  1.00  0.00     0.208 C 
ATOM     19  O   UNL     1     161.940 156.434 215.962  1.00  0.00    -0.337 OA
ATOM     20  C   UNL     1     160.489 154.941 214.826  1.00  0.00     0.180 C 
ATOM     21  C   UNL     1     160.973 155.438 216.181  1.00  0.00     0.179 C 
BRANCH  17  22
ATOM     22  C   UNL     1     162.613 157.450 213.876  1.00  0.00     0.225 C 
BRANCH  22  23
ATOM     23  O   UNL     1     161.416 158.172 214.005  1.00  0.00    -0.391 OA
ATOM     24  H   UNL     1     161.648 159.136 213.949  1.00  0.00     0.210 HD
ENDBRANCH  22  23
ENDBRANCH  17  22
BRANCH  18  25
ATOM     25  O   UNL     1     162.407 153.830 213.971  1.00  0.00    -0.385 OA
ATOM     26  H   UNL     1     161.762 153.160 213.621  1.00  0.00     0.211 HD
ENDBRANCH  18  25
BRANCH  20  27
ATOM     27  O   UNL     1     159.471 155.764 214.313  1.00  0.00    -0.387 OA
ATOM     28  H   UNL     1     159.661 156.683 214.635  1.00  0.00     0.211 HD
ENDBRANCH  20  27
BRANCH  21  29
ATOM     29  C   UNL     1     159.857 155.961 217.096  1.00  0.00     0.191 C 
BRANCH  29  30
ATOM     30  O   UNL     1     159.338 154.924 217.883  1.00  0.00    -0.394 OA
ATOM     31  H   UNL     1     160.109 154.349 218.121  1.00  0.00     0.210 HD
ENDBRANCH  29  30
ENDBRANCH  21  29
ENDBRANCH   1  17
TORSDOF 13
ENDMDL
MODEL 9
REMARK VINA RESULT:    -6.237     14.770     17.506
REMARK INTER + INTRA:         -10.532
REMARK INTER:                  -9.402
REMARK INTRA:                  -1.129
REMARK UNBOUND:                -1.013
REMARK SMILES OC[C@@H]1O[C@@](CO)(O[C@H]2O[C@H](CO)[C@H](O)[C@H](O)[C@@H]2O)[C@@H](O)[C@@H]1O
REMARK SMILES IDX 8 1 9 2 11 3 14 4 10 5 16 6 18 7 12 8 13 9 15 11 17 13 19 15
REMARK SMILES IDX 5 17 20 18 4 19 22 20 3 21 6 22 7 23 21 25 23 27 2 29 1 30
REMARK H PARENT 13 10 15 12 17 14 19 16 7 24 21 26 23 28 1 31
REMARK Flexibility Score: inf
ROOT
ATOM      1  O   UNL     1     154.127 162.219 214.891  1.00  0.00    -0.313 OA
ENDROOT
BRANCH   1   2
ATOM      2  C   UNL     1     153.773 162.444 216.251  1.00  0.00     0.285 C 
ATOM      3  C   UNL     1     152.531 164.368 215.710  1.00  0.00     0.178 C 
ATOM      4  C   UNL     1     151.171 163.727 216.078  1.00  0.00     0.177 C 
ATOM      5  O   UNL     1     153.574 163.829 216.509  1.00  0.00    -0.341 OA
ATOM      6  C   UNL     1     151.259 162.202 215.905  1.00  0.00     0.179 C 
ATOM      7  C   UNL     1     152.511 161.622 216.598  1.00  0.00     0.202 C 
BRANCH   3   8
ATOM      8  C   UNL     1     152.514 165.891 215.896  1.00  0.00     0.191 C 
BRANCH   8   9
ATOM      9  O   UNL     1     152.715 166.218 217.244  1.00  0.00    -0.394 OA
ATOM     10  H   UNL     1     152.297 167.108 217.378  1.00  0.00     0.210 HD
ENDBRANCH   8   9
ENDBRANCH   3   8
BRANCH   4  11
ATOM     11  O   UNL     1     150.815 164.039 217.402  1.00  0.00    -0.387 OA
ATOM     12  H   UNL     1     151.196 163.332 217.985  1.00  0.00     0.211 HD
ENDBRANCH   4  11
BRANCH   6  13
ATOM     13  O   UNL     1     150.093 161.599 216.401  1.00  0.00    -0.387 OA
ATOM     14  H   UNL     1     149.722 161.047 215.663  1.00  0.00     0.211 HD
ENDBRANCH   6  13
BRANCH   7  15
ATOM     15  O   UNL     1     152.327 161.518 217.990  1.00  0.00    -0.385 OA
ATOM     16  H   UNL     1     152.207 162.430 218.361  1.00  0.00     0.211 HD
ENDBRANCH   7  15
ENDBRANCH   1   2
BRANCH   1  17
ATOM     17  C   UNL     1     155.473 161.780 214.706  1.00  0.00     0.224 C 
ATOM     18  C   UNL     1     156.265 162.884 213.954  1.00  0.00     0.208 C 
ATOM     19  O   UNL     1     156.122 161.534 215.947  1.00  0.00    -0.337 OA
ATOM     20  C   UNL     1     157.516 163.060 214.783  1.00  0.00     0.180 C 
ATOM     21  C   UNL     1     157.059 162.562 216.147  1.00  0.00     0.179 C 
BRANCH  17  22
ATOM     22  C   UNL     1     155.465 160.475 213.877  1.00  0.00     0.225 C 
BRANCH  22  23
ATOM     23  O   UNL     1     156.647 159.746 214.078  1.00  0.00    -0.391 OA
ATOM     24  H   UNL     1     157.055 160.076 214.920  1.00  0.00     0.210 HD
ENDBRANCH  22  23
ENDBRANCH  17  22
BRANCH  18  25
ATOM     25  O   UNL     1     155.557 164.100 213.933  1.00  0.00    -0.385 OA
ATOM     26  H   UNL     1     155.041 164.117 213.084  1.00  0.00     0.211 HD
ENDBRANCH  18  25
BRANCH  20  27
ATOM     27  O   UNL     1     158.555 162.264 214.270  1.00  0.00    -0.387 OA
ATOM     28  H   UNL     1     158.143 161.406 213.990  1.00  0.00     0.211 HD
ENDBRANCH  20  27
BRANCH  21  29
ATOM     29  C   UNL     1     158.198 162.085 217.058  1.00  0.00     0.191 C 
BRANCH  29  30
ATOM     30  O   UNL     1     158.594 163.107 217.931  1.00  0.00    -0.394 OA
ATOM     31  H   UNL     1     157.786 163.659 218.089  1.00  0.00     0.210 HD
ENDBRANCH  29  30
ENDBRANCH  21  29
ENDBRANCH   1  17
TORSDOF 13
ENDMDL
