MODEL 1
REMARK VINA RESULT:    -3.878      0.000      0.000
REMARK INTER + INTRA:          -4.963
REMARK INTER:                  -4.671
REMARK INTRA:                  -0.291
REMARK UNBOUND:                -0.291
REMARK SMILES NC(=O)C[C@H]([NH3+])C(=O)[O-]
REMARK SMILES IDX 4 1 5 2 6 3 7 7 8 8 9 9 2 10 3 11 1 12
REMARK H PARENT 6 4 6 5 6 6 1 13 1 14
REMARK Flexibility Score: inf
ROOT
ATOM      1  C   UNL     1      24.619  14.743  -4.370  1.00  0.00     0.171 C 
ENDROOT
BRANCH   1   2
ATOM      2  C   UNL     1      25.588  15.018  -3.199  1.00  0.00     0.237 C 
BRANCH   2   3
ATOM      3  N   UNL     1      25.798  13.823  -2.371  1.00  0.00    -0.350 N 
ATOM      4  H   UNL     1      26.778  13.476  -2.493  1.00  0.00     0.345 HD
ATOM      5  H   UNL     1      25.660  14.065  -1.363  1.00  0.00     0.345 HD
ATOM      6  H   UNL     1      25.132  13.059  -2.630  1.00  0.00     0.345 HD
ENDBRANCH   2   3
BRANCH   2   7
ATOM      7  C   UNL     1      25.129  16.189  -2.367  1.00  0.00     0.100 C 
ATOM      8  O   UNL     1      25.942  16.826  -1.645  1.00  0.00    -0.544 OA
ATOM      9  O   UNL     1      23.784  16.538  -2.351  1.00  0.00    -0.544 OA
ENDBRANCH   2   7
ENDBRANCH   1   2
BRANCH   1  10
ATOM     10  C   UNL     1      24.506  13.285  -4.719  1.00  0.00     0.223 C 
ATOM     11  O   UNL     1      25.533  12.640  -5.056  1.00  0.00    -0.275 OA
ATOM     12  N   UNL     1      23.244  12.620  -4.653  1.00  0.00    -0.369 N 
ATOM     13  H   UNL     1      23.171  11.605  -4.883  1.00  0.00     0.159 HD
ATOM     14  H   UNL     1      22.382  13.139  -4.372  1.00  0.00     0.159 HD
ENDBRANCH   1  10
TORSDOF 4
ENDMDL
MODEL 2
REMARK VINA RESULT:    -3.678     20.695     21.128
REMARK INTER + INTRA:          -4.722
REMARK INTER:                  -4.632
REMARK INTRA:                  -0.090
REMARK UNBOUND:                -0.291
REMARK SMILES NC(=O)C[C@H]([NH3+])C(=O)[O-]
REMARK SMILES IDX 4 1 5 2 6 3 7 7 8 8 9 9 2 10 3 11 1 12
REMARK H PARENT 6 4 6 5 6 6 1 13 1 14
REMARK Flexibility Score: inf
ROOT
ATOM      1  C   UNL     1      14.760   1.236   8.234  1.00  0.00     0.171 C 
ENDROOT
BRANCH   1   2
ATOM      2  C   UNL     1      13.618   1.748   9.139  1.00  0.00     0.237 C 
BRANCH   2   3
ATOM      3  N   UNL     1      14.130   2.498  10.294  1.00  0.00    -0.350 N 
ATOM      4  H   UNL     1      13.336   2.959  10.797  1.00  0.00     0.345 HD
ATOM      5  H   UNL     1      14.601   1.841  10.959  1.00  0.00     0.345 HD
ATOM      6  H   UNL     1      14.816   3.229   9.998  1.00  0.00     0.345 HD
ENDBRANCH   2   3
BRANCH   2   7
ATOM      7  C   UNL     1      12.711   0.624   9.573  1.00  0.00     0.100 C 
ATOM      8  O   UNL     1      12.219   0.602  10.733  1.00  0.00    -0.544 OA
ATOM      9  O   UNL     1      12.455  -0.430   8.704  1.00  0.00    -0.544 OA
ENDBRANCH   2   7
ENDBRANCH   1   2
BRANCH   1  10
ATOM     10  C   UNL     1      14.912   2.025   6.964  1.00  0.00     0.223 C 
ATOM     11  O   UNL     1      14.877   1.435   5.852  1.00  0.00    -0.275 OA
ATOM     12  N   UNL     1      15.077   3.442   7.007  1.00  0.00    -0.369 N 
ATOM     13  H   UNL     1      15.171   3.989   6.122  1.00  0.00     0.159 HD
ATOM     14  H   UNL     1      15.106   3.949   7.920  1.00  0.00     0.159 HD
ENDBRANCH   1  10
TORSDOF 4
ENDMDL
MODEL 3
REMARK VINA RESULT:    -3.579      2.147      2.827
REMARK INTER + INTRA:          -4.603
REMARK INTER:                  -4.226
REMARK INTRA:                  -0.377
REMARK UNBOUND:                -0.291
REMARK SMILES NC(=O)C[C@H]([NH3+])C(=O)[O-]
REMARK SMILES IDX 4 1 5 2 6 3 7 7 8 8 9 9 2 10 3 11 1 12
REMARK H PARENT 6 4 6 5 6 6 1 13 1 14
REMARK Flexibility Score: inf
ROOT
ATOM      1  C   UNL     1      27.465  15.308  -2.762  1.00  0.00     0.171 C 
ENDROOT
BRANCH   1   2
ATOM      2  C   UNL     1      26.192  14.749  -2.089  1.00  0.00     0.237 C 
BRANCH   2   3
ATOM      3  N   UNL     1      25.846  13.414  -2.597  1.00  0.00    -0.350 N 
ATOM      4  H   UNL     1      26.539  12.713  -2.248  1.00  0.00     0.345 HD
ATOM      5  H   UNL     1      24.899  13.140  -2.247  1.00  0.00     0.345 HD
ATOM      6  H   UNL     1      25.838  13.396  -3.642  1.00  0.00     0.345 HD
ENDBRANCH   2   3
BRANCH   2   7
ATOM      7  C   UNL     1      25.033  15.705  -2.222  1.00  0.00     0.100 C 
ATOM      8  O   UNL     1      24.731  16.489  -1.284  1.00  0.00    -0.544 OA
ATOM      9  O   UNL     1      24.252  15.685  -3.372  1.00  0.00    -0.544 OA
ENDBRANCH   2   7
ENDBRANCH   1   2
BRANCH   1  10
ATOM     10  C   UNL     1      27.823  14.600  -4.039  1.00  0.00     0.223 C 
ATOM     11  O   UNL     1      27.048  14.667  -5.030  1.00  0.00    -0.275 OA
ATOM     12  N   UNL     1      29.043  13.868  -4.144  1.00  0.00    -0.369 N 
ATOM     13  H   UNL     1      29.295  13.388  -5.037  1.00  0.00     0.159 HD
ATOM     14  H   UNL     1      29.699  13.804  -3.334  1.00  0.00     0.159 HD
ENDBRANCH   1  10
TORSDOF 4
ENDMDL
MODEL 4
REMARK VINA RESULT:    -3.541      1.955      3.876
REMARK INTER + INTRA:          -4.557
REMARK INTER:                  -4.193
REMARK INTRA:                  -0.364
REMARK UNBOUND:                -0.291
REMARK SMILES NC(=O)C[C@H]([NH3+])C(=O)[O-]
REMARK SMILES IDX 4 1 5 2 6 3 7 7 8 8 9 9 2 10 3 11 1 12
REMARK H PARENT 6 4 6 5 6 6 1 13 1 14
REMARK Flexibility Score: inf
ROOT
ATOM      1  C   UNL     1      24.624  15.853  -2.974  1.00  0.00     0.171 C 
ENDROOT
BRANCH   1   2
ATOM      2  C   UNL     1      25.373  14.535  -3.269  1.00  0.00     0.237 C 
BRANCH   2   3
ATOM      3  N   UNL     1      25.999  13.980  -2.061  1.00  0.00    -0.350 N 
ATOM      4  H   UNL     1      26.824  14.564  -1.790  1.00  0.00     0.345 HD
ATOM      5  H   UNL     1      25.314  13.996  -1.271  1.00  0.00     0.345 HD
ATOM      6  H   UNL     1      26.315  12.995  -2.216  1.00  0.00     0.345 HD
ENDBRANCH   2   3
BRANCH   2   7
ATOM      7  C   UNL     1      26.378  14.708  -4.379  1.00  0.00     0.100 C 
ATOM      8  O   UNL     1      26.474  15.800  -4.999  1.00  0.00    -0.544 OA
ATOM      9  O   UNL     1      27.172  13.634  -4.762  1.00  0.00    -0.544 OA
ENDBRANCH   2   7
ENDBRANCH   1   2
BRANCH   1  10
ATOM     10  C   UNL     1      25.159  16.586  -1.775  1.00  0.00     0.223 C 
ATOM     11  O   UNL     1      26.332  17.045  -1.793  1.00  0.00    -0.275 OA
ATOM     12  N   UNL     1      24.341  16.783  -0.622  1.00  0.00    -0.369 N 
ATOM     13  H   UNL     1      24.712  17.303   0.205  1.00  0.00     0.159 HD
ATOM     14  H   UNL     1      23.366  16.411  -0.589  1.00  0.00     0.159 HD
ENDBRANCH   1  10
TORSDOF 4
ENDMDL
MODEL 5
REMARK VINA RESULT:    -3.540     19.626     20.290
REMARK INTER + INTRA:          -4.556
REMARK INTER:                  -4.130
REMARK INTRA:                  -0.426
REMARK UNBOUND:                -0.291
REMARK SMILES NC(=O)C[C@H]([NH3+])C(=O)[O-]
REMARK SMILES IDX 4 1 5 2 6 3 7 7 8 8 9 9 2 10 3 11 1 12
REMARK H PARENT 6 4 6 5 6 6 1 13 1 14
REMARK Flexibility Score: inf
ROOT
ATOM      1  C   UNL     1      15.079   1.378   8.443  1.00  0.00     0.171 C 
ENDROOT
BRANCH   1   2
ATOM      2  C   UNL     1      15.209   1.861   6.982  1.00  0.00     0.237 C 
BRANCH   2   3
ATOM      3  N   UNL     1      14.921   3.296   6.853  1.00  0.00    -0.350 N 
ATOM      4  H   UNL     1      14.625   3.511   5.872  1.00  0.00     0.345 HD
ATOM      5  H   UNL     1      14.138   3.556   7.495  1.00  0.00     0.345 HD
ATOM      6  H   UNL     1      15.759   3.874   7.090  1.00  0.00     0.345 HD
ENDBRANCH   2   3
BRANCH   2   7
ATOM      7  C   UNL     1      14.350   1.043   6.051  1.00  0.00     0.100 C 
ATOM      8  O   UNL     1      14.478   1.140   4.802  1.00  0.00    -0.544 OA
ATOM      9  O   UNL     1      13.368   0.210   6.574  1.00  0.00    -0.544 OA
ENDBRANCH   2   7
ENDBRANCH   1   2
BRANCH   1  10
ATOM     10  C   UNL     1      14.114   2.195   9.256  1.00  0.00     0.223 C 
ATOM     11  O   UNL     1      14.461   3.326   9.690  1.00  0.00    -0.275 OA
ATOM     12  N   UNL     1      12.800   1.708   9.526  1.00  0.00    -0.369 N 
ATOM     13  H   UNL     1      12.128   2.283  10.081  1.00  0.00     0.159 HD
ATOM     14  H   UNL     1      12.493   0.774   9.173  1.00  0.00     0.159 HD
ENDBRANCH   1  10
TORSDOF 4
ENDMDL
MODEL 6
REMARK VINA RESULT:    -3.494      1.711      3.966
REMARK INTER + INTRA:          -4.501
REMARK INTER:                  -4.050
REMARK INTRA:                  -0.451
REMARK UNBOUND:                -0.291
REMARK SMILES NC(=O)C[C@H]([NH3+])C(=O)[O-]
REMARK SMILES IDX 4 1 5 2 6 3 7 7 8 8 9 9 2 10 3 11 1 12
REMARK H PARENT 6 4 6 5 6 6 1 13 1 14
REMARK Flexibility Score: inf
ROOT
ATOM      1  C   UNL     1      26.479  14.189  -4.339  1.00  0.00     0.171 C 
ENDROOT
BRANCH   1   2
ATOM      2  C   UNL     1      25.139  14.007  -5.086  1.00  0.00     0.237 C 
BRANCH   2   3
ATOM      3  N   UNL     1      24.311  15.219  -5.027  1.00  0.00    -0.350 N 
ATOM      4  H   UNL     1      24.903  16.040  -4.760  1.00  0.00     0.345 HD
ATOM      5  H   UNL     1      23.896  15.407  -5.968  1.00  0.00     0.345 HD
ATOM      6  H   UNL     1      23.537  15.116  -4.330  1.00  0.00     0.345 HD
ENDBRANCH   2   3
BRANCH   2   7
ATOM      7  C   UNL     1      24.386  12.801  -4.583  1.00  0.00     0.100 C 
ATOM      8  O   UNL     1      23.150  12.679  -4.791  1.00  0.00    -0.544 OA
ATOM      9  O   UNL     1      25.050  11.838  -3.834  1.00  0.00    -0.544 OA
ENDBRANCH   2   7
ENDBRANCH   1   2
BRANCH   1  10
ATOM     10  C   UNL     1      26.326  14.842  -2.994  1.00  0.00     0.223 C 
ATOM     11  O   UNL     1      26.408  16.095  -2.893  1.00  0.00    -0.275 OA
ATOM     12  N   UNL     1      26.070  14.055  -1.831  1.00  0.00    -0.369 N 
ATOM     13  H   UNL     1      25.952  14.513  -0.900  1.00  0.00     0.159 HD
ATOM     14  H   UNL     1      25.996  13.015  -1.896  1.00  0.00     0.159 HD
ENDBRANCH   1  10
TORSDOF 4
ENDMDL
MODEL 7
REMARK VINA RESULT:    -3.480     20.479     20.951
REMARK INTER + INTRA:          -4.484
REMARK INTER:                  -4.021
REMARK INTRA:                  -0.463
REMARK UNBOUND:                -0.291
REMARK SMILES NC(=O)C[C@H]([NH3+])C(=O)[O-]
REMARK SMILES IDX 4 1 5 2 6 3 7 7 8 8 9 9 2 10 3 11 1 12
REMARK H PARENT 6 4 6 5 6 6 1 13 1 14
REMARK Flexibility Score: inf
ROOT
ATOM      1  C   UNL     1      14.086  -0.074   8.161  1.00  0.00     0.171 C 
ENDROOT
BRANCH   1   2
ATOM      2  C   UNL     1      14.634   1.350   8.399  1.00  0.00     0.237 C 
BRANCH   2   3
ATOM      3  N   UNL     1      13.744   2.141   9.261  1.00  0.00    -0.350 N 
ATOM      4  H   UNL     1      13.476   3.028   8.773  1.00  0.00     0.345 HD
ATOM      5  H   UNL     1      12.871   1.598   9.455  1.00  0.00     0.345 HD
ATOM      6  H   UNL     1      14.205   2.377  10.169  1.00  0.00     0.345 HD
ENDBRANCH   2   3
BRANCH   2   7
ATOM      7  C   UNL     1      14.912   2.060   7.098  1.00  0.00     0.100 C 
ATOM      8  O   UNL     1      15.254   3.272   7.084  1.00  0.00    -0.544 OA
ATOM      9  O   UNL     1      14.738   1.386   5.895  1.00  0.00    -0.544 OA
ENDBRANCH   2   7
ENDBRANCH   1   2
BRANCH   1  10
ATOM     10  C   UNL     1      12.587  -0.127   8.067  1.00  0.00     0.223 C 
ATOM     11  O   UNL     1      11.893  -0.138   9.119  1.00  0.00    -0.275 OA
ATOM     12  N   UNL     1      11.940  -0.147   6.795  1.00  0.00    -0.369 N 
ATOM     13  H   UNL     1      10.898  -0.172   6.733  1.00  0.00     0.159 HD
ATOM     14  H   UNL     1      12.499  -0.136   5.912  1.00  0.00     0.159 HD
ENDBRANCH   1  10
TORSDOF 4
ENDMDL
MODEL 8
REMARK VINA RESULT:    -3.365      2.417      3.826
REMARK INTER + INTRA:          -4.345
REMARK INTER:                  -4.233
REMARK INTRA:                  -0.112
REMARK UNBOUND:                -0.291
REMARK SMILES NC(=O)C[C@H]([NH3+])C(=O)[O-]
REMARK SMILES IDX 4 1 5 2 6 3 7 7 8 8 9 9 2 10 3 11 1 12
REMARK H PARENT 6 4 6 5 6 6 1 13 1 14
REMARK Flexibility Score: inf
ROOT
ATOM      1  C   UNL     1      27.055  13.793  -4.397  1.00  0.00     0.171 C 
ENDROOT
BRANCH   1   2
ATOM      2  C   UNL     1      25.751  13.611  -3.590  1.00  0.00     0.237 C 
BRANCH   2   3
ATOM      3  N   UNL     1      25.745  12.349  -2.837  1.00  0.00    -0.350 N 
ATOM      4  H   UNL     1      26.696  12.170  -2.438  1.00  0.00     0.345 HD
ATOM      5  H   UNL     1      25.065  12.416  -2.045  1.00  0.00     0.345 HD
ATOM      6  H   UNL     1      25.475  11.544  -3.448  1.00  0.00     0.345 HD
ENDBRANCH   2   3
BRANCH   2   7
ATOM      7  C   UNL     1      24.535  13.729  -4.473  1.00  0.00     0.100 C 
ATOM      8  O   UNL     1      23.779  12.740  -4.668  1.00  0.00    -0.544 OA
ATOM      9  O   UNL     1      24.271  14.927  -5.125  1.00  0.00    -0.544 OA
ENDBRANCH   2   7
ENDBRANCH   1   2
BRANCH   1  10
ATOM     10  C   UNL     1      27.840  15.010  -3.993  1.00  0.00     0.223 C 
ATOM     11  O   UNL     1      27.969  15.968  -4.801  1.00  0.00    -0.275 OA
ATOM     12  N   UNL     1      28.425  15.097  -2.694  1.00  0.00    -0.369 N 
ATOM     13  H   UNL     1      28.959  15.949  -2.412  1.00  0.00     0.159 HD
ATOM     14  H   UNL     1      28.326  14.314  -2.010  1.00  0.00     0.159 HD
ENDBRANCH   1  10
TORSDOF 4
ENDMDL
MODEL 9
REMARK VINA RESULT:    -3.326      1.758      2.286
REMARK INTER + INTRA:          -4.298
REMARK INTER:                  -4.212
REMARK INTRA:                  -0.086
REMARK UNBOUND:                -0.291
REMARK SMILES NC(=O)C[C@H]([NH3+])C(=O)[O-]
REMARK SMILES IDX 4 1 5 2 6 3 7 7 8 8 9 9 2 10 3 11 1 12
REMARK H PARENT 6 4 6 5 6 6 1 13 1 14
REMARK Flexibility Score: inf
ROOT
ATOM      1  C   UNL     1      26.087  14.756  -2.154  1.00  0.00     0.171 C 
ENDROOT
BRANCH   1   2
ATOM      2  C   UNL     1      25.819  16.252  -2.429  1.00  0.00     0.237 C 
BRANCH   2   3
ATOM      3  N   UNL     1      26.834  17.113  -1.805  1.00  0.00    -0.350 N 
ATOM      4  H   UNL     1      26.979  17.969  -2.389  1.00  0.00     0.345 HD
ATOM      5  H   UNL     1      26.506  17.413  -0.858  1.00  0.00     0.345 HD
ATOM      6  H   UNL     1      27.746  16.612  -1.704  1.00  0.00     0.345 HD
ENDBRANCH   2   3
BRANCH   2   7
ATOM      7  C   UNL     1      24.427  16.651  -2.007  1.00  0.00     0.100 C 
ATOM      8  O   UNL     1      23.534  16.881  -2.865  1.00  0.00    -0.544 OA
ATOM      9  O   UNL     1      24.138  16.820  -0.659  1.00  0.00    -0.544 OA
ENDBRANCH   2   7
ENDBRANCH   1   2
BRANCH   1  10
ATOM     10  C   UNL     1      26.114  13.917  -3.401  1.00  0.00     0.223 C 
ATOM     11  O   UNL     1      27.032  14.083  -4.247  1.00  0.00    -0.275 OA
ATOM     12  N   UNL     1      25.117  12.921  -3.626  1.00  0.00    -0.369 N 
ATOM     13  H   UNL     1      25.146  12.331  -4.487  1.00  0.00     0.159 HD
ATOM     14  H   UNL     1      24.350  12.768  -2.934  1.00  0.00     0.159 HD
ENDBRANCH   1  10
TORSDOF 4
ENDMDL
