MODEL 1
REMARK VINA RESULT:    -5.969      0.000      0.000
REMARK INTER + INTRA:          -9.383
REMARK INTER:                  -9.110
REMARK INTRA:                  -0.272
REMARK UNBOUND:                -0.272
REMARK SMILES CCCCCCCCCCC(=O)[O-]
REMARK SMILES IDX 7 1 8 2 9 3 10 4 11 5 12 6 13 7 6 8 5 9 4 10 3 11 2 12 1 13
REMARK H PARENT
REMARK Flexibility Score: inf
ROOT
ATOM      1  C   UNL     1      -0.808   8.765 -38.409  1.00  0.00     0.000 C 
ENDROOT
BRANCH   1   2
ATOM      2  C   UNL     1      -1.105  10.267 -38.294  1.00  0.00     0.000 C 
BRANCH   2   3
ATOM      3  C   UNL     1       0.157  11.134 -38.435  1.00  0.00     0.006 C 
BRANCH   3   4
ATOM      4  C   UNL     1       0.327  12.122 -37.274  1.00  0.00     0.053 C 
BRANCH   4   5
ATOM      5  C   UNL     1      -0.958  12.838 -37.006  1.00  0.00     0.041 C 
ATOM      6  O   UNL     1      -1.283  13.838 -37.699  1.00  0.00    -0.550 OA
ATOM      7  O   UNL     1      -1.822  12.373 -36.022  1.00  0.00    -0.550 OA
ENDBRANCH   4   5
ENDBRANCH   3   4
ENDBRANCH   2   3
ENDBRANCH   1   2
BRANCH   1   8
ATOM      8  C   UNL     1      -1.466   8.169 -39.659  1.00  0.00     0.000 C 
BRANCH   8   9
ATOM      9  C   UNL     1      -0.559   7.120 -40.313  1.00  0.00    -0.000 C 
BRANCH   9  10
ATOM     10  C   UNL     1      -0.068   7.597 -41.688  1.00  0.00    -0.000 C 
BRANCH  10  11
ATOM     11  C   UNL     1       0.868   6.585 -42.366  1.00  0.00    -0.000 C 
BRANCH  11  12
ATOM     12  C   UNL     1       1.402   5.527 -41.389  1.00  0.00    -0.003 C 
ATOM     13  C   UNL     1       2.893   5.285 -41.603  1.00  0.00     0.004 C 
ENDBRANCH  11  12
ENDBRANCH  10  11
ENDBRANCH   9  10
ENDBRANCH   8   9
ENDBRANCH   1   8
TORSDOF 9
ENDMDL
MODEL 2
REMARK VINA RESULT:    -5.959      3.871      6.398
REMARK INTER + INTRA:          -9.367
REMARK INTER:                  -8.974
REMARK INTRA:                  -0.393
REMARK UNBOUND:                -0.272
REMARK SMILES CCCCCCCCCCC(=O)[O-]
REMARK SMILES IDX 7 1 8 2 9 3 10 4 11 5 12 6 13 7 6 8 5 9 4 10 3 11 2 12 1 13
REMARK H PARENT
REMARK Flexibility Score: inf
ROOT
ATOM      1  C   UNL     1      -2.240   8.526 -39.412  1.00  0.00     0.000 C 
ENDROOT
BRANCH   1   2
ATOM      2  C   UNL     1      -3.441   9.369 -38.958  1.00  0.00     0.000 C 
BRANCH   2   3
ATOM      3  C   UNL     1      -4.701   9.108 -39.801  1.00  0.00     0.006 C 
BRANCH   3   4
ATOM      4  C   UNL     1      -5.873   8.583 -38.963  1.00  0.00     0.053 C 
BRANCH   4   5
ATOM      5  C   UNL     1      -7.018   9.545 -39.007  1.00  0.00     0.041 C 
ATOM      6  O   UNL     1      -7.006  10.508 -39.818  1.00  0.00    -0.550 OA
ATOM      7  O   UNL     1      -8.121   9.350 -38.185  1.00  0.00    -0.550 OA
ENDBRANCH   4   5
ENDBRANCH   3   4
ENDBRANCH   2   3
ENDBRANCH   1   2
BRANCH   1   8
ATOM      8  C   UNL     1      -0.971   8.924 -38.649  1.00  0.00     0.000 C 
BRANCH   8   9
ATOM      9  C   UNL     1      -1.004  10.405 -38.257  1.00  0.00    -0.000 C 
BRANCH   9  10
ATOM     10  C   UNL     1       0.412  11.001 -38.240  1.00  0.00    -0.000 C 
BRANCH  10  11
ATOM     11  C   UNL     1       0.463  12.389 -37.583  1.00  0.00    -0.000 C 
BRANCH  11  12
ATOM     12  C   UNL     1      -0.915  13.066 -37.525  1.00  0.00    -0.003 C 
ATOM     13  C   UNL     1      -1.423  13.153 -36.088  1.00  0.00     0.004 C 
ENDBRANCH  11  12
ENDBRANCH  10  11
ENDBRANCH   9  10
ENDBRANCH   8   9
ENDBRANCH   1   8
TORSDOF 9
ENDMDL
MODEL 3
REMARK VINA RESULT:    -5.741      1.073      1.691
REMARK INTER + INTRA:          -9.034
REMARK INTER:                  -8.640
REMARK INTRA:                  -0.394
REMARK UNBOUND:                -0.272
REMARK SMILES CCCCCCCCCCC(=O)[O-]
REMARK SMILES IDX 7 1 8 2 9 3 10 4 11 5 12 6 13 7 6 8 5 9 4 10 3 11 2 12 1 13
REMARK H PARENT
REMARK Flexibility Score: inf
ROOT
ATOM      1  C   UNL     1      -1.539   8.082 -39.751  1.00  0.00     0.000 C 
ENDROOT
BRANCH   1   2
ATOM      2  C   UNL     1      -1.197   8.613 -38.351  1.00  0.00     0.000 C 
BRANCH   2   3
ATOM      3  C   UNL     1      -1.114  10.148 -38.303  1.00  0.00     0.006 C 
BRANCH   3   4
ATOM      4  C   UNL     1       0.332  10.661 -38.326  1.00  0.00     0.053 C 
BRANCH   4   5
ATOM      5  C   UNL     1       0.390  12.078 -37.847  1.00  0.00     0.041 C 
ATOM      6  O   UNL     1       1.288  12.853 -38.267  1.00  0.00    -0.550 OA
ATOM      7  O   UNL     1      -0.579  12.555 -36.973  1.00  0.00    -0.550 OA
ENDBRANCH   4   5
ENDBRANCH   3   4
ENDBRANCH   2   3
ENDBRANCH   1   2
BRANCH   1   8
ATOM      8  C   UNL     1      -0.494   7.064 -40.222  1.00  0.00     0.000 C 
BRANCH   8   9
ATOM      9  C   UNL     1       0.167   7.516 -41.529  1.00  0.00    -0.000 C 
BRANCH   9  10
ATOM     10  C   UNL     1       0.572   6.307 -42.387  1.00  0.00    -0.000 C 
BRANCH  10  11
ATOM     11  C   UNL     1       2.095   6.133 -42.483  1.00  0.00    -0.000 C 
BRANCH  11  12
ATOM     12  C   UNL     1       2.643   5.140 -41.448  1.00  0.00    -0.003 C 
ATOM     13  C   UNL     1       4.169   5.142 -41.439  1.00  0.00     0.004 C 
ENDBRANCH  11  12
ENDBRANCH  10  11
ENDBRANCH   9  10
ENDBRANCH   8   9
ENDBRANCH   1   8
TORSDOF 9
ENDMDL
MODEL 4
REMARK VINA RESULT:    -5.712      2.774      4.830
REMARK INTER + INTRA:          -8.990
REMARK INTER:                  -8.608
REMARK INTRA:                  -0.382
REMARK UNBOUND:                -0.272
REMARK SMILES CCCCCCCCCCC(=O)[O-]
REMARK SMILES IDX 7 1 8 2 9 3 10 4 11 5 12 6 13 7 6 8 5 9 4 10 3 11 2 12 1 13
REMARK H PARENT
REMARK Flexibility Score: inf
ROOT
ATOM      1  C   UNL     1      -0.819   8.897 -38.759  1.00  0.00     0.000 C 
ENDROOT
BRANCH   1   2
ATOM      2  C   UNL     1      -1.089  10.330 -38.280  1.00  0.00     0.000 C 
BRANCH   2   3
ATOM      3  C   UNL     1       0.145  11.240 -38.406  1.00  0.00     0.006 C 
BRANCH   3   4
ATOM      4  C   UNL     1       0.282  12.215 -37.230  1.00  0.00     0.053 C 
BRANCH   4   5
ATOM      5  C   UNL     1      -0.980  13.000 -37.053  1.00  0.00     0.041 C 
ATOM      6  O   UNL     1      -1.695  12.831 -36.031  1.00  0.00    -0.550 OA
ATOM      7  O   UNL     1      -1.341  13.955 -37.996  1.00  0.00    -0.550 OA
ENDBRANCH   4   5
ENDBRANCH   3   4
ENDBRANCH   2   3
ENDBRANCH   1   2
BRANCH   1   8
ATOM      8  C   UNL     1      -2.074   8.283 -39.389  1.00  0.00     0.000 C 
BRANCH   8   9
ATOM      9  C   UNL     1      -3.169   9.339 -39.581  1.00  0.00    -0.000 C 
BRANCH   9  10
ATOM     10  C   UNL     1      -4.468   8.920 -38.876  1.00  0.00    -0.000 C 
BRANCH  10  11
ATOM     11  C   UNL     1      -5.720   9.233 -39.708  1.00  0.00    -0.000 C 
BRANCH  11  12
ATOM     12  C   UNL     1      -6.965   8.485 -39.207  1.00  0.00    -0.003 C 
ATOM     13  C   UNL     1      -7.280   7.286 -40.098  1.00  0.00     0.004 C 
ENDBRANCH  11  12
ENDBRANCH  10  11
ENDBRANCH   9  10
ENDBRANCH   8   9
ENDBRANCH   1   8
TORSDOF 9
ENDMDL
MODEL 5
REMARK VINA RESULT:    -5.616      3.633      4.386
REMARK INTER + INTRA:          -8.843
REMARK INTER:                  -8.509
REMARK INTRA:                  -0.334
REMARK UNBOUND:                -0.272
REMARK SMILES CCCCCCCCCCC(=O)[O-]
REMARK SMILES IDX 7 1 8 2 9 3 10 4 11 5 12 6 13 7 6 8 5 9 4 10 3 11 2 12 1 13
REMARK H PARENT
REMARK Flexibility Score: inf
ROOT
ATOM      1  C   UNL     1      -2.135   9.403 -38.507  1.00  0.00     0.000 C 
ENDROOT
BRANCH   1   2
ATOM      2  C   UNL     1      -3.356   9.043 -39.364  1.00  0.00     0.000 C 
BRANCH   2   3
ATOM      3  C   UNL     1      -4.658   8.984 -38.547  1.00  0.00     0.006 C 
BRANCH   3   4
ATOM      4  C   UNL     1      -5.872   8.591 -39.398  1.00  0.00     0.053 C 
BRANCH   4   5
ATOM      5  C   UNL     1      -6.970   9.594 -39.234  1.00  0.00     0.041 C 
ATOM      6  O   UNL     1      -6.973  10.649 -39.922  1.00  0.00    -0.550 OA
ATOM      7  O   UNL     1      -8.017   9.341 -38.356  1.00  0.00    -0.550 OA
ENDBRANCH   4   5
ENDBRANCH   3   4
ENDBRANCH   2   3
ENDBRANCH   1   2
BRANCH   1   8
ATOM      8  C   UNL     1      -0.887   8.652 -38.986  1.00  0.00     0.000 C 
BRANCH   8   9
ATOM      9  C   UNL     1      -1.235   7.655 -40.097  1.00  0.00    -0.000 C 
BRANCH   9  10
ATOM     10  C   UNL     1      -0.093   7.548 -41.119  1.00  0.00    -0.000 C 
BRANCH  10  11
ATOM     11  C   UNL     1       0.410   6.108 -41.296  1.00  0.00    -0.000 C 
BRANCH  11  12
ATOM     12  C   UNL     1       1.562   6.004 -42.307  1.00  0.00    -0.003 C 
ATOM     13  C   UNL     1       2.773   5.310 -41.690  1.00  0.00     0.004 C 
ENDBRANCH  11  12
ENDBRANCH  10  11
ENDBRANCH   9  10
ENDBRANCH   8   9
ENDBRANCH   1   8
TORSDOF 9
ENDMDL
MODEL 6
REMARK VINA RESULT:    -5.561      3.472      5.255
REMARK INTER + INTRA:          -8.759
REMARK INTER:                  -8.423
REMARK INTRA:                  -0.336
REMARK UNBOUND:                -0.272
REMARK SMILES CCCCCCCCCCC(=O)[O-]
REMARK SMILES IDX 7 1 8 2 9 3 10 4 11 5 12 6 13 7 6 8 5 9 4 10 3 11 2 12 1 13
REMARK H PARENT
REMARK Flexibility Score: inf
ROOT
ATOM      1  C   UNL     1      -2.104   8.437 -39.610  1.00  0.00     0.000 C 
ENDROOT
BRANCH   1   2
ATOM      2  C   UNL     1      -1.139   8.760 -38.460  1.00  0.00     0.000 C 
BRANCH   2   3
ATOM      3  C   UNL     1      -1.063  10.266 -38.156  1.00  0.00     0.006 C 
BRANCH   3   4
ATOM      4  C   UNL     1       0.373  10.805 -38.198  1.00  0.00     0.053 C 
BRANCH   4   5
ATOM      5  C   UNL     1       0.399  12.248 -37.803  1.00  0.00     0.041 C 
ATOM      6  O   UNL     1       1.285  13.015 -38.264  1.00  0.00    -0.550 OA
ATOM      7  O   UNL     1      -0.584  12.757 -36.964  1.00  0.00    -0.550 OA
ENDBRANCH   4   5
ENDBRANCH   3   4
ENDBRANCH   2   3
ENDBRANCH   1   2
BRANCH   1   8
ATOM      8  C   UNL     1      -3.285   9.415 -39.628  1.00  0.00     0.000 C 
BRANCH   8   9
ATOM      9  C   UNL     1      -4.486   8.844 -38.866  1.00  0.00    -0.000 C 
BRANCH   9  10
ATOM     10  C   UNL     1      -5.804   9.199 -39.571  1.00  0.00    -0.000 C 
BRANCH  10  11
ATOM     11  C   UNL     1      -6.923   8.187 -39.279  1.00  0.00    -0.000 C 
BRANCH  11  12
ATOM     12  C   UNL     1      -7.337   7.387 -40.523  1.00  0.00    -0.003 C 
ATOM     13  C   UNL     1      -7.797   5.982 -40.144  1.00  0.00     0.004 C 
ENDBRANCH  11  12
ENDBRANCH  10  11
ENDBRANCH   9  10
ENDBRANCH   8   9
ENDBRANCH   1   8
TORSDOF 9
ENDMDL
MODEL 7
REMARK VINA RESULT:    -5.532      3.803      6.997
REMARK INTER + INTRA:          -8.716
REMARK INTER:                  -8.779
REMARK INTRA:                   0.064
REMARK UNBOUND:                -0.272
REMARK SMILES CCCCCCCCCCC(=O)[O-]
REMARK SMILES IDX 7 1 8 2 9 3 10 4 11 5 12 6 13 7 6 8 5 9 4 10 3 11 2 12 1 13
REMARK H PARENT
REMARK Flexibility Score: inf
ROOT
ATOM      1  C   UNL     1      -1.678   8.210 -39.392  1.00  0.00     0.000 C 
ENDROOT
BRANCH   1   2
ATOM      2  C   UNL     1      -0.742   7.246 -40.135  1.00  0.00     0.000 C 
BRANCH   2   3
ATOM      3  C   UNL     1       0.040   7.932 -41.267  1.00  0.00     0.006 C 
BRANCH   3   4
ATOM      4  C   UNL     1       0.559   6.937 -42.313  1.00  0.00     0.053 C 
BRANCH   4   5
ATOM      5  C   UNL     1       1.062   5.696 -41.647  1.00  0.00     0.041 C 
ATOM      6  O   UNL     1       2.300   5.491 -41.538  1.00  0.00    -0.550 OA
ATOM      7  O   UNL     1       0.164   4.786 -41.102  1.00  0.00    -0.550 OA
ENDBRANCH   4   5
ENDBRANCH   3   4
ENDBRANCH   2   3
ENDBRANCH   1   2
BRANCH   1   8
ATOM      8  C   UNL     1      -0.932   8.945 -38.271  1.00  0.00     0.000 C 
BRANCH   8   9
ATOM      9  C   UNL     1      -0.943  10.460 -38.503  1.00  0.00    -0.000 C 
BRANCH   9  10
ATOM     10  C   UNL     1       0.447  11.064 -38.250  1.00  0.00    -0.000 C 
BRANCH  10  11
ATOM     11  C   UNL     1       0.386  12.378 -37.456  1.00  0.00    -0.000 C 
BRANCH  11  12
ATOM     12  C   UNL     1      -1.007  13.023 -37.487  1.00  0.00    -0.003 C 
ATOM     13  C   UNL     1      -1.550  13.226 -36.075  1.00  0.00     0.004 C 
ENDBRANCH  11  12
ENDBRANCH  10  11
ENDBRANCH   9  10
ENDBRANCH   8   9
ENDBRANCH   1   8
TORSDOF 9
ENDMDL
MODEL 8
REMARK VINA RESULT:    -5.196      4.006      7.089
REMARK INTER + INTRA:          -8.202
REMARK INTER:                  -7.845
REMARK INTRA:                  -0.357
REMARK UNBOUND:                -0.272
REMARK SMILES CCCCCCCCCCC(=O)[O-]
REMARK SMILES IDX 7 1 8 2 9 3 10 4 11 5 12 6 13 7 6 8 5 9 4 10 3 11 2 12 1 13
REMARK H PARENT
REMARK Flexibility Score: inf
ROOT
ATOM      1  C   UNL     1      -0.915   7.162 -40.078  1.00  0.00     0.000 C 
ENDROOT
BRANCH   1   2
ATOM      2  C   UNL     1       0.003   7.758 -41.155  1.00  0.00     0.000 C 
BRANCH   2   3
ATOM      3  C   UNL     1       0.267   6.782 -42.315  1.00  0.00     0.006 C 
BRANCH   3   4
ATOM      4  C   UNL     1       1.761   6.518 -42.535  1.00  0.00     0.053 C 
BRANCH   4   5
ATOM      5  C   UNL     1       2.240   5.437 -41.617  1.00  0.00     0.041 C 
ATOM      6  O   UNL     1       1.412   4.713 -41.004  1.00  0.00    -0.550 OA
ATOM      7  O   UNL     1       3.602   5.197 -41.477  1.00  0.00    -0.550 OA
ENDBRANCH   4   5
ENDBRANCH   3   4
ENDBRANCH   2   3
ENDBRANCH   1   2
BRANCH   1   8
ATOM      8  C   UNL     1      -1.727   8.259 -39.380  1.00  0.00     0.000 C 
BRANCH   8   9
ATOM      9  C   UNL     1      -0.867   9.024 -38.368  1.00  0.00    -0.000 C 
BRANCH   9  10
ATOM     10  C   UNL     1      -1.038  10.542 -38.536  1.00  0.00    -0.000 C 
BRANCH  10  11
ATOM     11  C   UNL     1       0.153  11.337 -37.982  1.00  0.00    -0.000 C 
BRANCH  11  12
ATOM     12  C   UNL     1      -0.236  12.756 -37.542  1.00  0.00    -0.003 C 
ATOM     13  C   UNL     1      -1.259  12.718 -36.409  1.00  0.00     0.004 C 
ENDBRANCH  11  12
ENDBRANCH  10  11
ENDBRANCH   9  10
ENDBRANCH   8   9
ENDBRANCH   1   8
TORSDOF 9
ENDMDL
MODEL 9
REMARK VINA RESULT:    -5.052      3.614      5.398
REMARK INTER + INTRA:          -7.983
REMARK INTER:                  -7.929
REMARK INTRA:                  -0.054
REMARK UNBOUND:                -0.272
REMARK SMILES CCCCCCCCCCC(=O)[O-]
REMARK SMILES IDX 7 1 8 2 9 3 10 4 11 5 12 6 13 7 6 8 5 9 4 10 3 11 2 12 1 13
REMARK H PARENT
REMARK Flexibility Score: inf
ROOT
ATOM      1  C   UNL     1      -2.397   8.805 -39.545  1.00  0.00     0.000 C 
ENDROOT
BRANCH   1   2
ATOM      2  C   UNL     1      -1.173   8.670 -38.627  1.00  0.00     0.000 C 
BRANCH   2   3
ATOM      3  C   UNL     1      -0.380   9.981 -38.500  1.00  0.00     0.006 C 
BRANCH   3   4
ATOM      4  C   UNL     1      -1.177  11.088 -37.799  1.00  0.00     0.053 C 
BRANCH   4   5
ATOM      5  C   UNL     1      -0.353  12.332 -37.685  1.00  0.00     0.041 C 
ATOM      6  O   UNL     1      -0.896  13.427 -37.380  1.00  0.00    -0.550 OA
ATOM      7  O   UNL     1       1.023  12.273 -37.868  1.00  0.00    -0.550 OA
ENDBRANCH   4   5
ENDBRANCH   3   4
ENDBRANCH   2   3
ENDBRANCH   1   2
BRANCH   1   8
ATOM      8  C   UNL     1      -3.638   9.223 -38.748  1.00  0.00     0.000 C 
BRANCH   8   9
ATOM      9  C   UNL     1      -4.923   8.891 -39.515  1.00  0.00    -0.000 C 
BRANCH   9  10
ATOM     10  C   UNL     1      -6.071   8.563 -38.547  1.00  0.00    -0.000 C 
BRANCH  10  11
ATOM     11  C   UNL     1      -7.394   8.278 -39.274  1.00  0.00    -0.000 C 
BRANCH  11  12
ATOM     12  C   UNL     1      -7.227   7.296 -40.443  1.00  0.00    -0.003 C 
ATOM     13  C   UNL     1      -7.877   5.951 -40.127  1.00  0.00     0.004 C 
ENDBRANCH  11  12
ENDBRANCH  10  11
ENDBRANCH   9  10
ENDBRANCH   8   9
ENDBRANCH   1   8
TORSDOF 9
ENDMDL
