MODEL 1
REMARK VINA RESULT:    -4.763      0.000      0.000
REMARK INTER + INTRA:          -9.780
REMARK INTER:                  -8.382
REMARK INTRA:                  -1.398
REMARK UNBOUND:                -1.398
REMARK SMILES CCCCCCC=CCCCCCCCC(=O)[O-]
REMARK SMILES IDX 10 1 11 2 12 3 13 4 14 5 15 6 16 7 17 8 18 9 9 10 8 11 7 12
REMARK SMILES IDX 6 13 5 14 4 15 3 16 2 17 1 18
REMARK H PARENT
REMARK Flexibility Score: inf
ROOT
ATOM      1  C   UNL     1      12.569  15.611  25.729  1.00  0.00     0.004 C 
ENDROOT
BRANCH   1   2
ATOM      2  C   UNL     1      12.777  16.370  24.408  1.00  0.00     0.000 C 
BRANCH   2   3
ATOM      3  C   UNL     1      13.238  17.820  24.633  1.00  0.00     0.000 C 
BRANCH   3   4
ATOM      4  C   UNL     1      14.700  18.054  24.218  1.00  0.00     0.000 C 
BRANCH   4   5
ATOM      5  C   UNL     1      15.747  17.820  25.325  1.00  0.00     0.006 C 
BRANCH   5   6
ATOM      6  C   UNL     1      17.197  18.093  24.885  1.00  0.00     0.053 C 
BRANCH   6   7
ATOM      7  C   UNL     1      18.202  17.435  25.784  1.00  0.00     0.041 C 
ATOM      8  O   UNL     1      19.404  17.810  25.773  1.00  0.00    -0.550 OA
ATOM      9  O   UNL     1      17.801  16.439  26.668  1.00  0.00    -0.550 OA
ENDBRANCH   6   7
ENDBRANCH   5   6
ENDBRANCH   4   5
ENDBRANCH   3   4
ENDBRANCH   2   3
ENDBRANCH   1   2
BRANCH   1  10
ATOM     10  C   UNL     1      12.615  16.537  26.954  1.00  0.00     0.027 C 
BRANCH  10  11
ATOM     11  C   UNL     1      13.264  15.847  28.121  1.00  0.00    -0.031 C 
ATOM     12  C   UNL     1      14.591  15.895  28.315  1.00  0.00    -0.031 C 
BRANCH  12  13
ATOM     13  C   UNL     1      15.244  15.217  29.488  1.00  0.00     0.027 C 
BRANCH  13  14
ATOM     14  C   UNL     1      14.238  14.888  30.605  1.00  0.00     0.004 C 
BRANCH  14  15
ATOM     15  C   UNL     1      14.627  13.643  31.436  1.00  0.00     0.000 C 
BRANCH  15  16
ATOM     16  C   UNL     1      15.627  12.710  30.728  1.00  0.00    -0.000 C 
BRANCH  16  17
ATOM     17  C   UNL     1      14.985  11.677  29.788  1.00  0.00    -0.003 C 
ATOM     18  C   UNL     1      15.648  11.633  28.410  1.00  0.00     0.004 C 
ENDBRANCH  16  17
ENDBRANCH  15  16
ENDBRANCH  14  15
ENDBRANCH  13  14
ENDBRANCH  12  13
ENDBRANCH  10  11
ENDBRANCH   1  10
TORSDOF 13
ENDMDL
MODEL 2
REMARK VINA RESULT:    -4.082      2.476      5.676
REMARK INTER + INTRA:          -8.582
REMARK INTER:                  -8.051
REMARK INTRA:                  -0.531
REMARK UNBOUND:                -1.398
REMARK SMILES CCCCCCC=CCCCCCCCC(=O)[O-]
REMARK SMILES IDX 10 1 11 2 12 3 13 4 14 5 15 6 16 7 17 8 18 9 9 10 8 11 7 12
REMARK SMILES IDX 6 13 5 14 4 15 3 16 2 17 1 18
REMARK H PARENT
REMARK Flexibility Score: inf
ROOT
ATOM      1  C   UNL     1      11.754  17.959  25.649  1.00  0.00     0.004 C 
ENDROOT
BRANCH   1   2
ATOM      2  C   UNL     1      12.809  17.621  26.715  1.00  0.00     0.000 C 
BRANCH   2   3
ATOM      3  C   UNL     1      13.099  16.112  26.792  1.00  0.00     0.000 C 
BRANCH   3   4
ATOM      4  C   UNL     1      12.972  15.550  28.218  1.00  0.00     0.000 C 
BRANCH   4   5
ATOM      5  C   UNL     1      14.300  15.148  28.889  1.00  0.00     0.006 C 
BRANCH   5   6
ATOM      6  C   UNL     1      14.128  14.332  30.183  1.00  0.00     0.053 C 
BRANCH   6   7
ATOM      7  C   UNL     1      15.071  13.169  30.258  1.00  0.00     0.041 C 
ATOM      8  O   UNL     1      15.253  12.434  29.252  1.00  0.00    -0.550 OA
ATOM      9  O   UNL     1      15.785  12.923  31.425  1.00  0.00    -0.550 OA
ENDBRANCH   6   7
ENDBRANCH   5   6
ENDBRANCH   4   5
ENDBRANCH   3   4
ENDBRANCH   2   3
ENDBRANCH   1   2
BRANCH   1  10
ATOM     10  C   UNL     1      12.187  17.536  24.237  1.00  0.00     0.027 C 
BRANCH  10  11
ATOM     11  C   UNL     1      13.529  18.118  23.892  1.00  0.00    -0.031 C 
ATOM     12  C   UNL     1      14.669  17.537  24.297  1.00  0.00    -0.031 C 
BRANCH  12  13
ATOM     13  C   UNL     1      16.016  18.108  23.945  1.00  0.00     0.027 C 
BRANCH  13  14
ATOM     14  C   UNL     1      16.984  18.095  25.141  1.00  0.00     0.004 C 
BRANCH  14  15
ATOM     15  C   UNL     1      16.729  16.931  26.127  1.00  0.00     0.000 C 
BRANCH  15  16
ATOM     16  C   UNL     1      17.669  16.933  27.347  1.00  0.00    -0.000 C 
BRANCH  16  17
ATOM     17  C   UNL     1      19.166  16.890  27.003  1.00  0.00    -0.003 C 
ATOM     18  C   UNL     1      20.063  16.961  28.239  1.00  0.00     0.004 C 
ENDBRANCH  16  17
ENDBRANCH  15  16
ENDBRANCH  14  15
ENDBRANCH  13  14
ENDBRANCH  12  13
ENDBRANCH  10  11
ENDBRANCH   1  10
TORSDOF 13
ENDMDL
MODEL 3
REMARK VINA RESULT:    -4.047      2.729      3.772
REMARK INTER + INTRA:          -8.521
REMARK INTER:                  -7.455
REMARK INTRA:                  -1.065
REMARK UNBOUND:                -1.398
REMARK SMILES CCCCCCC=CCCCCCCCC(=O)[O-]
REMARK SMILES IDX 10 1 11 2 12 3 13 4 14 5 15 6 16 7 17 8 18 9 9 10 8 11 7 12
REMARK SMILES IDX 6 13 5 14 4 15 3 16 2 17 1 18
REMARK H PARENT
REMARK Flexibility Score: inf
ROOT
ATOM      1  C   UNL     1      14.964  15.415  27.404  1.00  0.00     0.004 C 
ENDROOT
BRANCH   1   2
ATOM      2  C   UNL     1      15.949  16.596  27.375  1.00  0.00     0.000 C 
BRANCH   2   3
ATOM      3  C   UNL     1      16.245  17.075  25.944  1.00  0.00     0.000 C 
BRANCH   3   4
ATOM      4  C   UNL     1      15.224  18.108  25.436  1.00  0.00     0.000 C 
BRANCH   4   5
ATOM      5  C   UNL     1      14.376  17.658  24.230  1.00  0.00     0.006 C 
BRANCH   5   6
ATOM      6  C   UNL     1      12.884  18.024  24.341  1.00  0.00     0.053 C 
BRANCH   6   7
ATOM      7  C   UNL     1      12.011  17.126  23.515  1.00  0.00     0.041 C 
ATOM      8  O   UNL     1      11.600  16.033  23.986  1.00  0.00    -0.550 OA
ATOM      9  O   UNL     1      11.612  17.518  22.242  1.00  0.00    -0.550 OA
ENDBRANCH   6   7
ENDBRANCH   5   6
ENDBRANCH   4   5
ENDBRANCH   3   4
ENDBRANCH   2   3
ENDBRANCH   1   2
BRANCH   1  10
ATOM     10  C   UNL     1      13.531  15.852  27.742  1.00  0.00     0.027 C 
BRANCH  10  11
ATOM     11  C   UNL     1      13.166  15.453  29.144  1.00  0.00    -0.031 C 
ATOM     12  C   UNL     1      14.104  15.113  30.042  1.00  0.00    -0.031 C 
BRANCH  12  13
ATOM     13  C   UNL     1      13.746  14.724  31.451  1.00  0.00     0.027 C 
BRANCH  13  14
ATOM     14  C   UNL     1      14.576  13.530  31.953  1.00  0.00     0.004 C 
BRANCH  14  15
ATOM     15  C   UNL     1      15.615  13.026  30.924  1.00  0.00     0.000 C 
BRANCH  15  16
ATOM     16  C   UNL     1      15.051  11.994  29.928  1.00  0.00    -0.000 C 
BRANCH  16  17
ATOM     17  C   UNL     1      15.638  12.084  28.511  1.00  0.00    -0.003 C 
ATOM     18  C   UNL     1      15.783  10.718  27.839  1.00  0.00     0.004 C 
ENDBRANCH  16  17
ENDBRANCH  15  16
ENDBRANCH  14  15
ENDBRANCH  13  14
ENDBRANCH  12  13
ENDBRANCH  10  11
ENDBRANCH   1  10
TORSDOF 13
ENDMDL
MODEL 4
REMARK VINA RESULT:    -3.978      2.860      4.123
REMARK INTER + INTRA:          -8.399
REMARK INTER:                  -7.847
REMARK INTRA:                  -0.551
REMARK UNBOUND:                -1.398
REMARK SMILES CCCCCCC=CCCCCCCCC(=O)[O-]
REMARK SMILES IDX 10 1 11 2 12 3 13 4 14 5 15 6 16 7 17 8 18 9 9 10 8 11 7 12
REMARK SMILES IDX 6 13 5 14 4 15 3 16 2 17 1 18
REMARK H PARENT
REMARK Flexibility Score: inf
ROOT
ATOM      1  C   UNL     1      16.527  17.009  25.882  1.00  0.00     0.004 C 
ENDROOT
BRANCH   1   2
ATOM      2  C   UNL     1      15.444  18.045  25.537  1.00  0.00     0.000 C 
BRANCH   2   3
ATOM      3  C   UNL     1      14.406  17.496  24.544  1.00  0.00     0.000 C 
BRANCH   3   4
ATOM      4  C   UNL     1      13.663  16.260  25.078  1.00  0.00     0.000 C 
BRANCH   4   5
ATOM      5  C   UNL     1      12.699  16.524  26.250  1.00  0.00     0.006 C 
BRANCH   5   6
ATOM      6  C   UNL     1      12.051  17.921  26.227  1.00  0.00     0.053 C 
BRANCH   6   7
ATOM      7  C   UNL     1      10.859  17.985  25.319  1.00  0.00     0.041 C 
ATOM      8  O   UNL     1       9.695  17.955  25.798  1.00  0.00    -0.550 OA
ATOM      9  O   UNL     1      11.033  18.125  23.947  1.00  0.00    -0.550 OA
ENDBRANCH   6   7
ENDBRANCH   5   6
ENDBRANCH   4   5
ENDBRANCH   3   4
ENDBRANCH   2   3
ENDBRANCH   1   2
BRANCH   1  10
ATOM     10  C   UNL     1      16.651  16.767  27.394  1.00  0.00     0.027 C 
BRANCH  10  11
ATOM     11  C   UNL     1      15.576  15.834  27.877  1.00  0.00    -0.031 C 
ATOM     12  C   UNL     1      15.280  15.722  29.181  1.00  0.00    -0.031 C 
BRANCH  12  13
ATOM     13  C   UNL     1      14.197  14.798  29.669  1.00  0.00     0.027 C 
BRANCH  13  14
ATOM     14  C   UNL     1      14.271  14.566  31.188  1.00  0.00     0.004 C 
BRANCH  14  15
ATOM     15  C   UNL     1      14.941  13.227  31.574  1.00  0.00     0.000 C 
BRANCH  15  16
ATOM     16  C   UNL     1      15.767  12.595  30.437  1.00  0.00    -0.000 C 
BRANCH  16  17
ATOM     17  C   UNL     1      14.933  11.895  29.353  1.00  0.00    -0.003 C 
ATOM     18  C   UNL     1      15.790  11.302  28.234  1.00  0.00     0.004 C 
ENDBRANCH  16  17
ENDBRANCH  15  16
ENDBRANCH  14  15
ENDBRANCH  13  14
ENDBRANCH  12  13
ENDBRANCH  10  11
ENDBRANCH   1  10
TORSDOF 13
ENDMDL
MODEL 5
REMARK VINA RESULT:    -3.905      2.540      3.911
REMARK INTER + INTRA:          -8.270
REMARK INTER:                  -7.467
REMARK INTRA:                  -0.803
REMARK UNBOUND:                -1.398
REMARK SMILES CCCCCCC=CCCCCCCCC(=O)[O-]
REMARK SMILES IDX 10 1 11 2 12 3 13 4 14 5 15 6 16 7 17 8 18 9 9 10 8 11 7 12
REMARK SMILES IDX 6 13 5 14 4 15 3 16 2 17 1 18
REMARK H PARENT
REMARK Flexibility Score: inf
ROOT
ATOM      1  C   UNL     1      14.526  17.381  24.541  1.00  0.00     0.004 C 
ENDROOT
BRANCH   1   2
ATOM      2  C   UNL     1      14.005  18.125  23.300  1.00  0.00     0.000 C 
BRANCH   2   3
ATOM      3  C   UNL     1      12.720  17.494  22.738  1.00  0.00     0.000 C 
BRANCH   3   4
ATOM      4  C   UNL     1      11.444  18.052  23.390  1.00  0.00     0.000 C 
BRANCH   4   5
ATOM      5  C   UNL     1      10.963  17.299  24.647  1.00  0.00     0.006 C 
BRANCH   5   6
ATOM      6  C   UNL     1      11.162  18.078  25.960  1.00  0.00     0.053 C 
BRANCH   6   7
ATOM      7  C   UNL     1      11.999  17.327  26.951  1.00  0.00     0.041 C 
ATOM      8  O   UNL     1      12.539  17.932  27.914  1.00  0.00    -0.550 OA
ATOM      9  O   UNL     1      12.145  15.948  26.839  1.00  0.00    -0.550 OA
ENDBRANCH   6   7
ENDBRANCH   5   6
ENDBRANCH   4   5
ENDBRANCH   3   4
ENDBRANCH   2   3
ENDBRANCH   1   2
BRANCH   1  10
ATOM     10  C   UNL     1      15.947  17.814  24.934  1.00  0.00     0.027 C 
BRANCH  10  11
ATOM     11  C   UNL     1      16.291  17.329  26.315  1.00  0.00    -0.031 C 
ATOM     12  C   UNL     1      15.404  16.653  27.061  1.00  0.00    -0.031 C 
BRANCH  12  13
ATOM     13  C   UNL     1      15.747  16.154  28.439  1.00  0.00     0.027 C 
BRANCH  13  14
ATOM     14  C   UNL     1      15.088  14.799  28.748  1.00  0.00     0.004 C 
BRANCH  14  15
ATOM     15  C   UNL     1      13.928  14.896  29.766  1.00  0.00     0.000 C 
BRANCH  15  16
ATOM     16  C   UNL     1      14.296  14.397  31.176  1.00  0.00    -0.000 C 
BRANCH  16  17
ATOM     17  C   UNL     1      15.311  13.243  31.204  1.00  0.00    -0.003 C 
ATOM     18  C   UNL     1      14.743  11.938  30.646  1.00  0.00     0.004 C 
ENDBRANCH  16  17
ENDBRANCH  15  16
ENDBRANCH  14  15
ENDBRANCH  13  14
ENDBRANCH  12  13
ENDBRANCH  10  11
ENDBRANCH   1  10
TORSDOF 13
ENDMDL
MODEL 6
REMARK VINA RESULT:    -3.877      2.660      4.186
REMARK INTER + INTRA:          -8.220
REMARK INTER:                  -7.448
REMARK INTRA:                  -0.772
REMARK UNBOUND:                -1.398
REMARK SMILES CCCCCCC=CCCCCCCCC(=O)[O-]
REMARK SMILES IDX 10 1 11 2 12 3 13 4 14 5 15 6 16 7 17 8 18 9 9 10 8 11 7 12
REMARK SMILES IDX 6 13 5 14 4 15 3 16 2 17 1 18
REMARK H PARENT
REMARK Flexibility Score: inf
ROOT
ATOM      1  C   UNL     1      18.389  17.508  26.544  1.00  0.00     0.004 C 
ENDROOT
BRANCH   1   2
ATOM      2  C   UNL     1      18.047  17.125  25.095  1.00  0.00     0.000 C 
BRANCH   2   3
ATOM      3  C   UNL     1      17.072  18.121  24.443  1.00  0.00     0.000 C 
BRANCH   3   4
ATOM      4  C   UNL     1      15.686  18.124  25.109  1.00  0.00     0.000 C 
BRANCH   4   5
ATOM      5  C   UNL     1      14.496  17.888  24.158  1.00  0.00     0.006 C 
BRANCH   5   6
ATOM      6  C   UNL     1      13.437  16.915  24.707  1.00  0.00     0.053 C 
BRANCH   6   7
ATOM      7  C   UNL     1      12.041  17.439  24.549  1.00  0.00     0.041 C 
ATOM      8  O   UNL     1      11.279  17.527  25.548  1.00  0.00    -0.550 OA
ATOM      9  O   UNL     1      11.594  17.874  23.306  1.00  0.00    -0.550 OA
ENDBRANCH   6   7
ENDBRANCH   5   6
ENDBRANCH   4   5
ENDBRANCH   3   4
ENDBRANCH   2   3
ENDBRANCH   1   2
BRANCH   1  10
ATOM     10  C   UNL     1      17.862  16.486  27.563  1.00  0.00     0.027 C 
BRANCH  10  11
ATOM     11  C   UNL     1      16.384  16.273  27.391  1.00  0.00    -0.031 C 
ATOM     12  C   UNL     1      15.583  16.035  28.441  1.00  0.00    -0.031 C 
BRANCH  12  13
ATOM     13  C   UNL     1      14.101  15.832  28.277  1.00  0.00     0.027 C 
BRANCH  13  14
ATOM     14  C   UNL     1      13.488  15.042  29.446  1.00  0.00     0.004 C 
BRANCH  14  15
ATOM     15  C   UNL     1      14.334  15.100  30.739  1.00  0.00     0.000 C 
BRANCH  15  16
ATOM     16  C   UNL     1      14.396  13.762  31.501  1.00  0.00    -0.000 C 
BRANCH  16  17
ATOM     17  C   UNL     1      15.540  12.831  31.071  1.00  0.00    -0.003 C 
ATOM     18  C   UNL     1      15.259  12.114  29.751  1.00  0.00     0.004 C 
ENDBRANCH  16  17
ENDBRANCH  15  16
ENDBRANCH  14  15
ENDBRANCH  13  14
ENDBRANCH  12  13
ENDBRANCH  10  11
ENDBRANCH   1  10
TORSDOF 13
ENDMDL
MODEL 7
REMARK VINA RESULT:    -3.789     17.287     19.224
REMARK INTER + INTRA:          -8.067
REMARK INTER:                  -7.213
REMARK INTRA:                  -0.854
REMARK UNBOUND:                -1.398
REMARK SMILES CCCCCCC=CCCCCCCCC(=O)[O-]
REMARK SMILES IDX 10 1 11 2 12 3 13 4 14 5 15 6 16 7 17 8 18 9 9 10 8 11 7 12
REMARK SMILES IDX 6 13 5 14 4 15 3 16 2 17 1 18
REMARK H PARENT
REMARK Flexibility Score: inf
ROOT
ATOM      1  C   UNL     1       5.894   0.720  34.534  1.00  0.00     0.004 C 
ENDROOT
BRANCH   1   2
ATOM      2  C   UNL     1       6.429  -0.314  35.539  1.00  0.00     0.000 C 
BRANCH   2   3
ATOM      3  C   UNL     1       6.991  -1.566  34.845  1.00  0.00     0.000 C 
BRANCH   3   4
ATOM      4  C   UNL     1       6.941  -1.473  33.311  1.00  0.00     0.000 C 
BRANCH   4   5
ATOM      5  C   UNL     1       8.171  -2.041  32.575  1.00  0.00     0.006 C 
BRANCH   5   6
ATOM      6  C   UNL     1       8.477  -1.346  31.236  1.00  0.00     0.053 C 
BRANCH   6   7
ATOM      7  C   UNL     1       9.874  -0.804  31.177  1.00  0.00     0.041 C 
ATOM      8  O   UNL     1      10.839  -1.564  30.903  1.00  0.00    -0.550 OA
ATOM      9  O   UNL     1      10.105   0.553  31.379  1.00  0.00    -0.550 OA
ENDBRANCH   6   7
ENDBRANCH   5   6
ENDBRANCH   4   5
ENDBRANCH   3   4
ENDBRANCH   2   3
ENDBRANCH   1   2
BRANCH   1  10
ATOM     10  C   UNL     1       6.328   2.154  34.878  1.00  0.00     0.027 C 
BRANCH  10  11
ATOM     11  C   UNL     1       5.486   3.158  34.142  1.00  0.00    -0.031 C 
ATOM     12  C   UNL     1       4.253   2.856  33.708  1.00  0.00    -0.031 C 
BRANCH  12  13
ATOM     13  C   UNL     1       3.401   3.861  32.981  1.00  0.00     0.027 C 
BRANCH  13  14
ATOM     14  C   UNL     1       3.431   3.654  31.457  1.00  0.00     0.004 C 
BRANCH  14  15
ATOM     15  C   UNL     1       2.095   4.007  30.762  1.00  0.00     0.000 C 
BRANCH  15  16
ATOM     16  C   UNL     1       0.856   3.788  31.650  1.00  0.00    -0.000 C 
BRANCH  16  17
ATOM     17  C   UNL     1       0.078   2.495  31.358  1.00  0.00    -0.003 C 
ATOM     18  C   UNL     1       0.546   1.795  30.082  1.00  0.00     0.004 C 
ENDBRANCH  16  17
ENDBRANCH  15  16
ENDBRANCH  14  15
ENDBRANCH  13  14
ENDBRANCH  12  13
ENDBRANCH  10  11
ENDBRANCH   1  10
TORSDOF 13
ENDMDL
MODEL 8
REMARK VINA RESULT:    -3.715      1.790      5.258
REMARK INTER + INTRA:          -7.936
REMARK INTER:                  -6.817
REMARK INTRA:                  -1.119
REMARK UNBOUND:                -1.398
REMARK SMILES CCCCCCC=CCCCCCCCC(=O)[O-]
REMARK SMILES IDX 10 1 11 2 12 3 13 4 14 5 15 6 16 7 17 8 18 9 9 10 8 11 7 12
REMARK SMILES IDX 6 13 5 14 4 15 3 16 2 17 1 18
REMARK H PARENT
REMARK Flexibility Score: inf
ROOT
ATOM      1  C   UNL     1      14.548  14.434  29.437  1.00  0.00     0.004 C 
ENDROOT
BRANCH   1   2
ATOM      2  C   UNL     1      15.213  14.782  28.095  1.00  0.00     0.000 C 
BRANCH   2   3
ATOM      3  C   UNL     1      16.294  15.866  28.243  1.00  0.00     0.000 C 
BRANCH   3   4
ATOM      4  C   UNL     1      16.296  16.873  27.081  1.00  0.00     0.000 C 
BRANCH   4   5
ATOM      5  C   UNL     1      17.658  17.082  26.391  1.00  0.00     0.006 C 
BRANCH   5   6
ATOM      6  C   UNL     1      17.567  17.774  25.018  1.00  0.00     0.053 C 
BRANCH   6   7
ATOM      7  C   UNL     1      18.846  17.678  24.241  1.00  0.00     0.041 C 
ATOM      8  O   UNL     1      19.929  17.420  24.830  1.00  0.00    -0.550 OA
ATOM      9  O   UNL     1      18.836  17.827  22.859  1.00  0.00    -0.550 OA
ENDBRANCH   6   7
ENDBRANCH   5   6
ENDBRANCH   4   5
ENDBRANCH   3   4
ENDBRANCH   2   3
ENDBRANCH   1   2
BRANCH   1  10
ATOM     10  C   UNL     1      13.202  15.148  29.630  1.00  0.00     0.027 C 
BRANCH  10  11
ATOM     11  C   UNL     1      12.746  15.786  28.348  1.00  0.00    -0.031 C 
ATOM     12  C   UNL     1      12.723  17.119  28.199  1.00  0.00    -0.031 C 
BRANCH  12  13
ATOM     13  C   UNL     1      12.279  17.764  26.913  1.00  0.00     0.027 C 
BRANCH  13  14
ATOM     14  C   UNL     1      13.110  17.293  25.708  1.00  0.00     0.004 C 
BRANCH  14  15
ATOM     15  C   UNL     1      12.437  16.158  24.901  1.00  0.00     0.000 C 
BRANCH  15  16
ATOM     16  C   UNL     1      11.526  16.659  23.765  1.00  0.00    -0.000 C 
BRANCH  16  17
ATOM     17  C   UNL     1      11.830  18.086  23.281  1.00  0.00    -0.003 C 
ATOM     18  C   UNL     1      12.430  18.122  21.875  1.00  0.00     0.004 C 
ENDBRANCH  16  17
ENDBRANCH  15  16
ENDBRANCH  14  15
ENDBRANCH  13  14
ENDBRANCH  12  13
ENDBRANCH  10  11
ENDBRANCH   1  10
TORSDOF 13
ENDMDL
