MODEL 1
REMARK VINA RESULT:    -6.258      0.000      0.000
REMARK INTER + INTRA:          -8.540
REMARK INTER:                  -7.722
REMARK INTRA:                  -0.819
REMARK UNBOUND:                -0.819
REMARK SMILES CC(C)=CCC[C@@H](C)c1ccc(C)cc1
REMARK SMILES IDX 6 1 7 2 8 3 9 4 13 5 12 6 11 7 14 8 10 9 15 10 5 11 4 12
REMARK SMILES IDX 2 13 1 14 3 15
REMARK H PARENT
REMARK Flexibility Score: inf
ROOT
ATOM      1  C   UNL     1      21.523  78.456  16.815  1.00  0.00     0.012 C 
ENDROOT
BRANCH   1   2
ATOM      2  C   UNL     1      21.255  77.181  15.977  1.00  0.00     0.016 C 
ATOM      3  C   UNL     1      21.087  77.477  14.479  1.00  0.00     0.013 C 
BRANCH   2   4
ATOM      4  C   UNL     1      22.365  76.168  16.192  1.00  0.00    -0.045 A 
ATOM      5  C   UNL     1      25.500  73.258  16.791  1.00  0.00     0.044 C 
ATOM      6  C   UNL     1      24.412  74.273  16.613  1.00  0.00    -0.051 A 
ATOM      7  C   UNL     1      23.066  73.879  16.635  1.00  0.00     0.004 A 
ATOM      8  C   UNL     1      24.732  75.614  16.356  1.00  0.00     0.004 A 
ATOM      9  C   UNL     1      22.052  74.818  16.433  1.00  0.00     0.004 A 
ATOM     10  C   UNL     1      23.718  76.555  16.154  1.00  0.00     0.004 A 
ENDBRANCH   2   4
ENDBRANCH   1   2
BRANCH   1  11
ATOM     11  C   UNL     1      21.248  79.768  16.056  1.00  0.00     0.028 C 
BRANCH  11  12
ATOM     12  C   UNL     1      22.168  80.890  16.480  1.00  0.00    -0.028 C 
ATOM     13  C   UNL     1      23.424  81.030  16.006  1.00  0.00    -0.080 C 
ATOM     14  C   UNL     1      24.005  80.063  15.004  1.00  0.00     0.039 C 
ATOM     15  C   UNL     1      24.284  82.178  16.469  1.00  0.00     0.039 C 
ENDBRANCH  11  12
ENDBRANCH   1  11
TORSDOF 4
ENDMDL
MODEL 2
REMARK VINA RESULT:    -5.927      1.910      2.748
REMARK INTER + INTRA:          -8.131
REMARK INTER:                  -6.882
REMARK INTRA:                  -1.249
REMARK UNBOUND:                -0.819
REMARK SMILES CC(C)=CCC[C@@H](C)c1ccc(C)cc1
REMARK SMILES IDX 6 1 7 2 8 3 9 4 13 5 12 6 11 7 14 8 10 9 15 10 5 11 4 12
REMARK SMILES IDX 2 13 1 14 3 15
REMARK H PARENT
REMARK Flexibility Score: inf
ROOT
ATOM      1  C   UNL     1      21.139  78.497  16.097  1.00  0.00     0.012 C 
ENDROOT
BRANCH   1   2
ATOM      2  C   UNL     1      21.895  77.148  16.179  1.00  0.00     0.016 C 
ATOM      3  C   UNL     1      21.071  75.969  15.640  1.00  0.00     0.013 C 
BRANCH   2   4
ATOM      4  C   UNL     1      23.221  77.242  15.445  1.00  0.00    -0.045 A 
ATOM      5  C   UNL     1      26.979  77.536  13.336  1.00  0.00     0.044 C 
ATOM      6  C   UNL     1      25.670  77.406  14.056  1.00  0.00    -0.051 A 
ATOM      7  C   UNL     1      24.486  77.861  13.459  1.00  0.00     0.004 A 
ATOM      8  C   UNL     1      25.630  76.890  15.360  1.00  0.00     0.004 A 
ATOM      9  C   UNL     1      23.271  77.774  14.144  1.00  0.00     0.004 A 
ATOM     10  C   UNL     1      24.415  76.802  16.046  1.00  0.00     0.004 A 
ENDBRANCH   2   4
ENDBRANCH   1   2
BRANCH   1  11
ATOM     11  C   UNL     1      21.791  79.627  16.917  1.00  0.00     0.028 C 
BRANCH  11  12
ATOM     12  C   UNL     1      21.760  80.959  16.204  1.00  0.00    -0.028 C 
ATOM     13  C   UNL     1      22.862  81.542  15.686  1.00  0.00    -0.080 C 
ATOM     14  C   UNL     1      24.220  80.895  15.785  1.00  0.00     0.039 C 
ATOM     15  C   UNL     1      22.754  82.870  14.981  1.00  0.00     0.039 C 
ENDBRANCH  11  12
ENDBRANCH   1  11
TORSDOF 4
ENDMDL
MODEL 3
REMARK VINA RESULT:    -5.785      6.538      9.771
REMARK INTER + INTRA:          -7.956
REMARK INTER:                  -6.860
REMARK INTRA:                  -1.096
REMARK UNBOUND:                -0.819
REMARK SMILES CC(C)=CCC[C@@H](C)c1ccc(C)cc1
REMARK SMILES IDX 6 1 7 2 8 3 9 4 13 5 12 6 11 7 14 8 10 9 15 10 5 11 4 12
REMARK SMILES IDX 2 13 1 14 3 15
REMARK H PARENT
REMARK Flexibility Score: inf
ROOT
ATOM      1  C   UNL     1      28.230  72.578  21.528  1.00  0.00     0.012 C 
ENDROOT
BRANCH   1   2
ATOM      2  C   UNL     1      29.326  71.490  21.421  1.00  0.00     0.016 C 
ATOM      3  C   UNL     1      28.748  70.075  21.266  1.00  0.00     0.013 C 
BRANCH   2   4
ATOM      4  C   UNL     1      30.267  71.802  20.271  1.00  0.00    -0.045 A 
ATOM      5  C   UNL     1      32.949  72.653  16.994  1.00  0.00     0.044 C 
ATOM      6  C   UNL     1      32.039  72.369  18.151  1.00  0.00    -0.051 A 
ATOM      7  C   UNL     1      32.076  71.121  18.790  1.00  0.00     0.004 A 
ATOM      8  C   UNL     1      31.097  73.324  18.560  1.00  0.00     0.004 A 
ATOM      9  C   UNL     1      31.203  70.842  19.845  1.00  0.00     0.004 A 
ATOM     10  C   UNL     1      30.223  73.046  19.616  1.00  0.00     0.004 A 
ENDBRANCH   2   4
ENDBRANCH   1   2
BRANCH   1  11
ATOM     11  C   UNL     1      26.882  72.166  20.907  1.00  0.00     0.028 C 
BRANCH  11  12
ATOM     12  C   UNL     1      26.649  72.793  19.551  1.00  0.00    -0.028 C 
ATOM     13  C   UNL     1      26.395  72.069  18.440  1.00  0.00    -0.080 C 
ATOM     14  C   UNL     1      26.325  70.563  18.476  1.00  0.00     0.039 C 
ATOM     15  C   UNL     1      26.166  72.763  17.122  1.00  0.00     0.039 C 
ENDBRANCH  11  12
ENDBRANCH   1  11
TORSDOF 4
ENDMDL
MODEL 4
REMARK VINA RESULT:    -5.750     12.511     13.868
REMARK INTER + INTRA:          -7.914
REMARK INTER:                  -6.852
REMARK INTRA:                  -1.062
REMARK UNBOUND:                -0.819
REMARK SMILES CC(C)=CCC[C@@H](C)c1ccc(C)cc1
REMARK SMILES IDX 6 1 7 2 8 3 9 4 13 5 12 6 11 7 14 8 10 9 15 10 5 11 4 12
REMARK SMILES IDX 2 13 1 14 3 15
REMARK H PARENT
REMARK Flexibility Score: inf
ROOT
ATOM      1  C   UNL     1      29.156  75.369   4.499  1.00  0.00     0.012 C 
ENDROOT
BRANCH   1   2
ATOM      2  C   UNL     1      30.201  74.470   5.203  1.00  0.00     0.016 C 
ATOM      3  C   UNL     1      30.064  74.482   6.733  1.00  0.00     0.013 C 
BRANCH   2   4
ATOM      4  C   UNL     1      30.111  73.048   4.679  1.00  0.00    -0.045 A 
ATOM      5  C   UNL     1      29.882  68.993   3.209  1.00  0.00     0.044 C 
ATOM      6  C   UNL     1      29.970  70.410   3.691  1.00  0.00    -0.051 A 
ATOM      7  C   UNL     1      31.155  70.887   4.269  1.00  0.00     0.004 A 
ATOM      8  C   UNL     1      28.848  71.249   3.630  1.00  0.00     0.004 A 
ATOM      9  C   UNL     1      31.227  72.197   4.753  1.00  0.00     0.004 A 
ATOM     10  C   UNL     1      28.919  72.559   4.113  1.00  0.00     0.004 A 
ENDBRANCH   2   4
ENDBRANCH   1   2
BRANCH   1  11
ATOM     11  C   UNL     1      28.081  75.934   5.448  1.00  0.00     0.028 C 
BRANCH  11  12
ATOM     12  C   UNL     1      26.675  75.656   4.967  1.00  0.00    -0.028 C 
ATOM     13  C   UNL     1      25.958  74.586   5.369  1.00  0.00    -0.080 C 
ATOM     14  C   UNL     1      26.517  73.578   6.342  1.00  0.00     0.039 C 
ATOM     15  C   UNL     1      24.558  74.376   4.852  1.00  0.00     0.039 C 
ENDBRANCH  11  12
ENDBRANCH   1  11
TORSDOF 4
ENDMDL
MODEL 5
REMARK VINA RESULT:    -5.733     11.764     13.577
REMARK INTER + INTRA:          -7.892
REMARK INTER:                  -6.575
REMARK INTRA:                  -1.317
REMARK UNBOUND:                -0.819
REMARK SMILES CC(C)=CCC[C@@H](C)c1ccc(C)cc1
REMARK SMILES IDX 6 1 7 2 8 3 9 4 13 5 12 6 11 7 14 8 10 9 15 10 5 11 4 12
REMARK SMILES IDX 2 13 1 14 3 15
REMARK H PARENT
REMARK Flexibility Score: inf
ROOT
ATOM      1  C   UNL     1      30.467  74.932   6.374  1.00  0.00     0.012 C 
ENDROOT
BRANCH   1   2
ATOM      2  C   UNL     1      29.415  75.973   5.919  1.00  0.00     0.016 C 
ATOM      3  C   UNL     1      29.811  76.692   4.620  1.00  0.00     0.013 C 
BRANCH   2   4
ATOM      4  C   UNL     1      28.056  75.314   5.761  1.00  0.00    -0.045 A 
ATOM      5  C   UNL     1      24.188  73.453   5.280  1.00  0.00     0.044 C 
ATOM      6  C   UNL     1      25.519  74.117   5.470  1.00  0.00    -0.051 A 
ATOM      7  C   UNL     1      25.853  75.258   4.727  1.00  0.00     0.004 A 
ATOM      8  C   UNL     1      26.467  73.562   6.342  1.00  0.00     0.004 A 
ATOM      9  C   UNL     1      27.107  75.855   4.876  1.00  0.00     0.004 A 
ATOM     10  C   UNL     1      27.722  74.159   6.492  1.00  0.00     0.004 A 
ENDBRANCH   2   4
ENDBRANCH   1   2
BRANCH   1  11
ATOM     11  C   UNL     1      31.098  74.138   5.214  1.00  0.00     0.028 C 
BRANCH  11  12
ATOM     12  C   UNL     1      30.984  72.642   5.403  1.00  0.00    -0.028 C 
ATOM     13  C   UNL     1      30.090  71.882   4.735  1.00  0.00    -0.080 C 
ATOM     14  C   UNL     1      29.130  72.482   3.739  1.00  0.00     0.039 C 
ATOM     15  C   UNL     1      30.038  70.395   4.970  1.00  0.00     0.039 C 
ENDBRANCH  11  12
ENDBRANCH   1  11
TORSDOF 4
ENDMDL
MODEL 6
REMARK VINA RESULT:    -5.583      6.373     10.063
REMARK INTER + INTRA:          -7.707
REMARK INTER:                  -6.968
REMARK INTRA:                  -0.738
REMARK UNBOUND:                -0.819
REMARK SMILES CC(C)=CCC[C@@H](C)c1ccc(C)cc1
REMARK SMILES IDX 6 1 7 2 8 3 9 4 13 5 12 6 11 7 14 8 10 9 15 10 5 11 4 12
REMARK SMILES IDX 2 13 1 14 3 15
REMARK H PARENT
REMARK Flexibility Score: inf
ROOT
ATOM      1  C   UNL     1      27.947  72.492  21.571  1.00  0.00     0.012 C 
ENDROOT
BRANCH   1   2
ATOM      2  C   UNL     1      29.267  71.692  21.457  1.00  0.00     0.016 C 
ATOM      3  C   UNL     1      29.227  70.630  20.347  1.00  0.00     0.013 C 
BRANCH   2   4
ATOM      4  C   UNL     1      30.437  72.635  21.239  1.00  0.00    -0.045 A 
ATOM      5  C   UNL     1      33.742  75.347  20.622  1.00  0.00     0.044 C 
ATOM      6  C   UNL     1      32.599  74.395  20.808  1.00  0.00    -0.051 A 
ATOM      7  C   UNL     1      31.290  74.791  20.497  1.00  0.00     0.004 A 
ATOM      8  C   UNL     1      32.821  73.123  21.357  1.00  0.00     0.004 A 
ATOM      9  C   UNL     1      30.220  73.917  20.705  1.00  0.00     0.004 A 
ATOM     10  C   UNL     1      31.750  72.248  21.565  1.00  0.00     0.004 A 
ENDBRANCH   2   4
ENDBRANCH   1   2
BRANCH   1  11
ATOM     11  C   UNL     1      26.803  71.932  20.705  1.00  0.00     0.028 C 
BRANCH  11  12
ATOM     12  C   UNL     1      26.615  72.702  19.418  1.00  0.00    -0.028 C 
ATOM     13  C   UNL     1      26.302  72.110  18.245  1.00  0.00    -0.080 C 
ATOM     14  C   UNL     1      26.115  70.617  18.138  1.00  0.00     0.039 C 
ATOM     15  C   UNL     1      26.124  72.942  17.002  1.00  0.00     0.039 C 
ENDBRANCH  11  12
ENDBRANCH   1  11
TORSDOF 4
ENDMDL
MODEL 7
REMARK VINA RESULT:    -5.544      4.405      8.003
REMARK INTER + INTRA:          -7.659
REMARK INTER:                  -7.169
REMARK INTRA:                  -0.491
REMARK UNBOUND:                -0.819
REMARK SMILES CC(C)=CCC[C@@H](C)c1ccc(C)cc1
REMARK SMILES IDX 6 1 7 2 8 3 9 4 13 5 12 6 11 7 14 8 10 9 15 10 5 11 4 12
REMARK SMILES IDX 2 13 1 14 3 15
REMARK H PARENT
REMARK Flexibility Score: inf
ROOT
ATOM      1  C   UNL     1      26.476  73.058  18.434  1.00  0.00     0.012 C 
ENDROOT
BRANCH   1   2
ATOM      2  C   UNL     1      26.679  71.784  19.290  1.00  0.00     0.016 C 
ATOM      3  C   UNL     1      26.447  70.489  18.497  1.00  0.00     0.013 C 
BRANCH   2   4
ATOM      4  C   UNL     1      28.066  71.780  19.907  1.00  0.00    -0.045 A 
ATOM      5  C   UNL     1      32.005  71.800  21.681  1.00  0.00     0.044 C 
ATOM      6  C   UNL     1      30.650  71.799  21.038  1.00  0.00    -0.051 A 
ATOM      7  C   UNL     1      29.898  72.981  20.970  1.00  0.00     0.004 A 
ATOM      8  C   UNL     1      30.096  70.603  20.560  1.00  0.00     0.004 A 
ATOM      9  C   UNL     1      28.621  72.973  20.403  1.00  0.00     0.004 A 
ATOM     10  C   UNL     1      28.818  70.594  19.993  1.00  0.00     0.004 A 
ENDBRANCH   2   4
ENDBRANCH   1   2
BRANCH   1  11
ATOM     11  C   UNL     1      25.907  72.779  17.030  1.00  0.00     0.028 C 
BRANCH  11  12
ATOM     12  C   UNL     1      24.438  73.119  16.918  1.00  0.00    -0.028 C 
ATOM     13  C   UNL     1      23.990  74.363  16.646  1.00  0.00    -0.080 C 
ATOM     14  C   UNL     1      24.937  75.517  16.431  1.00  0.00     0.039 C 
ATOM     15  C   UNL     1      22.510  74.627  16.543  1.00  0.00     0.039 C 
ENDBRANCH  11  12
ENDBRANCH   1  11
TORSDOF 4
ENDMDL
MODEL 8
REMARK VINA RESULT:    -5.459     12.184     14.321
REMARK INTER + INTRA:          -7.555
REMARK INTER:                  -6.519
REMARK INTRA:                  -1.036
REMARK UNBOUND:                -0.819
REMARK SMILES CC(C)=CCC[C@@H](C)c1ccc(C)cc1
REMARK SMILES IDX 6 1 7 2 8 3 9 4 13 5 12 6 11 7 14 8 10 9 15 10 5 11 4 12
REMARK SMILES IDX 2 13 1 14 3 15
REMARK H PARENT
REMARK Flexibility Score: inf
ROOT
ATOM      1  C   UNL     1      30.687  72.332   6.430  1.00  0.00     0.012 C 
ENDROOT
BRANCH   1   2
ATOM      2  C   UNL     1      30.294  73.768   6.859  1.00  0.00     0.016 C 
ATOM      3  C   UNL     1      31.367  74.809   6.507  1.00  0.00     0.013 C 
BRANCH   2   4
ATOM      4  C   UNL     1      28.962  74.156   6.244  1.00  0.00    -0.045 A 
ATOM      5  C   UNL     1      25.154  75.245   4.521  1.00  0.00     0.044 C 
ATOM      6  C   UNL     1      26.480  74.847   5.095  1.00  0.00    -0.051 A 
ATOM      7  C   UNL     1      26.561  73.810   6.036  1.00  0.00     0.004 A 
ATOM      8  C   UNL     1      27.641  75.553   4.749  1.00  0.00     0.004 A 
ATOM      9  C   UNL     1      27.791  73.463   6.600  1.00  0.00     0.004 A 
ATOM     10  C   UNL     1      28.873  75.207   5.312  1.00  0.00     0.004 A 
ENDBRANCH   2   4
ENDBRANCH   1   2
BRANCH   1  11
ATOM     11  C   UNL     1      31.194  72.235   4.978  1.00  0.00     0.028 C 
BRANCH  11  12
ATOM     12  C   UNL     1      31.047  70.845   4.402  1.00  0.00    -0.028 C 
ATOM     13  C   UNL     1      29.900  70.395   3.850  1.00  0.00    -0.080 C 
ATOM     14  C   UNL     1      28.668  71.261   3.769  1.00  0.00     0.039 C 
ATOM     15  C   UNL     1      29.828  68.998   3.289  1.00  0.00     0.039 C 
ENDBRANCH  11  12
ENDBRANCH   1  11
TORSDOF 4
ENDMDL
MODEL 9
REMARK VINA RESULT:    -5.419     12.026     12.942
REMARK INTER + INTRA:          -7.505
REMARK INTER:                  -6.437
REMARK INTRA:                  -1.068
REMARK UNBOUND:                -0.819
REMARK SMILES CC(C)=CCC[C@@H](C)c1ccc(C)cc1
REMARK SMILES IDX 6 1 7 2 8 3 9 4 13 5 12 6 11 7 14 8 10 9 15 10 5 11 4 12
REMARK SMILES IDX 2 13 1 14 3 15
REMARK H PARENT
REMARK Flexibility Score: inf
ROOT
ATOM      1  C   UNL     1      28.037  75.363   7.001  1.00  0.00     0.012 C 
ENDROOT
BRANCH   1   2
ATOM      2  C   UNL     1      27.149  74.641   5.958  1.00  0.00     0.016 C 
ATOM      3  C   UNL     1      26.620  75.586   4.869  1.00  0.00     0.013 C 
BRANCH   2   4
ATOM      4  C   UNL     1      27.909  73.487   5.329  1.00  0.00    -0.045 A 
ATOM      5  C   UNL     1      30.038  70.186   3.533  1.00  0.00     0.044 C 
ATOM      6  C   UNL     1      29.313  71.325   4.183  1.00  0.00    -0.051 A 
ATOM      7  C   UNL     1      28.043  71.127   4.744  1.00  0.00     0.004 A 
ATOM      8  C   UNL     1      29.868  72.613   4.176  1.00  0.00     0.004 A 
ATOM      9  C   UNL     1      27.350  72.196   5.317  1.00  0.00     0.004 A 
ATOM     10  C   UNL     1      29.176  73.683   4.750  1.00  0.00     0.004 A 
ENDBRANCH   2   4
ENDBRANCH   1   2
BRANCH   1  11
ATOM     11  C   UNL     1      28.379  76.817   6.625  1.00  0.00     0.028 C 
BRANCH  11  12
ATOM     12  C   UNL     1      29.868  77.080   6.609  1.00  0.00    -0.028 C 
ATOM     13  C   UNL     1      30.587  77.172   5.469  1.00  0.00    -0.080 C 
ATOM     14  C   UNL     1      29.944  77.017   4.113  1.00  0.00     0.039 C 
ATOM     15  C   UNL     1      32.068  77.442   5.529  1.00  0.00     0.039 C 
ENDBRANCH  11  12
ENDBRANCH   1  11
TORSDOF 4
ENDMDL
