MODEL 1
REMARK VINA RESULT:    -4.856      0.000      0.000
REMARK INTER + INTRA:         -10.469
REMARK INTER:                  -8.547
REMARK INTRA:                  -1.923
REMARK UNBOUND:                -1.923
REMARK SMILES CCCCCCCCCCCCCCC(=O)[O-]
REMARK SMILES IDX 9 1 10 2 11 3 12 4 13 5 14 6 15 7 16 8 17 9 8 10 7 11 6 12
REMARK SMILES IDX 5 13 4 14 3 15 2 16 1 17
REMARK H PARENT
REMARK Flexibility Score: inf
ROOT
ATOM      1  C   UNL     1       6.449  47.746   9.334  1.00  0.00     0.000 C 
ENDROOT
BRANCH   1   2
ATOM      2  C   UNL     1       5.212  47.073   9.949  1.00  0.00     0.000 C 
BRANCH   2   3
ATOM      3  C   UNL     1       4.588  46.020   9.018  1.00  0.00     0.000 C 
BRANCH   3   4
ATOM      4  C   UNL     1       3.898  44.879   9.785  1.00  0.00     0.000 C 
BRANCH   4   5
ATOM      5  C   UNL     1       3.760  45.146  11.299  1.00  0.00     0.006 C 
BRANCH   5   6
ATOM      6  C   UNL     1       3.779  43.850  12.120  1.00  0.00     0.053 C 
BRANCH   6   7
ATOM      7  C   UNL     1       2.557  43.035  11.840  1.00  0.00     0.041 C 
ATOM      8  O   UNL     1       1.413  43.543  11.966  1.00  0.00    -0.550 OA
ATOM      9  O   UNL     1       2.681  41.697  11.486  1.00  0.00    -0.550 OA
ENDBRANCH   6   7
ENDBRANCH   5   6
ENDBRANCH   4   5
ENDBRANCH   3   4
ENDBRANCH   2   3
ENDBRANCH   1   2
BRANCH   1  10
ATOM     10  C   UNL     1       6.369  49.282   9.380  1.00  0.00     0.000 C 
BRANCH  10  11
ATOM     11  C   UNL     1       5.322  49.789  10.385  1.00  0.00    -0.000 C 
BRANCH  11  12
ATOM     12  C   UNL     1       4.409  50.875   9.795  1.00  0.00    -0.000 C 
BRANCH  12  13
ATOM     13  C   UNL     1       4.545  50.933   8.265  1.00  0.00    -0.000 C 
BRANCH  13  14
ATOM     14  C   UNL     1       3.272  50.470   7.539  1.00  0.00    -0.000 C 
BRANCH  14  15
ATOM     15  C   UNL     1       3.228  48.946   7.335  1.00  0.00    -0.000 C 
BRANCH  15  16
ATOM     16  C   UNL     1       1.894  48.330   7.782  1.00  0.00    -0.003 C 
ATOM     17  C   UNL     1       1.732  48.314   9.302  1.00  0.00     0.004 C 
ENDBRANCH  15  16
ENDBRANCH  14  15
ENDBRANCH  13  14
ENDBRANCH  12  13
ENDBRANCH  11  12
ENDBRANCH  10  11
ENDBRANCH   1  10
TORSDOF 13
ENDMDL
MODEL 2
REMARK VINA RESULT:    -4.838      1.092      3.056
REMARK INTER + INTRA:         -10.438
REMARK INTER:                  -8.393
REMARK INTRA:                  -2.045
REMARK UNBOUND:                -1.923
REMARK SMILES CCCCCCCCCCCCCCC(=O)[O-]
REMARK SMILES IDX 9 1 10 2 11 3 12 4 13 5 14 6 15 7 16 8 17 9 8 10 7 11 6 12
REMARK SMILES IDX 5 13 4 14 3 15 2 16 1 17
REMARK H PARENT
REMARK Flexibility Score: inf
ROOT
ATOM      1  C   UNL     1       3.268  48.051   7.478  1.00  0.00     0.000 C 
ENDROOT
BRANCH   1   2
ATOM      2  C   UNL     1       2.027  47.348   8.049  1.00  0.00     0.000 C 
BRANCH   2   3
ATOM      3  C   UNL     1       2.376  46.345   9.161  1.00  0.00     0.000 C 
BRANCH   3   4
ATOM      4  C   UNL     1       3.882  46.040   9.238  1.00  0.00     0.000 C 
BRANCH   4   5
ATOM      5  C   UNL     1       4.205  44.673   9.878  1.00  0.00     0.006 C 
BRANCH   5   6
ATOM      6  C   UNL     1       4.094  44.710  11.408  1.00  0.00     0.053 C 
BRANCH   6   7
ATOM      7  C   UNL     1       3.307  43.539  11.905  1.00  0.00     0.041 C 
ATOM      8  O   UNL     1       2.140  43.702  12.347  1.00  0.00    -0.550 OA
ATOM      9  O   UNL     1       3.881  42.274  11.926  1.00  0.00    -0.550 OA
ENDBRANCH   6   7
ENDBRANCH   5   6
ENDBRANCH   4   5
ENDBRANCH   3   4
ENDBRANCH   2   3
ENDBRANCH   1   2
BRANCH   1  10
ATOM     10  C   UNL     1       3.067  49.570   7.326  1.00  0.00     0.000 C 
BRANCH  10  11
ATOM     11  C   UNL     1       2.179  50.162   8.432  1.00  0.00    -0.000 C 
BRANCH  11  12
ATOM     12  C   UNL     1       2.992  50.760   9.590  1.00  0.00    -0.000 C 
BRANCH  12  13
ATOM     13  C   UNL     1       3.228  49.714  10.691  1.00  0.00    -0.000 C 
BRANCH  13  14
ATOM     14  C   UNL     1       4.675  49.196  10.714  1.00  0.00    -0.000 C 
BRANCH  14  15
ATOM     15  C   UNL     1       5.650  50.128   9.976  1.00  0.00    -0.000 C 
BRANCH  15  16
ATOM     16  C   UNL     1       6.447  49.401   8.883  1.00  0.00    -0.003 C 
ATOM     17  C   UNL     1       6.835  47.979   9.283  1.00  0.00     0.004 C 
ENDBRANCH  15  16
ENDBRANCH  14  15
ENDBRANCH  13  14
ENDBRANCH  12  13
ENDBRANCH  11  12
ENDBRANCH  10  11
ENDBRANCH   1  10
TORSDOF 13
ENDMDL
MODEL 3
REMARK VINA RESULT:    -4.779      2.247      4.271
REMARK INTER + INTRA:         -10.333
REMARK INTER:                  -9.282
REMARK INTRA:                  -1.051
REMARK UNBOUND:                -1.923
REMARK SMILES CCCCCCCCCCCCCCC(=O)[O-]
REMARK SMILES IDX 9 1 10 2 11 3 12 4 13 5 14 6 15 7 16 8 17 9 8 10 7 11 6 12
REMARK SMILES IDX 5 13 4 14 3 15 2 16 1 17
REMARK H PARENT
REMARK Flexibility Score: inf
ROOT
ATOM      1  C   UNL     1       4.089  43.919   9.756  1.00  0.00     0.000 C 
ENDROOT
BRANCH   1   2
ATOM      2  C   UNL     1       2.852  43.010   9.826  1.00  0.00     0.000 C 
BRANCH   2   3
ATOM      3  C   UNL     1       1.847  43.463  10.898  1.00  0.00     0.000 C 
BRANCH   3   4
ATOM      4  C   UNL     1       1.747  42.479  12.076  1.00  0.00     0.000 C 
BRANCH   4   5
ATOM      5  C   UNL     1       2.797  41.348  12.028  1.00  0.00     0.006 C 
BRANCH   5   6
ATOM      6  C   UNL     1       2.348  40.107  12.812  1.00  0.00     0.053 C 
BRANCH   6   7
ATOM      7  C   UNL     1       3.361  39.014  12.687  1.00  0.00     0.041 C 
ATOM      8  O   UNL     1       4.571  39.238  12.953  1.00  0.00    -0.550 OA
ATOM      9  O   UNL     1       2.978  37.760  12.229  1.00  0.00    -0.550 OA
ENDBRANCH   6   7
ENDBRANCH   5   6
ENDBRANCH   4   5
ENDBRANCH   3   4
ENDBRANCH   2   3
ENDBRANCH   1   2
BRANCH   1  10
ATOM     10  C   UNL     1       3.877  45.260  10.482  1.00  0.00     0.000 C 
BRANCH  10  11
ATOM     11  C   UNL     1       3.713  46.438   9.508  1.00  0.00    -0.000 C 
BRANCH  11  12
ATOM     12  C   UNL     1       3.084  47.673  10.171  1.00  0.00    -0.000 C 
BRANCH  12  13
ATOM     13  C   UNL     1       3.743  48.964   9.661  1.00  0.00    -0.000 C 
BRANCH  13  14
ATOM     14  C   UNL     1       4.773  49.534  10.649  1.00  0.00    -0.000 C 
BRANCH  14  15
ATOM     15  C   UNL     1       6.108  49.892   9.973  1.00  0.00    -0.000 C 
BRANCH  15  16
ATOM     16  C   UNL     1       6.498  48.893   8.875  1.00  0.00    -0.003 C 
ATOM     17  C   UNL     1       7.207  47.656   9.427  1.00  0.00     0.004 C 
ENDBRANCH  15  16
ENDBRANCH  14  15
ENDBRANCH  13  14
ENDBRANCH  12  13
ENDBRANCH  11  12
ENDBRANCH  10  11
ENDBRANCH   1  10
TORSDOF 13
ENDMDL
MODEL 4
REMARK VINA RESULT:    -4.749      1.562      2.807
REMARK INTER + INTRA:         -10.281
REMARK INTER:                  -8.179
REMARK INTRA:                  -2.102
REMARK UNBOUND:                -1.923
REMARK SMILES CCCCCCCCCCCCCCC(=O)[O-]
REMARK SMILES IDX 9 1 10 2 11 3 12 4 13 5 14 6 15 7 16 8 17 9 8 10 7 11 6 12
REMARK SMILES IDX 5 13 4 14 3 15 2 16 1 17
REMARK H PARENT
REMARK Flexibility Score: inf
ROOT
ATOM      1  C   UNL     1       5.251  47.517   9.112  1.00  0.00     0.000 C 
ENDROOT
BRANCH   1   2
ATOM      2  C   UNL     1       4.430  47.471  10.410  1.00  0.00     0.000 C 
BRANCH   2   3
ATOM      3  C   UNL     1       4.124  46.035  10.864  1.00  0.00     0.000 C 
BRANCH   3   4
ATOM      4  C   UNL     1       4.249  45.009   9.724  1.00  0.00     0.000 C 
BRANCH   4   5
ATOM      5  C   UNL     1       4.014  43.552  10.174  1.00  0.00     0.006 C 
BRANCH   5   6
ATOM      6  C   UNL     1       3.598  43.460  11.649  1.00  0.00     0.053 C 
BRANCH   6   7
ATOM      7  C   UNL     1       2.580  42.382  11.840  1.00  0.00     0.041 C 
ATOM      8  O   UNL     1       2.907  41.173  11.722  1.00  0.00    -0.550 OA
ATOM      9  O   UNL     1       1.256  42.715  12.100  1.00  0.00    -0.550 OA
ENDBRANCH   6   7
ENDBRANCH   5   6
ENDBRANCH   4   5
ENDBRANCH   3   4
ENDBRANCH   2   3
ENDBRANCH   1   2
BRANCH   1  10
ATOM     10  C   UNL     1       4.889  48.724   8.228  1.00  0.00     0.000 C 
BRANCH  10  11
ATOM     11  C   UNL     1       3.685  48.448   7.314  1.00  0.00    -0.000 C 
BRANCH  11  12
ATOM     12  C   UNL     1       2.448  49.275   7.694  1.00  0.00    -0.000 C 
BRANCH  12  13
ATOM     13  C   UNL     1       1.188  48.396   7.721  1.00  0.00    -0.000 C 
BRANCH  13  14
ATOM     14  C   UNL     1       1.462  46.984   8.264  1.00  0.00    -0.000 C 
BRANCH  14  15
ATOM     15  C   UNL     1       0.757  46.718   9.604  1.00  0.00    -0.000 C 
BRANCH  15  16
ATOM     16  C   UNL     1       0.473  45.227   9.834  1.00  0.00    -0.003 C 
ATOM     17  C   UNL     1       0.716  44.380   8.586  1.00  0.00     0.004 C 
ENDBRANCH  15  16
ENDBRANCH  14  15
ENDBRANCH  13  14
ENDBRANCH  12  13
ENDBRANCH  11  12
ENDBRANCH  10  11
ENDBRANCH   1  10
TORSDOF 13
ENDMDL
MODEL 5
REMARK VINA RESULT:    -4.738      1.113      2.048
REMARK INTER + INTRA:         -10.262
REMARK INTER:                  -8.512
REMARK INTRA:                  -1.749
REMARK UNBOUND:                -1.923
REMARK SMILES CCCCCCCCCCCCCCC(=O)[O-]
REMARK SMILES IDX 9 1 10 2 11 3 12 4 13 5 14 6 15 7 16 8 17 9 8 10 7 11 6 12
REMARK SMILES IDX 5 13 4 14 3 15 2 16 1 17
REMARK H PARENT
REMARK Flexibility Score: inf
ROOT
ATOM      1  C   UNL     1       5.012  47.122   8.613  1.00  0.00     0.000 C 
ENDROOT
BRANCH   1   2
ATOM      2  C   UNL     1       4.183  45.970   9.202  1.00  0.00     0.000 C 
BRANCH   2   3
ATOM      3  C   UNL     1       4.144  45.998  10.739  1.00  0.00     0.000 C 
BRANCH   3   4
ATOM      4  C   UNL     1       4.089  44.592  11.360  1.00  0.00     0.000 C 
BRANCH   4   5
ATOM      5  C   UNL     1       4.006  43.457  10.316  1.00  0.00     0.006 C 
BRANCH   5   6
ATOM      6  C   UNL     1       2.631  42.776  10.309  1.00  0.00     0.053 C 
BRANCH   6   7
ATOM      7  C   UNL     1       2.358  42.131  11.630  1.00  0.00     0.041 C 
ATOM      8  O   UNL     1       3.059  41.160  12.017  1.00  0.00    -0.550 OA
ATOM      9  O   UNL     1       1.298  42.570  12.413  1.00  0.00    -0.550 OA
ENDBRANCH   6   7
ENDBRANCH   5   6
ENDBRANCH   4   5
ENDBRANCH   3   4
ENDBRANCH   2   3
ENDBRANCH   1   2
BRANCH   1  10
ATOM     10  C   UNL     1       6.338  47.339   9.365  1.00  0.00     0.000 C 
BRANCH  10  11
ATOM     11  C   UNL     1       6.756  48.817   9.411  1.00  0.00    -0.000 C 
BRANCH  11  12
ATOM     12  C   UNL     1       5.592  49.773   9.108  1.00  0.00    -0.000 C 
BRANCH  12  13
ATOM     13  C   UNL     1       4.950  50.284  10.407  1.00  0.00    -0.000 C 
BRANCH  13  14
ATOM     14  C   UNL     1       3.566  49.668  10.666  1.00  0.00    -0.000 C 
BRANCH  14  15
ATOM     15  C   UNL     1       2.584  49.909   9.508  1.00  0.00    -0.000 C 
BRANCH  15  16
ATOM     16  C   UNL     1       1.722  48.677   9.200  1.00  0.00    -0.003 C 
ATOM     17  C   UNL     1       1.580  48.414   7.702  1.00  0.00     0.004 C 
ENDBRANCH  15  16
ENDBRANCH  14  15
ENDBRANCH  13  14
ENDBRANCH  12  13
ENDBRANCH  11  12
ENDBRANCH  10  11
ENDBRANCH   1  10
TORSDOF 13
ENDMDL
MODEL 6
REMARK VINA RESULT:    -4.654      1.734      3.248
REMARK INTER + INTRA:         -10.113
REMARK INTER:                  -8.156
REMARK INTRA:                  -1.957
REMARK UNBOUND:                -1.923
REMARK SMILES CCCCCCCCCCCCCCC(=O)[O-]
REMARK SMILES IDX 9 1 10 2 11 3 12 4 13 5 14 6 15 7 16 8 17 9 8 10 7 11 6 12
REMARK SMILES IDX 5 13 4 14 3 15 2 16 1 17
REMARK H PARENT
REMARK Flexibility Score: inf
ROOT
ATOM      1  C   UNL     1       4.070  45.994   9.271  1.00  0.00     0.000 C 
ENDROOT
BRANCH   1   2
ATOM      2  C   UNL     1       4.147  46.049  10.805  1.00  0.00     0.000 C 
BRANCH   2   3
ATOM      3  C   UNL     1       4.112  44.652  11.448  1.00  0.00     0.000 C 
BRANCH   3   4
ATOM      4  C   UNL     1       3.899  43.528  10.420  1.00  0.00     0.000 C 
BRANCH   4   5
ATOM      5  C   UNL     1       2.530  42.827  10.544  1.00  0.00     0.006 C 
BRANCH   5   6
ATOM      6  C   UNL     1       1.509  43.681  11.308  1.00  0.00     0.053 C 
BRANCH   6   7
ATOM      7  C   UNL     1       0.704  44.510  10.359  1.00  0.00     0.041 C 
ATOM      8  O   UNL     1      -0.078  45.393  10.797  1.00  0.00    -0.550 OA
ATOM      9  O   UNL     1       0.780  44.274   8.993  1.00  0.00    -0.550 OA
ENDBRANCH   6   7
ENDBRANCH   5   6
ENDBRANCH   4   5
ENDBRANCH   3   4
ENDBRANCH   2   3
ENDBRANCH   1   2
BRANCH   1  10
ATOM     10  C   UNL     1       3.229  47.142   8.683  1.00  0.00     0.000 C 
BRANCH  10  11
ATOM     11  C   UNL     1       2.326  47.811   9.731  1.00  0.00    -0.000 C 
BRANCH  11  12
ATOM     12  C   UNL     1       2.504  49.336   9.783  1.00  0.00    -0.000 C 
BRANCH  12  13
ATOM     13  C   UNL     1       3.906  49.706  10.291  1.00  0.00    -0.000 C 
BRANCH  13  14
ATOM     14  C   UNL     1       4.708  50.528   9.270  1.00  0.00    -0.000 C 
BRANCH  14  15
ATOM     15  C   UNL     1       5.876  49.736   8.658  1.00  0.00    -0.000 C 
BRANCH  15  16
ATOM     16  C   UNL     1       6.735  49.037   9.722  1.00  0.00    -0.003 C 
ATOM     17  C   UNL     1       7.210  47.653   9.281  1.00  0.00     0.004 C 
ENDBRANCH  15  16
ENDBRANCH  14  15
ENDBRANCH  13  14
ENDBRANCH  12  13
ENDBRANCH  11  12
ENDBRANCH  10  11
ENDBRANCH   1  10
TORSDOF 13
ENDMDL
MODEL 7
REMARK VINA RESULT:    -4.626      3.046      6.124
REMARK INTER + INTRA:         -10.064
REMARK INTER:                  -8.034
REMARK INTRA:                  -2.030
REMARK UNBOUND:                -1.923
REMARK SMILES CCCCCCCCCCCCCCC(=O)[O-]
REMARK SMILES IDX 9 1 10 2 11 3 12 4 13 5 14 6 15 7 16 8 17 9 8 10 7 11 6 12
REMARK SMILES IDX 5 13 4 14 3 15 2 16 1 17
REMARK H PARENT
REMARK Flexibility Score: inf
ROOT
ATOM      1  C   UNL     1       4.182  47.151  10.517  1.00  0.00     0.000 C 
ENDROOT
BRANCH   1   2
ATOM      2  C   UNL     1       5.052  46.628   9.363  1.00  0.00     0.000 C 
BRANCH   2   3
ATOM      3  C   UNL     1       6.369  47.409   9.216  1.00  0.00     0.000 C 
BRANCH   3   4
ATOM      4  C   UNL     1       6.240  48.880   9.645  1.00  0.00     0.000 C 
BRANCH   4   5
ATOM      5  C   UNL     1       6.019  49.851   8.465  1.00  0.00     0.006 C 
BRANCH   5   6
ATOM      6  C   UNL     1       4.778  50.731   8.663  1.00  0.00     0.053 C 
BRANCH   6   7
ATOM      7  C   UNL     1       3.586  50.111   8.008  1.00  0.00     0.041 C 
ATOM      8  O   UNL     1       2.427  50.510   8.294  1.00  0.00    -0.550 OA
ATOM      9  O   UNL     1       3.751  49.057   7.118  1.00  0.00    -0.550 OA
ENDBRANCH   6   7
ENDBRANCH   5   6
ENDBRANCH   4   5
ENDBRANCH   3   4
ENDBRANCH   2   3
ENDBRANCH   1   2
BRANCH   1  10
ATOM     10  C   UNL     1       2.713  47.351  10.103  1.00  0.00     0.000 C 
BRANCH  10  11
ATOM     11  C   UNL     1       2.271  46.374   9.002  1.00  0.00    -0.000 C 
BRANCH  11  12
ATOM     12  C   UNL     1       0.819  45.904   9.173  1.00  0.00    -0.000 C 
BRANCH  12  13
ATOM     13  C   UNL     1       0.767  44.505   9.806  1.00  0.00    -0.000 C 
BRANCH  13  14
ATOM     14  C   UNL     1       1.977  43.637   9.424  1.00  0.00    -0.000 C 
BRANCH  14  15
ATOM     15  C   UNL     1       2.655  42.995  10.646  1.00  0.00    -0.000 C 
BRANCH  15  16
ATOM     16  C   UNL     1       2.696  43.936  11.859  1.00  0.00    -0.003 C 
ATOM     17  C   UNL     1       4.108  44.124  12.412  1.00  0.00     0.004 C 
ENDBRANCH  15  16
ENDBRANCH  14  15
ENDBRANCH  13  14
ENDBRANCH  12  13
ENDBRANCH  11  12
ENDBRANCH  10  11
ENDBRANCH   1  10
TORSDOF 13
ENDMDL
MODEL 8
REMARK VINA RESULT:    -4.613      3.219      5.946
REMARK INTER + INTRA:         -10.042
REMARK INTER:                  -8.216
REMARK INTRA:                  -1.826
REMARK UNBOUND:                -1.923
REMARK SMILES CCCCCCCCCCCCCCC(=O)[O-]
REMARK SMILES IDX 9 1 10 2 11 3 12 4 13 5 14 6 15 7 16 8 17 9 8 10 7 11 6 12
REMARK SMILES IDX 5 13 4 14 3 15 2 16 1 17
REMARK H PARENT
REMARK Flexibility Score: inf
ROOT
ATOM      1  C   UNL     1       5.072  46.744   9.191  1.00  0.00     0.000 C 
ENDROOT
BRANCH   1   2
ATOM      2  C   UNL     1       6.426  47.436   9.409  1.00  0.00     0.000 C 
BRANCH   2   3
ATOM      3  C   UNL     1       6.392  48.929   9.040  1.00  0.00     0.000 C 
BRANCH   3   4
ATOM      4  C   UNL     1       5.644  49.783  10.079  1.00  0.00     0.000 C 
BRANCH   4   5
ATOM      5  C   UNL     1       4.603  50.739   9.459  1.00  0.00     0.006 C 
BRANCH   5   6
ATOM      6  C   UNL     1       3.272  50.035   9.162  1.00  0.00     0.053 C 
BRANCH   6   7
ATOM      7  C   UNL     1       3.046  49.942   7.686  1.00  0.00     0.041 C 
ATOM      8  O   UNL     1       3.511  48.971   7.034  1.00  0.00    -0.550 OA
ATOM      9  O   UNL     1       2.364  50.954   7.022  1.00  0.00    -0.550 OA
ENDBRANCH   6   7
ENDBRANCH   5   6
ENDBRANCH   4   5
ENDBRANCH   3   4
ENDBRANCH   2   3
ENDBRANCH   1   2
BRANCH   1  10
ATOM     10  C   UNL     1       4.400  46.332  10.514  1.00  0.00     0.000 C 
BRANCH  10  11
ATOM     11  C   UNL     1       4.390  44.809  10.721  1.00  0.00    -0.000 C 
BRANCH  11  12
ATOM     12  C   UNL     1       3.984  44.040   9.455  1.00  0.00    -0.000 C 
BRANCH  12  13
ATOM     13  C   UNL     1       2.694  43.238   9.690  1.00  0.00    -0.000 C 
BRANCH  13  14
ATOM     14  C   UNL     1       1.458  43.912   9.072  1.00  0.00    -0.000 C 
BRANCH  14  15
ATOM     15  C   UNL     1       0.659  44.737  10.096  1.00  0.00    -0.000 C 
BRANCH  15  16
ATOM     16  C   UNL     1       0.844  46.249   9.905  1.00  0.00    -0.003 C 
ATOM     17  C   UNL     1       1.228  46.621   8.474  1.00  0.00     0.004 C 
ENDBRANCH  15  16
ENDBRANCH  14  15
ENDBRANCH  13  14
ENDBRANCH  12  13
ENDBRANCH  11  12
ENDBRANCH  10  11
ENDBRANCH   1  10
TORSDOF 13
ENDMDL
MODEL 9
REMARK VINA RESULT:    -4.554      1.671      3.349
REMARK INTER + INTRA:          -9.937
REMARK INTER:                  -8.794
REMARK INTRA:                  -1.143
REMARK UNBOUND:                -1.923
REMARK SMILES CCCCCCCCCCCCCCC(=O)[O-]
REMARK SMILES IDX 9 1 10 2 11 3 12 4 13 5 14 6 15 7 16 8 17 9 8 10 7 11 6 12
REMARK SMILES IDX 5 13 4 14 3 15 2 16 1 17
REMARK H PARENT
REMARK Flexibility Score: inf
ROOT
ATOM      1  C   UNL     1       4.372  45.154  10.777  1.00  0.00     0.000 C 
ENDROOT
BRANCH   1   2
ATOM      2  C   UNL     1       4.075  44.113   9.686  1.00  0.00     0.000 C 
BRANCH   2   3
ATOM      3  C   UNL     1       2.716  43.421   9.886  1.00  0.00     0.000 C 
BRANCH   3   4
ATOM      4  C   UNL     1       2.155  43.607  11.306  1.00  0.00     0.000 C 
BRANCH   4   5
ATOM      5  C   UNL     1       1.869  42.279  12.038  1.00  0.00     0.006 C 
BRANCH   5   6
ATOM      6  C   UNL     1       3.058  41.312  11.971  1.00  0.00     0.053 C 
BRANCH   6   7
ATOM      7  C   UNL     1       2.733  40.031  12.670  1.00  0.00     0.041 C 
ATOM      8  O   UNL     1       3.552  39.076  12.656  1.00  0.00    -0.550 OA
ATOM      9  O   UNL     1       1.503  39.874  13.297  1.00  0.00    -0.550 OA
ENDBRANCH   6   7
ENDBRANCH   5   6
ENDBRANCH   4   5
ENDBRANCH   3   4
ENDBRANCH   2   3
ENDBRANCH   1   2
BRANCH   1  10
ATOM     10  C   UNL     1       4.039  46.588  10.329  1.00  0.00     0.000 C 
BRANCH  10  11
ATOM     11  C   UNL     1       4.824  47.013   9.078  1.00  0.00    -0.000 C 
BRANCH  11  12
ATOM     12  C   UNL     1       6.289  47.361   9.385  1.00  0.00    -0.000 C 
BRANCH  12  13
ATOM     13  C   UNL     1       6.598  48.817   9.003  1.00  0.00    -0.000 C 
BRANCH  13  14
ATOM     14  C   UNL     1       5.797  49.830   9.835  1.00  0.00    -0.000 C 
BRANCH  14  15
ATOM     15  C   UNL     1       5.070  50.869   8.964  1.00  0.00    -0.000 C 
BRANCH  15  16
ATOM     16  C   UNL     1       3.570  50.571   8.822  1.00  0.00    -0.003 C 
ATOM     17  C   UNL     1       3.220  49.933   7.479  1.00  0.00     0.004 C 
ENDBRANCH  15  16
ENDBRANCH  14  15
ENDBRANCH  13  14
ENDBRANCH  12  13
ENDBRANCH  11  12
ENDBRANCH  10  11
ENDBRANCH   1  10
TORSDOF 13
ENDMDL
