MODEL 1
REMARK VINA RESULT:    -4.194      0.000      0.000
REMARK INTER + INTRA:          -8.449
REMARK INTER:                  -7.626
REMARK INTRA:                  -0.822
REMARK UNBOUND:                -0.822
REMARK SMILES CCCCCCCCCCCCCCCC(=O)[O-]
REMARK SMILES IDX 9 1 10 2 11 3 12 4 13 5 14 6 15 7 16 8 17 9 18 10 8 11 7 12
REMARK SMILES IDX 6 13 5 14 4 15 3 16 2 17 1 18
REMARK H PARENT
REMARK Flexibility Score: inf
ROOT
ATOM      1  C   UNL     1     -19.102 -19.252  -3.441  1.00  0.00     0.000 C 
ENDROOT
BRANCH   1   2
ATOM      2  C   UNL     1     -18.074 -18.419  -4.227  1.00  0.00     0.000 C 
BRANCH   2   3
ATOM      3  C   UNL     1     -17.735 -17.086  -3.535  1.00  0.00     0.000 C 
BRANCH   3   4
ATOM      4  C   UNL     1     -16.337 -17.095  -2.895  1.00  0.00     0.000 C 
BRANCH   4   5
ATOM      5  C   UNL     1     -15.509 -15.853  -3.270  1.00  0.00     0.000 C 
BRANCH   5   6
ATOM      6  C   UNL     1     -16.347 -14.779  -3.982  1.00  0.00     0.006 C 
BRANCH   6   7
ATOM      7  C   UNL     1     -16.005 -14.652  -5.473  1.00  0.00     0.053 C 
BRANCH   7   8
ATOM      8  C   UNL     1     -16.355 -13.286  -5.973  1.00  0.00     0.041 C 
ATOM      9  O   UNL     1     -15.727 -12.278  -5.553  1.00  0.00    -0.550 OA
ATOM     10  O   UNL     1     -17.407 -13.118  -6.865  1.00  0.00    -0.550 OA
ENDBRANCH   7   8
ENDBRANCH   6   7
ENDBRANCH   5   6
ENDBRANCH   4   5
ENDBRANCH   3   4
ENDBRANCH   2   3
ENDBRANCH   1   2
BRANCH   1  11
ATOM     11  C   UNL     1     -19.349 -20.673  -3.988  1.00  0.00     0.000 C 
BRANCH  11  12
ATOM     12  C   UNL     1     -20.307 -20.754  -5.194  1.00  0.00    -0.000 C 
BRANCH  12  13
ATOM     13  C   UNL     1     -21.523 -21.677  -4.991  1.00  0.00    -0.000 C 
BRANCH  13  14
ATOM     14  C   UNL     1     -22.310 -21.917  -6.292  1.00  0.00    -0.000 C 
BRANCH  14  15
ATOM     15  C   UNL     1     -23.828 -21.779  -6.095  1.00  0.00    -0.000 C 
BRANCH  15  16
ATOM     16  C   UNL     1     -24.268 -20.316  -5.911  1.00  0.00    -0.000 C 
BRANCH  16  17
ATOM     17  C   UNL     1     -23.714 -19.393  -7.007  1.00  0.00    -0.003 C 
ATOM     18  C   UNL     1     -22.890 -18.237  -6.443  1.00  0.00     0.004 C 
ENDBRANCH  16  17
ENDBRANCH  15  16
ENDBRANCH  14  15
ENDBRANCH  13  14
ENDBRANCH  12  13
ENDBRANCH  11  12
ENDBRANCH   1  11
TORSDOF 14
ENDMDL
MODEL 2
REMARK VINA RESULT:    -4.062      2.240      3.781
REMARK INTER + INTRA:          -8.209
REMARK INTER:                  -7.510
REMARK INTRA:                  -0.699
REMARK UNBOUND:                -0.822
REMARK SMILES CCCCCCCCCCCCCCCC(=O)[O-]
REMARK SMILES IDX 9 1 10 2 11 3 12 4 13 5 14 6 15 7 16 8 17 9 18 10 8 11 7 12
REMARK SMILES IDX 6 13 5 14 4 15 3 16 2 17 1 18
REMARK H PARENT
REMARK Flexibility Score: inf
ROOT
ATOM      1  C   UNL     1     -18.977 -19.069  -3.497  1.00  0.00     0.000 C 
ENDROOT
BRANCH   1   2
ATOM      2  C   UNL     1     -17.998 -18.062  -4.128  1.00  0.00     0.000 C 
BRANCH   2   3
ATOM      3  C   UNL     1     -17.552 -16.968  -3.142  1.00  0.00     0.000 C 
BRANCH   3   4
ATOM      4  C   UNL     1     -16.042 -17.016  -2.853  1.00  0.00     0.000 C 
BRANCH   4   5
ATOM      5  C   UNL     1     -15.325 -15.714  -3.252  1.00  0.00     0.000 C 
BRANCH   5   6
ATOM      6  C   UNL     1     -16.259 -14.719  -3.958  1.00  0.00     0.006 C 
BRANCH   6   7
ATOM      7  C   UNL     1     -16.019 -14.651  -5.472  1.00  0.00     0.053 C 
BRANCH   7   8
ATOM      8  C   UNL     1     -16.363 -13.293  -5.995  1.00  0.00     0.041 C 
ATOM      9  O   UNL     1     -15.759 -12.276  -5.563  1.00  0.00    -0.550 OA
ATOM     10  O   UNL     1     -17.387 -13.142  -6.923  1.00  0.00    -0.550 OA
ENDBRANCH   7   8
ENDBRANCH   6   7
ENDBRANCH   5   6
ENDBRANCH   4   5
ENDBRANCH   3   4
ENDBRANCH   2   3
ENDBRANCH   1   2
BRANCH   1  11
ATOM     11  C   UNL     1     -20.082 -19.587  -4.440  1.00  0.00     0.000 C 
BRANCH  11  12
ATOM     12  C   UNL     1     -19.763 -20.912  -5.160  1.00  0.00    -0.000 C 
BRANCH  12  13
ATOM     13  C   UNL     1     -20.677 -22.091  -4.781  1.00  0.00    -0.000 C 
BRANCH  13  14
ATOM     14  C   UNL     1     -20.678 -22.381  -3.269  1.00  0.00    -0.000 C 
BRANCH  14  15
ATOM     15  C   UNL     1     -20.298 -23.835  -2.949  1.00  0.00    -0.000 C 
BRANCH  15  16
ATOM     16  C   UNL     1     -19.574 -24.526  -4.117  1.00  0.00    -0.000 C 
BRANCH  16  17
ATOM     17  C   UNL     1     -19.412 -26.037  -3.898  1.00  0.00    -0.003 C 
ATOM     18  C   UNL     1     -18.324 -26.373  -2.880  1.00  0.00     0.004 C 
ENDBRANCH  16  17
ENDBRANCH  15  16
ENDBRANCH  14  15
ENDBRANCH  13  14
ENDBRANCH  12  13
ENDBRANCH  11  12
ENDBRANCH   1  11
TORSDOF 14
ENDMDL
MODEL 3
REMARK VINA RESULT:    -4.022     10.980     11.685
REMARK INTER + INTRA:          -8.136
REMARK INTER:                  -7.130
REMARK INTRA:                  -1.006
REMARK UNBOUND:                -0.822
REMARK SMILES CCCCCCCCCCCCCCCC(=O)[O-]
REMARK SMILES IDX 9 1 10 2 11 3 12 4 13 5 14 6 15 7 16 8 17 9 18 10 8 11 7 12
REMARK SMILES IDX 6 13 5 14 4 15 3 16 2 17 1 18
REMARK H PARENT
REMARK Flexibility Score: inf
ROOT
ATOM      1  C   UNL     1     -24.506 -15.555   3.014  1.00  0.00     0.000 C 
ENDROOT
BRANCH   1   2
ATOM      2  C   UNL     1     -23.725 -14.258   3.296  1.00  0.00     0.000 C 
BRANCH   2   3
ATOM      3  C   UNL     1     -24.137 -13.594   4.622  1.00  0.00     0.000 C 
BRANCH   3   4
ATOM      4  C   UNL     1     -25.016 -12.350   4.409  1.00  0.00     0.000 C 
BRANCH   4   5
ATOM      5  C   UNL     1     -24.332 -11.056   4.884  1.00  0.00     0.000 C 
BRANCH   5   6
ATOM      6  C   UNL     1     -22.870 -11.281   5.302  1.00  0.00     0.006 C 
BRANCH   6   7
ATOM      7  C   UNL     1     -21.880 -10.462   4.463  1.00  0.00     0.053 C 
BRANCH   7   8
ATOM      8  C   UNL     1     -20.712 -11.307   4.062  1.00  0.00     0.041 C 
ATOM      9  O   UNL     1     -20.805 -12.563   4.076  1.00  0.00    -0.550 OA
ATOM     10  O   UNL     1     -19.505 -10.711   3.721  1.00  0.00    -0.550 OA
ENDBRANCH   7   8
ENDBRANCH   6   7
ENDBRANCH   5   6
ENDBRANCH   4   5
ENDBRANCH   3   4
ENDBRANCH   2   3
ENDBRANCH   1   2
BRANCH   1  11
ATOM     11  C   UNL     1     -25.679 -15.835   3.976  1.00  0.00     0.000 C 
BRANCH  11  12
ATOM     12  C   UNL     1     -26.918 -16.484   3.328  1.00  0.00    -0.000 C 
BRANCH  12  13
ATOM     13  C   UNL     1     -28.264 -15.851   3.727  1.00  0.00    -0.000 C 
BRANCH  13  14
ATOM     14  C   UNL     1     -28.338 -14.351   3.392  1.00  0.00    -0.000 C 
BRANCH  14  15
ATOM     15  C   UNL     1     -29.479 -14.022   2.418  1.00  0.00    -0.000 C 
BRANCH  15  16
ATOM     16  C   UNL     1     -29.278 -12.673   1.708  1.00  0.00    -0.000 C 
BRANCH  16  17
ATOM     17  C   UNL     1     -29.835 -12.671   0.276  1.00  0.00    -0.003 C 
ATOM     18  C   UNL     1     -29.539 -11.372  -0.471  1.00  0.00     0.004 C 
ENDBRANCH  16  17
ENDBRANCH  15  16
ENDBRANCH  14  15
ENDBRANCH  13  14
ENDBRANCH  12  13
ENDBRANCH  11  12
ENDBRANCH   1  11
TORSDOF 14
ENDMDL
MODEL 4
REMARK VINA RESULT:    -4.010     11.911     14.184
REMARK INTER + INTRA:          -8.113
REMARK INTER:                  -6.852
REMARK INTRA:                  -1.261
REMARK UNBOUND:                -0.822
REMARK SMILES CCCCCCCCCCCCCCCC(=O)[O-]
REMARK SMILES IDX 9 1 10 2 11 3 12 4 13 5 14 6 15 7 16 8 17 9 18 10 8 11 7 12
REMARK SMILES IDX 6 13 5 14 4 15 3 16 2 17 1 18
REMARK H PARENT
REMARK Flexibility Score: inf
ROOT
ATOM      1  C   UNL     1     -25.551 -15.646   4.243  1.00  0.00     0.000 C 
ENDROOT
BRANCH   1   2
ATOM      2  C   UNL     1     -26.674 -16.231   3.368  1.00  0.00     0.000 C 
BRANCH   2   3
ATOM      3  C   UNL     1     -28.076 -15.968   3.947  1.00  0.00     0.000 C 
BRANCH   3   4
ATOM      4  C   UNL     1     -28.249 -14.520   4.434  1.00  0.00     0.000 C 
BRANCH   4   5
ATOM      5  C   UNL     1     -28.482 -13.533   3.277  1.00  0.00     0.000 C 
BRANCH   5   6
ATOM      6  C   UNL     1     -29.749 -13.857   2.471  1.00  0.00     0.006 C 
BRANCH   6   7
ATOM      7  C   UNL     1     -29.793 -13.134   1.118  1.00  0.00     0.053 C 
BRANCH   7   8
ATOM      8  C   UNL     1     -31.101 -12.428   0.946  1.00  0.00     0.041 C 
ATOM      9  O   UNL     1     -31.987 -12.511   1.837  1.00  0.00    -0.550 OA
ATOM     10  O   UNL     1     -31.362 -11.719  -0.220  1.00  0.00    -0.550 OA
ENDBRANCH   7   8
ENDBRANCH   6   7
ENDBRANCH   5   6
ENDBRANCH   4   5
ENDBRANCH   3   4
ENDBRANCH   2   3
ENDBRANCH   1   2
BRANCH   1  11
ATOM     11  C   UNL     1     -24.409 -14.957   3.467  1.00  0.00     0.000 C 
BRANCH  11  12
ATOM     12  C   UNL     1     -23.885 -13.650   4.095  1.00  0.00    -0.000 C 
BRANCH  12  13
ATOM     13  C   UNL     1     -24.977 -12.639   4.491  1.00  0.00    -0.000 C 
BRANCH  13  14
ATOM     14  C   UNL     1     -24.404 -11.258   4.855  1.00  0.00    -0.000 C 
BRANCH  14  15
ATOM     15  C   UNL     1     -22.893 -11.301   5.127  1.00  0.00    -0.000 C 
BRANCH  15  16
ATOM     16  C   UNL     1     -22.137 -10.149   4.443  1.00  0.00    -0.000 C 
BRANCH  16  17
ATOM     17  C   UNL     1     -20.682 -10.513   4.112  1.00  0.00    -0.003 C 
ATOM     18  C   UNL     1     -20.480 -12.015   3.914  1.00  0.00     0.004 C 
ENDBRANCH  16  17
ENDBRANCH  15  16
ENDBRANCH  14  15
ENDBRANCH  13  14
ENDBRANCH  12  13
ENDBRANCH  11  12
ENDBRANCH   1  11
TORSDOF 14
ENDMDL
MODEL 5
REMARK VINA RESULT:    -3.966     11.215     11.838
REMARK INTER + INTRA:          -8.033
REMARK INTER:                  -6.581
REMARK INTRA:                  -1.453
REMARK UNBOUND:                -0.822
REMARK SMILES CCCCCCCCCCCCCCCC(=O)[O-]
REMARK SMILES IDX 9 1 10 2 11 3 12 4 13 5 14 6 15 7 16 8 17 9 18 10 8 11 7 12
REMARK SMILES IDX 6 13 5 14 4 15 3 16 2 17 1 18
REMARK H PARENT
REMARK Flexibility Score: inf
ROOT
ATOM      1  C   UNL     1     -24.091 -14.147   3.974  1.00  0.00     0.000 C 
ENDROOT
BRANCH   1   2
ATOM      2  C   UNL     1     -24.420 -13.648   5.394  1.00  0.00     0.000 C 
BRANCH   2   3
ATOM      3  C   UNL     1     -23.762 -12.295   5.715  1.00  0.00     0.000 C 
BRANCH   3   4
ATOM      4  C   UNL     1     -24.434 -11.124   4.978  1.00  0.00     0.000 C 
BRANCH   4   5
ATOM      5  C   UNL     1     -23.416 -10.095   4.455  1.00  0.00     0.000 C 
BRANCH   5   6
ATOM      6  C   UNL     1     -22.033 -10.251   5.106  1.00  0.00     0.006 C 
BRANCH   6   7
ATOM      7  C   UNL     1     -20.882 -10.031   4.114  1.00  0.00     0.053 C 
BRANCH   7   8
ATOM      8  C   UNL     1     -20.181 -11.323   3.835  1.00  0.00     0.041 C 
ATOM      9  O   UNL     1     -18.932 -11.343   3.677  1.00  0.00    -0.550 OA
ATOM     10  O   UNL     1     -20.911 -12.497   3.697  1.00  0.00    -0.550 OA
ENDBRANCH   7   8
ENDBRANCH   6   7
ENDBRANCH   5   6
ENDBRANCH   4   5
ENDBRANCH   3   4
ENDBRANCH   2   3
ENDBRANCH   1   2
BRANCH   1  11
ATOM     11  C   UNL     1     -25.172 -15.038   3.328  1.00  0.00     0.000 C 
BRANCH  11  12
ATOM     12  C   UNL     1     -26.065 -15.811   4.320  1.00  0.00    -0.000 C 
BRANCH  12  13
ATOM     13  C   UNL     1     -27.100 -16.744   3.666  1.00  0.00    -0.000 C 
BRANCH  13  14
ATOM     14  C   UNL     1     -28.529 -16.176   3.717  1.00  0.00    -0.000 C 
BRANCH  14  15
ATOM     15  C   UNL     1     -28.769 -15.092   2.655  1.00  0.00    -0.000 C 
BRANCH  15  16
ATOM     16  C   UNL     1     -29.513 -13.869   3.217  1.00  0.00    -0.000 C 
BRANCH  16  17
ATOM     17  C   UNL     1     -28.908 -12.540   2.737  1.00  0.00    -0.003 C 
ATOM     18  C   UNL     1     -27.536 -12.262   3.348  1.00  0.00     0.004 C 
ENDBRANCH  16  17
ENDBRANCH  15  16
ENDBRANCH  14  15
ENDBRANCH  13  14
ENDBRANCH  12  13
ENDBRANCH  11  12
ENDBRANCH   1  11
TORSDOF 14
ENDMDL
MODEL 6
REMARK VINA RESULT:    -3.943     11.639     14.475
REMARK INTER + INTRA:          -7.993
REMARK INTER:                  -6.990
REMARK INTRA:                  -1.003
REMARK UNBOUND:                -0.822
REMARK SMILES CCCCCCCCCCCCCCCC(=O)[O-]
REMARK SMILES IDX 9 1 10 2 11 3 12 4 13 5 14 6 15 7 16 8 17 9 18 10 8 11 7 12
REMARK SMILES IDX 6 13 5 14 4 15 3 16 2 17 1 18
REMARK H PARENT
REMARK Flexibility Score: inf
ROOT
ATOM      1  C   UNL     1     -25.692 -15.123   3.395  1.00  0.00     0.000 C 
ENDROOT
BRANCH   1   2
ATOM      2  C   UNL     1     -26.230 -16.539   3.120  1.00  0.00     0.000 C 
BRANCH   2   3
ATOM      3  C   UNL     1     -27.735 -16.671   3.419  1.00  0.00     0.000 C 
BRANCH   3   4
ATOM      4  C   UNL     1     -28.471 -15.323   3.339  1.00  0.00     0.000 C 
BRANCH   4   5
ATOM      5  C   UNL     1     -29.682 -15.368   2.392  1.00  0.00     0.000 C 
BRANCH   5   6
ATOM      6  C   UNL     1     -29.642 -16.575   1.440  1.00  0.00     0.006 C 
BRANCH   6   7
ATOM      7  C   UNL     1     -30.994 -17.293   1.336  1.00  0.00     0.053 C 
BRANCH   7   8
ATOM      8  C   UNL     1     -31.033 -18.469   2.260  1.00  0.00     0.041 C 
ATOM      9  O   UNL     1     -31.349 -18.313   3.469  1.00  0.00    -0.550 OA
ATOM     10  O   UNL     1     -30.671 -19.729   1.800  1.00  0.00    -0.550 OA
ENDBRANCH   7   8
ENDBRANCH   6   7
ENDBRANCH   5   6
ENDBRANCH   4   5
ENDBRANCH   3   4
ENDBRANCH   2   3
ENDBRANCH   1   2
BRANCH   1  11
ATOM     11  C   UNL     1     -24.219 -15.060   3.848  1.00  0.00     0.000 C 
BRANCH  11  12
ATOM     12  C   UNL     1     -23.678 -13.643   4.128  1.00  0.00    -0.000 C 
BRANCH  12  13
ATOM     13  C   UNL     1     -24.753 -12.602   4.493  1.00  0.00    -0.000 C 
BRANCH  13  14
ATOM     14  C   UNL     1     -24.156 -11.222   4.821  1.00  0.00    -0.000 C 
BRANCH  14  15
ATOM     15  C   UNL     1     -22.633 -11.273   5.022  1.00  0.00    -0.000 C 
BRANCH  15  16
ATOM     16  C   UNL     1     -21.919 -10.042   4.437  1.00  0.00    -0.000 C 
BRANCH  16  17
ATOM     17  C   UNL     1     -20.477 -10.348   4.005  1.00  0.00    -0.003 C 
ATOM     18  C   UNL     1     -20.153 -11.840   4.047  1.00  0.00     0.004 C 
ENDBRANCH  16  17
ENDBRANCH  15  16
ENDBRANCH  14  15
ENDBRANCH  13  14
ENDBRANCH  12  13
ENDBRANCH  11  12
ENDBRANCH   1  11
TORSDOF 14
ENDMDL
MODEL 7
REMARK VINA RESULT:    -3.941     10.709     11.401
REMARK INTER + INTRA:          -7.990
REMARK INTER:                  -7.078
REMARK INTRA:                  -0.912
REMARK UNBOUND:                -0.822
REMARK SMILES CCCCCCCCCCCCCCCC(=O)[O-]
REMARK SMILES IDX 9 1 10 2 11 3 12 4 13 5 14 6 15 7 16 8 17 9 18 10 8 11 7 12
REMARK SMILES IDX 6 13 5 14 4 15 3 16 2 17 1 18
REMARK H PARENT
REMARK Flexibility Score: inf
ROOT
ATOM      1  C   UNL     1     -23.952 -14.417   3.350  1.00  0.00     0.000 C 
ENDROOT
BRANCH   1   2
ATOM      2  C   UNL     1     -24.297 -13.813   4.723  1.00  0.00     0.000 C 
BRANCH   2   3
ATOM      3  C   UNL     1     -24.361 -12.275   4.697  1.00  0.00     0.000 C 
BRANCH   3   4
ATOM      4  C   UNL     1     -23.965 -11.647   6.044  1.00  0.00     0.000 C 
BRANCH   4   5
ATOM      5  C   UNL     1     -22.851 -10.596   5.899  1.00  0.00     0.000 C 
BRANCH   5   6
ATOM      6  C   UNL     1     -22.383 -10.430   4.445  1.00  0.00     0.006 C 
BRANCH   6   7
ATOM      7  C   UNL     1     -20.868 -10.213   4.330  1.00  0.00     0.053 C 
BRANCH   7   8
ATOM      8  C   UNL     1     -20.206 -11.436   3.778  1.00  0.00     0.041 C 
ATOM      9  O   UNL     1     -19.033 -11.371   3.324  1.00  0.00    -0.550 OA
ATOM     10  O   UNL     1     -20.901 -12.637   3.717  1.00  0.00    -0.550 OA
ENDBRANCH   7   8
ENDBRANCH   6   7
ENDBRANCH   5   6
ENDBRANCH   4   5
ENDBRANCH   3   4
ENDBRANCH   2   3
ENDBRANCH   1   2
BRANCH   1  11
ATOM     11  C   UNL     1     -24.709 -15.714   2.997  1.00  0.00     0.000 C 
BRANCH  11  12
ATOM     12  C   UNL     1     -25.904 -16.046   3.912  1.00  0.00    -0.000 C 
BRANCH  12  13
ATOM     13  C   UNL     1     -27.122 -16.653   3.192  1.00  0.00    -0.000 C 
BRANCH  13  14
ATOM     14  C   UNL     1     -28.320 -15.689   3.134  1.00  0.00    -0.000 C 
BRANCH  14  15
ATOM     15  C   UNL     1     -29.380 -16.130   2.112  1.00  0.00    -0.000 C 
BRANCH  15  16
ATOM     16  C   UNL     1     -29.518 -17.660   2.028  1.00  0.00    -0.000 C 
BRANCH  16  17
ATOM     17  C   UNL     1     -30.958 -18.106   1.731  1.00  0.00    -0.003 C 
ATOM     18  C   UNL     1     -32.001 -17.132   2.277  1.00  0.00     0.004 C 
ENDBRANCH  16  17
ENDBRANCH  15  16
ENDBRANCH  14  15
ENDBRANCH  13  14
ENDBRANCH  12  13
ENDBRANCH  11  12
ENDBRANCH   1  11
TORSDOF 14
ENDMDL
MODEL 8
REMARK VINA RESULT:    -3.937     11.185     12.792
REMARK INTER + INTRA:          -7.981
REMARK INTER:                  -6.540
REMARK INTRA:                  -1.441
REMARK UNBOUND:                -0.822
REMARK SMILES CCCCCCCCCCCCCCCC(=O)[O-]
REMARK SMILES IDX 9 1 10 2 11 3 12 4 13 5 14 6 15 7 16 8 17 9 18 10 8 11 7 12
REMARK SMILES IDX 6 13 5 14 4 15 3 16 2 17 1 18
REMARK H PARENT
REMARK Flexibility Score: inf
ROOT
ATOM      1  C   UNL     1     -29.783 -16.633   1.492  1.00  0.00     0.000 C 
ENDROOT
BRANCH   1   2
ATOM      2  C   UNL     1     -28.646 -17.461   2.118  1.00  0.00     0.000 C 
BRANCH   2   3
ATOM      3  C   UNL     1     -28.684 -17.456   3.656  1.00  0.00     0.000 C 
BRANCH   3   4
ATOM      4  C   UNL     1     -27.548 -16.621   4.270  1.00  0.00     0.000 C 
BRANCH   4   5
ATOM      5  C   UNL     1     -26.388 -16.391   3.285  1.00  0.00     0.000 C 
BRANCH   5   6
ATOM      6  C   UNL     1     -25.370 -15.362   3.802  1.00  0.00     0.006 C 
BRANCH   6   7
ATOM      7  C   UNL     1     -24.080 -15.334   2.971  1.00  0.00     0.053 C 
BRANCH   7   8
ATOM      8  C   UNL     1     -23.230 -14.168   3.367  1.00  0.00     0.041 C 
ATOM      9  O   UNL     1     -23.622 -13.373   4.261  1.00  0.00    -0.550 OA
ATOM     10  O   UNL     1     -22.027 -13.930   2.714  1.00  0.00    -0.550 OA
ENDBRANCH   7   8
ENDBRANCH   6   7
ENDBRANCH   5   6
ENDBRANCH   4   5
ENDBRANCH   3   4
ENDBRANCH   2   3
ENDBRANCH   1   2
BRANCH   1  11
ATOM     11  C   UNL     1     -30.722 -15.942   2.503  1.00  0.00     0.000 C 
BRANCH  11  12
ATOM     12  C   UNL     1     -30.837 -14.412   2.352  1.00  0.00    -0.000 C 
BRANCH  12  13
ATOM     13  C   UNL     1     -29.606 -13.620   2.831  1.00  0.00    -0.000 C 
BRANCH  13  14
ATOM     14  C   UNL     1     -29.083 -12.634   1.771  1.00  0.00    -0.000 C 
BRANCH  14  15
ATOM     15  C   UNL     1     -29.812 -12.778   0.425  1.00  0.00    -0.000 C 
BRANCH  15  16
ATOM     16  C   UNL     1     -29.732 -11.500  -0.428  1.00  0.00    -0.000 C 
BRANCH  16  17
ATOM     17  C   UNL     1     -30.751 -10.437   0.008  1.00  0.00    -0.003 C 
ATOM     18  C   UNL     1     -32.160 -11.004   0.175  1.00  0.00     0.004 C 
ENDBRANCH  16  17
ENDBRANCH  15  16
ENDBRANCH  14  15
ENDBRANCH  13  14
ENDBRANCH  12  13
ENDBRANCH  11  12
ENDBRANCH   1  11
TORSDOF 14
ENDMDL
MODEL 9
REMARK VINA RESULT:    -3.910     12.014     14.371
REMARK INTER + INTRA:          -7.932
REMARK INTER:                  -6.499
REMARK INTRA:                  -1.434
REMARK UNBOUND:                -0.822
REMARK SMILES CCCCCCCCCCCCCCCC(=O)[O-]
REMARK SMILES IDX 9 1 10 2 11 3 12 4 13 5 14 6 15 7 16 8 17 9 18 10 8 11 7 12
REMARK SMILES IDX 6 13 5 14 4 15 3 16 2 17 1 18
REMARK H PARENT
REMARK Flexibility Score: inf
ROOT
ATOM      1  C   UNL     1     -25.738 -15.000   3.831  1.00  0.00     0.000 C 
ENDROOT
BRANCH   1   2
ATOM      2  C   UNL     1     -26.716 -14.603   4.952  1.00  0.00     0.000 C 
BRANCH   2   3
ATOM      3  C   UNL     1     -27.292 -13.188   4.763  1.00  0.00     0.000 C 
BRANCH   3   4
ATOM      4  C   UNL     1     -27.174 -12.693   3.311  1.00  0.00     0.000 C 
BRANCH   4   5
ATOM      5  C   UNL     1     -28.546 -12.498   2.643  1.00  0.00     0.000 C 
BRANCH   5   6
ATOM      6  C   UNL     1     -29.625 -13.425   3.227  1.00  0.00     0.006 C 
BRANCH   6   7
ATOM      7  C   UNL     1     -30.543 -14.018   2.150  1.00  0.00     0.053 C 
BRANCH   7   8
ATOM      8  C   UNL     1     -30.383 -15.505   2.089  1.00  0.00     0.041 C 
ATOM      9  O   UNL     1     -29.768 -16.036   1.127  1.00  0.00    -0.550 OA
ATOM     10  O   UNL     1     -30.956 -16.308   3.067  1.00  0.00    -0.550 OA
ENDBRANCH   7   8
ENDBRANCH   6   7
ENDBRANCH   5   6
ENDBRANCH   4   5
ENDBRANCH   3   4
ENDBRANCH   2   3
ENDBRANCH   1   2
BRANCH   1  11
ATOM     11  C   UNL     1     -24.244 -14.894   4.199  1.00  0.00     0.000 C 
BRANCH  11  12
ATOM     12  C   UNL     1     -23.581 -13.542   3.868  1.00  0.00    -0.000 C 
BRANCH  12  13
ATOM     13  C   UNL     1     -23.463 -12.572   5.058  1.00  0.00    -0.000 C 
BRANCH  13  14
ATOM     14  C   UNL     1     -24.065 -11.187   4.758  1.00  0.00    -0.000 C 
BRANCH  14  15
ATOM     15  C   UNL     1     -22.989 -10.128   4.470  1.00  0.00    -0.000 C 
BRANCH  15  16
ATOM     16  C   UNL     1     -21.614 -10.514   5.042  1.00  0.00    -0.000 C 
BRANCH  16  17
ATOM     17  C   UNL     1     -20.463 -10.189   4.079  1.00  0.00    -0.003 C 
ATOM     18  C   UNL     1     -19.627 -11.417   3.723  1.00  0.00     0.004 C 
ENDBRANCH  16  17
ENDBRANCH  15  16
ENDBRANCH  14  15
ENDBRANCH  13  14
ENDBRANCH  12  13
ENDBRANCH  11  12
ENDBRANCH   1  11
TORSDOF 14
ENDMDL
