MODEL 1
REMARK VINA RESULT:    -3.696      0.000      0.000
REMARK INTER + INTRA:          -4.583
REMARK INTER:                  -4.452
REMARK INTRA:                  -0.131
REMARK UNBOUND:                -0.131
REMARK SMILES CC[C@@H](C)[C@@H]([NH3+])C(=O)[O-]
REMARK SMILES IDX 3 1 4 2 5 3 6 4 7 8 8 9 9 10 2 11 1 12
REMARK H PARENT 6 5 6 6 6 7
REMARK Flexibility Score: inf
ROOT
ATOM      1  C   UNL     1     -23.088  -6.804  15.347  1.00  0.00     0.050 C 
ATOM      2  C   UNL     1     -21.939  -5.817  15.639  1.00  0.00     0.014 C 
ENDROOT
BRANCH   1   3
ATOM      3  C   UNL     1     -24.182  -6.153  14.442  1.00  0.00     0.230 C 
BRANCH   3   4
ATOM      4  N   UNL     1     -24.027  -6.541  13.031  1.00  0.00    -0.350 N 
ATOM      5  H   UNL     1     -24.900  -6.998  12.682  1.00  0.00     0.345 HD
ATOM      6  H   UNL     1     -23.808  -5.706  12.440  1.00  0.00     0.345 HD
ATOM      7  H   UNL     1     -23.254  -7.239  12.933  1.00  0.00     0.345 HD
ENDBRANCH   3   4
BRANCH   3   8
ATOM      8  C   UNL     1     -25.563  -6.532  14.918  1.00  0.00     0.099 C 
ATOM      9  O   UNL     1     -26.020  -7.686  14.700  1.00  0.00    -0.544 OA
ATOM     10  O   UNL     1     -26.335  -5.611  15.615  1.00  0.00    -0.544 OA
ENDBRANCH   3   8
ENDBRANCH   1   3
BRANCH   1  11
ATOM     11  C   UNL     1     -22.530  -8.143  14.796  1.00  0.00     0.006 C 
ATOM     12  C   UNL     1     -23.095  -9.395  15.473  1.00  0.00     0.004 C 
ENDBRANCH   1  11
TORSDOF 4
ENDMDL
MODEL 2
REMARK VINA RESULT:    -3.695      1.049      2.533
REMARK INTER + INTRA:          -4.582
REMARK INTER:                  -4.761
REMARK INTRA:                   0.179
REMARK UNBOUND:                -0.131
REMARK SMILES CC[C@@H](C)[C@@H]([NH3+])C(=O)[O-]
REMARK SMILES IDX 3 1 4 2 5 3 6 4 7 8 8 9 9 10 2 11 1 12
REMARK H PARENT 6 5 6 6 6 7
REMARK Flexibility Score: inf
ROOT
ATOM      1  C   UNL     1     -22.996  -6.142  14.751  1.00  0.00     0.050 C 
ATOM      2  C   UNL     1     -22.738  -7.606  15.160  1.00  0.00     0.014 C 
ENDROOT
BRANCH   1   3
ATOM      3  C   UNL     1     -24.349  -5.995  13.984  1.00  0.00     0.230 C 
BRANCH   3   4
ATOM      4  N   UNL     1     -24.284  -6.585  12.638  1.00  0.00    -0.350 N 
ATOM      5  H   UNL     1     -25.166  -7.102  12.424  1.00  0.00     0.345 HD
ATOM      6  H   UNL     1     -24.127  -5.845  11.916  1.00  0.00     0.345 HD
ATOM      7  H   UNL     1     -23.501  -7.279  12.588  1.00  0.00     0.345 HD
ENDBRANCH   3   4
BRANCH   3   8
ATOM      8  C   UNL     1     -25.474  -6.637  14.758  1.00  0.00     0.099 C 
ATOM      9  O   UNL     1     -26.237  -5.937  15.476  1.00  0.00    -0.544 OA
ATOM     10  O   UNL     1     -25.685  -8.008  14.670  1.00  0.00    -0.544 OA
ENDBRANCH   3   8
ENDBRANCH   1   3
BRANCH   1  11
ATOM     11  C   UNL     1     -22.863  -5.200  15.977  1.00  0.00     0.006 C 
ATOM     12  C   UNL     1     -23.474  -3.810  15.783  1.00  0.00     0.004 C 
ENDBRANCH   1  11
TORSDOF 4
ENDMDL
MODEL 3
REMARK VINA RESULT:    -3.486      3.018      3.716
REMARK INTER + INTRA:          -4.330
REMARK INTER:                  -4.247
REMARK INTRA:                  -0.083
REMARK UNBOUND:                -0.131
REMARK SMILES CC[C@@H](C)[C@@H]([NH3+])C(=O)[O-]
REMARK SMILES IDX 3 1 4 2 5 3 6 4 7 8 8 9 9 10 2 11 1 12
REMARK H PARENT 6 5 6 6 6 7
REMARK Flexibility Score: inf
ROOT
ATOM      1  C   UNL     1     -23.203  -5.579  15.720  1.00  0.00     0.050 C 
ATOM      2  C   UNL     1     -21.779  -6.138  15.521  1.00  0.00     0.014 C 
ENDROOT
BRANCH   1   3
ATOM      3  C   UNL     1     -23.172  -4.145  16.339  1.00  0.00     0.230 C 
BRANCH   3   4
ATOM      4  N   UNL     1     -24.296  -3.320  15.868  1.00  0.00    -0.350 N 
ATOM      5  H   UNL     1     -24.921  -3.879  15.245  1.00  0.00     0.345 HD
ATOM      6  H   UNL     1     -24.847  -2.950  16.677  1.00  0.00     0.345 HD
ATOM      7  H   UNL     1     -23.939  -2.515  15.303  1.00  0.00     0.345 HD
ENDBRANCH   3   4
BRANCH   3   8
ATOM      8  C   UNL     1     -23.196  -4.213  17.846  1.00  0.00     0.099 C 
ATOM      9  O   UNL     1     -22.123  -4.293  18.499  1.00  0.00    -0.544 OA
ATOM     10  O   UNL     1     -24.409  -4.172  18.523  1.00  0.00    -0.544 OA
ENDBRANCH   3   8
ENDBRANCH   1   3
BRANCH   1  11
ATOM     11  C   UNL     1     -24.017  -5.677  14.402  1.00  0.00     0.006 C 
ATOM     12  C   UNL     1     -25.083  -6.777  14.392  1.00  0.00     0.004 C 
ENDBRANCH   1  11
TORSDOF 4
ENDMDL
MODEL 4
REMARK VINA RESULT:    -3.399      2.064      2.399
REMARK INTER + INTRA:          -4.226
REMARK INTER:                  -4.128
REMARK INTRA:                  -0.098
REMARK UNBOUND:                -0.131
REMARK SMILES CC[C@@H](C)[C@@H]([NH3+])C(=O)[O-]
REMARK SMILES IDX 3 1 4 2 5 3 6 4 7 8 8 9 9 10 2 11 1 12
REMARK H PARENT 6 5 6 6 6 7
REMARK Flexibility Score: inf
ROOT
ATOM      1  C   UNL     1     -23.164  -6.543  15.421  1.00  0.00     0.050 C 
ATOM      2  C   UNL     1     -21.672  -6.153  15.448  1.00  0.00     0.014 C 
ENDROOT
BRANCH   1   3
ATOM      3  C   UNL     1     -24.051  -5.368  14.899  1.00  0.00     0.230 C 
BRANCH   3   4
ATOM      4  N   UNL     1     -25.458  -5.770  14.745  1.00  0.00    -0.350 N 
ATOM      5  H   UNL     1     -26.085  -4.939  14.833  1.00  0.00     0.345 HD
ATOM      6  H   UNL     1     -25.612  -6.229  13.817  1.00  0.00     0.345 HD
ATOM      7  H   UNL     1     -25.725  -6.439  15.504  1.00  0.00     0.345 HD
ENDBRANCH   3   4
BRANCH   3   8
ATOM      8  C   UNL     1     -23.967  -4.182  15.828  1.00  0.00     0.099 C 
ATOM      9  O   UNL     1     -24.422  -4.255  17.000  1.00  0.00    -0.544 OA
ATOM     10  O   UNL     1     -23.372  -3.002  15.398  1.00  0.00    -0.544 OA
ENDBRANCH   3   8
ENDBRANCH   1   3
BRANCH   1  11
ATOM     11  C   UNL     1     -23.367  -7.874  14.650  1.00  0.00     0.006 C 
ATOM     12  C   UNL     1     -22.838  -9.116  15.374  1.00  0.00     0.004 C 
ENDBRANCH   1  11
TORSDOF 4
ENDMDL
MODEL 5
REMARK VINA RESULT:    -3.391      2.055      2.676
REMARK INTER + INTRA:          -4.216
REMARK INTER:                  -4.463
REMARK INTRA:                   0.247
REMARK UNBOUND:                -0.131
REMARK SMILES CC[C@@H](C)[C@@H]([NH3+])C(=O)[O-]
REMARK SMILES IDX 3 1 4 2 5 3 6 4 7 8 8 9 9 10 2 11 1 12
REMARK H PARENT 6 5 6 6 6 7
REMARK Flexibility Score: inf
ROOT
ATOM      1  C   UNL     1     -23.435  -6.728  14.530  1.00  0.00     0.050 C 
ATOM      2  C   UNL     1     -24.474  -6.082  13.592  1.00  0.00     0.014 C 
ENDROOT
BRANCH   1   3
ATOM      3  C   UNL     1     -23.068  -5.779  15.715  1.00  0.00     0.230 C 
BRANCH   3   4
ATOM      4  N   UNL     1     -21.661  -5.352  15.660  1.00  0.00    -0.350 N 
ATOM      5  H   UNL     1     -21.200  -5.496  16.586  1.00  0.00     0.345 HD
ATOM      6  H   UNL     1     -21.142  -5.883  14.923  1.00  0.00     0.345 HD
ATOM      7  H   UNL     1     -21.604  -4.329  15.444  1.00  0.00     0.345 HD
ENDBRANCH   3   4
BRANCH   3   8
ATOM      8  C   UNL     1     -23.961  -4.562  15.721  1.00  0.00     0.099 C 
ATOM      9  O   UNL     1     -23.528  -3.450  15.318  1.00  0.00    -0.544 OA
ATOM     10  O   UNL     1     -25.276  -4.668  16.159  1.00  0.00    -0.544 OA
ENDBRANCH   3   8
ENDBRANCH   1   3
BRANCH   1  11
ATOM     11  C   UNL     1     -23.905  -8.138  14.977  1.00  0.00     0.006 C 
ATOM     12  C   UNL     1     -22.771  -9.121  15.280  1.00  0.00     0.004 C 
ENDBRANCH   1  11
TORSDOF 4
ENDMDL
MODEL 6
REMARK VINA RESULT:    -3.356      2.508      3.205
REMARK INTER + INTRA:          -4.173
REMARK INTER:                  -4.083
REMARK INTRA:                  -0.090
REMARK UNBOUND:                -0.131
REMARK SMILES CC[C@@H](C)[C@@H]([NH3+])C(=O)[O-]
REMARK SMILES IDX 3 1 4 2 5 3 6 4 7 8 8 9 9 10 2 11 1 12
REMARK H PARENT 6 5 6 6 6 7
REMARK Flexibility Score: inf
ROOT
ATOM      1  C   UNL     1     -24.003  -6.436  14.052  1.00  0.00     0.050 C 
ATOM      2  C   UNL     1     -24.681  -6.259  12.679  1.00  0.00     0.014 C 
ENDROOT
BRANCH   1   3
ATOM      3  C   UNL     1     -24.086  -5.128  14.902  1.00  0.00     0.230 C 
BRANCH   3   4
ATOM      4  N   UNL     1     -25.353  -5.035  15.644  1.00  0.00    -0.350 N 
ATOM      5  H   UNL     1     -25.214  -5.326  16.638  1.00  0.00     0.345 HD
ATOM      6  H   UNL     1     -25.729  -4.059  15.614  1.00  0.00     0.345 HD
ATOM      7  H   UNL     1     -26.060  -5.685  15.229  1.00  0.00     0.345 HD
ENDBRANCH   3   4
BRANCH   3   8
ATOM      8  C   UNL     1     -22.931  -5.045  15.869  1.00  0.00     0.099 C 
ATOM      9  O   UNL     1     -22.986  -4.278  16.867  1.00  0.00    -0.544 OA
ATOM     10  O   UNL     1     -21.802  -5.831  15.672  1.00  0.00    -0.544 OA
ENDBRANCH   3   8
ENDBRANCH   1   3
BRANCH   1  11
ATOM     11  C   UNL     1     -24.557  -7.692  14.777  1.00  0.00     0.006 C 
ATOM     12  C   UNL     1     -23.502  -8.748  15.116  1.00  0.00     0.004 C 
ENDBRANCH   1  11
TORSDOF 4
ENDMDL
MODEL 7
REMARK VINA RESULT:    -3.344      2.207      3.301
REMARK INTER + INTRA:          -4.159
REMARK INTER:                  -4.064
REMARK INTRA:                  -0.095
REMARK UNBOUND:                -0.131
REMARK SMILES CC[C@@H](C)[C@@H]([NH3+])C(=O)[O-]
REMARK SMILES IDX 3 1 4 2 5 3 6 4 7 8 8 9 9 10 2 11 1 12
REMARK H PARENT 6 5 6 6 6 7
REMARK Flexibility Score: inf
ROOT
ATOM      1  C   UNL     1     -23.403  -5.072  15.308  1.00  0.00     0.050 C 
ATOM      2  C   UNL     1     -22.182  -5.988  15.523  1.00  0.00     0.014 C 
ENDROOT
BRANCH   1   3
ATOM      3  C   UNL     1     -24.742  -5.853  15.500  1.00  0.00     0.230 C 
BRANCH   3   4
ATOM      4  N   UNL     1     -25.881  -4.945  15.712  1.00  0.00    -0.350 N 
ATOM      5  H   UNL     1     -25.676  -4.005  15.307  1.00  0.00     0.345 HD
ATOM      6  H   UNL     1     -26.750  -5.333  15.277  1.00  0.00     0.345 HD
ATOM      7  H   UNL     1     -26.046  -4.810  16.737  1.00  0.00     0.345 HD
ENDBRANCH   3   4
BRANCH   3   8
ATOM      8  C   UNL     1     -25.021  -6.737  14.309  1.00  0.00     0.099 C 
ATOM      9  O   UNL     1     -25.612  -7.839  14.455  1.00  0.00    -0.544 OA
ATOM     10  O   UNL     1     -24.638  -6.329  13.037  1.00  0.00    -0.544 OA
ENDBRANCH   3   8
ENDBRANCH   1   3
BRANCH   1  11
ATOM     11  C   UNL     1     -23.289  -3.795  16.182  1.00  0.00     0.006 C 
ATOM     12  C   UNL     1     -23.254  -2.484  15.393  1.00  0.00     0.004 C 
ENDBRANCH   1  11
TORSDOF 4
ENDMDL
MODEL 8
REMARK VINA RESULT:    -3.321      1.991      2.821
REMARK INTER + INTRA:          -4.131
REMARK INTER:                  -4.057
REMARK INTRA:                  -0.074
REMARK UNBOUND:                -0.131
REMARK SMILES CC[C@@H](C)[C@@H]([NH3+])C(=O)[O-]
REMARK SMILES IDX 3 1 4 2 5 3 6 4 7 8 8 9 9 10 2 11 1 12
REMARK H PARENT 6 5 6 6 6 7
REMARK Flexibility Score: inf
ROOT
ATOM      1  C   UNL     1     -23.671  -4.452  15.971  1.00  0.00     0.050 C 
ATOM      2  C   UNL     1     -23.529  -2.988  15.509  1.00  0.00     0.014 C 
ENDROOT
BRANCH   1   3
ATOM      3  C   UNL     1     -23.931  -5.408  14.763  1.00  0.00     0.230 C 
BRANCH   3   4
ATOM      4  N   UNL     1     -22.824  -6.358  14.567  1.00  0.00    -0.350 N 
ATOM      5  H   UNL     1     -22.131  -5.972  13.888  1.00  0.00     0.345 HD
ATOM      6  H   UNL     1     -22.348  -6.564  15.475  1.00  0.00     0.345 HD
ATOM      7  H   UNL     1     -23.186  -7.253  14.163  1.00  0.00     0.345 HD
ENDBRANCH   3   4
BRANCH   3   8
ATOM      8  C   UNL     1     -25.218  -6.172  14.955  1.00  0.00     0.099 C 
ATOM      9  O   UNL     1     -25.334  -7.348  14.519  1.00  0.00    -0.544 OA
ATOM     10  O   UNL     1     -26.281  -5.585  15.630  1.00  0.00    -0.544 OA
ENDBRANCH   3   8
ENDBRANCH   1   3
BRANCH   1  11
ATOM     11  C   UNL     1     -22.462  -4.867  16.852  1.00  0.00     0.006 C 
ATOM     12  C   UNL     1     -22.468  -4.272  18.262  1.00  0.00     0.004 C 
ENDBRANCH   1  11
TORSDOF 4
ENDMDL
MODEL 9
REMARK VINA RESULT:    -3.082      2.012      3.107
REMARK INTER + INTRA:          -3.844
REMARK INTER:                  -3.773
REMARK INTRA:                  -0.071
REMARK UNBOUND:                -0.131
REMARK SMILES CC[C@@H](C)[C@@H]([NH3+])C(=O)[O-]
REMARK SMILES IDX 3 1 4 2 5 3 6 4 7 8 8 9 9 10 2 11 1 12
REMARK H PARENT 6 5 6 6 6 7
REMARK Flexibility Score: inf
ROOT
ATOM      1  C   UNL     1     -24.876  -5.810  15.485  1.00  0.00     0.050 C 
ATOM      2  C   UNL     1     -26.180  -5.124  15.941  1.00  0.00     0.014 C 
ENDROOT
BRANCH   1   3
ATOM      3  C   UNL     1     -25.126  -6.759  14.270  1.00  0.00     0.230 C 
BRANCH   3   4
ATOM      4  N   UNL     1     -24.086  -6.615  13.240  1.00  0.00    -0.350 N 
ATOM      5  H   UNL     1     -24.294  -7.233  12.424  1.00  0.00     0.345 HD
ATOM      6  H   UNL     1     -24.018  -5.622  12.918  1.00  0.00     0.345 HD
ATOM      7  H   UNL     1     -23.158  -6.912  13.622  1.00  0.00     0.345 HD
ENDBRANCH   3   4
BRANCH   3   8
ATOM      8  C   UNL     1     -25.189  -8.198  14.721  1.00  0.00     0.099 C 
ATOM      9  O   UNL     1     -26.294  -8.799  14.786  1.00  0.00    -0.544 OA
ATOM     10  O   UNL     1     -24.021  -8.874  15.053  1.00  0.00    -0.544 OA
ENDBRANCH   3   8
ENDBRANCH   1   3
BRANCH   1  11
ATOM     11  C   UNL     1     -23.762  -4.757  15.243  1.00  0.00     0.006 C 
ATOM     12  C   UNL     1     -23.206  -4.113  16.515  1.00  0.00     0.004 C 
ENDBRANCH   1  11
TORSDOF 4
ENDMDL
