MODEL 1
REMARK VINA RESULT:    -5.693      0.000      0.000
REMARK INTER + INTRA:          -5.860
REMARK INTER:                  -5.860
REMARK INTRA:                   0.000
REMARK UNBOUND:                 0.000
REMARK SMILES Cc1cccc(O)c1C
REMARK SMILES IDX 1 1 2 2 8 3 6 4 5 5 4 6 3 7 9 8 7 9
REMARK H PARENT 7 10
REMARK Flexibility Score: inf
ROOT
ATOM      1  C   UNL     1      80.000  63.859 101.732  1.00  0.00     0.045 C 
ATOM      2  C   UNL     1      79.856  63.503 103.189  1.00  0.00    -0.045 A 
ATOM      3  C   UNL     1      78.689  63.829 103.935  1.00  0.00    -0.006 A 
ATOM      4  C   UNL     1      78.622  63.462 105.303  1.00  0.00     0.118 A 
ATOM      5  C   UNL     1      79.691  62.789 105.901  1.00  0.00     0.046 A 
ATOM      6  C   UNL     1      80.829  62.473 105.166  1.00  0.00     0.004 A 
ATOM      7  C   UNL     1      80.913  62.825 103.821  1.00  0.00     0.004 A 
ATOM      8  C   UNL     1      77.520  64.556 103.308  1.00  0.00     0.048 C 
ENDROOT
BRANCH   4   9
ATOM      9  O   UNL     1      77.509  63.750 106.098  1.00  0.00    -0.508 OA
ATOM     10  H   UNL     1      76.897  64.539 105.936  1.00  0.00     0.293 HD
ENDBRANCH   4   9
TORSDOF 1
ENDMDL
MODEL 2
REMARK VINA RESULT:    -5.618      2.504      3.499
REMARK INTER + INTRA:          -5.782
REMARK INTER:                  -5.782
REMARK INTRA:                   0.000
REMARK UNBOUND:                 0.000
REMARK SMILES Cc1cccc(O)c1C
REMARK SMILES IDX 1 1 2 2 8 3 6 4 5 5 4 6 3 7 9 8 7 9
REMARK H PARENT 7 10
REMARK Flexibility Score: inf
ROOT
ATOM      1  C   UNL     1      80.471  62.780 105.294  1.00  0.00     0.045 C 
ATOM      2  C   UNL     1      79.346  62.034 105.964  1.00  0.00    -0.045 A 
ATOM      3  C   UNL     1      78.559  62.620 106.994  1.00  0.00    -0.006 A 
ATOM      4  C   UNL     1      77.516  61.859 107.580  1.00  0.00     0.118 A 
ATOM      5  C   UNL     1      77.272  60.554 107.145  1.00  0.00     0.046 A 
ATOM      6  C   UNL     1      78.045  59.986 106.138  1.00  0.00     0.004 A 
ATOM      7  C   UNL     1      79.074  60.719 105.550  1.00  0.00     0.004 A 
ATOM      8  C   UNL     1      78.805  64.032 107.479  1.00  0.00     0.048 C 
ENDROOT
BRANCH   4   9
ATOM      9  O   UNL     1      76.702  62.369 108.596  1.00  0.00    -0.508 OA
ATOM     10  H   UNL     1      75.978  63.058 108.439  1.00  0.00     0.293 HD
ENDBRANCH   4   9
TORSDOF 1
ENDMDL
MODEL 3
REMARK VINA RESULT:    -5.436      2.316      3.492
REMARK INTER + INTRA:          -5.595
REMARK INTER:                  -5.595
REMARK INTRA:                   0.000
REMARK UNBOUND:                 0.000
REMARK SMILES Cc1cccc(O)c1C
REMARK SMILES IDX 1 1 2 2 8 3 6 4 5 5 4 6 3 7 9 8 7 9
REMARK H PARENT 7 10
REMARK Flexibility Score: inf
ROOT
ATOM      1  C   UNL     1      80.080  62.321 105.194  1.00  0.00     0.045 C 
ATOM      2  C   UNL     1      79.603  62.633 103.799  1.00  0.00    -0.045 A 
ATOM      3  C   UNL     1      78.409  62.072 103.266  1.00  0.00    -0.006 A 
ATOM      4  C   UNL     1      78.021  62.411 101.945  1.00  0.00     0.118 A 
ATOM      5  C   UNL     1      78.805  63.284 101.186  1.00  0.00     0.046 A 
ATOM      6  C   UNL     1      79.971  63.829 101.714  1.00  0.00     0.004 A 
ATOM      7  C   UNL     1      80.369  63.508 103.010  1.00  0.00     0.004 A 
ATOM      8  C   UNL     1      77.545  61.126 104.070  1.00  0.00     0.048 C 
ENDROOT
BRANCH   4   9
ATOM      9  O   UNL     1      76.861  61.898 101.356  1.00  0.00    -0.508 OA
ATOM     10  H   UNL     1      75.927  62.133 101.665  1.00  0.00     0.293 HD
ENDBRANCH   4   9
TORSDOF 1
ENDMDL
MODEL 4
REMARK VINA RESULT:    -5.360      2.517      3.808
REMARK INTER + INTRA:          -5.516
REMARK INTER:                  -5.516
REMARK INTRA:                   0.000
REMARK UNBOUND:                 0.000
REMARK SMILES Cc1cccc(O)c1C
REMARK SMILES IDX 1 1 2 2 8 3 6 4 5 5 4 6 3 7 9 8 7 9
REMARK H PARENT 7 10
REMARK Flexibility Score: inf
ROOT
ATOM      1  C   UNL     1      77.136  59.834 106.752  1.00  0.00     0.045 C 
ATOM      2  C   UNL     1      78.130  60.922 106.438  1.00  0.00    -0.045 A 
ATOM      3  C   UNL     1      78.121  62.173 107.117  1.00  0.00    -0.006 A 
ATOM      4  C   UNL     1      79.088  63.151 106.769  1.00  0.00     0.118 A 
ATOM      5  C   UNL     1      80.031  62.881 105.774  1.00  0.00     0.046 A 
ATOM      6  C   UNL     1      80.034  61.656 105.115  1.00  0.00     0.004 A 
ATOM      7  C   UNL     1      79.093  60.683 105.442  1.00  0.00     0.004 A 
ATOM      8  C   UNL     1      77.110  62.486 108.197  1.00  0.00     0.048 C 
ENDROOT
BRANCH   4   9
ATOM      9  O   UNL     1      79.139  64.401 107.393  1.00  0.00    -0.508 OA
ATOM     10  H   UNL     1      79.251  64.523 108.391  1.00  0.00     0.293 HD
ENDBRANCH   4   9
TORSDOF 1
ENDMDL
MODEL 5
REMARK VINA RESULT:    -5.355      1.033      2.719
REMARK INTER + INTRA:          -5.511
REMARK INTER:                  -5.511
REMARK INTRA:                   0.000
REMARK UNBOUND:                 0.000
REMARK SMILES Cc1cccc(O)c1C
REMARK SMILES IDX 1 1 2 2 8 3 6 4 5 5 4 6 3 7 9 8 7 9
REMARK H PARENT 7 10
REMARK Flexibility Score: inf
ROOT
ATOM      1  C   UNL     1      81.240  62.483 104.825  1.00  0.00     0.045 C 
ATOM      2  C   UNL     1      80.158  63.187 104.048  1.00  0.00    -0.045 A 
ATOM      3  C   UNL     1      78.933  63.588 104.650  1.00  0.00    -0.006 A 
ATOM      4  C   UNL     1      77.959  64.247 103.858  1.00  0.00     0.118 A 
ATOM      5  C   UNL     1      78.208  64.495 102.505  1.00  0.00     0.046 A 
ATOM      6  C   UNL     1      79.408  64.101 101.922  1.00  0.00     0.004 A 
ATOM      7  C   UNL     1      80.377  63.453 102.685  1.00  0.00     0.004 A 
ATOM      8  C   UNL     1      78.642  63.330 106.112  1.00  0.00     0.048 C 
ENDROOT
BRANCH   4   9
ATOM      9  O   UNL     1      76.734  64.668 104.382  1.00  0.00    -0.508 OA
ATOM     10  H   UNL     1      76.120  64.068 104.917  1.00  0.00     0.293 HD
ENDBRANCH   4   9
TORSDOF 1
ENDMDL
MODEL 6
REMARK VINA RESULT:    -5.353      1.658      2.878
REMARK INTER + INTRA:          -5.510
REMARK INTER:                  -5.510
REMARK INTRA:                   0.000
REMARK UNBOUND:                 0.000
REMARK SMILES Cc1cccc(O)c1C
REMARK SMILES IDX 1 1 2 2 8 3 6 4 5 5 4 6 3 7 9 8 7 9
REMARK H PARENT 7 10
REMARK Flexibility Score: inf
ROOT
ATOM      1  C   UNL     1      78.512  63.127 107.172  1.00  0.00     0.045 C 
ATOM      2  C   UNL     1      79.171  63.147 105.817  1.00  0.00    -0.045 A 
ATOM      3  C   UNL     1      78.566  63.772 104.692  1.00  0.00    -0.006 A 
ATOM      4  C   UNL     1      79.244  63.753 103.447  1.00  0.00     0.118 A 
ATOM      5  C   UNL     1      80.489  63.128 103.337  1.00  0.00     0.046 A 
ATOM      6  C   UNL     1      81.076  62.520 104.441  1.00  0.00     0.004 A 
ATOM      7  C   UNL     1      80.425  62.529 105.673  1.00  0.00     0.004 A 
ATOM      8  C   UNL     1      77.219  64.453 104.788  1.00  0.00     0.048 C 
ENDROOT
BRANCH   4   9
ATOM      9  O   UNL     1      78.709  64.345 102.299  1.00  0.00    -0.508 OA
ATOM     10  H   UNL     1      78.483  63.829 101.458  1.00  0.00     0.293 HD
ENDBRANCH   4   9
TORSDOF 1
ENDMDL
MODEL 7
REMARK VINA RESULT:    -5.187      2.139      3.203
REMARK INTER + INTRA:          -5.339
REMARK INTER:                  -5.339
REMARK INTRA:                   0.000
REMARK UNBOUND:                 0.000
REMARK SMILES Cc1cccc(O)c1C
REMARK SMILES IDX 1 1 2 2 8 3 6 4 5 5 4 6 3 7 9 8 7 9
REMARK H PARENT 7 10
REMARK Flexibility Score: inf
ROOT
ATOM      1  C   UNL     1      78.157  61.188 106.605  1.00  0.00     0.045 C 
ATOM      2  C   UNL     1      78.904  61.788 105.442  1.00  0.00    -0.045 A 
ATOM      3  C   UNL     1      78.278  62.038 104.190  1.00  0.00    -0.006 A 
ATOM      4  C   UNL     1      79.042  62.605 103.139  1.00  0.00     0.118 A 
ATOM      5  C   UNL     1      80.390  62.913 103.341  1.00  0.00     0.046 A 
ATOM      6  C   UNL     1      80.997  62.667 104.568  1.00  0.00     0.004 A 
ATOM      7  C   UNL     1      80.262  62.110 105.612  1.00  0.00     0.004 A 
ATOM      8  C   UNL     1      76.820  61.713 103.949  1.00  0.00     0.048 C 
ENDROOT
BRANCH   4   9
ATOM      9  O   UNL     1      78.494  62.877 101.882  1.00  0.00    -0.508 OA
ATOM     10  H   UNL     1      77.951  62.207 101.353  1.00  0.00     0.293 HD
ENDBRANCH   4   9
TORSDOF 1
ENDMDL
MODEL 8
REMARK VINA RESULT:    -5.151      2.087      2.953
REMARK INTER + INTRA:          -5.302
REMARK INTER:                  -5.302
REMARK INTRA:                   0.000
REMARK UNBOUND:                 0.000
REMARK SMILES Cc1cccc(O)c1C
REMARK SMILES IDX 1 1 2 2 8 3 6 4 5 5 4 6 3 7 9 8 7 9
REMARK H PARENT 7 10
REMARK Flexibility Score: inf
ROOT
ATOM      1  C   UNL     1      81.584  62.634 104.976  1.00  0.00     0.045 C 
ATOM      2  C   UNL     1      80.181  62.166 104.688  1.00  0.00    -0.045 A 
ATOM      3  C   UNL     1      79.471  62.577 103.526  1.00  0.00    -0.006 A 
ATOM      4  C   UNL     1      78.153  62.096 103.319  1.00  0.00     0.118 A 
ATOM      5  C   UNL     1      77.569  61.230 104.248  1.00  0.00     0.046 A 
ATOM      6  C   UNL     1      78.269  60.832 105.382  1.00  0.00     0.004 A 
ATOM      7  C   UNL     1      79.565  61.294 105.602  1.00  0.00     0.004 A 
ATOM      8  C   UNL     1      80.083  63.513 102.507  1.00  0.00     0.048 C 
ENDROOT
BRANCH   4   9
ATOM      9  O   UNL     1      77.395  62.458 102.201  1.00  0.00    -0.508 OA
ATOM     10  H   UNL     1      77.606  62.149 101.261  1.00  0.00     0.293 HD
ENDBRANCH   4   9
TORSDOF 1
ENDMDL
MODEL 9
REMARK VINA RESULT:    -5.129      1.062      2.769
REMARK INTER + INTRA:          -5.279
REMARK INTER:                  -5.279
REMARK INTRA:                   0.000
REMARK UNBOUND:                 0.000
REMARK SMILES Cc1cccc(O)c1C
REMARK SMILES IDX 1 1 2 2 8 3 6 4 5 5 4 6 3 7 9 8 7 9
REMARK H PARENT 7 10
REMARK Flexibility Score: inf
ROOT
ATOM      1  C   UNL     1      80.007  63.952 101.103  1.00  0.00     0.045 C 
ATOM      2  C   UNL     1      79.148  64.155 102.325  1.00  0.00    -0.045 A 
ATOM      3  C   UNL     1      79.470  63.570 103.581  1.00  0.00    -0.006 A 
ATOM      4  C   UNL     1      78.616  63.805 104.689  1.00  0.00     0.118 A 
ATOM      5  C   UNL     1      77.478  64.602 104.539  1.00  0.00     0.046 A 
ATOM      6  C   UNL     1      77.169  65.171 103.309  1.00  0.00     0.004 A 
ATOM      7  C   UNL     1      77.996  64.952 102.209  1.00  0.00     0.004 A 
ATOM      8  C   UNL     1      80.697  62.704 103.765  1.00  0.00     0.048 C 
ENDROOT
BRANCH   4   9
ATOM      9  O   UNL     1      78.869  63.262 105.952  1.00  0.00    -0.508 OA
ATOM     10  H   UNL     1      79.776  63.290 106.400  1.00  0.00     0.293 HD
ENDBRANCH   4   9
TORSDOF 1
ENDMDL
