MODEL 1
REMARK VINA RESULT:    -4.170      0.000      0.000
REMARK INTER + INTRA:          -4.431
REMARK INTER:                  -4.414
REMARK INTRA:                  -0.016
REMARK UNBOUND:                -0.016
REMARK SMILES O=C([O-])c1cccnc1
REMARK SMILES IDX 4 1 5 2 9 3 6 4 8 5 7 6 2 7 1 8 3 9
REMARK H PARENT
REMARK Flexibility Score: inf
ROOT
ATOM      1  C   UNL     1      31.728  13.372  14.872  1.00  0.00     0.016 A 
ATOM      2  C   UNL     1      33.063  13.097  15.208  1.00  0.00     0.013 A 
ATOM      3  C   UNL     1      31.373  14.700  14.573  1.00  0.00     0.120 A 
ATOM      4  C   UNL     1      34.004  14.128  15.242  1.00  0.00     0.021 A 
ATOM      5  N   UNL     1      32.309  15.685  14.613  1.00  0.00    -0.264 NA
ATOM      6  C   UNL     1      33.604  15.429  14.938  1.00  0.00     0.111 A 
ENDROOT
BRANCH   1   7
ATOM      7  C   UNL     1      30.722  12.288  14.832  1.00  0.00     0.073 C 
ATOM      8  O   UNL     1      30.302  11.845  13.731  1.00  0.00    -0.545 OA
ATOM      9  O   UNL     1      30.225  11.746  16.012  1.00  0.00    -0.545 OA
ENDBRANCH   1   7
TORSDOF 1
ENDMDL
MODEL 2
REMARK VINA RESULT:    -4.093      6.674      7.462
REMARK INTER + INTRA:          -4.349
REMARK INTER:                  -4.333
REMARK INTRA:                  -0.016
REMARK UNBOUND:                -0.016
REMARK SMILES O=C([O-])c1cccnc1
REMARK SMILES IDX 4 1 5 2 9 3 6 4 8 5 7 6 2 7 1 8 3 9
REMARK H PARENT
REMARK Flexibility Score: inf
ROOT
ATOM      1  C   UNL     1      35.795  18.535  11.842  1.00  0.00     0.016 A 
ATOM      2  C   UNL     1      36.692  18.611  12.920  1.00  0.00     0.013 A 
ATOM      3  C   UNL     1      36.295  18.173  10.579  1.00  0.00     0.120 A 
ATOM      4  C   UNL     1      38.046  18.332  12.725  1.00  0.00     0.021 A 
ATOM      5  N   UNL     1      37.618  17.906  10.416  1.00  0.00    -0.264 NA
ATOM      6  C   UNL     1      38.496  17.978  11.452  1.00  0.00     0.111 A 
ENDROOT
BRANCH   1   7
ATOM      7  C   UNL     1      34.358  18.828  12.037  1.00  0.00     0.073 C 
ATOM      8  O   UNL     1      33.570  17.931  12.437  1.00  0.00    -0.545 OA
ATOM      9  O   UNL     1      33.857  20.099  11.778  1.00  0.00    -0.545 OA
ENDBRANCH   1   7
TORSDOF 1
ENDMDL
MODEL 3
REMARK VINA RESULT:    -4.089      6.635      7.383
REMARK INTER + INTRA:          -4.345
REMARK INTER:                  -4.329
REMARK INTRA:                  -0.016
REMARK UNBOUND:                -0.016
REMARK SMILES O=C([O-])c1cccnc1
REMARK SMILES IDX 4 1 5 2 9 3 6 4 8 5 7 6 2 7 1 8 3 9
REMARK H PARENT
REMARK Flexibility Score: inf
ROOT
ATOM      1  C   UNL     1      35.757  18.521  11.843  1.00  0.00     0.016 A 
ATOM      2  C   UNL     1      36.671  18.669  12.899  1.00  0.00     0.013 A 
ATOM      3  C   UNL     1      36.235  18.055  10.605  1.00  0.00     0.120 A 
ATOM      4  C   UNL     1      38.019  18.359  12.707  1.00  0.00     0.021 A 
ATOM      5  N   UNL     1      37.552  17.760  10.445  1.00  0.00    -0.264 NA
ATOM      6  C   UNL     1      38.445  17.901  11.460  1.00  0.00     0.111 A 
ENDROOT
BRANCH   1   7
ATOM      7  C   UNL     1      34.326  18.845  12.034  1.00  0.00     0.073 C 
ATOM      8  O   UNL     1      33.893  20.001  11.783  1.00  0.00    -0.545 OA
ATOM      9  O   UNL     1      33.441  17.878  12.495  1.00  0.00    -0.545 OA
ENDBRANCH   1   7
TORSDOF 1
ENDMDL
MODEL 4
REMARK VINA RESULT:    -4.085      7.890      8.859
REMARK INTER + INTRA:          -4.340
REMARK INTER:                  -4.319
REMARK INTRA:                  -0.021
REMARK UNBOUND:                -0.016
REMARK SMILES O=C([O-])c1cccnc1
REMARK SMILES IDX 4 1 5 2 9 3 6 4 8 5 7 6 2 7 1 8 3 9
REMARK H PARENT
REMARK Flexibility Score: inf
ROOT
ATOM      1  C   UNL     1      37.869  18.077  10.727  1.00  0.00     0.016 A 
ATOM      2  C   UNL     1      38.250  18.231  12.069  1.00  0.00     0.013 A 
ATOM      3  C   UNL     1      36.506  18.193  10.401  1.00  0.00     0.120 A 
ATOM      4  C   UNL     1      37.286  18.491  13.046  1.00  0.00     0.021 A 
ATOM      5  N   UNL     1      35.588  18.446  11.371  1.00  0.00    -0.264 NA
ATOM      6  C   UNL     1      35.946  18.596  12.674  1.00  0.00     0.111 A 
ENDROOT
BRANCH   1   7
ATOM      7  C   UNL     1      38.881  17.803   9.683  1.00  0.00     0.073 C 
ATOM      8  O   UNL     1      38.593  17.093   8.683  1.00  0.00    -0.545 OA
ATOM      9  O   UNL     1      40.165  18.324   9.794  1.00  0.00    -0.545 OA
ENDBRANCH   1   7
TORSDOF 1
ENDMDL
MODEL 5
REMARK VINA RESULT:    -4.055      2.584      3.466
REMARK INTER + INTRA:          -4.309
REMARK INTER:                  -4.291
REMARK INTRA:                  -0.017
REMARK UNBOUND:                -0.016
REMARK SMILES O=C([O-])c1cccnc1
REMARK SMILES IDX 4 1 5 2 9 3 6 4 8 5 7 6 2 7 1 8 3 9
REMARK H PARENT
REMARK Flexibility Score: inf
ROOT
ATOM      1  C   UNL     1      32.244  13.643  15.083  1.00  0.00     0.016 A 
ATOM      2  C   UNL     1      32.078  12.249  15.128  1.00  0.00     0.013 A 
ATOM      3  C   UNL     1      31.277  14.411  14.410  1.00  0.00     0.120 A 
ATOM      4  C   UNL     1      30.975  11.655  14.512  1.00  0.00     0.021 A 
ATOM      5  N   UNL     1      30.212  13.807  13.818  1.00  0.00    -0.264 NA
ATOM      6  C   UNL     1      30.043  12.459  13.854  1.00  0.00     0.111 A 
ENDROOT
BRANCH   1   7
ATOM      7  C   UNL     1      33.408  14.284  15.733  1.00  0.00     0.073 C 
ATOM      8  O   UNL     1      34.576  14.064  15.316  1.00  0.00    -0.545 OA
ATOM      9  O   UNL     1      33.228  15.137  16.816  1.00  0.00    -0.545 OA
ENDBRANCH   1   7
TORSDOF 1
ENDMDL
MODEL 6
REMARK VINA RESULT:    -4.049      8.130      9.213
REMARK INTER + INTRA:          -4.302
REMARK INTER:                  -4.283
REMARK INTRA:                  -0.019
REMARK UNBOUND:                -0.016
REMARK SMILES O=C([O-])c1cccnc1
REMARK SMILES IDX 4 1 5 2 9 3 6 4 8 5 7 6 2 7 1 8 3 9
REMARK H PARENT
REMARK Flexibility Score: inf
ROOT
ATOM      1  C   UNL     1      38.639  18.151  11.620  1.00  0.00     0.016 A 
ATOM      2  C   UNL     1      39.894  18.204  12.249  1.00  0.00     0.013 A 
ATOM      3  C   UNL     1      38.593  18.204  10.215  1.00  0.00     0.120 A 
ATOM      4  C   UNL     1      41.057  18.307  11.485  1.00  0.00     0.021 A 
ATOM      5  N   UNL     1      39.742  18.304   9.494  1.00  0.00    -0.264 NA
ATOM      6  C   UNL     1      40.961  18.356  10.094  1.00  0.00     0.111 A 
ENDROOT
BRANCH   1   7
ATOM      7  C   UNL     1      37.399  18.042  12.419  1.00  0.00     0.073 C 
ATOM      8  O   UNL     1      37.187  18.825  13.382  1.00  0.00    -0.545 OA
ATOM      9  O   UNL     1      36.452  17.070  12.118  1.00  0.00    -0.545 OA
ENDBRANCH   1   7
TORSDOF 1
ENDMDL
MODEL 7
REMARK VINA RESULT:    -4.015      7.937      8.931
REMARK INTER + INTRA:          -4.266
REMARK INTER:                  -4.244
REMARK INTRA:                  -0.022
REMARK UNBOUND:                -0.016
REMARK SMILES O=C([O-])c1cccnc1
REMARK SMILES IDX 4 1 5 2 9 3 6 4 8 5 7 6 2 7 1 8 3 9
REMARK H PARENT
REMARK Flexibility Score: inf
ROOT
ATOM      1  C   UNL     1      37.896  17.982  10.685  1.00  0.00     0.016 A 
ATOM      2  C   UNL     1      36.506  18.112  10.528  1.00  0.00     0.013 A 
ATOM      3  C   UNL     1      38.442  18.146  11.971  1.00  0.00     0.120 A 
ATOM      4  C   UNL     1      35.700  18.399  11.631  1.00  0.00     0.021 A 
ATOM      5  N   UNL     1      37.634  18.424  13.028  1.00  0.00    -0.264 NA
ATOM      6  C   UNL     1      36.288  18.553  12.887  1.00  0.00     0.111 A 
ENDROOT
BRANCH   1   7
ATOM      7  C   UNL     1      38.760  17.678   9.523  1.00  0.00     0.073 C 
ATOM      8  O   UNL     1      38.318  17.006   8.555  1.00  0.00    -0.545 OA
ATOM      9  O   UNL     1      40.074  18.130   9.487  1.00  0.00    -0.545 OA
ENDBRANCH   1   7
TORSDOF 1
ENDMDL
MODEL 8
REMARK VINA RESULT:    -3.996      7.174      7.898
REMARK INTER + INTRA:          -4.246
REMARK INTER:                  -4.230
REMARK INTRA:                  -0.016
REMARK UNBOUND:                -0.016
REMARK SMILES O=C([O-])c1cccnc1
REMARK SMILES IDX 4 1 5 2 9 3 6 4 8 5 7 6 2 7 1 8 3 9
REMARK H PARENT
REMARK Flexibility Score: inf
ROOT
ATOM      1  C   UNL     1      36.204  18.321  11.394  1.00  0.00     0.016 A 
ATOM      2  C   UNL     1      35.250  18.926  12.228  1.00  0.00     0.013 A 
ATOM      3  C   UNL     1      36.138  18.570  10.011  1.00  0.00     0.120 A 
ATOM      4  C   UNL     1      34.264  19.751  11.682  1.00  0.00     0.021 A 
ATOM      5  N   UNL     1      35.168  19.378   9.505  1.00  0.00    -0.264 NA
ATOM      6  C   UNL     1      34.239  19.967  10.304  1.00  0.00     0.111 A 
ENDROOT
BRANCH   1   7
ATOM      7  C   UNL     1      37.253  17.446  11.960  1.00  0.00     0.073 C 
ATOM      8  O   UNL     1      37.145  16.193  11.896  1.00  0.00    -0.545 OA
ATOM      9  O   UNL     1      38.373  17.996  12.574  1.00  0.00    -0.545 OA
ENDBRANCH   1   7
TORSDOF 1
ENDMDL
MODEL 9
REMARK VINA RESULT:    -3.887      6.021      7.133
REMARK INTER + INTRA:          -4.130
REMARK INTER:                  -4.113
REMARK INTRA:                  -0.018
REMARK UNBOUND:                -0.016
REMARK SMILES O=C([O-])c1cccnc1
REMARK SMILES IDX 4 1 5 2 9 3 6 4 8 5 7 6 2 7 1 8 3 9
REMARK H PARENT
REMARK Flexibility Score: inf
ROOT
ATOM      1  C   UNL     1      35.202  18.268  12.336  1.00  0.00     0.016 A 
ATOM      2  C   UNL     1      34.667  19.447  11.793  1.00  0.00     0.013 A 
ATOM      3  C   UNL     1      34.325  17.210  12.633  1.00  0.00     0.120 A 
ATOM      4  C   UNL     1      33.294  19.552  11.562  1.00  0.00     0.021 A 
ATOM      5  N   UNL     1      32.992  17.338  12.399  1.00  0.00    -0.264 NA
ATOM      6  C   UNL     1      32.463  18.476  11.875  1.00  0.00     0.111 A 
ENDROOT
BRANCH   1   7
ATOM      7  C   UNL     1      36.656  18.144  12.584  1.00  0.00     0.073 C 
ATOM      8  O   UNL     1      37.231  18.904  13.407  1.00  0.00    -0.545 OA
ATOM      9  O   UNL     1      37.406  17.188  11.909  1.00  0.00    -0.545 OA
ENDBRANCH   1   7
TORSDOF 1
ENDMDL
