MODEL 1
REMARK VINA RESULT:    -2.558      0.000      0.000
REMARK INTER + INTRA:          -2.558
REMARK INTER:                  -2.558
REMARK INTRA:                   0.000
REMARK UNBOUND:                 0.000
REMARK SMILES CC(=O)[O-]
REMARK SMILES IDX 1 1 2 2 3 3 4 4
REMARK H PARENT
REMARK Flexibility Score: inf
ROOT
ATOM      1  C   UNL     1      12.579  25.051  53.225  1.00  0.00     0.063 C 
ATOM      2  C   UNL     1      13.463  26.027  52.525  1.00  0.00     0.038 C 
ATOM      3  O   UNL     1      14.698  26.048  52.767  1.00  0.00    -0.550 OA
ATOM      4  O   UNL     1      12.934  26.880  51.564  1.00  0.00    -0.550 OA
ENDROOT
TORSDOF 0
ENDMDL
MODEL 2
REMARK VINA RESULT:    -2.538      1.992      2.468
REMARK INTER + INTRA:          -2.538
REMARK INTER:                  -2.538
REMARK INTRA:                   0.000
REMARK UNBOUND:                 0.000
REMARK SMILES CC(=O)[O-]
REMARK SMILES IDX 1 1 2 2 3 3 4 4
REMARK H PARENT
REMARK Flexibility Score: inf
ROOT
ATOM      1  C   UNL     1      13.889  25.924  52.877  1.00  0.00     0.063 C 
ATOM      2  C   UNL     1      12.484  25.456  53.057  1.00  0.00     0.038 C 
ATOM      3  O   UNL     1      11.568  26.286  53.296  1.00  0.00    -0.550 OA
ATOM      4  O   UNL     1      12.174  24.110  52.909  1.00  0.00    -0.550 OA
ENDROOT
TORSDOF 0
ENDMDL
MODEL 3
REMARK VINA RESULT:    -2.462      1.363      1.974
REMARK INTER + INTRA:          -2.462
REMARK INTER:                  -2.462
REMARK INTRA:                   0.000
REMARK UNBOUND:                 0.000
REMARK SMILES CC(=O)[O-]
REMARK SMILES IDX 1 1 2 2 3 3 4 4
REMARK H PARENT
REMARK Flexibility Score: inf
ROOT
ATOM      1  C   UNL     1      12.684  26.720  51.505  1.00  0.00     0.063 C 
ATOM      2  C   UNL     1      13.436  26.014  52.583  1.00  0.00     0.038 C 
ATOM      3  O   UNL     1      12.822  25.299  53.417  1.00  0.00    -0.550 OA
ATOM      4  O   UNL     1      14.822  26.101  52.637  1.00  0.00    -0.550 OA
ENDROOT
TORSDOF 0
ENDMDL
MODEL 4
REMARK VINA RESULT:    -2.339     14.112     14.695
REMARK INTER + INTRA:          -2.339
REMARK INTER:                  -2.339
REMARK INTRA:                   0.000
REMARK UNBOUND:                 0.000
REMARK SMILES CC(=O)[O-]
REMARK SMILES IDX 1 1 2 2 3 3 4 4
REMARK H PARENT
REMARK Flexibility Score: inf
ROOT
ATOM      1  C   UNL     1       2.632  22.494  45.186  1.00  0.00     0.063 C 
ATOM      2  C   UNL     1       2.316  22.182  43.761  1.00  0.00     0.038 C 
ATOM      3  O   UNL     1       1.460  21.303  43.482  1.00  0.00    -0.550 OA
ATOM      4  O   UNL     1       2.927  22.899  42.740  1.00  0.00    -0.550 OA
ENDROOT
TORSDOF 0
ENDMDL
MODEL 5
REMARK VINA RESULT:    -2.292     13.783     14.314
REMARK INTER + INTRA:          -2.292
REMARK INTER:                  -2.292
REMARK INTRA:                   0.000
REMARK UNBOUND:                 0.000
REMARK SMILES CC(=O)[O-]
REMARK SMILES IDX 1 1 2 2 3 3 4 4
REMARK H PARENT
REMARK Flexibility Score: inf
ROOT
ATOM      1  C   UNL     1       1.709  21.522  43.429  1.00  0.00     0.063 C 
ATOM      2  C   UNL     1       2.377  22.570  44.254  1.00  0.00     0.038 C 
ATOM      3  O   UNL     1       3.622  22.739  44.173  1.00  0.00    -0.550 OA
ATOM      4  O   UNL     1       1.621  23.397  45.074  1.00  0.00    -0.550 OA
ENDROOT
TORSDOF 0
ENDMDL
MODEL 6
REMARK VINA RESULT:    -2.290     13.578     14.187
REMARK INTER + INTRA:          -2.290
REMARK INTER:                  -2.290
REMARK INTRA:                   0.000
REMARK UNBOUND:                 0.000
REMARK SMILES CC(=O)[O-]
REMARK SMILES IDX 1 1 2 2 3 3 4 4
REMARK H PARENT
REMARK Flexibility Score: inf
ROOT
ATOM      1  C   UNL     1       3.558  23.202  43.523  1.00  0.00     0.063 C 
ATOM      2  C   UNL     1       2.594  22.402  44.332  1.00  0.00     0.038 C 
ATOM      3  O   UNL     1       1.715  21.705  43.761  1.00  0.00    -0.550 OA
ATOM      4  O   UNL     1       2.696  22.381  45.718  1.00  0.00    -0.550 OA
ENDROOT
TORSDOF 0
ENDMDL
MODEL 7
REMARK VINA RESULT:    -2.204     13.772     13.936
REMARK INTER + INTRA:          -2.204
REMARK INTER:                  -2.204
REMARK INTRA:                   0.000
REMARK UNBOUND:                 0.000
REMARK SMILES CC(=O)[O-]
REMARK SMILES IDX 1 1 2 2 3 3 4 4
REMARK H PARENT
REMARK Flexibility Score: inf
ROOT
ATOM      1  C   UNL     1       2.597  22.634  45.074  1.00  0.00     0.063 C 
ATOM      2  C   UNL     1       1.886  23.942  45.157  1.00  0.00     0.038 C 
ATOM      3  O   UNL     1       2.162  24.864  44.345  1.00  0.00    -0.550 OA
ATOM      4  O   UNL     1       0.880  24.129  46.097  1.00  0.00    -0.550 OA
ENDROOT
TORSDOF 0
ENDMDL
MODEL 8
REMARK VINA RESULT:    -2.054     16.013     16.160
REMARK INTER + INTRA:          -2.054
REMARK INTER:                  -2.054
REMARK INTRA:                   0.000
REMARK UNBOUND:                 0.000
REMARK SMILES CC(=O)[O-]
REMARK SMILES IDX 1 1 2 2 3 3 4 4
REMARK H PARENT
REMARK Flexibility Score: inf
ROOT
ATOM      1  C   UNL     1      -2.141  25.923  56.901  1.00  0.00     0.063 C 
ATOM      2  C   UNL     1      -2.147  24.574  56.264  1.00  0.00     0.038 C 
ATOM      3  O   UNL     1      -2.135  23.538  56.978  1.00  0.00    -0.550 OA
ATOM      4  O   UNL     1      -2.219  24.458  54.881  1.00  0.00    -0.550 OA
ENDROOT
TORSDOF 0
ENDMDL
MODEL 9
REMARK VINA RESULT:    -2.029     15.670     15.961
REMARK INTER + INTRA:          -2.029
REMARK INTER:                  -2.029
REMARK INTRA:                   0.000
REMARK UNBOUND:                 0.000
REMARK SMILES CC(=O)[O-]
REMARK SMILES IDX 1 1 2 2 3 3 4 4
REMARK H PARENT
REMARK Flexibility Score: inf
ROOT
ATOM      1  C   UNL     1      -2.081  23.755  56.589  1.00  0.00     0.063 C 
ATOM      2  C   UNL     1      -2.021  25.165  56.105  1.00  0.00     0.038 C 
ATOM      3  O   UNL     1      -1.800  25.406  54.889  1.00  0.00    -0.550 OA
ATOM      4  O   UNL     1      -2.260  26.214  56.984  1.00  0.00    -0.550 OA
ENDROOT
TORSDOF 0
ENDMDL
