MODEL 1
REMARK VINA RESULT:    -3.981      0.000      0.000
REMARK INTER + INTRA:          -7.008
REMARK INTER:                  -6.076
REMARK INTRA:                  -0.933
REMARK UNBOUND:                -0.933
REMARK SMILES CCCCCCCCCCC(=O)[O-]
REMARK SMILES IDX 7 1 8 2 9 3 10 4 11 5 12 6 13 7 6 8 5 9 4 10 3 11 2 12 1 13
REMARK H PARENT
REMARK Flexibility Score: inf
ROOT
ATOM      1  C   UNL     1       2.402   2.270  -4.112  1.00  0.00     0.000 C 
ENDROOT
BRANCH   1   2
ATOM      2  C   UNL     1       2.019   1.069  -4.993  1.00  0.00     0.000 C 
BRANCH   2   3
ATOM      3  C   UNL     1       0.510   0.770  -4.963  1.00  0.00     0.006 C 
BRANCH   3   4
ATOM      4  C   UNL     1       0.201  -0.582  -4.306  1.00  0.00     0.053 C 
BRANCH   4   5
ATOM      5  C   UNL     1       1.082  -1.673  -4.833  1.00  0.00     0.041 C 
ATOM      6  O   UNL     1       0.972  -2.054  -6.029  1.00  0.00    -0.550 OA
ATOM      7  O   UNL     1       2.005  -2.290  -3.997  1.00  0.00    -0.550 OA
ENDBRANCH   4   5
ENDBRANCH   3   4
ENDBRANCH   2   3
ENDBRANCH   1   2
BRANCH   1   8
ATOM      8  C   UNL     1       3.562   3.090  -4.701  1.00  0.00     0.000 C 
BRANCH   8   9
ATOM      9  C   UNL     1       4.784   3.137  -3.770  1.00  0.00    -0.000 C 
BRANCH   9  10
ATOM     10  C   UNL     1       5.742   1.954  -3.985  1.00  0.00    -0.000 C 
BRANCH  10  11
ATOM     11  C   UNL     1       5.763   1.037  -2.753  1.00  0.00    -0.000 C 
BRANCH  11  12
ATOM     12  C   UNL     1       5.054  -0.303  -3.003  1.00  0.00    -0.003 C 
ATOM     13  C   UNL     1       5.230  -0.808  -4.435  1.00  0.00     0.004 C 
ENDBRANCH  11  12
ENDBRANCH  10  11
ENDBRANCH   9  10
ENDBRANCH   8   9
ENDBRANCH   1   8
TORSDOF 9
ENDMDL
MODEL 2
REMARK VINA RESULT:    -3.906      1.425      2.900
REMARK INTER + INTRA:          -6.894
REMARK INTER:                  -6.229
REMARK INTRA:                  -0.665
REMARK UNBOUND:                -0.933
REMARK SMILES CCCCCCCCCCC(=O)[O-]
REMARK SMILES IDX 7 1 8 2 9 3 10 4 11 5 12 6 13 7 6 8 5 9 4 10 3 11 2 12 1 13
REMARK H PARENT
REMARK Flexibility Score: inf
ROOT
ATOM      1  C   UNL     1       1.741   1.710  -5.840  1.00  0.00     0.000 C 
ENDROOT
BRANCH   1   2
ATOM      2  C   UNL     1       1.177   1.283  -4.475  1.00  0.00     0.000 C 
BRANCH   2   3
ATOM      3  C   UNL     1      -0.166   0.541  -4.595  1.00  0.00     0.006 C 
BRANCH   3   4
ATOM      4  C   UNL     1      -0.064  -0.919  -4.134  1.00  0.00     0.053 C 
BRANCH   4   5
ATOM      5  C   UNL     1       1.067  -1.638  -4.803  1.00  0.00     0.041 C 
ATOM      6  O   UNL     1       0.997  -1.931  -6.026  1.00  0.00    -0.550 OA
ATOM      7  O   UNL     1       2.187  -2.012  -4.070  1.00  0.00    -0.550 OA
ENDBRANCH   4   5
ENDBRANCH   3   4
ENDBRANCH   2   3
ENDBRANCH   1   2
BRANCH   1   8
ATOM      8  C   UNL     1       3.249   2.011  -5.790  1.00  0.00     0.000 C 
BRANCH   8   9
ATOM      9  C   UNL     1       3.919   1.460  -4.520  1.00  0.00    -0.000 C 
BRANCH   9  10
ATOM     10  C   UNL     1       4.700   2.533  -3.746  1.00  0.00    -0.000 C 
BRANCH  10  11
ATOM     11  C   UNL     1       3.820   3.764  -3.481  1.00  0.00    -0.000 C 
BRANCH  11  12
ATOM     12  C   UNL     1       4.438   5.060  -4.030  1.00  0.00    -0.003 C 
ATOM     13  C   UNL     1       3.939   6.307  -3.302  1.00  0.00     0.004 C 
ENDBRANCH  11  12
ENDBRANCH  10  11
ENDBRANCH   9  10
ENDBRANCH   8   9
ENDBRANCH   1   8
TORSDOF 9
ENDMDL
MODEL 3
REMARK VINA RESULT:    -3.905      0.897      1.188
REMARK INTER + INTRA:          -6.892
REMARK INTER:                  -5.905
REMARK INTRA:                  -0.987
REMARK UNBOUND:                -0.933
REMARK SMILES CCCCCCCCCCC(=O)[O-]
REMARK SMILES IDX 7 1 8 2 9 3 10 4 11 5 12 6 13 7 6 8 5 9 4 10 3 11 2 12 1 13
REMARK H PARENT
REMARK Flexibility Score: inf
ROOT
ATOM      1  C   UNL     1       2.130   1.783  -4.139  1.00  0.00     0.000 C 
ENDROOT
BRANCH   1   2
ATOM      2  C   UNL     1       1.104   1.281  -5.167  1.00  0.00     0.000 C 
BRANCH   2   3
ATOM      3  C   UNL     1       1.628   0.096  -5.997  1.00  0.00     0.006 C 
BRANCH   3   4
ATOM      4  C   UNL     1       0.824  -1.187  -5.745  1.00  0.00     0.053 C 
BRANCH   4   5
ATOM      5  C   UNL     1       0.998  -1.689  -4.344  1.00  0.00     0.041 C 
ATOM      6  O   UNL     1       2.051  -2.295  -4.014  1.00  0.00    -0.550 OA
ATOM      7  O   UNL     1      -0.016  -1.514  -3.410  1.00  0.00    -0.550 OA
ENDBRANCH   4   5
ENDBRANCH   3   4
ENDBRANCH   2   3
ENDBRANCH   1   2
BRANCH   1   8
ATOM      8  C   UNL     1       3.060   2.866  -4.711  1.00  0.00     0.000 C 
BRANCH   8   9
ATOM      9  C   UNL     1       4.277   3.136  -3.810  1.00  0.00    -0.000 C 
BRANCH   9  10
ATOM     10  C   UNL     1       5.450   2.185  -4.095  1.00  0.00    -0.000 C 
BRANCH  10  11
ATOM     11  C   UNL     1       5.715   1.267  -2.892  1.00  0.00    -0.000 C 
BRANCH  11  12
ATOM     12  C   UNL     1       5.199  -0.163  -3.116  1.00  0.00    -0.003 C 
ATOM     13  C   UNL     1       5.066  -0.518  -4.596  1.00  0.00     0.004 C 
ENDBRANCH  11  12
ENDBRANCH  10  11
ENDBRANCH   9  10
ENDBRANCH   8   9
ENDBRANCH   1   8
TORSDOF 9
ENDMDL
MODEL 4
REMARK VINA RESULT:    -3.881      1.609      4.435
REMARK INTER + INTRA:          -6.856
REMARK INTER:                  -6.201
REMARK INTRA:                  -0.654
REMARK UNBOUND:                -0.933
REMARK SMILES CCCCCCCCCCC(=O)[O-]
REMARK SMILES IDX 7 1 8 2 9 3 10 4 11 5 12 6 13 7 6 8 5 9 4 10 3 11 2 12 1 13
REMARK H PARENT
REMARK Flexibility Score: inf
ROOT
ATOM      1  C   UNL     1       4.201   3.152  -3.780  1.00  0.00     0.000 C 
ENDROOT
BRANCH   1   2
ATOM      2  C   UNL     1       5.323   2.179  -4.176  1.00  0.00     0.000 C 
BRANCH   2   3
ATOM      3  C   UNL     1       5.892   1.408  -2.972  1.00  0.00     0.006 C 
BRANCH   3   4
ATOM      4  C   UNL     1       5.231   0.033  -2.801  1.00  0.00     0.053 C 
BRANCH   4   5
ATOM      5  C   UNL     1       5.295  -0.777  -4.060  1.00  0.00     0.041 C 
ATOM      6  O   UNL     1       4.234  -1.120  -4.647  1.00  0.00    -0.550 OA
ATOM      7  O   UNL     1       6.524  -1.179  -4.569  1.00  0.00    -0.550 OA
ENDBRANCH   4   5
ENDBRANCH   3   4
ENDBRANCH   2   3
ENDBRANCH   1   2
BRANCH   1   8
ATOM      8  C   UNL     1       2.915   2.936  -4.596  1.00  0.00     0.000 C 
BRANCH   8   9
ATOM      9  C   UNL     1       2.120   1.705  -4.129  1.00  0.00    -0.000 C 
BRANCH   9  10
ATOM     10  C   UNL     1       0.920   1.393  -5.038  1.00  0.00    -0.000 C 
BRANCH  10  11
ATOM     11  C   UNL     1      -0.150   0.596  -4.276  1.00  0.00    -0.000 C 
BRANCH  11  12
ATOM     12  C   UNL     1      -0.073  -0.913  -4.556  1.00  0.00    -0.003 C 
ATOM     13  C   UNL     1       0.768  -1.243  -5.789  1.00  0.00     0.004 C 
ENDBRANCH  11  12
ENDBRANCH  10  11
ENDBRANCH   9  10
ENDBRANCH   8   9
ENDBRANCH   1   8
TORSDOF 9
ENDMDL
MODEL 5
REMARK VINA RESULT:    -3.684      1.377      3.196
REMARK INTER + INTRA:          -6.554
REMARK INTER:                  -5.834
REMARK INTRA:                  -0.720
REMARK UNBOUND:                -0.933
REMARK SMILES CCCCCCCCCCC(=O)[O-]
REMARK SMILES IDX 7 1 8 2 9 3 10 4 11 5 12 6 13 7 6 8 5 9 4 10 3 11 2 12 1 13
REMARK H PARENT
REMARK Flexibility Score: inf
ROOT
ATOM      1  C   UNL     1       5.030  -0.360  -4.070  1.00  0.00     0.000 C 
ENDROOT
BRANCH   1   2
ATOM      2  C   UNL     1       4.063  -0.109  -5.238  1.00  0.00     0.000 C 
BRANCH   2   3
ATOM      3  C   UNL     1       2.662   0.316  -4.766  1.00  0.00     0.006 C 
BRANCH   3   4
ATOM      4  C   UNL     1       1.553  -0.518  -5.423  1.00  0.00     0.053 C 
BRANCH   4   5
ATOM      5  C   UNL     1       1.037  -1.582  -4.504  1.00  0.00     0.041 C 
ATOM      6  O   UNL     1       0.081  -1.336  -3.721  1.00  0.00    -0.550 OA
ATOM      7  O   UNL     1       1.630  -2.839  -4.490  1.00  0.00    -0.550 OA
ENDBRANCH   4   5
ENDBRANCH   3   4
ENDBRANCH   2   3
ENDBRANCH   1   2
BRANCH   1   8
ATOM      8  C   UNL     1       5.355   0.922  -3.284  1.00  0.00     0.000 C 
BRANCH   8   9
ATOM      9  C   UNL     1       6.205   1.913  -4.096  1.00  0.00    -0.000 C 
BRANCH   9  10
ATOM     10  C   UNL     1       5.434   3.188  -4.472  1.00  0.00    -0.000 C 
BRANCH  10  11
ATOM     11  C   UNL     1       4.196   3.362  -3.579  1.00  0.00    -0.000 C 
BRANCH  11  12
ATOM     12  C   UNL     1       3.560   4.754  -3.716  1.00  0.00    -0.003 C 
ATOM     13  C   UNL     1       4.592   5.880  -3.695  1.00  0.00     0.004 C 
ENDBRANCH  11  12
ENDBRANCH  10  11
ENDBRANCH   9  10
ENDBRANCH   8   9
ENDBRANCH   1   8
TORSDOF 9
ENDMDL
MODEL 6
REMARK VINA RESULT:    -3.516      3.609      5.579
REMARK INTER + INTRA:          -6.298
REMARK INTER:                  -5.189
REMARK INTRA:                  -1.109
REMARK UNBOUND:                -0.933
REMARK SMILES CCCCCCCCCCC(=O)[O-]
REMARK SMILES IDX 7 1 8 2 9 3 10 4 11 5 12 6 13 7 6 8 5 9 4 10 3 11 2 12 1 13
REMARK H PARENT
REMARK Flexibility Score: inf
ROOT
ATOM      1  C   UNL     1       5.310   1.494  -3.333  1.00  0.00     0.000 C 
ENDROOT
BRANCH   1   2
ATOM      2  C   UNL     1       5.899   2.581  -4.247  1.00  0.00     0.000 C 
BRANCH   2   3
ATOM      3  C   UNL     1       4.844   3.602  -4.708  1.00  0.00     0.006 C 
BRANCH   3   4
ATOM      4  C   UNL     1       3.896   4.007  -3.570  1.00  0.00     0.053 C 
BRANCH   4   5
ATOM      5  C   UNL     1       3.610   5.477  -3.578  1.00  0.00     0.041 C 
ATOM      6  O   UNL     1       2.593   5.922  -4.174  1.00  0.00    -0.550 OA
ATOM      7  O   UNL     1       4.482   6.361  -2.954  1.00  0.00    -0.550 OA
ENDBRANCH   4   5
ENDBRANCH   3   4
ENDBRANCH   2   3
ENDBRANCH   1   2
BRANCH   1   8
ATOM      8  C   UNL     1       5.191   0.131  -4.037  1.00  0.00     0.000 C 
BRANCH   8   9
ATOM      9  C   UNL     1       3.743  -0.206  -4.428  1.00  0.00    -0.000 C 
BRANCH   9  10
ATOM     10  C   UNL     1       3.368   0.314  -5.825  1.00  0.00    -0.000 C 
BRANCH  10  11
ATOM     11  C   UNL     1       2.123   1.211  -5.758  1.00  0.00    -0.000 C 
BRANCH  11  12
ATOM     12  C   UNL     1       1.517   1.276  -4.346  1.00  0.00    -0.003 C 
ATOM     13  C   UNL     1       0.099   0.711  -4.285  1.00  0.00     0.004 C 
ENDBRANCH  11  12
ENDBRANCH  10  11
ENDBRANCH   9  10
ENDBRANCH   8   9
ENDBRANCH   1   8
TORSDOF 9
ENDMDL
MODEL 7
REMARK VINA RESULT:    -3.488     12.950     14.895
REMARK INTER + INTRA:          -6.255
REMARK INTER:                  -5.557
REMARK INTRA:                  -0.698
REMARK UNBOUND:                -0.933
REMARK SMILES CCCCCCCCCCC(=O)[O-]
REMARK SMILES IDX 7 1 8 2 9 3 10 4 11 5 12 6 13 7 6 8 5 9 4 10 3 11 2 12 1 13
REMARK H PARENT
REMARK Flexibility Score: inf
ROOT
ATOM      1  C   UNL     1       6.881  -7.986   4.742  1.00  0.00     0.000 C 
ENDROOT
BRANCH   1   2
ATOM      2  C   UNL     1       7.659  -7.539   3.494  1.00  0.00     0.000 C 
BRANCH   2   3
ATOM      3  C   UNL     1       8.909  -8.399   3.236  1.00  0.00     0.006 C 
BRANCH   3   4
ATOM      4  C   UNL     1       8.681  -9.873   3.597  1.00  0.00     0.053 C 
BRANCH   4   5
ATOM      5  C   UNL     1       8.383 -10.705   2.387  1.00  0.00     0.041 C 
ATOM      6  O   UNL     1       8.718 -10.301   1.242  1.00  0.00    -0.550 OA
ATOM      7  O   UNL     1       7.708 -11.912   2.521  1.00  0.00    -0.550 OA
ENDBRANCH   4   5
ENDBRANCH   3   4
ENDBRANCH   2   3
ENDBRANCH   1   2
BRANCH   1   8
ATOM      8  C   UNL     1       7.258  -7.177   5.995  1.00  0.00     0.000 C 
BRANCH   8   9
ATOM      9  C   UNL     1       8.536  -7.698   6.672  1.00  0.00    -0.000 C 
BRANCH   9  10
ATOM     10  C   UNL     1       8.243  -8.629   7.860  1.00  0.00    -0.000 C 
BRANCH  10  11
ATOM     11  C   UNL     1       8.272 -10.100   7.421  1.00  0.00    -0.000 C 
BRANCH  11  12
ATOM     12  C   UNL     1       8.041 -11.070   8.591  1.00  0.00    -0.003 C 
ATOM     13  C   UNL     1       7.368 -10.401   9.789  1.00  0.00     0.004 C 
ENDBRANCH  11  12
ENDBRANCH  10  11
ENDBRANCH   9  10
ENDBRANCH   8   9
ENDBRANCH   1   8
TORSDOF 9
ENDMDL
MODEL 8
REMARK VINA RESULT:    -3.470      2.294      4.034
REMARK INTER + INTRA:          -6.228
REMARK INTER:                  -5.627
REMARK INTRA:                  -0.601
REMARK UNBOUND:                -0.933
REMARK SMILES CCCCCCCCCCC(=O)[O-]
REMARK SMILES IDX 7 1 8 2 9 3 10 4 11 5 12 6 13 7 6 8 5 9 4 10 3 11 2 12 1 13
REMARK H PARENT
REMARK Flexibility Score: inf
ROOT
ATOM      1  C   UNL     1       2.854   2.967  -4.739  1.00  0.00     0.000 C 
ENDROOT
BRANCH   1   2
ATOM      2  C   UNL     1       2.162   1.672  -4.286  1.00  0.00     0.000 C 
BRANCH   2   3
ATOM      3  C   UNL     1       2.663   0.434  -5.050  1.00  0.00     0.006 C 
BRANCH   3   4
ATOM      4  C   UNL     1       1.507  -0.404  -5.615  1.00  0.00     0.053 C 
BRANCH   4   5
ATOM      5  C   UNL     1       1.089  -1.488  -4.670  1.00  0.00     0.041 C 
ATOM      6  O   UNL     1       1.599  -2.636  -4.757  1.00  0.00    -0.550 OA
ATOM      7  O   UNL     1       0.114  -1.240  -3.711  1.00  0.00    -0.550 OA
ENDBRANCH   4   5
ENDBRANCH   3   4
ENDBRANCH   2   3
ENDBRANCH   1   2
BRANCH   1   8
ATOM      8  C   UNL     1       3.757   3.569  -3.649  1.00  0.00     0.000 C 
BRANCH   8   9
ATOM      9  C   UNL     1       4.468   4.851  -4.112  1.00  0.00    -0.000 C 
BRANCH   9  10
ATOM     10  C   UNL     1       3.995   6.101  -3.354  1.00  0.00    -0.000 C 
BRANCH  10  11
ATOM     11  C   UNL     1       2.789   6.743  -4.057  1.00  0.00    -0.000 C 
BRANCH  11  12
ATOM     12  C   UNL     1       2.901   6.688  -5.589  1.00  0.00    -0.003 C 
ATOM     13  C   UNL     1       1.611   6.215  -6.259  1.00  0.00     0.004 C 
ENDBRANCH  11  12
ENDBRANCH  10  11
ENDBRANCH   9  10
ENDBRANCH   8   9
ENDBRANCH   1   8
TORSDOF 9
ENDMDL
MODEL 9
REMARK VINA RESULT:    -3.390     13.399     15.392
REMARK INTER + INTRA:          -6.105
REMARK INTER:                  -5.484
REMARK INTRA:                  -0.622
REMARK UNBOUND:                -0.933
REMARK SMILES CCCCCCCCCCC(=O)[O-]
REMARK SMILES IDX 7 1 8 2 9 3 10 4 11 5 12 6 13 7 6 8 5 9 4 10 3 11 2 12 1 13
REMARK H PARENT
REMARK Flexibility Score: inf
ROOT
ATOM      1  C   UNL     1       7.245  -7.078   5.974  1.00  0.00     0.000 C 
ENDROOT
BRANCH   1   2
ATOM      2  C   UNL     1       6.944  -7.981   4.767  1.00  0.00     0.000 C 
BRANCH   2   3
ATOM      3  C   UNL     1       7.729  -7.570   3.509  1.00  0.00     0.006 C 
BRANCH   3   4
ATOM      4  C   UNL     1       9.001  -8.409   3.322  1.00  0.00     0.053 C 
BRANCH   4   5
ATOM      5  C   UNL     1       8.688  -9.812   2.901  1.00  0.00     0.041 C 
ATOM      6  O   UNL     1       8.686 -10.743   3.750  1.00  0.00    -0.550 OA
ATOM      7  O   UNL     1       8.428 -10.098   1.566  1.00  0.00    -0.550 OA
ENDBRANCH   4   5
ENDBRANCH   3   4
ENDBRANCH   2   3
ENDBRANCH   1   2
BRANCH   1   8
ATOM      8  C   UNL     1       8.360  -7.641   6.871  1.00  0.00     0.000 C 
BRANCH   8   9
ATOM      9  C   UNL     1       8.295  -9.172   7.003  1.00  0.00    -0.000 C 
BRANCH   9  10
ATOM     10  C   UNL     1       8.716  -9.667   8.395  1.00  0.00    -0.000 C 
BRANCH  10  11
ATOM     11  C   UNL     1       7.653 -10.606   8.985  1.00  0.00    -0.000 C 
BRANCH  11  12
ATOM     12  C   UNL     1       7.430 -10.375  10.488  1.00  0.00    -0.003 C 
ATOM     13  C   UNL     1       7.994  -9.039  10.971  1.00  0.00     0.004 C 
ENDBRANCH  11  12
ENDBRANCH  10  11
ENDBRANCH   9  10
ENDBRANCH   8   9
ENDBRANCH   1   8
TORSDOF 9
ENDMDL
