MODEL 1
REMARK VINA RESULT:    -5.534      0.000      0.000
REMARK INTER + INTRA:          -6.933
REMARK INTER:                  -6.504
REMARK INTRA:                  -0.429
REMARK UNBOUND:                -0.429
REMARK SMILES C=C[C@@]1(C)CC[C@@H](C(=C)C)C[C@@H]1C(=C)C
REMARK SMILES IDX 7 1 6 2 5 3 3 4 12 5 11 6 4 7 8 8 10 9 9 10 13 11 14 12
REMARK SMILES IDX 15 13 2 14 1 15
REMARK H PARENT
REMARK Flexibility Score: inf
ROOT
ATOM      1  C   UNL     1       1.340  14.127   3.156  1.00  0.00     0.015 C 
ATOM      2  C   UNL     1      -0.174  14.167   2.891  1.00  0.00     0.009 C 
ATOM      3  C   UNL     1      -0.520  15.081   1.705  1.00  0.00     0.012 C 
ATOM      4  C   UNL     1       0.227  14.695   0.393  1.00  0.00    -0.008 C 
ATOM      5  C   UNL     1       1.779  14.546   0.636  1.00  0.00     0.024 C 
ATOM      6  C   UNL     1       2.118  13.707   1.893  1.00  0.00     0.017 C 
ATOM      7  C   UNL     1      -0.075  15.781  -0.669  1.00  0.00     0.016 C 
ENDROOT
BRANCH   1   8
ATOM      8  C   UNL     1       1.669  13.214   4.333  1.00  0.00    -0.077 C 
ATOM      9  C   UNL     1       0.975  13.407   5.658  1.00  0.00     0.039 C 
ATOM     10  C   UNL     1       2.574  12.226   4.223  1.00  0.00     0.008 C 
ENDBRANCH   1   8
BRANCH   5  11
ATOM     11  C   UNL     1       2.610  15.838   0.547  1.00  0.00    -0.077 C 
ATOM     12  C   UNL     1       2.826  16.651   1.595  1.00  0.00     0.008 C 
ATOM     13  C   UNL     1       3.224  16.240  -0.773  1.00  0.00     0.039 C 
ENDBRANCH   5  11
BRANCH   4  14
ATOM     14  C   UNL     1      -0.353  13.368  -0.113  1.00  0.00    -0.028 C 
ATOM     15  C   UNL     1       0.224  12.627  -1.072  1.00  0.00     0.004 C 
ENDBRANCH   4  14
TORSDOF 3
ENDMDL
MODEL 2
REMARK VINA RESULT:    -5.031      1.193      1.830
REMARK INTER + INTRA:          -6.342
REMARK INTER:                  -6.763
REMARK INTRA:                   0.421
REMARK UNBOUND:                -0.429
REMARK SMILES C=C[C@@]1(C)CC[C@@H](C(=C)C)C[C@@H]1C(=C)C
REMARK SMILES IDX 7 1 6 2 5 3 3 4 12 5 11 6 4 7 8 8 10 9 9 10 13 11 14 12
REMARK SMILES IDX 15 13 2 14 1 15
REMARK H PARENT
REMARK Flexibility Score: inf
ROOT
ATOM      1  C   UNL     1       1.034  14.106   4.014  1.00  0.00     0.015 C 
ATOM      2  C   UNL     1      -0.150  14.122   3.034  1.00  0.00     0.009 C 
ATOM      3  C   UNL     1       0.171  14.932   1.768  1.00  0.00     0.012 C 
ATOM      4  C   UNL     1       1.450  14.437   1.029  1.00  0.00    -0.008 C 
ATOM      5  C   UNL     1       2.675  14.312   2.018  1.00  0.00     0.024 C 
ATOM      6  C   UNL     1       2.316  13.582   3.336  1.00  0.00     0.017 C 
ATOM      7  C   UNL     1       1.756  15.429  -0.120  1.00  0.00     0.016 C 
ENDROOT
BRANCH   1   8
ATOM      8  C   UNL     1       0.703  13.296   5.264  1.00  0.00    -0.077 C 
ATOM      9  C   UNL     1       1.640  13.311   6.446  1.00  0.00     0.039 C 
ATOM     10  C   UNL     1      -0.417  12.557   5.344  1.00  0.00     0.008 C 
ENDBRANCH   1   8
BRANCH   5  11
ATOM     11  C   UNL     1       3.493  15.593   2.255  1.00  0.00    -0.077 C 
ATOM     12  C   UNL     1       3.197  16.774   1.688  1.00  0.00     0.008 C 
ATOM     13  C   UNL     1       4.698  15.550   3.166  1.00  0.00     0.039 C 
ENDBRANCH   5  11
BRANCH   4  14
ATOM     14  C   UNL     1       1.143  13.071   0.402  1.00  0.00    -0.028 C 
ATOM     15  C   UNL     1       0.732  12.915  -0.865  1.00  0.00     0.004 C 
ENDBRANCH   4  14
TORSDOF 3
ENDMDL
MODEL 3
REMARK VINA RESULT:    -5.002      1.188      4.185
REMARK INTER + INTRA:          -6.308
REMARK INTER:                  -5.844
REMARK INTRA:                  -0.464
REMARK UNBOUND:                -0.429
REMARK SMILES C=C[C@@]1(C)CC[C@@H](C(=C)C)C[C@@H]1C(=C)C
REMARK SMILES IDX 7 1 6 2 5 3 3 4 12 5 11 6 4 7 8 8 10 9 9 10 13 11 14 12
REMARK SMILES IDX 15 13 2 14 1 15
REMARK H PARENT
REMARK Flexibility Score: inf
ROOT
ATOM      1  C   UNL     1      -0.157  13.872   0.269  1.00  0.00     0.015 C 
ATOM      2  C   UNL     1      -0.137  15.304  -0.291  1.00  0.00     0.009 C 
ATOM      3  C   UNL     1       0.778  16.224   0.532  1.00  0.00     0.012 C 
ATOM      4  C   UNL     1       2.237  15.693   0.651  1.00  0.00    -0.008 C 
ATOM      5  C   UNL     1       2.265  14.190   1.133  1.00  0.00     0.024 C 
ATOM      6  C   UNL     1       1.266  13.289   0.366  1.00  0.00     0.017 C 
ATOM      7  C   UNL     1       3.005  16.612   1.633  1.00  0.00     0.016 C 
ENDROOT
BRANCH   1   8
ATOM      8  C   UNL     1      -1.066  12.970  -0.559  1.00  0.00    -0.077 C 
ATOM      9  C   UNL     1      -2.521  12.816  -0.189  1.00  0.00     0.039 C 
ATOM     10  C   UNL     1      -0.603  12.295  -1.625  1.00  0.00     0.008 C 
ENDBRANCH   1   8
BRANCH   5  11
ATOM     11  C   UNL     1       2.221  13.961   2.654  1.00  0.00    -0.077 C 
ATOM     12  C   UNL     1       1.095  14.053   3.382  1.00  0.00     0.008 C 
ATOM     13  C   UNL     1       3.492  13.615   3.394  1.00  0.00     0.039 C 
ENDBRANCH   5  11
BRANCH   4  14
ATOM     14  C   UNL     1       2.904  15.813  -0.725  1.00  0.00    -0.028 C 
ATOM     15  C   UNL     1       3.046  16.976  -1.378  1.00  0.00     0.004 C 
ENDBRANCH   4  14
TORSDOF 3
ENDMDL
MODEL 4
REMARK VINA RESULT:    -4.977      2.640      5.368
REMARK INTER + INTRA:          -6.279
REMARK INTER:                  -6.288
REMARK INTRA:                   0.009
REMARK UNBOUND:                -0.429
REMARK SMILES C=C[C@@]1(C)CC[C@@H](C(=C)C)C[C@@H]1C(=C)C
REMARK SMILES IDX 7 1 6 2 5 3 3 4 12 5 11 6 4 7 8 8 10 9 9 10 13 11 14 12
REMARK SMILES IDX 15 13 2 14 1 15
REMARK H PARENT
REMARK Flexibility Score: inf
ROOT
ATOM      1  C   UNL     1      -1.986  13.700   5.389  1.00  0.00     0.015 C 
ATOM      2  C   UNL     1      -1.437  12.489   6.161  1.00  0.00     0.009 C 
ATOM      3  C   UNL     1      -0.245  11.845   5.435  1.00  0.00     0.012 C 
ATOM      4  C   UNL     1       0.913  12.847   5.148  1.00  0.00    -0.008 C 
ATOM      5  C   UNL     1       0.382  14.154   4.440  1.00  0.00     0.024 C 
ATOM      6  C   UNL     1      -0.881  14.739   5.118  1.00  0.00     0.017 C 
ATOM      7  C   UNL     1       1.969  12.124   4.275  1.00  0.00     0.016 C 
ENDROOT
BRANCH   1   8
ATOM      8  C   UNL     1      -3.166  14.330   6.122  1.00  0.00    -0.077 C 
ATOM      9  C   UNL     1      -4.143  13.460   6.873  1.00  0.00     0.039 C 
ATOM     10  C   UNL     1      -3.366  15.660   6.117  1.00  0.00     0.008 C 
ENDBRANCH   1   8
BRANCH   5  11
ATOM     11  C   UNL     1       0.257  14.096   2.907  1.00  0.00    -0.077 C 
ATOM     12  C   UNL     1      -0.921  14.107   2.261  1.00  0.00     0.008 C 
ATOM     13  C   UNL     1       1.505  14.020   2.060  1.00  0.00     0.039 C 
ENDBRANCH   5  11
BRANCH   4  14
ATOM     14  C   UNL     1       1.576  13.208   6.483  1.00  0.00    -0.028 C 
ATOM     15  C   UNL     1       2.832  13.666   6.586  1.00  0.00     0.004 C 
ENDBRANCH   4  14
TORSDOF 3
ENDMDL
MODEL 5
REMARK VINA RESULT:    -4.884      1.208      4.510
REMARK INTER + INTRA:          -6.170
REMARK INTER:                  -5.940
REMARK INTRA:                  -0.230
REMARK UNBOUND:                -0.429
REMARK SMILES C=C[C@@]1(C)CC[C@@H](C(=C)C)C[C@@H]1C(=C)C
REMARK SMILES IDX 7 1 6 2 5 3 3 4 12 5 11 6 4 7 8 8 10 9 9 10 13 11 14 12
REMARK SMILES IDX 15 13 2 14 1 15
REMARK H PARENT
REMARK Flexibility Score: inf
ROOT
ATOM      1  C   UNL     1       0.416  14.761  -0.547  1.00  0.00     0.015 C 
ATOM      2  C   UNL     1       0.464  13.392   0.152  1.00  0.00     0.009 C 
ATOM      3  C   UNL     1       1.700  13.257   1.055  1.00  0.00     0.012 C 
ATOM      4  C   UNL     1       1.808  14.388   2.121  1.00  0.00    -0.008 C 
ATOM      5  C   UNL     1       1.668  15.816   1.463  1.00  0.00     0.024 C 
ATOM      6  C   UNL     1       0.479  15.914   0.475  1.00  0.00     0.017 C 
ATOM      7  C   UNL     1       3.168  14.236   2.848  1.00  0.00     0.016 C 
ENDROOT
BRANCH   1   8
ATOM      8  C   UNL     1      -0.816  14.882  -1.437  1.00  0.00    -0.077 C 
ATOM      9  C   UNL     1      -1.394  13.657  -2.102  1.00  0.00     0.039 C 
ATOM     10  C   UNL     1      -1.413  16.068  -1.651  1.00  0.00     0.008 C 
ENDBRANCH   1   8
BRANCH   5  11
ATOM     11  C   UNL     1       2.958  16.436   0.897  1.00  0.00    -0.077 C 
ATOM     12  C   UNL     1       3.312  16.352  -0.397  1.00  0.00     0.008 C 
ATOM     13  C   UNL     1       3.895  17.179   1.820  1.00  0.00     0.039 C 
ENDBRANCH   5  11
BRANCH   4  14
ATOM     14  C   UNL     1       0.696  14.179   3.156  1.00  0.00    -0.028 C 
ATOM     15  C   UNL     1       0.916  13.713   4.395  1.00  0.00     0.004 C 
ENDBRANCH   4  14
TORSDOF 3
ENDMDL
MODEL 6
REMARK VINA RESULT:    -4.812      2.707      5.026
REMARK INTER + INTRA:          -6.085
REMARK INTER:                  -6.703
REMARK INTRA:                   0.618
REMARK UNBOUND:                -0.429
REMARK SMILES C=C[C@@]1(C)CC[C@@H](C(=C)C)C[C@@H]1C(=C)C
REMARK SMILES IDX 7 1 6 2 5 3 3 4 12 5 11 6 4 7 8 8 10 9 9 10 13 11 14 12
REMARK SMILES IDX 15 13 2 14 1 15
REMARK H PARENT
REMARK Flexibility Score: inf
ROOT
ATOM      1  C   UNL     1       1.937  13.658   4.501  1.00  0.00     0.015 C 
ATOM      2  C   UNL     1       1.728  13.606   6.023  1.00  0.00     0.009 C 
ATOM      3  C   UNL     1       0.318  14.073   6.420  1.00  0.00     0.012 C 
ATOM      4  C   UNL     1      -0.816  13.272   5.713  1.00  0.00    -0.008 C 
ATOM      5  C   UNL     1      -0.593  13.214   4.151  1.00  0.00     0.024 C 
ATOM      6  C   UNL     1       0.859  12.842   3.760  1.00  0.00     0.017 C 
ATOM      7  C   UNL     1      -2.168  13.941   6.063  1.00  0.00     0.016 C 
ENDROOT
BRANCH   1   8
ATOM      8  C   UNL     1       3.338  13.190   4.122  1.00  0.00    -0.077 C 
ATOM      9  C   UNL     1       4.429  14.198   3.862  1.00  0.00     0.039 C 
ATOM     10  C   UNL     1       3.635  11.883   4.008  1.00  0.00     0.008 C 
ENDBRANCH   1   8
BRANCH   5  11
ATOM     11  C   UNL     1      -1.137  14.403   3.340  1.00  0.00    -0.077 C 
ATOM     12  C   UNL     1      -0.557  14.858   2.216  1.00  0.00     0.008 C 
ATOM     13  C   UNL     1      -2.383  15.117   3.808  1.00  0.00     0.039 C 
ENDBRANCH   5  11
BRANCH   4  14
ATOM     14  C   UNL     1      -0.831  11.851   6.291  1.00  0.00    -0.028 C 
ATOM     15  C   UNL     1      -1.782  11.402   7.124  1.00  0.00     0.004 C 
ENDBRANCH   4  14
TORSDOF 3
ENDMDL
MODEL 7
REMARK VINA RESULT:    -4.809      1.266      3.419
REMARK INTER + INTRA:          -6.081
REMARK INTER:                  -6.033
REMARK INTRA:                  -0.048
REMARK UNBOUND:                -0.429
REMARK SMILES C=C[C@@]1(C)CC[C@@H](C(=C)C)C[C@@H]1C(=C)C
REMARK SMILES IDX 7 1 6 2 5 3 3 4 12 5 11 6 4 7 8 8 10 9 9 10 13 11 14 12
REMARK SMILES IDX 15 13 2 14 1 15
REMARK H PARENT
REMARK Flexibility Score: inf
ROOT
ATOM      1  C   UNL     1       0.732  13.076   3.787  1.00  0.00     0.015 C 
ATOM      2  C   UNL     1       2.166  12.822   3.292  1.00  0.00     0.009 C 
ATOM      3  C   UNL     1       2.322  13.165   1.802  1.00  0.00     0.012 C 
ATOM      4  C   UNL     1       1.906  14.627   1.461  1.00  0.00    -0.008 C 
ATOM      5  C   UNL     1       0.475  14.968   2.034  1.00  0.00     0.024 C 
ATOM      6  C   UNL     1       0.292  14.527   3.507  1.00  0.00     0.017 C 
ATOM      7  C   UNL     1       1.949  14.792  -0.078  1.00  0.00     0.016 C 
ENDROOT
BRANCH   1   8
ATOM      8  C   UNL     1       0.592  12.735   5.267  1.00  0.00    -0.077 C 
ATOM      9  C   UNL     1      -0.576  11.911   5.747  1.00  0.00     0.039 C 
ATOM     10  C   UNL     1       1.494  13.155   6.172  1.00  0.00     0.008 C 
ENDBRANCH   1   8
BRANCH   5  11
ATOM     11  C   UNL     1      -0.723  14.583   1.148  1.00  0.00    -0.077 C 
ATOM     12  C   UNL     1      -0.740  13.493   0.362  1.00  0.00     0.008 C 
ATOM     13  C   UNL     1      -1.955  15.456   1.140  1.00  0.00     0.039 C 
ENDBRANCH   5  11
BRANCH   4  14
ATOM     14  C   UNL     1       2.950  15.575   2.065  1.00  0.00    -0.028 C 
ATOM     15  C   UNL     1       3.365  16.699   1.462  1.00  0.00     0.004 C 
ENDBRANCH   4  14
TORSDOF 3
ENDMDL
MODEL 8
REMARK VINA RESULT:    -4.705      1.384      3.425
REMARK INTER + INTRA:          -5.959
REMARK INTER:                  -5.430
REMARK INTRA:                  -0.530
REMARK UNBOUND:                -0.429
REMARK SMILES C=C[C@@]1(C)CC[C@@H](C(=C)C)C[C@@H]1C(=C)C
REMARK SMILES IDX 7 1 6 2 5 3 3 4 12 5 11 6 4 7 8 8 10 9 9 10 13 11 14 12
REMARK SMILES IDX 15 13 2 14 1 15
REMARK H PARENT
REMARK Flexibility Score: inf
ROOT
ATOM      1  C   UNL     1       1.390  14.143   1.798  1.00  0.00     0.015 C 
ATOM      2  C   UNL     1       1.712  15.583   1.363  1.00  0.00     0.009 C 
ATOM      3  C   UNL     1       1.191  15.878  -0.053  1.00  0.00     0.012 C 
ATOM      4  C   UNL     1      -0.336  15.616  -0.213  1.00  0.00    -0.008 C 
ATOM      5  C   UNL     1      -0.733  14.181   0.312  1.00  0.00     0.024 C 
ATOM      6  C   UNL     1      -0.120  13.852   1.696  1.00  0.00     0.017 C 
ATOM      7  C   UNL     1      -0.699  15.787  -1.709  1.00  0.00     0.016 C 
ENDROOT
BRANCH   1   8
ATOM      8  C   UNL     1       1.910  13.865   3.205  1.00  0.00    -0.077 C 
ATOM      9  C   UNL     1       3.393  13.772   3.460  1.00  0.00     0.039 C 
ATOM     10  C   UNL     1       1.071  13.696   4.243  1.00  0.00     0.008 C 
ENDBRANCH   1   8
BRANCH   5  11
ATOM     11  C   UNL     1      -0.585  13.024  -0.691  1.00  0.00    -0.077 C 
ATOM     12  C   UNL     1       0.601  12.496  -1.040  1.00  0.00     0.008 C 
ATOM     13  C   UNL     1      -1.817  12.431  -1.333  1.00  0.00     0.039 C 
ENDBRANCH   5  11
BRANCH   4  14
ATOM     14  C   UNL     1      -1.092  16.690   0.580  1.00  0.00    -0.028 C 
ATOM     15  C   UNL     1      -2.425  16.698   0.729  1.00  0.00     0.004 C 
ENDBRANCH   4  14
TORSDOF 3
ENDMDL
MODEL 9
REMARK VINA RESULT:    -4.633      1.339      3.097
REMARK INTER + INTRA:          -5.874
REMARK INTER:                  -5.338
REMARK INTRA:                  -0.537
REMARK UNBOUND:                -0.429
REMARK SMILES C=C[C@@]1(C)CC[C@@H](C(=C)C)C[C@@H]1C(=C)C
REMARK SMILES IDX 7 1 6 2 5 3 3 4 12 5 11 6 4 7 8 8 10 9 9 10 13 11 14 12
REMARK SMILES IDX 15 13 2 14 1 15
REMARK H PARENT
REMARK Flexibility Score: inf
ROOT
ATOM      1  C   UNL     1       1.487  13.757   2.371  1.00  0.00     0.015 C 
ATOM      2  C   UNL     1       2.070  12.989   1.174  1.00  0.00     0.009 C 
ATOM      3  C   UNL     1       1.217  13.174  -0.091  1.00  0.00     0.012 C 
ATOM      4  C   UNL     1       1.014  14.669  -0.482  1.00  0.00    -0.008 C 
ATOM      5  C   UNL     1       0.506  15.521   0.746  1.00  0.00     0.024 C 
ATOM      6  C   UNL     1       1.308  15.252   2.044  1.00  0.00     0.017 C 
ATOM      7  C   UNL     1       0.010  14.726  -1.660  1.00  0.00     0.016 C 
ENDROOT
BRANCH   1   8
ATOM      8  C   UNL     1       2.345  13.566   3.618  1.00  0.00    -0.077 C 
ATOM      9  C   UNL     1       3.849  13.534   3.505  1.00  0.00     0.039 C 
ATOM     10  C   UNL     1       1.792  13.423   4.835  1.00  0.00     0.008 C 
ENDBRANCH   1   8
BRANCH   5  11
ATOM     11  C   UNL     1      -1.014  15.536   0.983  1.00  0.00    -0.077 C 
ATOM     12  C   UNL     1      -1.684  14.517   1.548  1.00  0.00     0.008 C 
ATOM     13  C   UNL     1      -1.823  16.742   0.567  1.00  0.00     0.039 C 
ENDBRANCH   5  11
BRANCH   4  14
ATOM     14  C   UNL     1       2.356  15.219  -0.981  1.00  0.00    -0.028 C 
ATOM     15  C   UNL     1       2.605  16.528  -1.141  1.00  0.00     0.004 C 
ENDBRANCH   4  14
TORSDOF 3
ENDMDL
