MODEL 1
REMARK VINA RESULT:    -3.990      0.000      0.000
REMARK INTER + INTRA:          -3.925
REMARK INTER:                  -4.223
REMARK INTRA:                   0.298
REMARK UNBOUND:                 0.298
REMARK SMILES CC1=C[C@@H]2C(=C(C)CC[C@H]2C(C)C)CC1
REMARK SMILES IDX 1 1 2 2 3 3 4 4 10 5 9 6 8 7 6 8 5 9 14 10 15 11 7 12 11 13
REMARK SMILES IDX 12 14 13 15
REMARK H PARENT
REMARK Flexibility Score: inf
ROOT
ATOM      1  C   UNL     1     137.935 137.558 119.643  1.00  0.00     0.039 C 
ATOM      2  C   UNL     1     138.117 137.263 121.107  1.00  0.00    -0.076 C 
ATOM      3  C   UNL     1     137.474 138.023 122.019  1.00  0.00    -0.020 C 
ATOM      4  C   UNL     1     137.620 137.859 123.529  1.00  0.00     0.041 C 
ATOM      5  C   UNL     1     136.241 137.745 124.253  1.00  0.00     0.003 C 
ATOM      6  C   UNL     1     136.514 137.520 125.753  1.00  0.00     0.009 C 
ATOM      7  C   UNL     1     137.252 136.206 125.983  1.00  0.00     0.031 C 
ATOM      8  C   UNL     1     138.427 135.996 125.054  1.00  0.00    -0.073 C 
ATOM      9  C   UNL     1     138.547 136.688 123.881  1.00  0.00    -0.064 C 
ATOM     10  C   UNL     1     139.648 136.399 122.881  1.00  0.00     0.036 C 
ATOM     11  C   UNL     1     139.004 136.116 121.530  1.00  0.00     0.035 C 
ATOM     12  C   UNL     1     139.372 134.875 125.419  1.00  0.00     0.039 C 
ENDROOT
BRANCH   5  13
ATOM     13  C   UNL     1     135.246 138.953 124.085  1.00  0.00    -0.013 C 
ATOM     14  C   UNL     1     135.673 140.236 124.815  1.00  0.00     0.007 C 
ATOM     15  C   UNL     1     134.875 139.235 122.618  1.00  0.00     0.007 C 
ENDBRANCH   5  13
TORSDOF 1
ENDMDL
MODEL 2
REMARK VINA RESULT:    -2.254      0.973      4.445
REMARK INTER + INTRA:          -2.088
REMARK INTER:                  -2.497
REMARK INTRA:                   0.409
REMARK UNBOUND:                 0.298
REMARK SMILES CC1=C[C@@H]2C(=C(C)CC[C@H]2C(C)C)CC1
REMARK SMILES IDX 1 1 2 2 3 3 4 4 10 5 9 6 8 7 6 8 5 9 14 10 15 11 7 12 11 13
REMARK SMILES IDX 12 14 13 15
REMARK H PARENT
REMARK Flexibility Score: inf
ROOT
ATOM      1  C   UNL     1     134.875 139.447 124.874  1.00  0.00     0.039 C 
ATOM      2  C   UNL     1     135.893 138.765 123.999  1.00  0.00    -0.076 C 
ATOM      3  C   UNL     1     136.694 137.818 124.533  1.00  0.00    -0.020 C 
ATOM      4  C   UNL     1     137.797 137.097 123.765  1.00  0.00     0.041 C 
ATOM      5  C   UNL     1     137.697 135.544 123.896  1.00  0.00     0.003 C 
ATOM      6  C   UNL     1     138.816 134.926 123.034  1.00  0.00     0.009 C 
ATOM      7  C   UNL     1     138.622 135.266 121.561  1.00  0.00     0.031 C 
ATOM      8  C   UNL     1     138.315 136.726 121.307  1.00  0.00    -0.073 C 
ATOM      9  C   UNL     1     137.847 137.543 122.298  1.00  0.00    -0.064 C 
ATOM     10  C   UNL     1     137.417 138.971 122.031  1.00  0.00     0.036 C 
ATOM     11  C   UNL     1     135.991 139.143 122.540  1.00  0.00     0.035 C 
ATOM     12  C   UNL     1     138.408 137.186 119.871  1.00  0.00     0.039 C 
ENDROOT
BRANCH   5  13
ATOM     13  C   UNL     1     137.775 134.945 125.349  1.00  0.00    -0.013 C 
ATOM     14  C   UNL     1     139.195 134.875 125.934  1.00  0.00     0.007 C 
ATOM     15  C   UNL     1     136.791 135.605 126.331  1.00  0.00     0.007 C 
ENDBRANCH   5  13
TORSDOF 1
ENDMDL
MODEL 3
REMARK VINA RESULT:    -2.251      0.985      3.917
REMARK INTER + INTRA:          -2.085
REMARK INTER:                  -2.271
REMARK INTRA:                   0.186
REMARK UNBOUND:                 0.298
REMARK SMILES CC1=C[C@@H]2C(=C(C)CC[C@H]2C(C)C)CC1
REMARK SMILES IDX 1 1 2 2 3 3 4 4 10 5 9 6 8 7 6 8 5 9 14 10 15 11 7 12 11 13
REMARK SMILES IDX 12 14 13 15
REMARK H PARENT
REMARK Flexibility Score: inf
ROOT
ATOM      1  C   UNL     1     135.037 139.979 124.093  1.00  0.00     0.039 C 
ATOM      2  C   UNL     1     135.926 138.764 124.092  1.00  0.00    -0.076 C 
ATOM      3  C   UNL     1     136.253 138.187 122.916  1.00  0.00    -0.020 C 
ATOM      4  C   UNL     1     137.099 136.923 122.787  1.00  0.00     0.041 C 
ATOM      5  C   UNL     1     138.287 137.100 121.789  1.00  0.00     0.003 C 
ATOM      6  C   UNL     1     139.100 135.791 121.790  1.00  0.00     0.009 C 
ATOM      7  C   UNL     1     139.704 135.523 123.164  1.00  0.00     0.031 C 
ATOM      8  C   UNL     1     138.726 135.700 124.305  1.00  0.00    -0.073 C 
ATOM      9  C   UNL     1     137.575 136.422 124.157  1.00  0.00    -0.064 C 
ATOM     10  C   UNL     1     136.649 136.713 125.321  1.00  0.00     0.036 C 
ATOM     11  C   UNL     1     136.445 138.221 125.402  1.00  0.00     0.035 C 
ATOM     12  C   UNL     1     139.166 135.166 125.648  1.00  0.00     0.039 C 
ENDROOT
BRANCH   5  13
ATOM     13  C   UNL     1     137.921 137.479 120.306  1.00  0.00    -0.013 C 
ATOM     14  C   UNL     1     137.312 138.880 120.137  1.00  0.00     0.007 C 
ATOM     15  C   UNL     1     139.077 137.242 119.317  1.00  0.00     0.007 C 
ENDBRANCH   5  13
TORSDOF 1
ENDMDL
MODEL 4
REMARK VINA RESULT:    -1.949     14.014     16.380
REMARK INTER + INTRA:          -1.765
REMARK INTER:                  -1.843
REMARK INTRA:                   0.077
REMARK UNBOUND:                 0.298
REMARK SMILES CC1=C[C@@H]2C(=C(C)CC[C@H]2C(C)C)CC1
REMARK SMILES IDX 1 1 2 2 3 3 4 4 10 5 9 6 8 7 6 8 5 9 14 10 15 11 7 12 11 13
REMARK SMILES IDX 12 14 13 15
REMARK H PARENT
REMARK Flexibility Score: inf
ROOT
ATOM      1  C   UNL     1     150.650 134.876 124.064  1.00  0.00     0.039 C 
ATOM      2  C   UNL     1     151.812 135.831 124.124  1.00  0.00    -0.076 C 
ATOM      3  C   UNL     1     152.441 136.178 122.980  1.00  0.00    -0.020 C 
ATOM      4  C   UNL     1     153.661 137.091 122.916  1.00  0.00     0.041 C 
ATOM      5  C   UNL     1     153.480 138.258 121.894  1.00  0.00     0.003 C 
ATOM      6  C   UNL     1     154.740 139.143 121.962  1.00  0.00     0.009 C 
ATOM      7  C   UNL     1     154.890 139.774 123.342  1.00  0.00     0.031 C 
ATOM      8  C   UNL     1     154.699 138.799 124.483  1.00  0.00    -0.073 C 
ATOM      9  C   UNL     1     154.052 137.609 124.307  1.00  0.00    -0.064 C 
ATOM     10  C   UNL     1     153.741 136.680 125.464  1.00  0.00     0.036 C 
ATOM     11  C   UNL     1     152.245 136.392 125.457  1.00  0.00     0.035 C 
ATOM     12  C   UNL     1     155.125 139.282 125.849  1.00  0.00     0.039 C 
ENDROOT
BRANCH   5  13
ATOM     13  C   UNL     1     153.213 137.857 120.396  1.00  0.00    -0.013 C 
ATOM     14  C   UNL     1     151.796 137.328 120.120  1.00  0.00     0.007 C 
ATOM     15  C   UNL     1     153.611 138.955 119.393  1.00  0.00     0.007 C 
ENDBRANCH   5  13
TORSDOF 1
ENDMDL
MODEL 5
REMARK VINA RESULT:    -1.531     14.353     16.076
REMARK INTER + INTRA:          -1.323
REMARK INTER:                  -1.303
REMARK INTRA:                  -0.020
REMARK UNBOUND:                 0.298
REMARK SMILES CC1=C[C@@H]2C(=C(C)CC[C@H]2C(C)C)CC1
REMARK SMILES IDX 1 1 2 2 3 3 4 4 10 5 9 6 8 7 6 8 5 9 14 10 15 11 7 12 11 13
REMARK SMILES IDX 12 14 13 15
REMARK H PARENT
REMARK Flexibility Score: inf
ROOT
ATOM      1  C   UNL     1     139.672 155.125 125.240  1.00  0.00     0.039 C 
ATOM      2  C   UNL     1     138.910 154.310 124.229  1.00  0.00    -0.076 C 
ATOM      3  C   UNL     1     137.925 153.489 124.651  1.00  0.00    -0.020 C 
ATOM      4  C   UNL     1     137.120 152.574 123.733  1.00  0.00     0.041 C 
ATOM      5  C   UNL     1     135.579 152.743 123.925  1.00  0.00     0.003 C 
ATOM      6  C   UNL     1     134.875 151.822 122.909  1.00  0.00     0.009 C 
ATOM      7  C   UNL     1     135.198 152.239 121.479  1.00  0.00     0.031 C 
ATOM      8  C   UNL     1     136.668 152.497 121.236  1.00  0.00    -0.073 C 
ATOM      9  C   UNL     1     137.533 152.743 122.266  1.00  0.00    -0.064 C 
ATOM     10  C   UNL     1     138.980 153.127 122.031  1.00  0.00     0.036 C 
ATOM     11  C   UNL     1     139.252 154.435 122.764  1.00  0.00     0.035 C 
ATOM     12  C   UNL     1     137.093 152.618 119.791  1.00  0.00     0.039 C 
ENDROOT
BRANCH   5  13
ATOM     13  C   UNL     1     135.005 152.458 125.363  1.00  0.00    -0.013 C 
ATOM     14  C   UNL     1     135.477 151.136 125.988  1.00  0.00     0.007 C 
ATOM     15  C   UNL     1     135.187 153.639 126.334  1.00  0.00     0.007 C 
ENDBRANCH   5  13
TORSDOF 1
ENDMDL
MODEL 6
REMARK VINA RESULT:    -1.325      1.128      3.621
REMARK INTER + INTRA:          -1.105
REMARK INTER:                  -0.993
REMARK INTRA:                  -0.112
REMARK UNBOUND:                 0.298
REMARK SMILES CC1=C[C@@H]2C(=C(C)CC[C@H]2C(C)C)CC1
REMARK SMILES IDX 1 1 2 2 3 3 4 4 10 5 9 6 8 7 6 8 5 9 14 10 15 11 7 12 11 13
REMARK SMILES IDX 12 14 13 15
REMARK H PARENT
REMARK Flexibility Score: inf
ROOT
ATOM      1  C   UNL     1     139.268 134.884 125.998  1.00  0.00     0.039 C 
ATOM      2  C   UNL     1     138.866 135.449 124.663  1.00  0.00    -0.076 C 
ATOM      3  C   UNL     1     137.728 136.171 124.567  1.00  0.00    -0.020 C 
ATOM      4  C   UNL     1     137.187 136.747 123.262  1.00  0.00     0.041 C 
ATOM      5  C   UNL     1     136.859 138.270 123.374  1.00  0.00     0.003 C 
ATOM      6  C   UNL     1     136.384 138.752 121.989  1.00  0.00     0.009 C 
ATOM      7  C   UNL     1     137.489 138.606 120.951  1.00  0.00     0.031 C 
ATOM      8  C   UNL     1     138.185 137.262 120.985  1.00  0.00    -0.073 C 
ATOM      9  C   UNL     1     138.122 136.451 122.083  1.00  0.00    -0.064 C 
ATOM     10  C   UNL     1     138.915 135.163 122.182  1.00  0.00     0.036 C 
ATOM     11  C   UNL     1     139.745 135.210 123.459  1.00  0.00     0.035 C 
ATOM     12  C   UNL     1     139.072 136.942 119.805  1.00  0.00     0.039 C 
ENDROOT
BRANCH   5  13
ATOM     13  C   UNL     1     135.800 138.694 124.459  1.00  0.00    -0.013 C 
ATOM     14  C   UNL     1     136.390 138.979 125.849  1.00  0.00     0.007 C 
ATOM     15  C   UNL     1     134.876 139.833 123.993  1.00  0.00     0.007 C 
ENDBRANCH   5  13
TORSDOF 1
ENDMDL
