MODEL 1
REMARK VINA RESULT:    -4.391      0.000      0.000
REMARK INTER + INTRA:          -7.095
REMARK INTER:                  -6.702
REMARK INTRA:                  -0.393
REMARK UNBOUND:                -0.393
REMARK SMILES CCCCCCCCCCC(=O)[O-]
REMARK SMILES IDX 7 1 8 2 9 3 10 4 11 5 12 6 13 7 6 8 5 9 4 10 3 11 2 12 1 13
REMARK H PARENT
REMARK Flexibility Score: inf
ROOT
ATOM      1  C   UNL     1     -12.853   2.082 -20.915  1.00  0.00     0.000 C 
ENDROOT
BRANCH   1   2
ATOM      2  C   UNL     1     -11.630   1.149 -20.966  1.00  0.00     0.000 C 
BRANCH   2   3
ATOM      3  C   UNL     1     -10.347   1.876 -21.412  1.00  0.00     0.006 C 
BRANCH   3   4
ATOM      4  C   UNL     1      -9.378   2.212 -20.268  1.00  0.00     0.053 C 
BRANCH   4   5
ATOM      5  C   UNL     1      -8.261   1.220 -20.168  1.00  0.00     0.041 C 
ATOM      6  O   UNL     1      -7.067   1.615 -20.098  1.00  0.00    -0.550 OA
ATOM      7  O   UNL     1      -8.535  -0.141 -20.185  1.00  0.00    -0.550 OA
ENDBRANCH   4   5
ENDBRANCH   3   4
ENDBRANCH   2   3
ENDBRANCH   1   2
BRANCH   1   8
ATOM      8  C   UNL     1     -13.359   2.466 -22.316  1.00  0.00     0.000 C 
BRANCH   8   9
ATOM      9  C   UNL     1     -14.699   3.220 -22.271  1.00  0.00    -0.000 C 
BRANCH   9  10
ATOM     10  C   UNL     1     -14.526   4.739 -22.097  1.00  0.00    -0.000 C 
BRANCH  10  11
ATOM     11  C   UNL     1     -13.926   5.471 -23.311  1.00  0.00    -0.000 C 
BRANCH  11  12
ATOM     12  C   UNL     1     -14.696   5.204 -24.613  1.00  0.00    -0.003 C 
ATOM     13  C   UNL     1     -15.727   6.297 -24.874  1.00  0.00     0.004 C 
ENDBRANCH  11  12
ENDBRANCH  10  11
ENDBRANCH   9  10
ENDBRANCH   8   9
ENDBRANCH   1   8
TORSDOF 9
ENDMDL
MODEL 2
REMARK VINA RESULT:    -4.381     14.051     15.290
REMARK INTER + INTRA:          -7.078
REMARK INTER:                  -6.429
REMARK INTRA:                  -0.649
REMARK UNBOUND:                -0.393
REMARK SMILES CCCCCCCCCCC(=O)[O-]
REMARK SMILES IDX 7 1 8 2 9 3 10 4 11 5 12 6 13 7 6 8 5 9 4 10 3 11 2 12 1 13
REMARK H PARENT
REMARK Flexibility Score: inf
ROOT
ATOM      1  C   UNL     1      -6.158   6.818 -34.210  1.00  0.00     0.000 C 
ENDROOT
BRANCH   1   2
ATOM      2  C   UNL     1      -5.069   7.903 -34.278  1.00  0.00     0.000 C 
BRANCH   2   3
ATOM      3  C   UNL     1      -4.198   7.792 -35.544  1.00  0.00     0.006 C 
BRANCH   3   4
ATOM      4  C   UNL     1      -2.930   8.660 -35.519  1.00  0.00     0.053 C 
BRANCH   4   5
ATOM      5  C   UNL     1      -1.767   7.936 -34.912  1.00  0.00     0.041 C 
ATOM      6  O   UNL     1      -1.502   8.076 -33.689  1.00  0.00    -0.550 OA
ATOM      7  O   UNL     1      -0.957   7.133 -35.704  1.00  0.00    -0.550 OA
ENDBRANCH   4   5
ENDBRANCH   3   4
ENDBRANCH   2   3
ENDBRANCH   1   2
BRANCH   1   8
ATOM      8  C   UNL     1      -6.694   6.611 -32.783  1.00  0.00     0.000 C 
BRANCH   8   9
ATOM      9  C   UNL     1      -7.839   5.585 -32.727  1.00  0.00    -0.000 C 
BRANCH   9  10
ATOM     10  C   UNL     1      -8.696   5.574 -34.005  1.00  0.00    -0.000 C 
BRANCH  10  11
ATOM     11  C   UNL     1      -8.735   4.230 -34.754  1.00  0.00    -0.000 C 
BRANCH  11  12
ATOM     12  C   UNL     1      -7.541   3.324 -34.420  1.00  0.00    -0.003 C 
ATOM     13  C   UNL     1      -6.513   3.334 -35.548  1.00  0.00     0.004 C 
ENDBRANCH  11  12
ENDBRANCH  10  11
ENDBRANCH   9  10
ENDBRANCH   8   9
ENDBRANCH   1   8
TORSDOF 9
ENDMDL
MODEL 3
REMARK VINA RESULT:    -4.365     14.019     15.354
REMARK INTER + INTRA:          -7.054
REMARK INTER:                  -6.398
REMARK INTRA:                  -0.656
REMARK UNBOUND:                -0.393
REMARK SMILES CCCCCCCCCCC(=O)[O-]
REMARK SMILES IDX 7 1 8 2 9 3 10 4 11 5 12 6 13 7 6 8 5 9 4 10 3 11 2 12 1 13
REMARK H PARENT
REMARK Flexibility Score: inf
ROOT
ATOM      1  C   UNL     1      -8.178   5.216 -33.973  1.00  0.00     0.000 C 
ENDROOT
BRANCH   1   2
ATOM      2  C   UNL     1      -7.865   5.890 -32.625  1.00  0.00     0.000 C 
BRANCH   2   3
ATOM      3  C   UNL     1      -6.575   6.730 -32.666  1.00  0.00     0.006 C 
BRANCH   3   4
ATOM      4  C   UNL     1      -5.995   6.933 -34.075  1.00  0.00     0.053 C 
BRANCH   4   5
ATOM      5  C   UNL     1      -5.360   8.280 -34.232  1.00  0.00     0.041 C 
ATOM      6  O   UNL     1      -4.342   8.419 -34.960  1.00  0.00    -0.550 OA
ATOM      7  O   UNL     1      -5.873   9.375 -33.549  1.00  0.00    -0.550 OA
ENDBRANCH   4   5
ENDBRANCH   3   4
ENDBRANCH   2   3
ENDBRANCH   1   2
BRANCH   1   8
ATOM      8  C   UNL     1      -7.930   3.698 -33.943  1.00  0.00     0.000 C 
BRANCH   8   9
ATOM      9  C   UNL     1      -6.919   3.246 -35.011  1.00  0.00    -0.000 C 
BRANCH   9  10
ATOM     10  C   UNL     1      -6.937   4.135 -36.267  1.00  0.00    -0.000 C 
BRANCH  10  11
ATOM     11  C   UNL     1      -6.297   3.509 -37.519  1.00  0.00    -0.000 C 
BRANCH  11  12
ATOM     12  C   UNL     1      -4.941   2.848 -37.232  1.00  0.00    -0.003 C 
ATOM     13  C   UNL     1      -3.826   3.513 -38.034  1.00  0.00     0.004 C 
ENDBRANCH  11  12
ENDBRANCH  10  11
ENDBRANCH   9  10
ENDBRANCH   8   9
ENDBRANCH   1   8
TORSDOF 9
ENDMDL
MODEL 4
REMARK VINA RESULT:    -4.296      1.693      2.460
REMARK INTER + INTRA:          -6.948
REMARK INTER:                  -6.148
REMARK INTRA:                  -0.801
REMARK UNBOUND:                -0.393
REMARK SMILES CCCCCCCCCCC(=O)[O-]
REMARK SMILES IDX 7 1 8 2 9 3 10 4 11 5 12 6 13 7 6 8 5 9 4 10 3 11 2 12 1 13
REMARK H PARENT
REMARK Flexibility Score: inf
ROOT
ATOM      1  C   UNL     1     -14.775   2.640 -22.818  1.00  0.00     0.000 C 
ENDROOT
BRANCH   1   2
ATOM      2  C   UNL     1     -13.395   3.063 -22.281  1.00  0.00     0.000 C 
BRANCH   2   3
ATOM      3  C   UNL     1     -12.759   1.996 -21.371  1.00  0.00     0.006 C 
BRANCH   3   4
ATOM      4  C   UNL     1     -11.594   1.227 -22.013  1.00  0.00     0.053 C 
BRANCH   4   5
ATOM      5  C   UNL     1     -10.265   1.702 -21.514  1.00  0.00     0.041 C 
ATOM      6  O   UNL     1      -9.272   1.738 -22.289  1.00  0.00    -0.550 OA
ATOM      7  O   UNL     1     -10.113   2.075 -20.185  1.00  0.00    -0.550 OA
ENDBRANCH   4   5
ENDBRANCH   3   4
ENDBRANCH   2   3
ENDBRANCH   1   2
BRANCH   1   8
ATOM      8  C   UNL     1     -15.885   2.783 -21.764  1.00  0.00     0.000 C 
BRANCH   8   9
ATOM      9  C   UNL     1     -15.721   4.050 -20.905  1.00  0.00    -0.000 C 
BRANCH   9  10
ATOM     10  C   UNL     1     -16.539   5.241 -21.433  1.00  0.00    -0.000 C 
BRANCH  10  11
ATOM     11  C   UNL     1     -15.809   6.134 -22.452  1.00  0.00    -0.000 C 
BRANCH  11  12
ATOM     12  C   UNL     1     -16.434   6.077 -23.854  1.00  0.00    -0.003 C 
ATOM     13  C   UNL     1     -15.383   5.753 -24.911  1.00  0.00     0.004 C 
ENDBRANCH  11  12
ENDBRANCH  10  11
ENDBRANCH   9  10
ENDBRANCH   8   9
ENDBRANCH   1   8
TORSDOF 9
ENDMDL
MODEL 5
REMARK VINA RESULT:    -4.180      4.009      6.945
REMARK INTER + INTRA:          -6.772
REMARK INTER:                  -6.245
REMARK INTRA:                  -0.527
REMARK UNBOUND:                -0.393
REMARK SMILES CCCCCCCCCCC(=O)[O-]
REMARK SMILES IDX 7 1 8 2 9 3 10 4 11 5 12 6 13 7 6 8 5 9 4 10 3 11 2 12 1 13
REMARK H PARENT
REMARK Flexibility Score: inf
ROOT
ATOM      1  C   UNL     1     -14.416   2.581 -22.699  1.00  0.00     0.000 C 
ENDROOT
BRANCH   1   2
ATOM      2  C   UNL     1     -15.526   3.280 -21.894  1.00  0.00     0.000 C 
BRANCH   2   3
ATOM      3  C   UNL     1     -15.339   4.807 -21.826  1.00  0.00     0.006 C 
BRANCH   3   4
ATOM      4  C   UNL     1     -16.113   5.589 -22.899  1.00  0.00     0.053 C 
BRANCH   4   5
ATOM      5  C   UNL     1     -15.294   5.811 -24.133  1.00  0.00     0.041 C 
ATOM      6  O   UNL     1     -15.859   5.989 -25.244  1.00  0.00    -0.550 OA
ATOM      7  O   UNL     1     -13.908   5.789 -24.061  1.00  0.00    -0.550 OA
ENDBRANCH   4   5
ENDBRANCH   3   4
ENDBRANCH   2   3
ENDBRANCH   1   2
BRANCH   1   8
ATOM      8  C   UNL     1     -13.023   2.787 -22.081  1.00  0.00     0.000 C 
BRANCH   8   9
ATOM      9  C   UNL     1     -12.483   1.513 -21.408  1.00  0.00    -0.000 C 
BRANCH   9  10
ATOM     10  C   UNL     1     -11.317   0.874 -22.182  1.00  0.00    -0.000 C 
BRANCH  10  11
ATOM     11  C   UNL     1     -10.069   0.558 -21.339  1.00  0.00    -0.000 C 
BRANCH  11  12
ATOM     12  C   UNL     1      -9.076   1.728 -21.278  1.00  0.00    -0.003 C 
ATOM     13  C   UNL     1      -9.127   2.420 -19.919  1.00  0.00     0.004 C 
ENDBRANCH  11  12
ENDBRANCH  10  11
ENDBRANCH   9  10
ENDBRANCH   8   9
ENDBRANCH   1   8
TORSDOF 9
ENDMDL
MODEL 6
REMARK VINA RESULT:    -4.169     15.421     16.812
REMARK INTER + INTRA:          -6.755
REMARK INTER:                  -5.952
REMARK INTRA:                  -0.804
REMARK UNBOUND:                -0.393
REMARK SMILES CCCCCCCCCCC(=O)[O-]
REMARK SMILES IDX 7 1 8 2 9 3 10 4 11 5 12 6 13 7 6 8 5 9 4 10 3 11 2 12 1 13
REMARK H PARENT
REMARK Flexibility Score: inf
ROOT
ATOM      1  C   UNL     1      -4.690   6.670 -36.787  1.00  0.00     0.000 C 
ENDROOT
BRANCH   1   2
ATOM      2  C   UNL     1      -5.578   7.507 -35.849  1.00  0.00     0.000 C 
BRANCH   2   3
ATOM      3  C   UNL     1      -6.036   6.721 -34.606  1.00  0.00     0.006 C 
BRANCH   3   4
ATOM      4  C   UNL     1      -7.266   5.829 -34.838  1.00  0.00     0.053 C 
BRANCH   4   5
ATOM      5  C   UNL     1      -7.684   5.115 -33.590  1.00  0.00     0.041 C 
ATOM      6  O   UNL     1      -7.757   5.738 -32.498  1.00  0.00    -0.550 OA
ATOM      7  O   UNL     1      -7.962   3.755 -33.627  1.00  0.00    -0.550 OA
ENDBRANCH   4   5
ENDBRANCH   3   4
ENDBRANCH   2   3
ENDBRANCH   1   2
BRANCH   1   8
ATOM      8  C   UNL     1      -3.928   7.536 -37.804  1.00  0.00     0.000 C 
BRANCH   8   9
ATOM      9  C   UNL     1      -2.421   7.223 -37.832  1.00  0.00    -0.000 C 
BRANCH   9  10
ATOM     10  C   UNL     1      -1.624   8.025 -36.789  1.00  0.00    -0.000 C 
BRANCH  10  11
ATOM     11  C   UNL     1      -1.054   7.197 -35.623  1.00  0.00    -0.000 C 
BRANCH  11  12
ATOM     12  C   UNL     1      -1.359   7.810 -34.248  1.00  0.00    -0.003 C 
ATOM     13  C   UNL     1      -2.441   8.880 -34.352  1.00  0.00     0.004 C 
ENDBRANCH  11  12
ENDBRANCH  10  11
ENDBRANCH   9  10
ENDBRANCH   8   9
ENDBRANCH   1   8
TORSDOF 9
ENDMDL
MODEL 7
REMARK VINA RESULT:    -4.157     14.451     15.845
REMARK INTER + INTRA:          -6.736
REMARK INTER:                  -6.358
REMARK INTRA:                  -0.379
REMARK UNBOUND:                -0.393
REMARK SMILES CCCCCCCCCCC(=O)[O-]
REMARK SMILES IDX 7 1 8 2 9 3 10 4 11 5 12 6 13 7 6 8 5 9 4 10 3 11 2 12 1 13
REMARK H PARENT
REMARK Flexibility Score: inf
ROOT
ATOM      1  C   UNL     1      -6.024   6.662 -34.235  1.00  0.00     0.000 C 
ENDROOT
BRANCH   1   2
ATOM      2  C   UNL     1      -6.715   6.371 -32.890  1.00  0.00     0.000 C 
BRANCH   2   3
ATOM      3  C   UNL     1      -8.160   5.867 -33.062  1.00  0.00     0.006 C 
BRANCH   3   4
ATOM      4  C   UNL     1      -8.516   5.440 -34.495  1.00  0.00     0.053 C 
BRANCH   4   5
ATOM      5  C   UNL     1      -8.324   3.971 -34.707  1.00  0.00     0.041 C 
ATOM      6  O   UNL     1      -7.695   3.285 -33.859  1.00  0.00    -0.550 OA
ATOM      7  O   UNL     1      -8.812   3.364 -35.857  1.00  0.00    -0.550 OA
ENDBRANCH   4   5
ENDBRANCH   3   4
ENDBRANCH   2   3
ENDBRANCH   1   2
BRANCH   1   8
ATOM      8  C   UNL     1      -5.167   7.939 -34.192  1.00  0.00     0.000 C 
BRANCH   8   9
ATOM      9  C   UNL     1      -4.349   8.142 -35.479  1.00  0.00    -0.000 C 
BRANCH   9  10
ATOM     10  C   UNL     1      -2.940   8.699 -35.211  1.00  0.00    -0.000 C 
BRANCH  10  11
ATOM     11  C   UNL     1      -1.808   8.023 -36.007  1.00  0.00    -0.000 C 
BRANCH  11  12
ATOM     12  C   UNL     1      -0.882   7.172 -35.126  1.00  0.00    -0.003 C 
ATOM     13  C   UNL     1      -0.875   7.680 -33.687  1.00  0.00     0.004 C 
ENDBRANCH  11  12
ENDBRANCH  10  11
ENDBRANCH   9  10
ENDBRANCH   8   9
ENDBRANCH   1   8
TORSDOF 9
ENDMDL
MODEL 8
REMARK VINA RESULT:    -4.152     15.660     17.031
REMARK INTER + INTRA:          -6.729
REMARK INTER:                  -5.818
REMARK INTRA:                  -0.911
REMARK UNBOUND:                -0.393
REMARK SMILES CCCCCCCCCCC(=O)[O-]
REMARK SMILES IDX 7 1 8 2 9 3 10 4 11 5 12 6 13 7 6 8 5 9 4 10 3 11 2 12 1 13
REMARK H PARENT
REMARK Flexibility Score: inf
ROOT
ATOM      1  C   UNL     1      -4.692   6.347 -37.340  1.00  0.00     0.000 C 
ENDROOT
BRANCH   1   2
ATOM      2  C   UNL     1      -5.089   7.474 -36.370  1.00  0.00     0.000 C 
BRANCH   2   3
ATOM      3  C   UNL     1      -6.095   7.011 -35.300  1.00  0.00     0.006 C 
BRANCH   3   4
ATOM      4  C   UNL     1      -5.553   7.048 -33.862  1.00  0.00     0.053 C 
BRANCH   4   5
ATOM      5  C   UNL     1      -6.642   6.888 -32.847  1.00  0.00     0.041 C 
ATOM      6  O   UNL     1      -7.298   5.815 -32.785  1.00  0.00    -0.550 OA
ATOM      7  O   UNL     1      -6.955   7.936 -31.991  1.00  0.00    -0.550 OA
ENDBRANCH   4   5
ENDBRANCH   3   4
ENDBRANCH   2   3
ENDBRANCH   1   2
BRANCH   1   8
ATOM      8  C   UNL     1      -3.206   6.404 -37.732  1.00  0.00     0.000 C 
BRANCH   8   9
ATOM      9  C   UNL     1      -2.666   7.844 -37.781  1.00  0.00    -0.000 C 
BRANCH   9  10
ATOM     10  C   UNL     1      -1.399   8.036 -36.929  1.00  0.00    -0.000 C 
BRANCH  10  11
ATOM     11  C   UNL     1      -1.168   6.964 -35.849  1.00  0.00    -0.000 C 
BRANCH  11  12
ATOM     12  C   UNL     1      -0.993   7.559 -34.444  1.00  0.00    -0.003 C 
ATOM     13  C   UNL     1      -2.104   8.555 -34.127  1.00  0.00     0.004 C 
ENDBRANCH  11  12
ENDBRANCH  10  11
ENDBRANCH   9  10
ENDBRANCH   8   9
ENDBRANCH   1   8
TORSDOF 9
ENDMDL
MODEL 9
REMARK VINA RESULT:    -4.147      3.580      6.712
REMARK INTER + INTRA:          -6.722
REMARK INTER:                  -6.203
REMARK INTRA:                  -0.519
REMARK UNBOUND:                -0.393
REMARK SMILES CCCCCCCCCCC(=O)[O-]
REMARK SMILES IDX 7 1 8 2 9 3 10 4 11 5 12 6 13 7 6 8 5 9 4 10 3 11 2 12 1 13
REMARK H PARENT
REMARK Flexibility Score: inf
ROOT
ATOM      1  C   UNL     1     -12.829   2.050 -21.347  1.00  0.00     0.000 C 
ENDROOT
BRANCH   1   2
ATOM      2  C   UNL     1     -13.772   2.528 -22.466  1.00  0.00     0.000 C 
BRANCH   2   3
ATOM      3  C   UNL     1     -14.981   3.317 -21.928  1.00  0.00     0.006 C 
BRANCH   3   4
ATOM      4  C   UNL     1     -14.861   4.842 -22.081  1.00  0.00     0.053 C 
BRANCH   4   5
ATOM      5  C   UNL     1     -14.413   5.234 -23.455  1.00  0.00     0.041 C 
ATOM      6  O   UNL     1     -13.317   5.833 -23.617  1.00  0.00    -0.550 OA
ATOM      7  O   UNL     1     -15.221   4.969 -24.553  1.00  0.00    -0.550 OA
ENDBRANCH   4   5
ENDBRANCH   3   4
ENDBRANCH   2   3
ENDBRANCH   1   2
BRANCH   1   8
ATOM      8  C   UNL     1     -12.079   0.760 -21.720  1.00  0.00     0.000 C 
BRANCH   8   9
ATOM      9  C   UNL     1     -10.949   0.429 -20.731  1.00  0.00    -0.000 C 
BRANCH   9  10
ATOM     10  C   UNL     1     -10.698   1.554 -19.711  1.00  0.00    -0.000 C 
BRANCH  10  11
ATOM     11  C   UNL     1      -9.459   2.425 -19.991  1.00  0.00    -0.000 C 
BRANCH  11  12
ATOM     12  C   UNL     1      -8.378   1.687 -20.794  1.00  0.00    -0.003 C 
ATOM     13  C   UNL     1      -7.166   1.373 -19.922  1.00  0.00     0.004 C 
ENDBRANCH  11  12
ENDBRANCH  10  11
ENDBRANCH   9  10
ENDBRANCH   8   9
ENDBRANCH   1   8
TORSDOF 9
ENDMDL
