MODEL 1
REMARK VINA RESULT:    -4.993      0.000      0.000
REMARK INTER + INTRA:          -5.761
REMARK INTER:                  -5.576
REMARK INTRA:                  -0.184
REMARK UNBOUND:                -0.184
REMARK SMILES C=CCc1ccc2c(c1)OCO2
REMARK SMILES IDX 3 1 2 2 1 3 4 4 9 5 5 6 8 7 6 8 7 9 10 10 12 11 11 12
REMARK H PARENT
REMARK Flexibility Score: inf
ROOT
ATOM      1  C   UNL     1      45.014 -28.688   8.774  1.00  0.00     0.062 C 
ENDROOT
BRANCH   1   2
ATOM      2  C   UNL     1      45.053 -27.776   9.969  1.00  0.00    -0.030 C 
ATOM      3  C   UNL     1      44.171 -26.784  10.125  1.00  0.00     0.004 C 
ENDBRANCH   1   2
BRANCH   1   4
ATOM      4  C   UNL     1      45.871 -28.147   7.662  1.00  0.00    -0.040 A 
ATOM      5  C   UNL     1      47.089 -27.493   7.956  1.00  0.00     0.054 A 
ATOM      6  C   UNL     1      45.482 -28.333   6.310  1.00  0.00     0.008 A 
ATOM      7  C   UNL     1      47.859 -27.038   6.891  1.00  0.00     0.166 A 
ATOM      8  C   UNL     1      46.291 -27.856   5.263  1.00  0.00     0.051 A 
ATOM      9  C   UNL     1      47.476 -27.211   5.600  1.00  0.00     0.165 A 
ATOM     10  O   UNL     1      49.071 -26.375   6.926  1.00  0.00    -0.454 OA
ATOM     11  O   UNL     1      48.428 -26.664   4.760  1.00  0.00    -0.454 OA
ATOM     12  C   UNL     1      49.474 -26.114   5.573  1.00  0.00     0.468 C 
ENDBRANCH   1   4
TORSDOF 2
ENDMDL
MODEL 2
REMARK VINA RESULT:    -4.987     14.395     16.030
REMARK INTER + INTRA:          -5.754
REMARK INTER:                  -5.570
REMARK INTRA:                  -0.184
REMARK UNBOUND:                -0.184
REMARK SMILES C=CCc1ccc2c(c1)OCO2
REMARK SMILES IDX 3 1 2 2 1 3 4 4 9 5 5 6 8 7 6 8 7 9 10 10 12 11 11 12
REMARK H PARENT
REMARK Flexibility Score: inf
ROOT
ATOM      1  C   UNL     1      39.622 -25.624  -4.656  1.00  0.00     0.062 C 
ENDROOT
BRANCH   1   2
ATOM      2  C   UNL     1      39.134 -24.493  -3.795  1.00  0.00    -0.030 C 
ATOM      3  C   UNL     1      39.782 -24.123  -2.687  1.00  0.00     0.004 C 
ENDBRANCH   1   2
BRANCH   1   4
ATOM      4  C   UNL     1      40.079 -25.116  -5.996  1.00  0.00    -0.040 A 
ATOM      5  C   UNL     1      39.172 -24.455  -6.854  1.00  0.00     0.054 A 
ATOM      6  C   UNL     1      41.437 -25.259  -6.385  1.00  0.00     0.008 A 
ATOM      7  C   UNL     1      39.651 -23.978  -8.070  1.00  0.00     0.166 A 
ATOM      8  C   UNL     1      41.880 -24.762  -7.624  1.00  0.00     0.051 A 
ATOM      9  C   UNL     1      40.949 -24.126  -8.439  1.00  0.00     0.165 A 
ATOM     10  O   UNL     1      38.963 -23.311  -9.064  1.00  0.00    -0.454 OA
ATOM     11  O   UNL     1      41.141 -23.559  -9.685  1.00  0.00    -0.454 OA
ATOM     12  C   UNL     1      39.886 -23.022 -10.125  1.00  0.00     0.468 C 
ENDBRANCH   1   4
TORSDOF 2
ENDMDL
MODEL 3
REMARK VINA RESULT:    -4.986     10.601     12.000
REMARK INTER + INTRA:          -5.754
REMARK INTER:                  -5.563
REMARK INTRA:                  -0.191
REMARK UNBOUND:                -0.184
REMARK SMILES C=CCc1ccc2c(c1)OCO2
REMARK SMILES IDX 3 1 2 2 1 3 4 4 9 5 5 6 8 7 6 8 7 9 10 10 12 11 11 12
REMARK H PARENT
REMARK Flexibility Score: inf
ROOT
ATOM      1  C   UNL     1      39.436 -25.453   1.383  1.00  0.00     0.062 C 
ENDROOT
BRANCH   1   2
ATOM      2  C   UNL     1      40.874 -25.549   1.808  1.00  0.00    -0.030 C 
ATOM      3  C   UNL     1      41.550 -26.699   1.745  1.00  0.00     0.004 C 
ENDBRANCH   1   2
BRANCH   1   4
ATOM      4  C   UNL     1      39.325 -24.860   0.004  1.00  0.00    -0.040 A 
ATOM      5  C   UNL     1      38.139 -25.019  -0.746  1.00  0.00     0.054 A 
ATOM      6  C   UNL     1      40.398 -24.099  -0.530  1.00  0.00     0.008 A 
ATOM      7  C   UNL     1      38.077 -24.426  -2.004  1.00  0.00     0.166 A 
ATOM      8  C   UNL     1      40.293 -23.517  -1.807  1.00  0.00     0.051 A 
ATOM      9  C   UNL     1      39.110 -23.707  -2.512  1.00  0.00     0.165 A 
ATOM     10  O   UNL     1      37.037 -24.445  -2.914  1.00  0.00    -0.454 OA
ATOM     11  O   UNL     1      38.771 -23.239  -3.767  1.00  0.00    -0.454 OA
ATOM     12  C   UNL     1      37.443 -23.692  -4.066  1.00  0.00     0.468 C 
ENDBRANCH   1   4
TORSDOF 2
ENDMDL
MODEL 4
REMARK VINA RESULT:    -4.888      1.497      2.326
REMARK INTER + INTRA:          -5.643
REMARK INTER:                  -5.476
REMARK INTRA:                  -0.167
REMARK UNBOUND:                -0.184
REMARK SMILES C=CCc1ccc2c(c1)OCO2
REMARK SMILES IDX 3 1 2 2 1 3 4 4 9 5 5 6 8 7 6 8 7 9 10 10 12 11 11 12
REMARK H PARENT
REMARK Flexibility Score: inf
ROOT
ATOM      1  C   UNL     1      45.471 -27.919   6.218  1.00  0.00     0.062 C 
ENDROOT
BRANCH   1   2
ATOM      2  C   UNL     1      45.154 -28.581   7.529  1.00  0.00    -0.030 C 
ATOM      3  C   UNL     1      44.094 -28.225   8.259  1.00  0.00     0.004 C 
ENDBRANCH   1   2
BRANCH   1   4
ATOM      4  C   UNL     1      46.904 -27.462   6.183  1.00  0.00    -0.040 A 
ATOM      5  C   UNL     1      47.683 -27.472   7.361  1.00  0.00     0.054 A 
ATOM      6  C   UNL     1      47.493 -27.062   4.955  1.00  0.00     0.008 A 
ATOM      7  C   UNL     1      49.012 -27.067   7.270  1.00  0.00     0.166 A 
ATOM      8  C   UNL     1      48.841 -26.660   4.907  1.00  0.00     0.051 A 
ATOM      9  C   UNL     1      49.566 -26.678   6.094  1.00  0.00     0.165 A 
ATOM     10  O   UNL     1      49.959 -26.990   8.273  1.00  0.00    -0.454 OA
ATOM     11  O   UNL     1      50.888 -26.335   6.299  1.00  0.00    -0.454 OA
ATOM     12  C   UNL     1      51.184 -26.521   7.691  1.00  0.00     0.468 C 
ENDBRANCH   1   4
TORSDOF 2
ENDMDL
MODEL 5
REMARK VINA RESULT:    -4.881      2.222      4.715
REMARK INTER + INTRA:          -5.636
REMARK INTER:                  -5.465
REMARK INTRA:                  -0.172
REMARK UNBOUND:                -0.184
REMARK SMILES C=CCc1ccc2c(c1)OCO2
REMARK SMILES IDX 3 1 2 2 1 3 4 4 9 5 5 6 8 7 6 8 7 9 10 10 12 11 11 12
REMARK H PARENT
REMARK Flexibility Score: inf
ROOT
ATOM      1  C   UNL     1      48.736 -27.279   5.301  1.00  0.00     0.062 C 
ENDROOT
BRANCH   1   2
ATOM      2  C   UNL     1      48.299 -26.404   4.160  1.00  0.00    -0.030 C 
ATOM      3  C   UNL     1      48.915 -26.434   2.976  1.00  0.00     0.004 C 
ENDBRANCH   1   2
BRANCH   1   4
ATOM      4  C   UNL     1      47.576 -27.593   6.207  1.00  0.00    -0.040 A 
ATOM      5  C   UNL     1      47.692 -27.408   7.602  1.00  0.00     0.054 A 
ATOM      6  C   UNL     1      46.344 -28.035   5.657  1.00  0.00     0.008 A 
ATOM      7  C   UNL     1      46.581 -27.686   8.393  1.00  0.00     0.166 A 
ATOM      8  C   UNL     1      45.245 -28.305   6.493  1.00  0.00     0.051 A 
ATOM      9  C   UNL     1      45.409 -28.116   7.861  1.00  0.00     0.165 A 
ATOM     10  O   UNL     1      46.454 -27.586   9.765  1.00  0.00    -0.454 OA
ATOM     11  O   UNL     1      44.487 -28.309   8.872  1.00  0.00    -0.454 OA
ATOM     12  C   UNL     1      45.120 -27.979  10.117  1.00  0.00     0.468 C 
ENDBRANCH   1   4
TORSDOF 2
ENDMDL
MODEL 6
REMARK VINA RESULT:    -4.791      1.316      2.564
REMARK INTER + INTRA:          -5.535
REMARK INTER:                  -5.347
REMARK INTRA:                  -0.189
REMARK UNBOUND:                -0.184
REMARK SMILES C=CCc1ccc2c(c1)OCO2
REMARK SMILES IDX 3 1 2 2 1 3 4 4 9 5 5 6 8 7 6 8 7 9 10 10 12 11 11 12
REMARK H PARENT
REMARK Flexibility Score: inf
ROOT
ATOM      1  C   UNL     1      45.418 -27.944   6.268  1.00  0.00     0.062 C 
ENDROOT
BRANCH   1   2
ATOM      2  C   UNL     1      45.116 -28.546   7.612  1.00  0.00    -0.030 C 
ATOM      3  C   UNL     1      44.041 -28.185   8.318  1.00  0.00     0.004 C 
ENDBRANCH   1   2
BRANCH   1   4
ATOM      4  C   UNL     1      46.842 -27.461   6.208  1.00  0.00    -0.040 A 
ATOM      5  C   UNL     1      47.438 -27.156   4.964  1.00  0.00     0.054 A 
ATOM      6  C   UNL     1      47.579 -27.267   7.405  1.00  0.00     0.008 A 
ATOM      7  C   UNL     1      48.747 -26.686   4.964  1.00  0.00     0.166 A 
ATOM      8  C   UNL     1      48.901 -26.790   7.361  1.00  0.00     0.051 A 
ATOM      9  C   UNL     1      49.449 -26.511   6.113  1.00  0.00     0.165 A 
ATOM     10  O   UNL     1      49.534 -26.327   3.886  1.00  0.00    -0.454 OA
ATOM     11  O   UNL     1      50.711 -26.035   5.814  1.00  0.00    -0.454 OA
ATOM     12  C   UNL     1      50.809 -25.902   4.389  1.00  0.00     0.468 C 
ENDBRANCH   1   4
TORSDOF 2
ENDMDL
MODEL 7
REMARK VINA RESULT:    -4.765     10.855     12.111
REMARK INTER + INTRA:          -5.506
REMARK INTER:                  -5.320
REMARK INTRA:                  -0.186
REMARK UNBOUND:                -0.184
REMARK SMILES C=CCc1ccc2c(c1)OCO2
REMARK SMILES IDX 3 1 2 2 1 3 4 4 9 5 5 6 8 7 6 8 7 9 10 10 12 11 11 12
REMARK H PARENT
REMARK Flexibility Score: inf
ROOT
ATOM      1  C   UNL     1      40.644 -24.953   0.772  1.00  0.00     0.062 C 
ENDROOT
BRANCH   1   2
ATOM      2  C   UNL     1      40.056 -26.178   1.415  1.00  0.00    -0.030 C 
ATOM      3  C   UNL     1      39.601 -26.162   2.671  1.00  0.00     0.004 C 
ENDBRANCH   1   2
BRANCH   1   4
ATOM      4  C   UNL     1      39.724 -24.413  -0.288  1.00  0.00    -0.040 A 
ATOM      5  C   UNL     1      40.014 -23.185  -0.924  1.00  0.00     0.054 A 
ATOM      6  C   UNL     1      38.584 -25.158  -0.687  1.00  0.00     0.008 A 
ATOM      7  C   UNL     1      39.147 -22.743  -1.919  1.00  0.00     0.166 A 
ATOM      8  C   UNL     1      37.733 -24.675  -1.698  1.00  0.00     0.051 A 
ATOM      9  C   UNL     1      38.053 -23.458  -2.289  1.00  0.00     0.165 A 
ATOM     10  O   UNL     1      39.218 -21.587  -2.672  1.00  0.00    -0.454 OA
ATOM     11  O   UNL     1      37.382 -22.785  -3.292  1.00  0.00    -0.454 OA
ATOM     12  C   UNL     1      38.099 -21.574  -3.570  1.00  0.00     0.468 C 
ENDBRANCH   1   4
TORSDOF 2
ENDMDL
MODEL 8
REMARK VINA RESULT:    -4.755      9.858     11.097
REMARK INTER + INTRA:          -5.495
REMARK INTER:                  -5.330
REMARK INTRA:                  -0.165
REMARK UNBOUND:                -0.184
REMARK SMILES C=CCc1ccc2c(c1)OCO2
REMARK SMILES IDX 3 1 2 2 1 3 4 4 9 5 5 6 8 7 6 8 7 9 10 10 12 11 11 12
REMARK H PARENT
REMARK Flexibility Score: inf
ROOT
ATOM      1  C   UNL     1      39.648 -26.028   1.760  1.00  0.00     0.062 C 
ENDROOT
BRANCH   1   2
ATOM      2  C   UNL     1      41.129 -26.049   2.014  1.00  0.00    -0.030 C 
ATOM      3  C   UNL     1      41.891 -27.080   1.641  1.00  0.00     0.004 C 
ENDBRANCH   1   2
BRANCH   1   4
ATOM      4  C   UNL     1      39.239 -24.741   1.095  1.00  0.00    -0.040 A 
ATOM      5  C   UNL     1      39.996 -24.224   0.020  1.00  0.00     0.054 A 
ATOM      6  C   UNL     1      38.064 -24.065   1.516  1.00  0.00     0.008 A 
ATOM      7  C   UNL     1      39.559 -23.046  -0.580  1.00  0.00     0.166 A 
ATOM      8  C   UNL     1      37.659 -22.877   0.883  1.00  0.00     0.051 A 
ATOM      9  C   UNL     1      38.439 -22.401  -0.165  1.00  0.00     0.165 A 
ATOM     10  O   UNL     1      40.127 -22.355  -1.632  1.00  0.00    -0.454 OA
ATOM     11  O   UNL     1      38.248 -21.270  -0.936  1.00  0.00    -0.454 OA
ATOM     12  C   UNL     1      39.313 -21.202  -1.895  1.00  0.00     0.468 C 
ENDBRANCH   1   4
TORSDOF 2
ENDMDL
MODEL 9
REMARK VINA RESULT:    -4.716     16.033     16.849
REMARK INTER + INTRA:          -5.452
REMARK INTER:                  -5.299
REMARK INTRA:                  -0.153
REMARK UNBOUND:                -0.184
REMARK SMILES C=CCc1ccc2c(c1)OCO2
REMARK SMILES IDX 3 1 2 2 1 3 4 4 9 5 5 6 8 7 6 8 7 9 10 10 12 11 11 12
REMARK H PARENT
REMARK Flexibility Score: inf
ROOT
ATOM      1  C   UNL     1      50.558 -37.904  -6.248  1.00  0.00     0.062 C 
ENDROOT
BRANCH   1   2
ATOM      2  C   UNL     1      50.538 -37.751  -4.753  1.00  0.00    -0.030 C 
ATOM      3  C   UNL     1      50.160 -38.748  -3.949  1.00  0.00     0.004 C 
ENDBRANCH   1   2
BRANCH   1   4
ATOM      4  C   UNL     1      50.621 -36.560  -6.922  1.00  0.00    -0.040 A 
ATOM      5  C   UNL     1      49.707 -35.543  -6.567  1.00  0.00     0.054 A 
ATOM      6  C   UNL     1      51.628 -36.294  -7.886  1.00  0.00     0.008 A 
ATOM      7  C   UNL     1      49.825 -34.309  -7.198  1.00  0.00     0.166 A 
ATOM      8  C   UNL     1      51.712 -35.032  -8.501  1.00  0.00     0.051 A 
ATOM      9  C   UNL     1      50.786 -34.064  -8.126  1.00  0.00     0.165 A 
ATOM     10  O   UNL     1      49.055 -33.175  -7.023  1.00  0.00    -0.454 OA
ATOM     11  O   UNL     1      50.667 -32.765  -8.580  1.00  0.00    -0.454 OA
ATOM     12  C   UNL     1      49.564 -32.155  -7.895  1.00  0.00     0.468 C 
ENDBRANCH   1   4
TORSDOF 2
ENDMDL
