MODEL 1
REMARK VINA RESULT:    -5.747      0.000      0.000
REMARK INTER + INTRA:          -6.083
REMARK INTER:                  -6.083
REMARK INTRA:                   0.000
REMARK UNBOUND:                 0.000
REMARK SMILES C[C@@H]1CC[C@@H]2[N@@H+](C1)C[C@@H]1[C@H]3C[C@@H]4[C@H](CC(=O)[C@H]5C[C@@H](O)CC[C@@]54C)[C@@H]3CC[C@H]1[C@]2(C)O
REMARK SMILES IDX 5 1 6 2 8 3 7 4 4 5 29 6 3 7 28 8 30 9 2 10 27 11 9 12 1 13
REMARK SMILES IDX 26 14 10 15 25 16 11 17 13 18 12 19 14 20 23 21 15 22 17 23
REMARK SMILES IDX 22 24 24 25 16 26 18 27 21 28 19 29 31 31 20 33
REMARK H PARENT 6 30 31 32 20 34
REMARK Flexibility Score: inf
ROOT
ATOM      1  C   UNL     1       7.508  -5.916  -6.793  1.00  0.00     0.216 C 
ATOM      2  N   UNL     1       6.657  -5.639  -5.599  1.00  0.00    -0.330 N 
ATOM      3  C   UNL     1       5.252  -5.319  -5.974  1.00  0.00     0.266 C 
ATOM      4  C   UNL     1       7.173  -4.501  -4.792  1.00  0.00     0.265 C 
ATOM      5  C   UNL     1       9.003  -6.073  -6.396  1.00  0.00     0.069 C 
ATOM      6  C   UNL     1       7.004  -7.182  -7.612  1.00  0.00     0.117 C 
ATOM      7  C   UNL     1       9.507  -4.889  -5.582  1.00  0.00     0.015 C 
ATOM      8  C   UNL     1       5.497  -7.481  -7.314  1.00  0.00     0.036 C 
ATOM      9  C   UNL     1       7.246  -6.908  -9.125  1.00  0.00     0.049 C 
ATOM     10  C   UNL     1       8.627  -4.713  -4.345  1.00  0.00     0.041 C 
ATOM     11  C   UNL     1       4.843  -8.503  -8.314  1.00  0.00     0.007 C 
ATOM     12  C   UNL     1       4.689  -6.163  -7.144  1.00  0.00     0.054 C 
ATOM     13  C   UNL     1       9.115  -3.531  -3.499  1.00  0.00     0.013 C 
ATOM     14  C   UNL     1       3.326  -8.708  -8.089  1.00  0.00     0.004 C 
ATOM     15  C   UNL     1       3.214  -6.533  -6.898  1.00  0.00     0.002 C 
ATOM     16  C   UNL     1       2.674  -7.328  -8.084  1.00  0.00    -0.004 C 
ATOM     17  C   UNL     1       2.166  -5.434  -6.674  1.00  0.00     0.009 C 
ATOM     18  C   UNL     1       1.143  -7.170  -8.023  1.00  0.00     0.003 C 
ATOM     19  C   UNL     1       0.889  -6.269  -6.805  1.00  0.00    -0.000 C 
ATOM     20  C   UNL     1       0.212  -8.401  -7.933  1.00  0.00     0.080 C 
ATOM     21  C   UNL     1      -0.548  -5.615  -6.782  1.00  0.00    -0.020 C 
ATOM     22  C   UNL     1      -1.217  -7.912  -7.695  1.00  0.00     0.136 C 
ATOM     23  C   UNL     1      -1.487  -6.412  -7.757  1.00  0.00     0.065 C 
ATOM     24  C   UNL     1      -0.564  -4.138  -7.254  1.00  0.00     0.010 C 
ATOM     25  C   UNL     1      -1.055  -5.694  -5.309  1.00  0.00     0.012 C 
ATOM     26  O   UNL     1      -2.113  -8.709  -7.465  1.00  0.00    -0.299 OA
ATOM     27  C   UNL     1      -2.948  -5.949  -7.667  1.00  0.00     0.043 C 
ATOM     28  C   UNL     1      -1.999  -3.551  -7.305  1.00  0.00     0.032 C 
ATOM     29  C   UNL     1      -3.022  -4.449  -8.054  1.00  0.00     0.115 C 
ATOM     30  H   UNL     1       6.655  -6.488  -4.984  1.00  0.00     0.348 HD
ENDROOT
BRANCH   6  31
ATOM     31  O   UNL     1       7.711  -8.345  -7.225  1.00  0.00    -0.384 OA
ATOM     32  H   UNL     1       7.458  -9.099  -7.820  1.00  0.00     0.211 HD
ENDBRANCH   6  31
BRANCH  29  33
ATOM     33  O   UNL     1      -4.328  -3.961  -7.879  1.00  0.00    -0.393 OA
ATOM     34  H   UNL     1      -4.900  -4.385  -8.570  1.00  0.00     0.210 HD
ENDBRANCH  29  33
TORSDOF 2
ENDMDL
MODEL 2
REMARK VINA RESULT:    -5.606      3.184      6.212
REMARK INTER + INTRA:          -5.933
REMARK INTER:                  -5.933
REMARK INTRA:                   0.000
REMARK UNBOUND:                 0.000
REMARK SMILES C[C@@H]1CC[C@@H]2[N@@H+](C1)C[C@@H]1[C@H]3C[C@@H]4[C@H](CC(=O)[C@H]5C[C@@H](O)CC[C@@]54C)[C@@H]3CC[C@H]1[C@]2(C)O
REMARK SMILES IDX 5 1 6 2 8 3 7 4 4 5 29 6 3 7 28 8 30 9 2 10 27 11 9 12 1 13
REMARK SMILES IDX 26 14 10 15 25 16 11 17 13 18 12 19 14 20 23 21 15 22 17 23
REMARK SMILES IDX 22 24 24 25 16 26 18 27 21 28 19 29 31 31 20 33
REMARK H PARENT 6 30 31 32 20 34
REMARK Flexibility Score: inf
ROOT
ATOM      1  C   UNL     1       1.281  -8.085  -8.148  1.00  0.00     0.216 C 
ATOM      2  N   UNL     1       1.282  -6.872  -7.278  1.00  0.00    -0.330 N 
ATOM      3  C   UNL     1      -0.002  -6.122  -7.362  1.00  0.00     0.266 C 
ATOM      4  C   UNL     1       2.375  -5.927  -7.631  1.00  0.00     0.265 C 
ATOM      5  C   UNL     1       2.684  -8.754  -8.183  1.00  0.00     0.069 C 
ATOM      6  C   UNL     1       0.166  -9.133  -7.720  1.00  0.00     0.117 C 
ATOM      7  C   UNL     1       3.780  -7.766  -8.559  1.00  0.00     0.015 C 
ATOM      8  C   UNL     1      -0.972  -8.440  -6.898  1.00  0.00     0.036 C 
ATOM      9  C   UNL     1      -0.389  -9.805  -9.010  1.00  0.00     0.049 C 
ATOM     10  C   UNL     1       3.759  -6.590  -7.583  1.00  0.00     0.041 C 
ATOM     11  C   UNL     1      -2.256  -9.329  -6.717  1.00  0.00     0.007 C 
ATOM     12  C   UNL     1      -1.266  -7.013  -7.443  1.00  0.00     0.054 C 
ATOM     13  C   UNL     1       4.859  -5.580  -7.931  1.00  0.00     0.013 C 
ATOM     14  C   UNL     1      -3.420  -8.599  -6.005  1.00  0.00     0.004 C 
ATOM     15  C   UNL     1      -2.418  -6.412  -6.617  1.00  0.00     0.002 C 
ATOM     16  C   UNL     1      -3.661  -7.289  -6.748  1.00  0.00    -0.004 C 
ATOM     17  C   UNL     1      -2.926  -4.995  -6.912  1.00  0.00     0.009 C 
ATOM     18  C   UNL     1      -4.849  -6.376  -6.389  1.00  0.00     0.003 C 
ATOM     19  C   UNL     1      -4.217  -5.009  -6.087  1.00  0.00    -0.000 C 
ATOM     20  C   UNL     1      -5.822  -6.736  -5.243  1.00  0.00     0.080 C 
ATOM     21  C   UNL     1      -5.244  -3.809  -6.114  1.00  0.00    -0.020 C 
ATOM     22  C   UNL     1      -6.761  -5.553  -5.012  1.00  0.00     0.136 C 
ATOM     23  C   UNL     1      -6.701  -4.381  -5.988  1.00  0.00     0.065 C 
ATOM     24  C   UNL     1      -5.199  -2.984  -7.425  1.00  0.00     0.010 C 
ATOM     25  C   UNL     1      -4.887  -2.886  -4.908  1.00  0.00     0.012 C 
ATOM     26  O   UNL     1      -7.538  -5.555  -4.071  1.00  0.00    -0.299 OA
ATOM     27  C   UNL     1      -7.751  -3.273  -5.833  1.00  0.00     0.043 C 
ATOM     28  C   UNL     1      -6.277  -1.870  -7.457  1.00  0.00     0.032 C 
ATOM     29  C   UNL     1      -7.704  -2.361  -7.086  1.00  0.00     0.115 C 
ATOM     30  H   UNL     1       1.430  -7.172  -6.284  1.00  0.00     0.348 HD
ENDROOT
BRANCH   6  31
ATOM     31  O   UNL     1       0.706 -10.125  -6.869  1.00  0.00    -0.384 OA
ATOM     32  H   UNL     1       1.368 -10.668  -7.372  1.00  0.00     0.211 HD
ENDBRANCH   6  31
BRANCH  29  33
ATOM     33  O   UNL     1      -8.576  -1.270  -6.933  1.00  0.00    -0.393 OA
ATOM     34  H   UNL     1      -8.625  -1.062  -5.963  1.00  0.00     0.210 HD
ENDBRANCH  29  33
TORSDOF 2
ENDMDL
MODEL 3
REMARK VINA RESULT:    -5.172      2.129      8.610
REMARK INTER + INTRA:          -5.475
REMARK INTER:                  -5.475
REMARK INTRA:                   0.000
REMARK UNBOUND:                 0.000
REMARK SMILES C[C@@H]1CC[C@@H]2[N@@H+](C1)C[C@@H]1[C@H]3C[C@@H]4[C@H](CC(=O)[C@H]5C[C@@H](O)CC[C@@]54C)[C@@H]3CC[C@H]1[C@]2(C)O
REMARK SMILES IDX 5 1 6 2 8 3 7 4 4 5 29 6 3 7 28 8 30 9 2 10 27 11 9 12 1 13
REMARK SMILES IDX 26 14 10 15 25 16 11 17 13 18 12 19 14 20 23 21 15 22 17 23
REMARK SMILES IDX 22 24 24 25 16 26 18 27 21 28 19 29 31 31 20 33
REMARK H PARENT 6 30 31 32 20 34
REMARK Flexibility Score: inf
ROOT
ATOM      1  C   UNL     1      -1.222  -6.765  -7.767  1.00  0.00     0.216 C 
ATOM      2  N   UNL     1      -0.413  -5.637  -8.314  1.00  0.00    -0.330 N 
ATOM      3  C   UNL     1       0.891  -5.491  -7.612  1.00  0.00     0.266 C 
ATOM      4  C   UNL     1      -1.124  -4.334  -8.211  1.00  0.00     0.265 C 
ATOM      5  C   UNL     1      -2.647  -6.792  -8.390  1.00  0.00     0.069 C 
ATOM      6  C   UNL     1      -0.499  -8.169  -7.950  1.00  0.00     0.117 C 
ATOM      7  C   UNL     1      -3.354  -5.450  -8.259  1.00  0.00     0.015 C 
ATOM      8  C   UNL     1       1.045  -7.987  -8.136  1.00  0.00     0.036 C 
ATOM      9  C   UNL     1      -0.827  -9.049  -6.709  1.00  0.00     0.049 C 
ATOM     10  C   UNL     1      -2.496  -4.360  -8.900  1.00  0.00     0.041 C 
ATOM     11  C   UNL     1       1.862  -9.323  -8.001  1.00  0.00     0.007 C 
ATOM     12  C   UNL     1       1.581  -6.829  -7.247  1.00  0.00     0.054 C 
ATOM     13  C   UNL     1      -3.186  -2.995  -8.792  1.00  0.00     0.013 C 
ATOM     14  C   UNL     1       3.395  -9.122  -8.069  1.00  0.00     0.004 C 
ATOM     15  C   UNL     1       3.105  -6.736  -7.448  1.00  0.00     0.002 C 
ATOM     16  C   UNL     1       3.762  -8.053  -7.043  1.00  0.00    -0.004 C 
ATOM     17  C   UNL     1       3.921  -5.667  -6.710  1.00  0.00     0.009 C 
ATOM     18  C   UNL     1       5.233  -7.706  -6.746  1.00  0.00     0.003 C 
ATOM     19  C   UNL     1       5.334  -6.192  -6.982  1.00  0.00    -0.000 C 
ATOM     20  C   UNL     1       6.391  -8.403  -7.497  1.00  0.00     0.080 C 
ATOM     21  C   UNL     1       6.615  -5.528  -6.337  1.00  0.00    -0.020 C 
ATOM     22  C   UNL     1       7.700  -7.711  -7.121  1.00  0.00     0.136 C 
ATOM     23  C   UNL     1       7.668  -6.650  -6.025  1.00  0.00     0.065 C 
ATOM     24  C   UNL     1       6.328  -4.799  -4.999  1.00  0.00     0.010 C 
ATOM     25  C   UNL     1       7.163  -4.505  -7.378  1.00  0.00     0.012 C 
ATOM     26  O   UNL     1       8.741  -8.007  -7.686  1.00  0.00    -0.299 OA
ATOM     27  C   UNL     1       9.011  -6.075  -5.554  1.00  0.00     0.043 C 
ATOM     28  C   UNL     1       7.618  -4.235  -4.347  1.00  0.00     0.032 C 
ATOM     29  C   UNL     1       8.779  -5.263  -4.253  1.00  0.00     0.115 C 
ATOM     30  H   UNL     1      -0.229  -5.818  -9.330  1.00  0.00     0.348 HD
ENDROOT
BRANCH   6  31
ATOM     31  O   UNL     1      -0.953  -8.821  -9.121  1.00  0.00    -0.384 OA
ATOM     32  H   UNL     1      -1.858  -8.486  -9.356  1.00  0.00     0.211 HD
ENDBRANCH   6  31
BRANCH  29  33
ATOM     33  O   UNL     1       9.966  -4.630  -3.851  1.00  0.00    -0.393 OA
ATOM     34  H   UNL     1      10.492  -4.435  -4.670  1.00  0.00     0.210 HD
ENDBRANCH  29  33
TORSDOF 2
ENDMDL
MODEL 4
REMARK VINA RESULT:    -5.092      2.307      9.159
REMARK INTER + INTRA:          -5.390
REMARK INTER:                  -5.390
REMARK INTRA:                   0.000
REMARK UNBOUND:                 0.000
REMARK SMILES C[C@@H]1CC[C@@H]2[N@@H+](C1)C[C@@H]1[C@H]3C[C@@H]4[C@H](CC(=O)[C@H]5C[C@@H](O)CC[C@@]54C)[C@@H]3CC[C@H]1[C@]2(C)O
REMARK SMILES IDX 5 1 6 2 8 3 7 4 4 5 29 6 3 7 28 8 30 9 2 10 27 11 9 12 1 13
REMARK SMILES IDX 26 14 10 15 25 16 11 17 13 18 12 19 14 20 23 21 15 22 17 23
REMARK SMILES IDX 22 24 24 25 16 26 18 27 21 28 19 29 31 31 20 33
REMARK H PARENT 6 30 31 32 20 34
REMARK Flexibility Score: inf
ROOT
ATOM      1  C   UNL     1      -1.932  -6.343  -7.655  1.00  0.00     0.216 C 
ATOM      2  N   UNL     1      -1.281  -7.676  -7.486  1.00  0.00    -0.330 N 
ATOM      3  C   UNL     1       0.181  -7.624  -7.759  1.00  0.00     0.266 C 
ATOM      4  C   UNL     1      -1.867  -8.705  -8.385  1.00  0.00     0.265 C 
ATOM      5  C   UNL     1      -3.479  -6.451  -7.539  1.00  0.00     0.069 C 
ATOM      6  C   UNL     1      -1.364  -5.261  -6.639  1.00  0.00     0.117 C 
ATOM      7  C   UNL     1      -4.051  -7.504  -8.479  1.00  0.00     0.015 C 
ATOM      8  C   UNL     1       0.054  -5.670  -6.117  1.00  0.00     0.036 C 
ATOM      9  C   UNL     1      -1.332  -3.884  -7.364  1.00  0.00     0.049 C 
ATOM     10  C   UNL     1      -3.385  -8.850  -8.198  1.00  0.00     0.041 C 
ATOM     11  C   UNL     1       0.813  -4.514  -5.370  1.00  0.00     0.007 C 
ATOM     12  C   UNL     1       0.889  -6.347  -7.241  1.00  0.00     0.054 C 
ATOM     13  C   UNL     1      -3.946  -9.935  -9.125  1.00  0.00     0.013 C 
ATOM     14  C   UNL     1       2.258  -4.884  -4.958  1.00  0.00     0.004 C 
ATOM     15  C   UNL     1       2.280  -6.682  -6.670  1.00  0.00     0.002 C 
ATOM     16  C   UNL     1       2.970  -5.402  -6.204  1.00  0.00    -0.004 C 
ATOM     17  C   UNL     1       3.330  -7.378  -7.545  1.00  0.00     0.009 C 
ATOM     18  C   UNL     1       4.475  -5.730  -6.183  1.00  0.00     0.003 C 
ATOM     19  C   UNL     1       4.566  -7.187  -6.661  1.00  0.00    -0.000 C 
ATOM     20  C   UNL     1       5.313  -5.577  -4.894  1.00  0.00     0.080 C 
ATOM     21  C   UNL     1       6.011  -7.616  -7.133  1.00  0.00    -0.020 C 
ATOM     22  C   UNL     1       6.705  -6.157  -5.147  1.00  0.00     0.136 C 
ATOM     23  C   UNL     1       7.059  -6.594  -6.565  1.00  0.00     0.065 C 
ATOM     24  C   UNL     1       6.183  -7.623  -8.674  1.00  0.00     0.010 C 
ATOM     25  C   UNL     1       6.257  -9.053  -6.578  1.00  0.00     0.012 C 
ATOM     26  O   UNL     1       7.506  -6.262  -4.232  1.00  0.00    -0.299 OA
ATOM     27  C   UNL     1       8.506  -7.031  -6.833  1.00  0.00     0.043 C 
ATOM     28  C   UNL     1       7.634  -7.962  -9.103  1.00  0.00     0.032 C 
ATOM     29  C   UNL     1       8.722  -7.133  -8.365  1.00  0.00     0.115 C 
ATOM     30  H   UNL     1      -1.427  -7.996  -6.498  1.00  0.00     0.348 HD
ENDROOT
BRANCH   6  31
ATOM     31  O   UNL     1      -2.185  -5.169  -5.490  1.00  0.00    -0.384 OA
ATOM     32  H   UNL     1      -1.631  -4.912  -4.707  1.00  0.00     0.211 HD
ENDBRANCH   6  31
BRANCH  29  33
ATOM     33  O   UNL     1      10.002  -7.636  -8.648  1.00  0.00    -0.393 OA
ATOM     34  H   UNL     1      10.406  -7.925  -7.789  1.00  0.00     0.210 HD
ENDBRANCH  29  33
TORSDOF 2
ENDMDL
MODEL 5
REMARK VINA RESULT:    -4.377      2.507      8.832
REMARK INTER + INTRA:          -4.633
REMARK INTER:                  -4.633
REMARK INTRA:                   0.000
REMARK UNBOUND:                 0.000
REMARK SMILES C[C@@H]1CC[C@@H]2[N@@H+](C1)C[C@@H]1[C@H]3C[C@@H]4[C@H](CC(=O)[C@H]5C[C@@H](O)CC[C@@]54C)[C@@H]3CC[C@H]1[C@]2(C)O
REMARK SMILES IDX 5 1 6 2 8 3 7 4 4 5 29 6 3 7 28 8 30 9 2 10 27 11 9 12 1 13
REMARK SMILES IDX 26 14 10 15 25 16 11 17 13 18 12 19 14 20 23 21 15 22 17 23
REMARK SMILES IDX 22 24 24 25 16 26 18 27 21 28 19 29 31 31 20 33
REMARK H PARENT 6 30 31 32 20 34
REMARK Flexibility Score: inf
ROOT
ATOM      1  C   UNL     1      -3.404  -6.443  -6.725  1.00  0.00     0.216 C 
ATOM      2  N   UNL     1      -2.630  -5.178  -6.557  1.00  0.00    -0.330 N 
ATOM      3  C   UNL     1      -1.229  -5.433  -6.123  1.00  0.00     0.266 C 
ATOM      4  C   UNL     1      -3.249  -4.269  -5.557  1.00  0.00     0.265 C 
ATOM      5  C   UNL     1      -4.906  -6.153  -7.005  1.00  0.00     0.069 C 
ATOM      6  C   UNL     1      -2.790  -7.381  -7.852  1.00  0.00     0.117 C 
ATOM      7  C   UNL     1      -5.515  -5.230  -5.959  1.00  0.00     0.015 C 
ATOM      8  C   UNL     1      -1.285  -7.038  -8.110  1.00  0.00     0.036 C 
ATOM      9  C   UNL     1      -2.972  -8.861  -7.404  1.00  0.00     0.049 C 
ATOM     10  C   UNL     1      -4.709  -3.933  -5.895  1.00  0.00     0.041 C 
ATOM     11  C   UNL     1      -0.526  -8.117  -8.966  1.00  0.00     0.007 C 
ATOM     12  C   UNL     1      -0.562  -6.664  -6.785  1.00  0.00     0.054 C 
ATOM     13  C   UNL     1      -5.303  -2.977  -4.854  1.00  0.00     0.013 C 
ATOM     14  C   UNL     1       0.987  -7.835  -9.121  1.00  0.00     0.004 C 
ATOM     15  C   UNL     1       0.917  -6.382  -7.108  1.00  0.00     0.002 C 
ATOM     16  C   UNL     1       1.559  -7.625  -7.722  1.00  0.00    -0.004 C 
ATOM     17  C   UNL     1       1.889  -5.969  -5.996  1.00  0.00     0.009 C 
ATOM     18  C   UNL     1       3.074  -7.460  -7.496  1.00  0.00     0.003 C 
ATOM     19  C   UNL     1       3.216  -6.129  -6.743  1.00  0.00    -0.000 C 
ATOM     20  C   UNL     1       4.068  -7.469  -8.680  1.00  0.00     0.080 C 
ATOM     21  C   UNL     1       4.612  -5.946  -6.025  1.00  0.00    -0.020 C 
ATOM     22  C   UNL     1       5.453  -7.094  -8.154  1.00  0.00     0.136 C 
ATOM     23  C   UNL     1       5.641  -6.957  -6.646  1.00  0.00     0.065 C 
ATOM     24  C   UNL     1       4.567  -6.233  -4.503  1.00  0.00     0.010 C 
ATOM     25  C   UNL     1       5.049  -4.468  -6.263  1.00  0.00     0.012 C 
ATOM     26  O   UNL     1       6.380  -6.913  -8.928  1.00  0.00    -0.299 OA
ATOM     27  C   UNL     1       7.067  -6.730  -6.126  1.00  0.00     0.043 C 
ATOM     28  C   UNL     1       5.968  -6.131  -3.843  1.00  0.00     0.032 C 
ATOM     29  C   UNL     1       7.076  -6.926  -4.588  1.00  0.00     0.115 C 
ATOM     30  H   UNL     1      -2.610  -4.673  -7.476  1.00  0.00     0.348 HD
ENDROOT
BRANCH   6  31
ATOM     31  O   UNL     1      -3.448  -7.180  -9.088  1.00  0.00    -0.384 OA
ATOM     32  H   UNL     1      -2.896  -7.556  -9.822  1.00  0.00     0.211 HD
ENDBRANCH   6  31
BRANCH  29  33
ATOM     33  O   UNL     1       8.341  -6.620  -4.060  1.00  0.00    -0.393 OA
ATOM     34  H   UNL     1       8.555  -5.686  -4.322  1.00  0.00     0.210 HD
ENDBRANCH  29  33
TORSDOF 2
ENDMDL
MODEL 6
REMARK VINA RESULT:    -4.367      2.346      8.784
REMARK INTER + INTRA:          -4.623
REMARK INTER:                  -4.623
REMARK INTRA:                   0.000
REMARK UNBOUND:                 0.000
REMARK SMILES C[C@@H]1CC[C@@H]2[N@@H+](C1)C[C@@H]1[C@H]3C[C@@H]4[C@H](CC(=O)[C@H]5C[C@@H](O)CC[C@@]54C)[C@@H]3CC[C@H]1[C@]2(C)O
REMARK SMILES IDX 5 1 6 2 8 3 7 4 4 5 29 6 3 7 28 8 30 9 2 10 27 11 9 12 1 13
REMARK SMILES IDX 26 14 10 15 25 16 11 17 13 18 12 19 14 20 23 21 15 22 17 23
REMARK SMILES IDX 22 24 24 25 16 26 18 27 21 28 19 29 31 31 20 33
REMARK H PARENT 6 30 31 32 20 34
REMARK Flexibility Score: inf
ROOT
ATOM      1  C   UNL     1      -2.762  -6.269  -7.560  1.00  0.00     0.216 C 
ATOM      2  N   UNL     1      -1.921  -5.448  -8.480  1.00  0.00    -0.330 N 
ATOM      3  C   UNL     1      -0.495  -5.412  -8.052  1.00  0.00     0.266 C 
ATOM      4  C   UNL     1      -2.396  -4.042  -8.572  1.00  0.00     0.265 C 
ATOM      5  C   UNL     1      -4.271  -6.153  -7.920  1.00  0.00     0.069 C 
ATOM      6  C   UNL     1      -2.306  -7.791  -7.523  1.00  0.00     0.117 C 
ATOM      7  C   UNL     1      -4.730  -4.703  -7.994  1.00  0.00     0.015 C 
ATOM      8  C   UNL     1      -0.821  -7.945  -7.994  1.00  0.00     0.036 C 
ATOM      9  C   UNL     1      -2.505  -8.323  -6.074  1.00  0.00     0.049 C 
ATOM     10  C   UNL     1      -3.866  -3.948  -9.004  1.00  0.00     0.041 C 
ATOM     11  C   UNL     1      -0.200  -9.355  -7.683  1.00  0.00     0.007 C 
ATOM     12  C   UNL     1       0.048  -6.753  -7.501  1.00  0.00     0.054 C 
ATOM     13  C   UNL     1      -4.311  -2.484  -9.108  1.00  0.00     0.013 C 
ATOM     14  C   UNL     1       1.301  -9.466  -8.044  1.00  0.00     0.004 C 
ATOM     15  C   UNL     1       1.498  -6.993  -7.962  1.00  0.00     0.002 C 
ATOM     16  C   UNL     1       2.019  -8.300  -7.371  1.00  0.00    -0.004 C 
ATOM     17  C   UNL     1       2.593  -5.969  -7.637  1.00  0.00     0.009 C 
ATOM     18  C   UNL     1       3.555  -8.183  -7.406  1.00  0.00     0.003 C 
ATOM     19  C   UNL     1       3.830  -6.795  -8.003  1.00  0.00    -0.000 C 
ATOM     20  C   UNL     1       4.423  -9.224  -8.149  1.00  0.00     0.080 C 
ATOM     21  C   UNL     1       5.298  -6.269  -7.748  1.00  0.00    -0.020 C 
ATOM     22  C   UNL     1       5.870  -8.730  -8.163  1.00  0.00     0.136 C 
ATOM     23  C   UNL     1       6.215  -7.482  -7.356  1.00  0.00     0.065 C 
ATOM     24  C   UNL     1       5.395  -5.242  -6.590  1.00  0.00     0.010 C 
ATOM     25  C   UNL     1       5.772  -5.600  -9.075  1.00  0.00     0.012 C 
ATOM     26  O   UNL     1       6.721  -9.326  -8.804  1.00  0.00    -0.299 OA
ATOM     27  C   UNL     1       7.694  -7.087  -7.257  1.00  0.00     0.043 C 
ATOM     28  C   UNL     1       6.858  -4.811  -6.306  1.00  0.00     0.032 C 
ATOM     29  C   UNL     1       7.849  -5.999  -6.162  1.00  0.00     0.115 C 
ATOM     30  H   UNL     1      -1.972  -5.864  -9.441  1.00  0.00     0.348 HD
ENDROOT
BRANCH   6  31
ATOM     31  O   UNL     1      -3.076  -8.569  -8.419  1.00  0.00    -0.384 OA
ATOM     32  H   UNL     1      -2.890  -9.532  -8.266  1.00  0.00     0.211 HD
ENDBRANCH   6  31
BRANCH  29  33
ATOM     33  O   UNL     1       9.173  -5.532  -6.118  1.00  0.00    -0.393 OA
ATOM     34  H   UNL     1       9.670  -6.107  -5.478  1.00  0.00     0.210 HD
ENDBRANCH  29  33
TORSDOF 2
ENDMDL
MODEL 7
REMARK VINA RESULT:    -4.342      2.892      9.162
REMARK INTER + INTRA:          -4.596
REMARK INTER:                  -4.596
REMARK INTRA:                   0.000
REMARK UNBOUND:                 0.000
REMARK SMILES C[C@@H]1CC[C@@H]2[N@@H+](C1)C[C@@H]1[C@H]3C[C@@H]4[C@H](CC(=O)[C@H]5C[C@@H](O)CC[C@@]54C)[C@@H]3CC[C@H]1[C@]2(C)O
REMARK SMILES IDX 5 1 6 2 8 3 7 4 4 5 29 6 3 7 28 8 30 9 2 10 27 11 9 12 1 13
REMARK SMILES IDX 26 14 10 15 25 16 11 17 13 18 12 19 14 20 23 21 15 22 17 23
REMARK SMILES IDX 22 24 24 25 16 26 18 27 21 28 19 29 31 31 20 33
REMARK H PARENT 6 30 31 32 20 34
REMARK Flexibility Score: inf
ROOT
ATOM      1  C   UNL     1      -4.439  -5.608  -7.877  1.00  0.00     0.216 C 
ATOM      2  N   UNL     1      -3.433  -4.790  -8.615  1.00  0.00    -0.330 N 
ATOM      3  C   UNL     1      -2.057  -4.974  -8.076  1.00  0.00     0.266 C 
ATOM      4  C   UNL     1      -3.742  -3.336  -8.562  1.00  0.00     0.265 C 
ATOM      5  C   UNL     1      -5.887  -5.271  -8.335  1.00  0.00     0.069 C 
ATOM      6  C   UNL     1      -4.157  -7.167  -8.001  1.00  0.00     0.117 C 
ATOM      7  C   UNL     1      -6.178  -3.779  -8.258  1.00  0.00     0.015 C 
ATOM      8  C   UNL     1      -2.659  -7.439  -8.370  1.00  0.00     0.036 C 
ATOM      9  C   UNL     1      -4.545  -7.840  -6.652  1.00  0.00     0.049 C 
ATOM     10  C   UNL     1      -5.148  -3.017  -9.092  1.00  0.00     0.041 C 
ATOM     11  C   UNL     1      -2.226  -8.940  -8.196  1.00  0.00     0.007 C 
ATOM     12  C   UNL     1      -1.717  -6.426  -7.661  1.00  0.00     0.054 C 
ATOM     13  C   UNL     1      -5.420  -1.509  -9.041  1.00  0.00     0.013 C 
ATOM     14  C   UNL     1      -0.719  -9.185  -8.449  1.00  0.00     0.004 C 
ATOM     15  C   UNL     1      -0.265  -6.780  -8.034  1.00  0.00     0.002 C 
ATOM     16  C   UNL     1       0.056  -8.201  -7.577  1.00  0.00    -0.004 C 
ATOM     17  C   UNL     1       0.901  -5.940  -7.495  1.00  0.00     0.009 C 
ATOM     18  C   UNL     1       1.592  -8.265  -7.477  1.00  0.00     0.003 C 
ATOM     19  C   UNL     1       2.070  -6.858  -7.867  1.00  0.00    -0.000 C 
ATOM     20  C   UNL     1       2.407  -9.305  -8.278  1.00  0.00     0.080 C 
ATOM     21  C   UNL     1       3.555  -6.544  -7.432  1.00  0.00    -0.020 C 
ATOM     22  C   UNL     1       3.894  -8.988  -8.115  1.00  0.00     0.136 C 
ATOM     23  C   UNL     1       4.295  -7.895  -7.129  1.00  0.00     0.065 C 
ATOM     24  C   UNL     1       3.656  -5.681  -6.148  1.00  0.00     0.010 C 
ATOM     25  C   UNL     1       4.220  -5.783  -8.621  1.00  0.00     0.012 C 
ATOM     26  O   UNL     1       4.730  -9.601  -8.759  1.00  0.00    -0.299 OA
ATOM     27  C   UNL     1       5.794  -7.694  -6.865  1.00  0.00     0.043 C 
ATOM     28  C   UNL     1       5.124  -5.464  -5.697  1.00  0.00     0.032 C 
ATOM     29  C   UNL     1       5.964  -6.770  -5.630  1.00  0.00     0.115 C 
ATOM     30  H   UNL     1      -3.440  -5.079  -9.623  1.00  0.00     0.348 HD
ENDROOT
BRANCH   6  31
ATOM     31  O   UNL     1      -4.920  -7.736  -9.047  1.00  0.00    -0.384 OA
ATOM     32  H   UNL     1      -4.463  -8.549  -9.387  1.00  0.00     0.211 HD
ENDBRANCH   6  31
BRANCH  29  33
ATOM     33  O   UNL     1       7.321  -6.473  -5.423  1.00  0.00    -0.393 OA
ATOM     34  H   UNL     1       7.532  -6.690  -4.477  1.00  0.00     0.210 HD
ENDBRANCH  29  33
TORSDOF 2
ENDMDL
MODEL 8
REMARK VINA RESULT:    -4.309      2.384      4.008
REMARK INTER + INTRA:          -4.561
REMARK INTER:                  -4.561
REMARK INTRA:                   0.000
REMARK UNBOUND:                 0.000
REMARK SMILES C[C@@H]1CC[C@@H]2[N@@H+](C1)C[C@@H]1[C@H]3C[C@@H]4[C@H](CC(=O)[C@H]5C[C@@H](O)CC[C@@]54C)[C@@H]3CC[C@H]1[C@]2(C)O
REMARK SMILES IDX 5 1 6 2 8 3 7 4 4 5 29 6 3 7 28 8 30 9 2 10 27 11 9 12 1 13
REMARK SMILES IDX 26 14 10 15 25 16 11 17 13 18 12 19 14 20 23 21 15 22 17 23
REMARK SMILES IDX 22 24 24 25 16 26 18 27 21 28 19 29 31 31 20 33
REMARK H PARENT 6 30 31 32 20 34
REMARK Flexibility Score: inf
ROOT
ATOM      1  C   UNL     1       3.586  -6.482  -6.773  1.00  0.00     0.216 C 
ATOM      2  N   UNL     1       2.877  -6.166  -5.498  1.00  0.00    -0.330 N 
ATOM      3  C   UNL     1       1.511  -5.624  -5.736  1.00  0.00     0.266 C 
ATOM      4  C   UNL     1       3.615  -5.170  -4.676  1.00  0.00     0.265 C 
ATOM      5  C   UNL     1       5.067  -6.878  -6.512  1.00  0.00     0.069 C 
ATOM      6  C   UNL     1       2.841  -7.606  -7.614  1.00  0.00     0.117 C 
ATOM      7  C   UNL     1       5.800  -5.834  -5.680  1.00  0.00     0.015 C 
ATOM      8  C   UNL     1       1.332  -7.705  -7.207  1.00  0.00     0.036 C 
ATOM      9  C   UNL     1       3.006  -7.271  -9.125  1.00  0.00     0.049 C 
ATOM     10  C   UNL     1       5.051  -5.617  -4.365  1.00  0.00     0.041 C 
ATOM     11  C   UNL     1       0.462  -8.555  -8.203  1.00  0.00     0.007 C 
ATOM     12  C   UNL     1       0.743  -6.300  -6.899  1.00  0.00     0.054 C 
ATOM     13  C   UNL     1       5.771  -4.575  -3.500  1.00  0.00     0.013 C 
ATOM     14  C   UNL     1      -1.048  -8.555  -7.863  1.00  0.00     0.004 C 
ATOM     15  C   UNL     1      -0.747  -6.470  -6.550  1.00  0.00     0.002 C 
ATOM     16  C   UNL     1      -1.486  -7.100  -7.728  1.00  0.00    -0.004 C 
ATOM     17  C   UNL     1      -1.601  -5.250  -6.180  1.00  0.00     0.009 C 
ATOM     18  C   UNL     1      -2.968  -6.729  -7.531  1.00  0.00     0.003 C 
ATOM     19  C   UNL     1      -2.994  -5.883  -6.249  1.00  0.00    -0.000 C 
ATOM     20  C   UNL     1      -4.062  -7.817  -7.430  1.00  0.00     0.080 C 
ATOM     21  C   UNL     1      -4.313  -5.033  -6.070  1.00  0.00    -0.020 C 
ATOM     22  C   UNL     1      -5.381  -7.145  -7.047  1.00  0.00     0.136 C 
ATOM     23  C   UNL     1      -5.430  -5.621  -7.004  1.00  0.00     0.065 C 
ATOM     24  C   UNL     1      -4.146  -3.541  -6.458  1.00  0.00     0.010 C 
ATOM     25  C   UNL     1      -4.714  -5.136  -4.566  1.00  0.00     0.012 C 
ATOM     26  O   UNL     1      -6.365  -7.819  -6.787  1.00  0.00    -0.299 OA
ATOM     27  C   UNL     1      -6.796  -4.961  -6.768  1.00  0.00     0.043 C 
ATOM     28  C   UNL     1      -5.478  -2.753  -6.356  1.00  0.00     0.032 C 
ATOM     29  C   UNL     1      -6.676  -3.443  -7.065  1.00  0.00     0.115 C 
ATOM     30  H   UNL     1       2.796  -7.045  -4.933  1.00  0.00     0.348 HD
ENDROOT
BRANCH   6  31
ATOM     31  O   UNL     1       3.395  -8.882  -7.352  1.00  0.00    -0.384 OA
ATOM     32  H   UNL     1       2.865  -9.333  -6.644  1.00  0.00     0.211 HD
ENDBRANCH   6  31
BRANCH  29  33
ATOM     33  O   UNL     1      -7.877  -2.786  -6.754  1.00  0.00    -0.393 OA
ATOM     34  H   UNL     1      -8.523  -3.474  -6.446  1.00  0.00     0.210 HD
ENDBRANCH  29  33
TORSDOF 2
ENDMDL
