MODEL 1
REMARK VINA RESULT:    -3.912      0.000      0.000
REMARK INTER + INTRA:          -4.557
REMARK INTER:                  -4.826
REMARK INTRA:                   0.270
REMARK UNBOUND:                 0.270
REMARK SMILES C=C1[C@H]2CC[C@@H]3[C@@H]2C(C)(C)CCC[C@]13C
REMARK SMILES IDX 14 1 6 2 7 3 3 4 2 5 1 6 4 7 5 8 15 9 8 10 9 11 10 12 11 13
REMARK SMILES IDX 13 15 12 16
REMARK H PARENT
REMARK Flexibility Score: 80.00
ROOT
ATOM      1  C   UNL     1     138.639 135.173 131.225  1.00  0.00    -0.008 C 
ATOM      2  C   UNL     1     137.491 134.730 132.128  1.00  0.00     0.003 C 
ATOM      3  C   UNL     1     136.445 134.484 131.029  1.00  0.00     0.006 C 
ATOM      4  C   UNL     1     137.192 133.300 130.433  1.00  0.00     0.019 C 
ATOM      5  C   UNL     1     138.544 134.019 130.208  1.00  0.00    -0.068 C 
ATOM      6  C   UNL     1     139.427 133.728 129.248  1.00  0.00     0.009 C 
ATOM      7  C   UNL     1     137.375 132.361 131.614  1.00  0.00     0.008 C 
ATOM      8  C   UNL     1     137.647 133.326 132.768  1.00  0.00     0.005 C 
ATOM      9  C   UNL     1     139.999 135.220 131.949  1.00  0.00     0.016 C 
ENDROOT
BRANCH   3  10
ATOM     10  C   UNL     1     135.149 135.283 131.283  1.00  0.00    -0.032 C 
ATOM     11  C   UNL     1     134.049 134.805 130.302  1.00  0.00     0.011 C 
ATOM     12  C   UNL     1     134.595 135.088 132.717  1.00  0.00     0.011 C 
BRANCH  10  13
ATOM     13  C   UNL     1     135.500 136.823 131.010  1.00  0.00     0.007 CG0
ATOM     14  G   UNL     1     136.979 137.353 131.272  1.00  0.00     0.000 G0
ENDBRANCH  10  13
ENDBRANCH   3  10
BRANCH   1  15
ATOM     15  C   UNL     1     138.239 136.606 130.625  1.00  0.00     0.011 C 
BRANCH  15  16
ATOM     16  C   UNL     1     136.984 137.355 131.267  1.00  0.00     0.001 CG0
ATOM     17  G   UNL     1     135.500 136.835 131.008  1.00  0.00     0.000 G0
ENDBRANCH  15  16
ENDBRANCH   1  15
TORSDOF 0
ENDMDL
MODEL 2
REMARK VINA RESULT:    -3.861      2.613      5.718
REMARK INTER + INTRA:          -4.494
REMARK INTER:                  -4.753
REMARK INTRA:                   0.259
REMARK UNBOUND:                 0.270
REMARK SMILES C=C1[C@H]2CC[C@@H]3[C@@H]2C(C)(C)CCC[C@]13C
REMARK SMILES IDX 14 1 6 2 7 3 3 4 2 5 1 6 4 7 5 8 15 9 8 10 9 11 10 12 11 13
REMARK SMILES IDX 13 15 12 16
REMARK H PARENT
REMARK Flexibility Score: 80.00
ROOT
ATOM      1  C   UNL     1     135.188 138.686 131.169  1.00  0.00    -0.008 C 
ATOM      2  C   UNL     1     136.352 139.009 132.103  1.00  0.00     0.003 C 
ATOM      3  C   UNL     1     137.383 139.388 131.028  1.00  0.00     0.006 C 
ATOM      4  C   UNL     1     136.634 140.640 130.599  1.00  0.00     0.019 C 
ATOM      5  C   UNL     1     135.274 139.960 130.305  1.00  0.00    -0.068 C 
ATOM      6  C   UNL     1     134.378 140.373 129.404  1.00  0.00     0.009 C 
ATOM      7  C   UNL     1     136.473 141.422 131.891  1.00  0.00     0.008 C 
ATOM      8  C   UNL     1     136.213 140.320 132.917  1.00  0.00     0.005 C 
ATOM      9  C   UNL     1     133.840 138.553 131.902  1.00  0.00     0.016 C 
ENDROOT
BRANCH   3  10
ATOM     10  C   UNL     1     138.679 138.560 131.158  1.00  0.00    -0.032 C 
ATOM     11  C   UNL     1     139.762 139.145 130.218  1.00  0.00     0.011 C 
ATOM     12  C   UNL     1     139.262 138.580 132.593  1.00  0.00     0.011 C 
BRANCH  10  13
ATOM     13  C   UNL     1     138.312 137.064 130.711  1.00  0.00     0.007 CG0
ATOM     14  G   UNL     1     136.828 136.522 130.914  1.00  0.00     0.000 G0
ENDBRANCH  10  13
ENDBRANCH   3  10
BRANCH   1  15
ATOM     15  C   UNL     1     135.572 137.340 130.386  1.00  0.00     0.011 C 
BRANCH  15  16
ATOM     16  C   UNL     1     136.832 136.511 130.910  1.00  0.00     0.001 CG0
ATOM     17  G   UNL     1     138.313 137.065 130.717  1.00  0.00     0.000 G0
ENDBRANCH  15  16
ENDBRANCH   1  15
TORSDOF 0
ENDMDL
MODEL 3
REMARK VINA RESULT:    -3.854      1.520      2.003
REMARK INTER + INTRA:          -4.486
REMARK INTER:                  -4.757
REMARK INTRA:                   0.271
REMARK UNBOUND:                 0.270
REMARK SMILES C=C1[C@H]2CC[C@@H]3[C@@H]2C(C)(C)CCC[C@]13C
REMARK SMILES IDX 14 1 6 2 7 3 3 4 2 5 1 6 4 7 5 8 15 9 8 10 9 11 10 12 11 13
REMARK SMILES IDX 13 15 12 16
REMARK H PARENT
REMARK Flexibility Score: 80.00
ROOT
ATOM      1  C   UNL     1     137.502 134.762 131.288  1.00  0.00    -0.008 C 
ATOM      2  C   UNL     1     136.368 135.482 132.014  1.00  0.00     0.003 C 
ATOM      3  C   UNL     1     135.197 134.697 131.401  1.00  0.00     0.006 C 
ATOM      4  C   UNL     1     135.574 133.392 132.084  1.00  0.00     0.019 C 
ATOM      5  C   UNL     1     137.034 133.322 131.576  1.00  0.00    -0.068 C 
ATOM      6  C   UNL     1     137.727 132.201 131.357  1.00  0.00     0.009 C 
ATOM      7  C   UNL     1     135.630 133.761 133.557  1.00  0.00     0.008 C 
ATOM      8  C   UNL     1     136.235 135.164 133.525  1.00  0.00     0.005 C 
ATOM      9  C   UNL     1     138.892 135.067 131.878  1.00  0.00     0.016 C 
ENDROOT
BRANCH   3  10
ATOM     10  C   UNL     1     134.164 135.633 130.738  1.00  0.00    -0.032 C 
ATOM     11  C   UNL     1     132.892 134.826 130.378  1.00  0.00     0.011 C 
ATOM     12  C   UNL     1     133.721 136.791 131.667  1.00  0.00     0.011 C 
BRANCH  10  13
ATOM     13  C   UNL     1     134.851 136.201 129.405  1.00  0.00     0.007 CG0
ATOM     14  G   UNL     1     136.432 136.391 129.352  1.00  0.00     0.000 G0
ENDBRANCH  10  13
ENDBRANCH   3  10
BRANCH   1  15
ATOM     15  C   UNL     1     137.410 135.180 129.742  1.00  0.00     0.011 C 
BRANCH  15  16
ATOM     16  C   UNL     1     136.441 136.389 129.356  1.00  0.00     0.001 CG0
ATOM     17  G   UNL     1     134.858 136.215 129.405  1.00  0.00     0.000 G0
ENDBRANCH  15  16
ENDBRANCH   1  15
TORSDOF 0
ENDMDL
MODEL 4
REMARK VINA RESULT:    -3.815      2.831      4.865
REMARK INTER + INTRA:          -4.438
REMARK INTER:                  -4.706
REMARK INTRA:                   0.268
REMARK UNBOUND:                 0.270
REMARK SMILES C=C1[C@H]2CC[C@@H]3[C@@H]2C(C)(C)CCC[C@]13C
REMARK SMILES IDX 14 1 6 2 7 3 3 4 2 5 1 6 4 7 5 8 15 9 8 10 9 11 10 12 11 13
REMARK SMILES IDX 13 15 12 16
REMARK H PARENT
REMARK Flexibility Score: 80.00
ROOT
ATOM      1  C   UNL     1     134.696 136.184 131.324  1.00  0.00    -0.008 C 
ATOM      2  C   UNL     1     135.348 137.333 132.089  1.00  0.00     0.003 C 
ATOM      3  C   UNL     1     134.549 138.484 131.457  1.00  0.00     0.006 C 
ATOM      4  C   UNL     1     133.232 138.057 132.085  1.00  0.00     0.019 C 
ATOM      5  C   UNL     1     133.231 136.601 131.561  1.00  0.00    -0.068 C 
ATOM      6  C   UNL     1     132.143 135.873 131.291  1.00  0.00     0.009 C 
ATOM      7  C   UNL     1     133.546 137.997 133.571  1.00  0.00     0.008 C 
ATOM      8  C   UNL     1     134.969 137.439 133.588  1.00  0.00     0.005 C 
ATOM      9  C   UNL     1     135.024 134.799 131.912  1.00  0.00     0.016 C 
ENDROOT
BRANCH   3  10
ATOM     10  C   UNL     1     135.475 139.554 130.841  1.00  0.00    -0.032 C 
ATOM     11  C   UNL     1     134.638 140.796 130.448  1.00  0.00     0.011 C 
ATOM     12  C   UNL     1     136.571 140.037 131.823  1.00  0.00     0.011 C 
BRANCH  10  13
ATOM     13  C   UNL     1     136.130 138.895 129.534  1.00  0.00     0.007 CG0
ATOM     14  G   UNL     1     136.352 137.319 129.473  1.00  0.00     0.000 G0
ENDBRANCH  10  13
ENDBRANCH   3  10
BRANCH   1  15
ATOM     15  C   UNL     1     135.170 136.306 129.796  1.00  0.00     0.011 C 
BRANCH  15  16
ATOM     16  C   UNL     1     136.359 137.320 129.468  1.00  0.00     0.001 CG0
ATOM     17  G   UNL     1     136.130 138.896 129.527  1.00  0.00     0.000 G0
ENDBRANCH  15  16
ENDBRANCH   1  15
TORSDOF 0
ENDMDL
MODEL 5
REMARK VINA RESULT:    -3.740      1.914      3.810
REMARK INTER + INTRA:          -4.345
REMARK INTER:                  -4.615
REMARK INTRA:                   0.270
REMARK UNBOUND:                 0.270
REMARK SMILES C=C1[C@H]2CC[C@@H]3[C@@H]2C(C)(C)CCC[C@]13C
REMARK SMILES IDX 14 1 6 2 7 3 3 4 2 5 1 6 4 7 5 8 15 9 8 10 9 11 10 12 11 13
REMARK SMILES IDX 13 15 12 16
REMARK H PARENT
REMARK Flexibility Score: 80.00
ROOT
ATOM      1  C   UNL     1     138.551 138.654 131.382  1.00  0.00    -0.008 C 
ATOM      2  C   UNL     1     138.746 137.491 132.350  1.00  0.00     0.003 C 
ATOM      3  C   UNL     1     139.036 136.399 131.308  1.00  0.00     0.006 C 
ATOM      4  C   UNL     1     140.360 137.010 130.878  1.00  0.00     0.019 C 
ATOM      5  C   UNL     1     139.821 138.421 130.540  1.00  0.00    -0.068 C 
ATOM      6  C   UNL     1     140.331 139.247 129.622  1.00  0.00     0.009 C 
ATOM      7  C   UNL     1     141.138 137.128 132.178  1.00  0.00     0.008 C 
ATOM      8  C   UNL     1     140.054 137.523 133.180  1.00  0.00     0.005 C 
ATOM      9  C   UNL     1     138.542 140.029 132.077  1.00  0.00     0.016 C 
ENDROOT
BRANCH   3  10
ATOM     10  C   UNL     1     138.082 135.194 131.459  1.00  0.00    -0.032 C 
ATOM     11  C   UNL     1     138.575 134.030 130.564  1.00  0.00     0.011 C 
ATOM     12  C   UNL     1     138.019 134.657 132.910  1.00  0.00     0.011 C 
BRANCH  10  13
ATOM     13  C   UNL     1     136.638 135.691 130.970  1.00  0.00     0.007 CG0
ATOM     14  G   UNL     1     136.233 137.222 131.136  1.00  0.00     0.000 G0
ENDBRANCH  10  13
ENDBRANCH   3  10
BRANCH   1  15
ATOM     15  C   UNL     1     137.184 138.383 130.588  1.00  0.00     0.011 C 
BRANCH  15  16
ATOM     16  C   UNL     1     136.229 137.224 131.130  1.00  0.00     0.001 CG0
ATOM     17  G   UNL     1     136.635 135.691 130.976  1.00  0.00     0.000 G0
ENDBRANCH  15  16
ENDBRANCH   1  15
TORSDOF 0
ENDMDL
MODEL 6
REMARK VINA RESULT:    -3.728      1.921      3.886
REMARK INTER + INTRA:          -4.330
REMARK INTER:                  -4.613
REMARK INTRA:                   0.283
REMARK UNBOUND:                 0.270
REMARK SMILES C=C1[C@H]2CC[C@@H]3[C@@H]2C(C)(C)CCC[C@]13C
REMARK SMILES IDX 14 1 6 2 7 3 3 4 2 5 1 6 4 7 5 8 15 9 8 10 9 11 10 12 11 13
REMARK SMILES IDX 13 15 12 16
REMARK H PARENT
REMARK Flexibility Score: 80.00
ROOT
ATOM      1  C   UNL     1     135.376 135.142 131.192  1.00  0.00    -0.008 C 
ATOM      2  C   UNL     1     134.874 136.225 132.143  1.00  0.00     0.003 C 
ATOM      3  C   UNL     1     134.582 137.307 131.091  1.00  0.00     0.006 C 
ATOM      4  C   UNL     1     133.438 136.532 130.455  1.00  0.00     0.019 C 
ATOM      5  C   UNL     1     134.222 135.227 130.174  1.00  0.00    -0.068 C 
ATOM      6  C   UNL     1     133.979 134.375 129.174  1.00  0.00     0.009 C 
ATOM      7  C   UNL     1     132.505 136.250 131.621  1.00  0.00     0.008 C 
ATOM      8  C   UNL     1     133.477 135.973 132.767  1.00  0.00     0.005 C 
ATOM      9  C   UNL     1     135.486 133.755 131.854  1.00  0.00     0.016 C 
ENDROOT
BRANCH   3  10
ATOM     10  C   UNL     1     135.315 138.628 131.407  1.00  0.00    -0.032 C 
ATOM     11  C   UNL     1     134.777 139.750 130.486  1.00  0.00     0.011 C 
ATOM     12  C   UNL     1     135.103 139.097 132.868  1.00  0.00     0.011 C 
BRANCH  10  13
ATOM     13  C   UNL     1     136.869 138.370 131.110  1.00  0.00     0.007 CG0
ATOM     14  G   UNL     1     137.478 136.911 131.305  1.00  0.00     0.000 G0
ENDBRANCH  10  13
ENDBRANCH   3  10
BRANCH   1  15
ATOM     15  C   UNL     1     136.790 135.638 130.619  1.00  0.00     0.011 C 
BRANCH  15  16
ATOM     16  C   UNL     1     137.468 136.906 131.313  1.00  0.00     0.001 CG0
ATOM     17  G   UNL     1     136.866 138.367 131.115  1.00  0.00     0.000 G0
ENDBRANCH  15  16
ENDBRANCH   1  15
TORSDOF 0
ENDMDL
MODEL 7
REMARK VINA RESULT:    -3.700      2.276      4.456
REMARK INTER + INTRA:          -4.295
REMARK INTER:                  -4.557
REMARK INTRA:                   0.262
REMARK UNBOUND:                 0.270
REMARK SMILES C=C1[C@H]2CC[C@@H]3[C@@H]2C(C)(C)CCC[C@]13C
REMARK SMILES IDX 14 1 6 2 7 3 3 4 2 5 1 6 4 7 5 8 15 9 8 10 9 11 10 12 11 13
REMARK SMILES IDX 13 15 12 16
REMARK H PARENT
REMARK Flexibility Score: 80.00
ROOT
ATOM      1  C   UNL     1     138.786 137.913 132.867  1.00  0.00    -0.008 C 
ATOM      2  C   UNL     1     139.568 137.064 131.867  1.00  0.00     0.003 C 
ATOM      3  C   UNL     1     138.717 137.371 130.624  1.00  0.00     0.006 C 
ATOM      4  C   UNL     1     139.127 138.834 130.572  1.00  0.00     0.019 C 
ATOM      5  C   UNL     1     138.722 139.200 132.021  1.00  0.00    -0.068 C 
ATOM      6  C   UNL     1     138.316 140.404 132.432  1.00  0.00     0.009 C 
ATOM      7  C   UNL     1     140.645 138.780 130.532  1.00  0.00     0.008 C 
ATOM      8  C   UNL     1     140.961 137.614 131.468  1.00  0.00     0.005 C 
ATOM      9  C   UNL     1     139.527 138.115 134.203  1.00  0.00     0.016 C 
ENDROOT
BRANCH   3  10
ATOM     10  C   UNL     1     138.200 136.081 129.951  1.00  0.00    -0.032 C 
ATOM     11  C   UNL     1     137.578 136.430 128.577  1.00  0.00     0.011 C 
ATOM     12  C   UNL     1     139.324 135.047 129.692  1.00  0.00     0.011 C 
BRANCH  10  13
ATOM     13  C   UNL     1     137.080 135.475 130.925  1.00  0.00     0.007 CG0
ATOM     14  G   UNL     1     137.187 135.716 132.496  1.00  0.00     0.000 G0
ENDBRANCH  10  13
ENDBRANCH   3  10
BRANCH   1  15
ATOM     15  C   UNL     1     137.365 137.200 133.079  1.00  0.00     0.011 C 
BRANCH  15  16
ATOM     16  C   UNL     1     137.182 135.723 132.502  1.00  0.00     0.001 CG0
ATOM     17  G   UNL     1     137.087 135.464 130.932  1.00  0.00     0.000 G0
ENDBRANCH  15  16
ENDBRANCH   1  15
TORSDOF 0
ENDMDL
MODEL 8
REMARK VINA RESULT:    -3.660      2.400      4.887
REMARK INTER + INTRA:          -4.246
REMARK INTER:                  -4.506
REMARK INTRA:                   0.259
REMARK UNBOUND:                 0.270
REMARK SMILES C=C1[C@H]2CC[C@@H]3[C@@H]2C(C)(C)CCC[C@]13C
REMARK SMILES IDX 14 1 6 2 7 3 3 4 2 5 1 6 4 7 5 8 15 9 8 10 9 11 10 12 11 13
REMARK SMILES IDX 13 15 12 16
REMARK H PARENT
REMARK Flexibility Score: 80.00
ROOT
ATOM      1  C   UNL     1     133.665 136.039 131.097  1.00  0.00    -0.008 C 
ATOM      2  C   UNL     1     134.198 136.923 132.222  1.00  0.00     0.003 C 
ATOM      3  C   UNL     1     135.625 137.111 131.681  1.00  0.00     0.006 C 
ATOM      4  C   UNL     1     135.177 137.927 130.479  1.00  0.00     0.019 C 
ATOM      5  C   UNL     1     134.157 136.905 129.920  1.00  0.00    -0.068 C 
ATOM      6  C   UNL     1     133.830 136.758 128.633  1.00  0.00     0.009 C 
ATOM      7  C   UNL     1     134.379 139.064 131.095  1.00  0.00     0.008 C 
ATOM      8  C   UNL     1     133.652 138.374 132.249  1.00  0.00     0.005 C 
ATOM      9  C   UNL     1     132.133 135.883 131.122  1.00  0.00     0.016 C 
ENDROOT
BRANCH   3  10
ATOM     10  C   UNL     1     136.690 136.692 132.716  1.00  0.00    -0.032 C 
ATOM     11  C   UNL     1     138.091 137.129 132.220  1.00  0.00     0.011 C 
ATOM     12  C   UNL     1     136.472 137.351 134.101  1.00  0.00     0.011 C 
BRANCH  10  13
ATOM     13  C   UNL     1     136.619 135.094 132.826  1.00  0.00     0.007 CG0
ATOM     14  G   UNL     1     135.239 134.346 132.550  1.00  0.00     0.000 G0
ENDBRANCH  10  13
ENDBRANCH   3  10
BRANCH   1  15
ATOM     15  C   UNL     1     134.408 134.623 131.220  1.00  0.00     0.011 C 
BRANCH  15  16
ATOM     16  C   UNL     1     135.244 134.336 132.549  1.00  0.00     0.001 CG0
ATOM     17  G   UNL     1     136.616 135.095 132.832  1.00  0.00     0.000 G0
ENDBRANCH  15  16
ENDBRANCH   1  15
TORSDOF 0
ENDMDL
MODEL 9
REMARK VINA RESULT:    -3.658      1.931      3.397
REMARK INTER + INTRA:          -4.244
REMARK INTER:                  -4.505
REMARK INTRA:                   0.260
REMARK UNBOUND:                 0.270
REMARK SMILES C=C1[C@H]2CC[C@@H]3[C@@H]2C(C)(C)CCC[C@]13C
REMARK SMILES IDX 14 1 6 2 7 3 3 4 2 5 1 6 4 7 5 8 15 9 8 10 9 11 10 12 11 13
REMARK SMILES IDX 13 15 12 16
REMARK H PARENT
REMARK Flexibility Score: 80.00
ROOT
ATOM      1  C   UNL     1     135.743 134.688 131.734  1.00  0.00    -0.008 C 
ATOM      2  C   UNL     1     134.440 135.482 131.766  1.00  0.00     0.003 C 
ATOM      3  C   UNL     1     134.912 136.688 130.938  1.00  0.00     0.006 C 
ATOM      4  C   UNL     1     135.059 135.886 129.654  1.00  0.00     0.019 C 
ATOM      5  C   UNL     1     135.997 134.791 130.217  1.00  0.00    -0.068 C 
ATOM      6  C   UNL     1     136.914 134.119 129.515  1.00  0.00     0.009 C 
ATOM      7  C   UNL     1     133.691 135.251 129.470  1.00  0.00     0.008 C 
ATOM      8  C   UNL     1     133.286 134.909 130.904  1.00  0.00     0.005 C 
ATOM      9  C   UNL     1     135.580 133.232 132.213  1.00  0.00     0.016 C 
ENDROOT
BRANCH   3  10
ATOM     10  C   UNL     1     134.696 138.019 131.689  1.00  0.00    -0.032 C 
ATOM     11  C   UNL     1     134.949 139.204 130.724  1.00  0.00     0.011 C 
ATOM     12  C   UNL     1     133.253 138.175 132.231  1.00  0.00     0.011 C 
BRANCH  10  13
ATOM     13  C   UNL     1     135.761 138.047 132.886  1.00  0.00     0.007 CG0
ATOM     14  G   UNL     1     136.255 136.677 133.534  1.00  0.00     0.000 G0
ENDBRANCH  10  13
ENDBRANCH   3  10
BRANCH   1  15
ATOM     15  C   UNL     1     136.805 135.490 132.630  1.00  0.00     0.011 C 
BRANCH  15  16
ATOM     16  C   UNL     1     136.257 136.679 133.543  1.00  0.00     0.001 CG0
ATOM     17  G   UNL     1     135.760 138.046 132.893  1.00  0.00     0.000 G0
ENDBRANCH  15  16
ENDBRANCH   1  15
TORSDOF 0
ENDMDL
