MODEL 1
REMARK VINA RESULT:    -7.848      0.000      0.000
REMARK INTER + INTRA:         -14.562
REMARK INTER:                 -12.895
REMARK INTRA:                  -1.666
REMARK UNBOUND:                -1.666
REMARK SMILES COc1ccc([C@@H]2CC(=O)c3c(O)cc(O[C@H]4O[C@H](CO[C@@H]5O[C@H](C)[C@@H](O)[C@H](O)[C@H]5O)[C@H](O)[C@H](O)[C@@H]4O)cc3O2)cc1O
REMARK SMILES IDX 19 1 32 2 34 3 36 4 17 5 18 6 20 7 21 8 22 9 25 10 24 11
REMARK SMILES IDX 26 12 23 13 28 14 30 15 27 16 29 18 31 20 33 22 35 24 16 26
REMARK SMILES IDX 15 27 14 28 38 29 12 30 39 31 11 32 40 33 9 34 7 35 10 36
REMARK SMILES IDX 8 37 13 38 6 40 41 41 5 42 42 43 4 44 3 45 43 46 2 48 1 49
REMARK SMILES IDX 37 50
REMARK H PARENT 27 17 29 19 31 21 33 23 35 25 13 39 43 47 37 51
REMARK Flexibility Score: inf
ROOT
ATOM      1  C   UNL     1      -4.145  -5.752  -1.974  1.00  0.00     0.180 C 
ATOM      2  C   UNL     1      -4.875  -4.565  -2.687  1.00  0.00     0.177 C 
ATOM      3  C   UNL     1      -5.453  -3.390  -1.751  1.00  0.00     0.180 C 
ATOM      4  C   UNL     1      -6.094  -3.880  -0.405  1.00  0.00     0.214 C 
ATOM      5  C   UNL     1      -5.424  -5.168   0.037  1.00  0.00     0.339 C 
ATOM      6  O   UNL     1      -4.865  -6.205  -0.836  1.00  0.00    -0.332 OA
ENDROOT
BRANCH   1   7
ATOM      7  C   UNL     1      -2.646  -5.564  -1.647  1.00  0.00     0.198 C 
BRANCH   7   8
ATOM      8  O   UNL     1      -1.861  -6.448  -2.417  1.00  0.00    -0.347 OA
BRANCH   8   9
ATOM      9  C   UNL     1      -1.488  -5.866  -3.706  1.00  0.00     0.281 C 
ATOM     10  C   UNL     1      -0.002  -8.826  -3.720  1.00  0.00     0.041 C 
ATOM     11  C   UNL     1      -0.006  -7.656  -4.662  1.00  0.00     0.150 C 
ATOM     12  C   UNL     1       1.308  -6.753  -4.421  1.00  0.00     0.174 C 
ATOM     13  O   UNL     1      -1.262  -6.885  -4.705  1.00  0.00    -0.344 OA
ATOM     14  C   UNL     1       1.054  -5.659  -3.270  1.00  0.00     0.179 C 
ATOM     15  C   UNL     1      -0.226  -4.875  -3.630  1.00  0.00     0.202 C 
BRANCH  12  16
ATOM     16  O   UNL     1       1.741  -6.015  -5.580  1.00  0.00    -0.388 OA
ATOM     17  H   UNL     1       0.984  -5.909  -6.211  1.00  0.00     0.211 HD
ENDBRANCH  12  16
BRANCH  14  18
ATOM     18  O   UNL     1       0.900  -6.375  -2.081  1.00  0.00    -0.387 OA
ATOM     19  H   UNL     1       0.528  -5.721  -1.378  1.00  0.00     0.211 HD
ENDBRANCH  14  18
BRANCH  15  20
ATOM     20  O   UNL     1       0.018  -4.158  -4.807  1.00  0.00    -0.385 OA
ATOM     21  H   UNL     1       0.613  -3.341  -4.633  1.00  0.00     0.211 HD
ENDBRANCH  15  20
ENDBRANCH   8   9
ENDBRANCH   7   8
ENDBRANCH   1   7
BRANCH   2  22
ATOM     22  O   UNL     1      -4.186  -4.123  -3.833  1.00  0.00    -0.387 OA
ATOM     23  H   UNL     1      -4.175  -3.079  -3.908  1.00  0.00     0.211 HD
ENDBRANCH   2  22
BRANCH   3  24
ATOM     24  O   UNL     1      -4.814  -2.158  -1.875  1.00  0.00    -0.387 OA
ATOM     25  H   UNL     1      -5.033  -1.661  -1.015  1.00  0.00     0.211 HD
ENDBRANCH   3  24
BRANCH   5  26
ATOM     26  O   UNL     1      -6.288  -5.902   0.962  1.00  0.00    -0.462 OA
BRANCH  26  27
ATOM     27  C   UNL     1      -5.781  -6.567   2.141  1.00  0.00     0.130 A 
ATOM     28  C   UNL     1      -6.566  -6.947   3.286  1.00  0.00     0.093 A 
ATOM     29  C   UNL     1      -4.484  -6.158   2.599  1.00  0.00     0.094 A 
ATOM     30  C   UNL     1      -6.699  -6.058   4.357  1.00  0.00     0.133 A 
ATOM     31  C   UNL     1      -4.582  -5.133   3.556  1.00  0.00     0.138 A 
ATOM     32  C   UNL     1      -5.632  -5.053   4.468  1.00  0.00     0.102 A 
ATOM     33  O   UNL     1      -3.601  -4.125   3.477  1.00  0.00    -0.484 OA
ATOM     34  C   UNL     1      -5.748  -3.835   5.217  1.00  0.00     0.174 C 
ATOM     35  C   UNL     1      -3.189  -3.498   4.692  1.00  0.00     0.211 C 
ATOM     36  O   UNL     1      -6.881  -3.186   5.332  1.00  0.00    -0.294 OA
ATOM     37  C   UNL     1      -4.412  -3.066   5.513  1.00  0.00     0.131 C 
BRANCH  30  38
ATOM     38  O   UNL     1      -7.481  -6.354   5.441  1.00  0.00    -0.507 OA
ATOM     39  H   UNL     1      -7.221  -7.081   6.144  1.00  0.00     0.293 HD
ENDBRANCH  30  38
BRANCH  35  40
ATOM     40  C   UNL     1      -2.245  -4.386   5.525  1.00  0.00    -0.003 A 
ATOM     41  C   UNL     1      -0.953  -4.517   5.066  1.00  0.00     0.057 A 
ATOM     42  C   UNL     1      -2.623  -5.050   6.677  1.00  0.00     0.011 A 
ATOM     43  C   UNL     1       0.106  -5.147   5.807  1.00  0.00     0.158 A 
ATOM     44  C   UNL     1      -1.651  -5.733   7.463  1.00  0.00     0.051 A 
ATOM     45  C   UNL     1      -0.249  -5.694   7.058  1.00  0.00     0.160 A 
BRANCH  43  46
ATOM     46  O   UNL     1       1.368  -5.271   5.236  1.00  0.00    -0.504 OA
ATOM     47  H   UNL     1       1.833  -6.203   5.363  1.00  0.00     0.293 HD
ENDBRANCH  43  46
BRANCH  45  48
ATOM     48  O   UNL     1       0.737  -6.196   7.944  1.00  0.00    -0.493 OA
ATOM     49  C   UNL     1       1.178  -7.557   7.933  1.00  0.00     0.278 C 
ENDBRANCH  45  48
ENDBRANCH  35  40
ENDBRANCH  26  27
ENDBRANCH   5  26
BRANCH   4  50
ATOM     50  O   UNL     1      -6.403  -3.009   0.722  1.00  0.00    -0.384 OA
ATOM     51  H   UNL     1      -6.694  -2.099   0.470  1.00  0.00     0.211 HD
ENDBRANCH   4  50
TORSDOF 15
ENDMDL
MODEL 2
REMARK VINA RESULT:    -7.684      1.286      1.906
REMARK INTER + INTRA:         -14.292
REMARK INTER:                 -11.902
REMARK INTRA:                  -2.389
REMARK UNBOUND:                -1.666
REMARK SMILES COc1ccc([C@@H]2CC(=O)c3c(O)cc(O[C@H]4O[C@H](CO[C@@H]5O[C@H](C)[C@@H](O)[C@H](O)[C@H]5O)[C@H](O)[C@H](O)[C@@H]4O)cc3O2)cc1O
REMARK SMILES IDX 19 1 32 2 34 3 36 4 17 5 18 6 20 7 21 8 22 9 25 10 24 11
REMARK SMILES IDX 26 12 23 13 28 14 30 15 27 16 29 18 31 20 33 22 35 24 16 26
REMARK SMILES IDX 15 27 14 28 38 29 12 30 39 31 11 32 40 33 9 34 7 35 10 36
REMARK SMILES IDX 8 37 13 38 6 40 41 41 5 42 42 43 4 44 3 45 43 46 2 48 1 49
REMARK SMILES IDX 37 50
REMARK H PARENT 27 17 29 19 31 21 33 23 35 25 13 39 43 47 37 51
REMARK Flexibility Score: inf
ROOT
ATOM      1  C   UNL     1      -4.857  -6.173  -2.206  1.00  0.00     0.180 C 
ATOM      2  C   UNL     1      -4.904  -4.630  -2.463  1.00  0.00     0.177 C 
ATOM      3  C   UNL     1      -4.394  -3.670  -1.275  1.00  0.00     0.180 C 
ATOM      4  C   UNL     1      -4.804  -4.139   0.165  1.00  0.00     0.214 C 
ATOM      5  C   UNL     1      -4.937  -5.650   0.190  1.00  0.00     0.339 C 
ATOM      6  O   UNL     1      -5.361  -6.507  -0.920  1.00  0.00    -0.332 OA
ENDROOT
BRANCH   1   7
ATOM      7  C   UNL     1      -3.517  -6.894  -2.484  1.00  0.00     0.198 C 
BRANCH   7   8
ATOM      8  O   UNL     1      -2.590  -6.001  -3.058  1.00  0.00    -0.347 OA
BRANCH   8   9
ATOM      9  C   UNL     1      -1.390  -5.854  -2.234  1.00  0.00     0.281 C 
ATOM     10  C   UNL     1      -0.813  -3.869  -4.822  1.00  0.00     0.041 C 
ATOM     11  C   UNL     1      -0.006  -4.284  -3.625  1.00  0.00     0.150 C 
ATOM     12  C   UNL     1       1.006  -5.473  -4.031  1.00  0.00     0.174 C 
ATOM     13  O   UNL     1      -0.784  -4.553  -2.402  1.00  0.00    -0.344 OA
ATOM     14  C   UNL     1       0.298  -6.909  -3.887  1.00  0.00     0.179 C 
ATOM     15  C   UNL     1      -0.298  -7.008  -2.467  1.00  0.00     0.202 C 
BRANCH  12  16
ATOM     16  O   UNL     1       2.199  -5.536  -3.226  1.00  0.00    -0.388 OA
ATOM     17  H   UNL     1       2.924  -5.978  -3.738  1.00  0.00     0.211 HD
ENDBRANCH  12  16
BRANCH  14  18
ATOM     18  O   UNL     1      -0.698  -6.950  -4.865  1.00  0.00    -0.387 OA
ATOM     19  H   UNL     1      -0.665  -7.885  -5.295  1.00  0.00     0.211 HD
ENDBRANCH  14  18
BRANCH  15  20
ATOM     20  O   UNL     1       0.759  -6.997  -1.549  1.00  0.00    -0.385 OA
ATOM     21  H   UNL     1       0.567  -7.605  -0.746  1.00  0.00     0.211 HD
ENDBRANCH  15  20
ENDBRANCH   8   9
ENDBRANCH   7   8
ENDBRANCH   1   7
BRANCH   2  22
ATOM     22  O   UNL     1      -4.431  -4.286  -3.745  1.00  0.00    -0.387 OA
ATOM     23  H   UNL     1      -3.398  -4.434  -3.837  1.00  0.00     0.211 HD
ENDBRANCH   2  22
BRANCH   3  24
ATOM     24  O   UNL     1      -3.215  -2.975  -1.533  1.00  0.00    -0.387 OA
ATOM     25  H   UNL     1      -2.522  -3.695  -1.723  1.00  0.00     0.211 HD
ENDBRANCH   3  24
BRANCH   5  26
ATOM     26  O   UNL     1      -5.775  -6.072   1.313  1.00  0.00    -0.462 OA
BRANCH  26  27
ATOM     27  C   UNL     1      -5.285  -6.919   2.377  1.00  0.00     0.130 A 
ATOM     28  C   UNL     1      -6.045  -7.341   3.524  1.00  0.00     0.093 A 
ATOM     29  C   UNL     1      -3.927  -6.708   2.789  1.00  0.00     0.094 A 
ATOM     30  C   UNL     1      -6.018  -6.571   4.691  1.00  0.00     0.133 A 
ATOM     31  C   UNL     1      -3.855  -5.795   3.856  1.00  0.00     0.138 A 
ATOM     32  C   UNL     1      -4.838  -5.707   4.839  1.00  0.00     0.102 A 
ATOM     33  O   UNL     1      -2.770  -4.897   3.822  1.00  0.00    -0.484 OA
ATOM     34  C   UNL     1      -4.772  -4.579   5.721  1.00  0.00     0.174 C 
ATOM     35  C   UNL     1      -2.223  -4.463   5.068  1.00  0.00     0.211 C 
ATOM     36  O   UNL     1      -5.815  -3.828   5.981  1.00  0.00    -0.294 OA
ATOM     37  C   UNL     1      -3.344  -3.998   6.009  1.00  0.00     0.131 C 
BRANCH  30  38
ATOM     38  O   UNL     1      -6.770  -6.904   5.786  1.00  0.00    -0.507 OA
ATOM     39  H   UNL     1      -6.412  -6.821   6.764  1.00  0.00     0.293 HD
ENDBRANCH  30  38
BRANCH  35  40
ATOM     40  C   UNL     1      -1.345  -5.537   5.735  1.00  0.00    -0.003 A 
ATOM     41  C   UNL     1      -0.013  -5.555   5.382  1.00  0.00     0.057 A 
ATOM     42  C   UNL     1      -1.816  -6.469   6.641  1.00  0.00     0.011 A 
ATOM     43  C   UNL     1       0.983  -6.357   6.037  1.00  0.00     0.158 A 
ATOM     44  C   UNL     1      -0.908  -7.333   7.318  1.00  0.00     0.051 A 
ATOM     45  C   UNL     1       0.524  -7.201   7.070  1.00  0.00     0.160 A 
BRANCH  43  46
ATOM     46  O   UNL     1       2.295  -6.341   5.574  1.00  0.00    -0.504 OA
ATOM     47  H   UNL     1       2.604  -7.197   5.053  1.00  0.00     0.293 HD
ENDBRANCH  43  46
BRANCH  45  48
ATOM     48  O   UNL     1       1.434  -7.916   7.889  1.00  0.00    -0.493 OA
ATOM     49  C   UNL     1       1.589  -9.337   7.830  1.00  0.00     0.278 C 
ENDBRANCH  45  48
ENDBRANCH  35  40
ENDBRANCH  26  27
ENDBRANCH   5  26
BRANCH   4  50
ATOM     50  O   UNL     1      -4.218  -3.620   1.395  1.00  0.00    -0.384 OA
ATOM     51  H   UNL     1      -4.845  -3.568   2.158  1.00  0.00     0.211 HD
ENDBRANCH   4  50
TORSDOF 15
ENDMDL
MODEL 3
REMARK VINA RESULT:    -7.681      3.011      9.284
REMARK INTER + INTRA:         -14.287
REMARK INTER:                 -11.649
REMARK INTRA:                  -2.638
REMARK UNBOUND:                -1.666
REMARK SMILES COc1ccc([C@@H]2CC(=O)c3c(O)cc(O[C@H]4O[C@H](CO[C@@H]5O[C@H](C)[C@@H](O)[C@H](O)[C@H]5O)[C@H](O)[C@H](O)[C@@H]4O)cc3O2)cc1O
REMARK SMILES IDX 19 1 32 2 34 3 36 4 17 5 18 6 20 7 21 8 22 9 25 10 24 11
REMARK SMILES IDX 26 12 23 13 28 14 30 15 27 16 29 18 31 20 33 22 35 24 16 26
REMARK SMILES IDX 15 27 14 28 38 29 12 30 39 31 11 32 40 33 9 34 7 35 10 36
REMARK SMILES IDX 8 37 13 38 6 40 41 41 5 42 42 43 4 44 3 45 43 46 2 48 1 49
REMARK SMILES IDX 37 50
REMARK H PARENT 27 17 29 19 31 21 33 23 35 25 13 39 43 47 37 51
REMARK Flexibility Score: inf
ROOT
ATOM      1  C   UNL     1      -1.316  -9.935   5.482  1.00  0.00     0.180 C 
ATOM      2  C   UNL     1       0.221 -10.125   5.257  1.00  0.00     0.177 C 
ATOM      3  C   UNL     1       0.875  -9.384   3.986  1.00  0.00     0.180 C 
ATOM      4  C   UNL     1      -0.015  -9.396   2.693  1.00  0.00     0.214 C 
ATOM      5  C   UNL     1      -1.480  -9.440   3.085  1.00  0.00     0.339 C 
ATOM      6  O   UNL     1      -2.047 -10.084   4.273  1.00  0.00    -0.332 OA
ENDROOT
BRANCH   1   7
ATOM      7  C   UNL     1      -1.766  -8.673   6.254  1.00  0.00     0.198 C 
BRANCH   7   8
ATOM      8  O   UNL     1      -0.826  -7.635   6.087  1.00  0.00    -0.347 OA
BRANCH   8   9
ATOM      9  C   UNL     1      -1.141  -6.473   6.917  1.00  0.00     0.281 C 
ATOM     10  C   UNL     1      -2.687  -5.837   4.058  1.00  0.00     0.041 C 
ATOM     11  C   UNL     1      -2.498  -5.069   5.335  1.00  0.00     0.150 C 
ATOM     12  C   UNL     1      -1.288  -4.016   5.169  1.00  0.00     0.174 C 
ATOM     13  O   UNL     1      -2.412  -5.889   6.558  1.00  0.00    -0.344 OA
ATOM     14  C   UNL     1       0.124  -4.697   5.523  1.00  0.00     0.179 C 
ATOM     15  C   UNL     1       0.005  -5.347   6.918  1.00  0.00     0.202 C 
BRANCH  12  16
ATOM     16  O   UNL     1      -1.392  -2.855   6.015  1.00  0.00    -0.388 OA
ATOM     17  H   UNL     1      -0.903  -3.015   6.863  1.00  0.00     0.211 HD
ENDBRANCH  12  16
BRANCH  14  18
ATOM     18  O   UNL     1       0.355  -5.653   4.531  1.00  0.00    -0.387 OA
ATOM     19  H   UNL     1       1.276  -6.071   4.718  1.00  0.00     0.211 HD
ENDBRANCH  14  18
BRANCH  15  20
ATOM     20  O   UNL     1      -0.187  -4.328   7.859  1.00  0.00    -0.385 OA
ATOM     21  H   UNL     1      -0.816  -3.600   7.502  1.00  0.00     0.211 HD
ENDBRANCH  15  20
ENDBRANCH   8   9
ENDBRANCH   7   8
ENDBRANCH   1   7
BRANCH   2  22
ATOM     22  O   UNL     1       0.957 -10.006   6.453  1.00  0.00    -0.387 OA
ATOM     23  H   UNL     1       0.691  -9.151   6.996  1.00  0.00     0.211 HD
ENDBRANCH   2  22
BRANCH   3  24
ATOM     24  O   UNL     1       1.752  -8.344   4.286  1.00  0.00    -0.387 OA
ATOM     25  H   UNL     1       2.582  -8.800   4.658  1.00  0.00     0.211 HD
ENDBRANCH   3  24
BRANCH   5  26
ATOM     26  O   UNL     1      -2.290  -9.947   1.977  1.00  0.00    -0.462 OA
BRANCH  26  27
ATOM     27  C   UNL     1      -3.305  -9.151   1.325  1.00  0.00     0.130 A 
ATOM     28  C   UNL     1      -4.235  -9.632   0.337  1.00  0.00     0.093 A 
ATOM     29  C   UNL     1      -2.943  -7.805   0.985  1.00  0.00     0.094 A 
ATOM     30  C   UNL     1      -3.901  -9.558  -1.019  1.00  0.00     0.133 A 
ATOM     31  C   UNL     1      -2.435  -7.729  -0.324  1.00  0.00     0.138 A 
ATOM     32  C   UNL     1      -2.892  -8.544  -1.357  1.00  0.00     0.102 A 
ATOM     33  O   UNL     1      -1.356  -6.843  -0.512  1.00  0.00    -0.484 OA
ATOM     34  C   UNL     1      -2.127  -8.543  -2.569  1.00  0.00     0.174 C 
ATOM     35  C   UNL     1      -1.240  -6.192  -1.778  1.00  0.00     0.211 C 
ATOM     36  O   UNL     1      -1.753  -9.649  -3.166  1.00  0.00    -0.294 OA
ATOM     37  C   UNL     1      -1.368  -7.214  -2.917  1.00  0.00     0.131 C 
BRANCH  30  38
ATOM     38  O   UNL     1      -4.730 -10.055  -1.989  1.00  0.00    -0.507 OA
ATOM     39  H   UNL     1      -4.729  -9.699  -2.971  1.00  0.00     0.293 HD
ENDBRANCH  30  38
BRANCH  35  40
ATOM     40  C   UNL     1      -2.249  -5.041  -1.947  1.00  0.00    -0.003 A 
ATOM     41  C   UNL     1      -3.350  -5.293  -2.736  1.00  0.00     0.057 A 
ATOM     42  C   UNL     1      -2.105  -3.794  -1.368  1.00  0.00     0.011 A 
ATOM     43  C   UNL     1      -4.477  -4.409  -2.852  1.00  0.00     0.158 A 
ATOM     44  C   UNL     1      -3.155  -2.836  -1.457  1.00  0.00     0.051 A 
ATOM     45  C   UNL     1      -4.396  -3.197  -2.136  1.00  0.00     0.160 A 
BRANCH  43  46
ATOM     46  O   UNL     1      -5.521  -4.733  -3.714  1.00  0.00    -0.504 OA
ATOM     47  H   UNL     1      -5.468  -5.684  -4.153  1.00  0.00     0.293 HD
ENDBRANCH  43  46
BRANCH  45  48
ATOM     48  O   UNL     1      -5.508  -2.323  -2.048  1.00  0.00    -0.493 OA
ATOM     49  C   UNL     1      -6.562  -2.492  -1.095  1.00  0.00     0.278 C 
ENDBRANCH  45  48
ENDBRANCH  35  40
ENDBRANCH  26  27
ENDBRANCH   5  26
BRANCH   4  50
ATOM     50  O   UNL     1       0.216  -8.548   1.530  1.00  0.00    -0.384 OA
ATOM     51  H   UNL     1      -0.197  -7.651   1.587  1.00  0.00     0.211 HD
ENDBRANCH   4  50
TORSDOF 15
ENDMDL
MODEL 4
REMARK VINA RESULT:    -7.547      5.808     11.397
REMARK INTER + INTRA:         -14.066
REMARK INTER:                 -12.116
REMARK INTRA:                  -1.950
REMARK UNBOUND:                -1.666
REMARK SMILES COc1ccc([C@@H]2CC(=O)c3c(O)cc(O[C@H]4O[C@H](CO[C@@H]5O[C@H](C)[C@@H](O)[C@H](O)[C@H]5O)[C@H](O)[C@H](O)[C@@H]4O)cc3O2)cc1O
REMARK SMILES IDX 19 1 32 2 34 3 36 4 17 5 18 6 20 7 21 8 22 9 25 10 24 11
REMARK SMILES IDX 26 12 23 13 28 14 30 15 27 16 29 18 31 20 33 22 35 24 16 26
REMARK SMILES IDX 15 27 14 28 38 29 12 30 39 31 11 32 40 33 9 34 7 35 10 36
REMARK SMILES IDX 8 37 13 38 6 40 41 41 5 42 42 43 4 44 3 45 43 46 2 48 1 49
REMARK SMILES IDX 37 50
REMARK H PARENT 27 17 29 19 31 21 33 23 35 25 13 39 43 47 37 51
REMARK Flexibility Score: inf
ROOT
ATOM      1  C   UNL     1       6.988  -3.427  -4.897  1.00  0.00     0.180 C 
ATOM      2  C   UNL     1       8.049  -4.066  -5.853  1.00  0.00     0.177 C 
ATOM      3  C   UNL     1       7.571  -4.422  -7.349  1.00  0.00     0.180 C 
ATOM      4  C   UNL     1       6.117  -5.005  -7.449  1.00  0.00     0.214 C 
ATOM      5  C   UNL     1       5.272  -4.460  -6.313  1.00  0.00     0.339 C 
ATOM      6  O   UNL     1       5.740  -4.101  -4.972  1.00  0.00    -0.332 OA
ENDROOT
BRANCH   1   7
ATOM      7  C   UNL     1       6.800  -1.894  -4.974  1.00  0.00     0.198 C 
BRANCH   7   8
ATOM      8  O   UNL     1       7.794  -1.239  -4.218  1.00  0.00    -0.347 OA
BRANCH   8   9
ATOM      9  C   UNL     1       7.449  -1.178  -2.798  1.00  0.00     0.281 C 
ATOM     10  C   UNL     1      10.125   0.758  -3.040  1.00  0.00     0.041 C 
ATOM     11  C   UNL     1       9.278   0.288  -1.893  1.00  0.00     0.150 C 
ATOM     12  C   UNL     1       9.983  -0.971  -1.170  1.00  0.00     0.174 C 
ATOM     13  O   UNL     1       7.853   0.075  -2.205  1.00  0.00    -0.344 OA
ATOM     14  C   UNL     1       9.562  -2.353  -1.876  1.00  0.00     0.179 C 
ATOM     15  C   UNL     1       8.020  -2.408  -1.938  1.00  0.00     0.202 C 
BRANCH  12  16
ATOM     16  O   UNL     1       9.647  -1.119   0.223  1.00  0.00    -0.388 OA
ATOM     17  H   UNL     1       8.669  -1.018   0.343  1.00  0.00     0.211 HD
ENDBRANCH  12  16
BRANCH  14  18
ATOM     18  O   UNL     1      10.125  -2.324  -3.154  1.00  0.00    -0.387 OA
ATOM     19  H   UNL     1       9.598  -1.631  -3.703  1.00  0.00     0.211 HD
ENDBRANCH  14  18
BRANCH  15  20
ATOM     20  O   UNL     1       7.534  -2.472  -0.627  1.00  0.00    -0.385 OA
ATOM     21  H   UNL     1       6.636  -1.983  -0.534  1.00  0.00     0.211 HD
ENDBRANCH  15  20
ENDBRANCH   8   9
ENDBRANCH   7   8
ENDBRANCH   1   7
BRANCH   2  22
ATOM     22  O   UNL     1       9.301  -3.424  -5.771  1.00  0.00    -0.387 OA
ATOM     23  H   UNL     1      10.006  -3.850  -6.416  1.00  0.00     0.211 HD
ENDBRANCH   2  22
BRANCH   3  24
ATOM     24  O   UNL     1       8.145  -3.653  -8.359  1.00  0.00    -0.387 OA
ATOM     25  H   UNL     1       8.889  -4.232  -8.739  1.00  0.00     0.211 HD
ENDBRANCH   3  24
BRANCH   5  26
ATOM     26  O   UNL     1       4.118  -5.328  -6.074  1.00  0.00    -0.462 OA
BRANCH  26  27
ATOM     27  C   UNL     1       3.636  -5.636  -4.747  1.00  0.00     0.130 A 
ATOM     28  C   UNL     1       3.727  -6.920  -4.103  1.00  0.00     0.093 A 
ATOM     29  C   UNL     1       2.398  -5.023  -4.357  1.00  0.00     0.094 A 
ATOM     30  C   UNL     1       2.679  -7.836  -4.242  1.00  0.00     0.133 A 
ATOM     31  C   UNL     1       1.304  -5.857  -4.648  1.00  0.00     0.138 A 
ATOM     32  C   UNL     1       1.376  -7.246  -4.575  1.00  0.00     0.102 A 
ATOM     33  O   UNL     1       0.146  -5.206  -5.118  1.00  0.00    -0.484 OA
ATOM     34  C   UNL     1       0.278  -7.981  -5.133  1.00  0.00     0.174 C 
ATOM     35  C   UNL     1      -1.121  -5.776  -4.787  1.00  0.00     0.211 C 
ATOM     36  O   UNL     1       0.451  -8.984  -5.958  1.00  0.00    -0.294 OA
ATOM     37  C   UNL     1      -1.126  -7.280  -5.093  1.00  0.00     0.131 C 
BRANCH  30  38
ATOM     38  O   UNL     1       2.748  -9.090  -3.695  1.00  0.00    -0.507 OA
ATOM     39  H   UNL     1       2.515  -9.284  -2.695  1.00  0.00     0.293 HD
ENDBRANCH  30  38
BRANCH  35  40
ATOM     40  C   UNL     1      -1.529  -5.503  -3.328  1.00  0.00    -0.003 A 
ATOM     41  C   UNL     1      -1.780  -4.191  -2.989  1.00  0.00     0.057 A 
ATOM     42  C   UNL     1      -1.645  -6.483  -2.359  1.00  0.00     0.011 A 
ATOM     43  C   UNL     1      -2.349  -3.776  -1.736  1.00  0.00     0.158 A 
ATOM     44  C   UNL     1      -2.167  -6.163  -1.074  1.00  0.00     0.051 A 
ATOM     45  C   UNL     1      -2.610  -4.799  -0.801  1.00  0.00     0.160 A 
BRANCH  43  46
ATOM     46  O   UNL     1      -2.519  -2.421  -1.472  1.00  0.00    -0.504 OA
ATOM     47  H   UNL     1      -2.077  -2.072  -0.587  1.00  0.00     0.293 HD
ENDBRANCH  43  46
BRANCH  45  48
ATOM     48  O   UNL     1      -3.313  -4.530   0.400  1.00  0.00    -0.493 OA
ATOM     49  C   UNL     1      -4.737  -4.413   0.464  1.00  0.00     0.278 C 
ENDBRANCH  45  48
ENDBRANCH  35  40
ENDBRANCH  26  27
ENDBRANCH   5  26
BRANCH   4  50
ATOM     50  O   UNL     1       5.361  -5.115  -8.691  1.00  0.00    -0.384 OA
ATOM     51  H   UNL     1       4.497  -5.587  -8.604  1.00  0.00     0.211 HD
ENDBRANCH   4  50
TORSDOF 15
ENDMDL
MODEL 5
REMARK VINA RESULT:    -7.514      2.107      8.669
REMARK INTER + INTRA:         -14.013
REMARK INTER:                 -11.513
REMARK INTRA:                  -2.500
REMARK UNBOUND:                -1.666
REMARK SMILES COc1ccc([C@@H]2CC(=O)c3c(O)cc(O[C@H]4O[C@H](CO[C@@H]5O[C@H](C)[C@@H](O)[C@H](O)[C@H]5O)[C@H](O)[C@H](O)[C@@H]4O)cc3O2)cc1O
REMARK SMILES IDX 19 1 32 2 34 3 36 4 17 5 18 6 20 7 21 8 22 9 25 10 24 11
REMARK SMILES IDX 26 12 23 13 28 14 30 15 27 16 29 18 31 20 33 22 35 24 16 26
REMARK SMILES IDX 15 27 14 28 38 29 12 30 39 31 11 32 40 33 9 34 7 35 10 36
REMARK SMILES IDX 8 37 13 38 6 40 41 41 5 42 42 43 4 44 3 45 43 46 2 48 1 49
REMARK SMILES IDX 37 50
REMARK H PARENT 27 17 29 19 31 21 33 23 35 25 13 39 43 47 37 51
REMARK Flexibility Score: inf
ROOT
ATOM      1  C   UNL     1      -3.898  -5.050   2.524  1.00  0.00     0.180 C 
ATOM      2  C   UNL     1      -5.200  -4.575   3.252  1.00  0.00     0.177 C 
ATOM      3  C   UNL     1      -6.525  -4.408   2.352  1.00  0.00     0.180 C 
ATOM      4  C   UNL     1      -6.275  -3.803   0.926  1.00  0.00     0.214 C 
ATOM      5  C   UNL     1      -4.879  -4.168   0.456  1.00  0.00     0.339 C 
ATOM      6  O   UNL     1      -3.697  -4.358   1.300  1.00  0.00    -0.332 OA
ENDROOT
BRANCH   1   7
ATOM      7  C   UNL     1      -3.709  -6.574   2.340  1.00  0.00     0.198 C 
BRANCH   7   8
ATOM      8  O   UNL     1      -2.477  -6.985   2.891  1.00  0.00    -0.347 OA
BRANCH   8   9
ATOM      9  C   UNL     1      -2.657  -7.726   4.140  1.00  0.00     0.281 C 
ATOM     10  C   UNL     1      -1.434  -4.811   5.126  1.00  0.00     0.041 C 
ATOM     11  C   UNL     1      -1.787  -6.087   5.834  1.00  0.00     0.150 C 
ATOM     12  C   UNL     1      -0.457  -6.972   6.065  1.00  0.00     0.174 C 
ATOM     13  O   UNL     1      -2.912  -6.842   5.253  1.00  0.00    -0.344 OA
ATOM     14  C   UNL     1      -0.161  -7.912   4.796  1.00  0.00     0.179 C 
ATOM     15  C   UNL     1      -1.441  -8.717   4.487  1.00  0.00     0.202 C 
BRANCH  12  16
ATOM     16  O   UNL     1      -0.522  -7.852   7.204  1.00  0.00    -0.388 OA
ATOM     17  H   UNL     1      -0.241  -8.765   6.937  1.00  0.00     0.211 HD
ENDBRANCH  12  16
BRANCH  14  18
ATOM     18  O   UNL     1       0.170  -7.053   3.745  1.00  0.00    -0.387 OA
ATOM     19  H   UNL     1       0.124  -7.603   2.876  1.00  0.00     0.211 HD
ENDBRANCH  14  18
BRANCH  15  20
ATOM     20  O   UNL     1      -1.686  -9.577   5.564  1.00  0.00    -0.385 OA
ATOM     21  H   UNL     1      -2.182  -9.097   6.323  1.00  0.00     0.211 HD
ENDBRANCH  15  20
ENDBRANCH   8   9
ENDBRANCH   7   8
ENDBRANCH   1   7
BRANCH   2  22
ATOM     22  O   UNL     1      -5.399  -5.235   4.480  1.00  0.00    -0.387 OA
ATOM     23  H   UNL     1      -5.230  -4.605   5.299  1.00  0.00     0.211 HD
ENDBRANCH   2  22
BRANCH   3  24
ATOM     24  O   UNL     1      -7.544  -5.321   2.615  1.00  0.00    -0.387 OA
ATOM     25  H   UNL     1      -7.404  -6.071   1.942  1.00  0.00     0.211 HD
ENDBRANCH   3  24
BRANCH   5  26
ATOM     26  O   UNL     1      -4.434  -3.244  -0.588  1.00  0.00    -0.462 OA
BRANCH  26  27
ATOM     27  C   UNL     1      -4.143  -3.673  -1.937  1.00  0.00     0.130 A 
ATOM     28  C   UNL     1      -4.997  -4.498  -2.751  1.00  0.00     0.093 A 
ATOM     29  C   UNL     1      -2.779  -4.020  -2.219  1.00  0.00     0.094 A 
ATOM     30  C   UNL     1      -4.845  -5.887  -2.723  1.00  0.00     0.133 A 
ATOM     31  C   UNL     1      -2.554  -5.394  -2.027  1.00  0.00     0.138 A 
ATOM     32  C   UNL     1      -3.522  -6.360  -2.291  1.00  0.00     0.102 A 
ATOM     33  O   UNL     1      -1.313  -5.737  -1.453  1.00  0.00    -0.484 OA
ATOM     34  C   UNL     1      -3.256  -7.689  -1.822  1.00  0.00     0.174 C 
ATOM     35  C   UNL     1      -0.720  -6.978  -1.839  1.00  0.00     0.211 C 
ATOM     36  O   UNL     1      -4.137  -8.385  -1.145  1.00  0.00    -0.294 OA
ATOM     37  C   UNL     1      -1.748  -8.114  -1.743  1.00  0.00     0.131 C 
BRANCH  30  38
ATOM     38  O   UNL     1      -5.672  -6.712  -3.438  1.00  0.00    -0.507 OA
ATOM     39  H   UNL     1      -6.709  -6.716  -3.317  1.00  0.00     0.293 HD
ENDBRANCH  30  38
BRANCH  35  40
ATOM     40  C   UNL     1      -0.085  -6.919  -3.240  1.00  0.00    -0.003 A 
ATOM     41  C   UNL     1       0.968  -6.046  -3.407  1.00  0.00     0.057 A 
ATOM     42  C   UNL     1      -0.513  -7.673  -4.318  1.00  0.00     0.011 A 
ATOM     43  C   UNL     1       1.796  -5.996  -4.582  1.00  0.00     0.158 A 
ATOM     44  C   UNL     1       0.222  -7.664  -5.537  1.00  0.00     0.051 A 
ATOM     45  C   UNL     1       1.449  -6.878  -5.627  1.00  0.00     0.160 A 
BRANCH  43  46
ATOM     46  O   UNL     1       2.807  -5.045  -4.673  1.00  0.00    -0.504 OA
ATOM     47  H   UNL     1       3.737  -5.332  -4.283  1.00  0.00     0.293 HD
ENDBRANCH  43  46
BRANCH  45  48
ATOM     48  O   UNL     1       2.282  -7.029  -6.763  1.00  0.00    -0.493 OA
ATOM     49  C   UNL     1       1.783  -7.375  -8.059  1.00  0.00     0.278 C 
ENDBRANCH  45  48
ENDBRANCH  35  40
ENDBRANCH  26  27
ENDBRANCH   5  26
BRANCH   4  50
ATOM     50  O   UNL     1      -7.245  -3.838  -0.161  1.00  0.00    -0.384 OA
ATOM     51  H   UNL     1      -6.932  -4.302  -0.976  1.00  0.00     0.211 HD
ENDBRANCH   4  50
TORSDOF 15
ENDMDL
MODEL 6
REMARK VINA RESULT:    -7.495      1.823      8.752
REMARK INTER + INTRA:         -13.981
REMARK INTER:                 -11.828
REMARK INTRA:                  -2.153
REMARK UNBOUND:                -1.666
REMARK SMILES COc1ccc([C@@H]2CC(=O)c3c(O)cc(O[C@H]4O[C@H](CO[C@@H]5O[C@H](C)[C@@H](O)[C@H](O)[C@H]5O)[C@H](O)[C@H](O)[C@@H]4O)cc3O2)cc1O
REMARK SMILES IDX 19 1 32 2 34 3 36 4 17 5 18 6 20 7 21 8 22 9 25 10 24 11
REMARK SMILES IDX 26 12 23 13 28 14 30 15 27 16 29 18 31 20 33 22 35 24 16 26
REMARK SMILES IDX 15 27 14 28 38 29 12 30 39 31 11 32 40 33 9 34 7 35 10 36
REMARK SMILES IDX 8 37 13 38 6 40 41 41 5 42 42 43 4 44 3 45 43 46 2 48 1 49
REMARK SMILES IDX 37 50
REMARK H PARENT 27 17 29 19 31 21 33 23 35 25 13 39 43 47 37 51
REMARK Flexibility Score: inf
ROOT
ATOM      1  C   UNL     1      -3.802  -4.011   4.514  1.00  0.00     0.180 C 
ATOM      2  C   UNL     1      -4.353  -5.406   4.961  1.00  0.00     0.177 C 
ATOM      3  C   UNL     1      -4.249  -6.612   3.900  1.00  0.00     0.180 C 
ATOM      4  C   UNL     1      -4.542  -6.203   2.413  1.00  0.00     0.214 C 
ATOM      5  C   UNL     1      -4.160  -4.749   2.202  1.00  0.00     0.339 C 
ATOM      6  O   UNL     1      -4.222  -3.677   3.198  1.00  0.00    -0.332 OA
ENDROOT
BRANCH   1   7
ATOM      7  C   UNL     1      -2.287  -3.759   4.696  1.00  0.00     0.198 C 
BRANCH   7   8
ATOM      8  O   UNL     1      -1.625  -4.964   5.010  1.00  0.00    -0.347 OA
BRANCH   8   9
ATOM      9  C   UNL     1      -0.466  -4.741   5.874  1.00  0.00     0.281 C 
ATOM     10  C   UNL     1       0.360  -7.435   4.134  1.00  0.00     0.041 C 
ATOM     11  C   UNL     1       1.012  -6.676   5.254  1.00  0.00     0.150 C 
ATOM     12  C   UNL     1       0.712  -7.407   6.660  1.00  0.00     0.174 C 
ATOM     13  O   UNL     1       0.753  -5.225   5.269  1.00  0.00    -0.344 OA
ATOM     14  C   UNL     1      -0.673  -6.894   7.295  1.00  0.00     0.179 C 
ATOM     15  C   UNL     1      -0.631  -5.352   7.351  1.00  0.00     0.202 C 
BRANCH  12  16
ATOM     16  O   UNL     1       1.716  -7.187   7.669  1.00  0.00    -0.388 OA
ATOM     17  H   UNL     1       2.558  -7.638   7.407  1.00  0.00     0.211 HD
ENDBRANCH  12  16
BRANCH  14  18
ATOM     18  O   UNL     1      -1.683  -7.348   6.443  1.00  0.00    -0.387 OA
ATOM     19  H   UNL     1      -1.959  -8.284   6.770  1.00  0.00     0.211 HD
ENDBRANCH  14  18
BRANCH  15  20
ATOM     20  O   UNL     1       0.376  -4.976   8.248  1.00  0.00    -0.385 OA
ATOM     21  H   UNL     1       1.286  -4.899   7.781  1.00  0.00     0.211 HD
ENDBRANCH  15  20
ENDBRANCH   8   9
ENDBRANCH   7   8
ENDBRANCH   1   7
BRANCH   2  22
ATOM     22  O   UNL     1      -3.966  -5.739   6.274  1.00  0.00    -0.387 OA
ATOM     23  H   UNL     1      -4.596  -6.458   6.700  1.00  0.00     0.211 HD
ENDBRANCH   2  22
BRANCH   3  24
ATOM     24  O   UNL     1      -3.362  -7.631   4.238  1.00  0.00    -0.387 OA
ATOM     25  H   UNL     1      -3.913  -8.288   4.786  1.00  0.00     0.211 HD
ENDBRANCH   3  24
BRANCH   5  26
ATOM     26  O   UNL     1      -4.858  -4.202   1.037  1.00  0.00    -0.462 OA
BRANCH  26  27
ATOM     27  C   UNL     1      -4.164  -3.763  -0.152  1.00  0.00     0.130 A 
ATOM     28  C   UNL     1      -4.765  -3.571  -1.445  1.00  0.00     0.093 A 
ATOM     29  C   UNL     1      -2.836  -4.274  -0.344  1.00  0.00     0.094 A 
ATOM     30  C   UNL     1      -4.792  -4.630  -2.359  1.00  0.00     0.133 A 
ATOM     31  C   UNL     1      -2.850  -5.447  -1.119  1.00  0.00     0.138 A 
ATOM     32  C   UNL     1      -3.767  -5.661  -2.144  1.00  0.00     0.102 A 
ATOM     33  O   UNL     1      -1.936  -6.447  -0.731  1.00  0.00    -0.484 OA
ATOM     34  C   UNL     1      -3.835  -6.988  -2.685  1.00  0.00     0.174 C 
ATOM     35  C   UNL     1      -1.390  -7.284  -1.751  1.00  0.00     0.211 C 
ATOM     36  O   UNL     1      -4.970  -7.622  -2.851  1.00  0.00    -0.294 OA
ATOM     37  C   UNL     1      -2.509  -7.825  -2.653  1.00  0.00     0.131 C 
BRANCH  30  38
ATOM     38  O   UNL     1      -5.404  -4.509  -3.577  1.00  0.00    -0.507 OA
ATOM     39  H   UNL     1      -4.872  -4.483  -4.477  1.00  0.00     0.293 HD
ENDBRANCH  30  38
BRANCH  35  40
ATOM     40  C   UNL     1      -0.302  -6.576  -2.578  1.00  0.00    -0.003 A 
ATOM     41  C   UNL     1      -0.701  -5.489  -3.325  1.00  0.00     0.057 A 
ATOM     42  C   UNL     1       1.023  -6.971  -2.616  1.00  0.00     0.011 A 
ATOM     43  C   UNL     1       0.204  -4.601  -4.003  1.00  0.00     0.158 A 
ATOM     44  C   UNL     1       1.990  -6.174  -3.292  1.00  0.00     0.051 A 
ATOM     45  C   UNL     1       1.574  -4.920  -3.914  1.00  0.00     0.160 A 
BRANCH  43  46
ATOM     46  O   UNL     1      -0.302  -3.557  -4.772  1.00  0.00    -0.504 OA
ATOM     47  H   UNL     1       0.273  -2.680  -4.781  1.00  0.00     0.293 HD
ENDBRANCH  43  46
BRANCH  45  48
ATOM     48  O   UNL     1       2.566  -4.034  -4.405  1.00  0.00    -0.493 OA
ATOM     49  C   UNL     1       3.534  -3.399  -3.564  1.00  0.00     0.278 C 
ENDBRANCH  45  48
ENDBRANCH  35  40
ENDBRANCH  26  27
ENDBRANCH   5  26
BRANCH   4  50
ATOM     50  O   UNL     1      -4.220  -7.028   1.256  1.00  0.00    -0.384 OA
ATOM     51  H   UNL     1      -4.860  -7.762   1.084  1.00  0.00     0.211 HD
ENDBRANCH   4  50
TORSDOF 15
ENDMDL
MODEL 7
REMARK VINA RESULT:    -7.486      1.946      8.552
REMARK INTER + INTRA:         -13.966
REMARK INTER:                 -12.096
REMARK INTRA:                  -1.870
REMARK UNBOUND:                -1.666
REMARK SMILES COc1ccc([C@@H]2CC(=O)c3c(O)cc(O[C@H]4O[C@H](CO[C@@H]5O[C@H](C)[C@@H](O)[C@H](O)[C@H]5O)[C@H](O)[C@H](O)[C@@H]4O)cc3O2)cc1O
REMARK SMILES IDX 19 1 32 2 34 3 36 4 17 5 18 6 20 7 21 8 22 9 25 10 24 11
REMARK SMILES IDX 26 12 23 13 28 14 30 15 27 16 29 18 31 20 33 22 35 24 16 26
REMARK SMILES IDX 15 27 14 28 38 29 12 30 39 31 11 32 40 33 9 34 7 35 10 36
REMARK SMILES IDX 8 37 13 38 6 40 41 41 5 42 42 43 4 44 3 45 43 46 2 48 1 49
REMARK SMILES IDX 37 50
REMARK H PARENT 27 17 29 19 31 21 33 23 35 25 13 39 43 47 37 51
REMARK Flexibility Score: inf
ROOT
ATOM      1  C   UNL     1      -3.580  -5.756   3.549  1.00  0.00     0.180 C 
ATOM      2  C   UNL     1      -5.016  -6.308   3.843  1.00  0.00     0.177 C 
ATOM      3  C   UNL     1      -5.950  -6.637   2.573  1.00  0.00     0.180 C 
ATOM      4  C   UNL     1      -5.838  -5.608   1.394  1.00  0.00     0.214 C 
ATOM      5  C   UNL     1      -4.450  -4.993   1.386  1.00  0.00     0.339 C 
ATOM      6  O   UNL     1      -3.600  -4.744   2.553  1.00  0.00    -0.332 OA
ENDROOT
BRANCH   1   7
ATOM      7  C   UNL     1      -2.469  -6.795   3.268  1.00  0.00     0.198 C 
BRANCH   7   8
ATOM      8  O   UNL     1      -1.812  -7.146   4.465  1.00  0.00    -0.347 OA
BRANCH   8   9
ATOM      9  C   UNL     1      -0.364  -6.959   4.369  1.00  0.00     0.281 C 
ATOM     10  C   UNL     1      -0.688  -9.527   6.434  1.00  0.00     0.041 C 
ATOM     11  C   UNL     1       0.483  -8.732   5.935  1.00  0.00     0.150 C 
ATOM     12  C   UNL     1       0.900  -7.622   7.029  1.00  0.00     0.174 C 
ATOM     13  O   UNL     1       0.348  -8.200   4.567  1.00  0.00    -0.344 OA
ATOM     14  C   UNL     1       0.060  -6.266   6.825  1.00  0.00     0.179 C 
ATOM     15  C   UNL     1       0.210  -5.827   5.353  1.00  0.00     0.202 C 
BRANCH  12  16
ATOM     16  O   UNL     1       2.288  -7.239   6.986  1.00  0.00    -0.388 OA
ATOM     17  H   UNL     1       2.388  -6.308   7.313  1.00  0.00     0.211 HD
ENDBRANCH  12  16
BRANCH  14  18
ATOM     18  O   UNL     1      -1.265  -6.580   7.134  1.00  0.00    -0.387 OA
ATOM     19  H   UNL     1      -1.281  -7.559   7.452  1.00  0.00     0.211 HD
ENDBRANCH  14  18
BRANCH  15  20
ATOM     20  O   UNL     1       1.552  -5.496   5.132  1.00  0.00    -0.385 OA
ATOM     21  H   UNL     1       2.167  -6.307   5.262  1.00  0.00     0.211 HD
ENDBRANCH  15  20
ENDBRANCH   8   9
ENDBRANCH   7   8
ENDBRANCH   1   7
BRANCH   2  22
ATOM     22  O   UNL     1      -5.015  -7.295   4.848  1.00  0.00    -0.387 OA
ATOM     23  H   UNL     1      -5.040  -8.263   4.450  1.00  0.00     0.211 HD
ENDBRANCH   2  22
BRANCH   3  24
ATOM     24  O   UNL     1      -6.228  -7.987   2.370  1.00  0.00    -0.387 OA
ATOM     25  H   UNL     1      -7.073  -8.165   2.909  1.00  0.00     0.211 HD
ENDBRANCH   3  24
BRANCH   5  26
ATOM     26  O   UNL     1      -4.460  -3.719   0.667  1.00  0.00    -0.462 OA
BRANCH  26  27
ATOM     27  C   UNL     1      -3.871  -3.558  -0.643  1.00  0.00     0.130 A 
ATOM     28  C   UNL     1      -4.600  -3.476  -1.881  1.00  0.00     0.093 A 
ATOM     29  C   UNL     1      -2.648  -4.269  -0.886  1.00  0.00     0.094 A 
ATOM     30  C   UNL     1      -4.865  -4.644  -2.604  1.00  0.00     0.133 A 
ATOM     31  C   UNL     1      -2.897  -5.530  -1.456  1.00  0.00     0.138 A 
ATOM     32  C   UNL     1      -3.954  -5.764  -2.333  1.00  0.00     0.102 A 
ATOM     33  O   UNL     1      -2.070  -6.579  -1.009  1.00  0.00    -0.484 OA
ATOM     34  C   UNL     1      -4.246  -7.133  -2.644  1.00  0.00     0.174 C 
ATOM     35  C   UNL     1      -1.758  -7.623  -1.932  1.00  0.00     0.211 C 
ATOM     36  O   UNL     1      -5.461  -7.623  -2.587  1.00  0.00    -0.294 OA
ATOM     37  C   UNL     1      -3.036  -8.132  -2.614  1.00  0.00     0.131 C 
BRANCH  30  38
ATOM     38  O   UNL     1      -5.604  -4.619  -3.757  1.00  0.00    -0.507 OA
ATOM     39  H   UNL     1      -5.469  -5.309  -4.530  1.00  0.00     0.293 HD
ENDBRANCH  30  38
BRANCH  35  40
ATOM     40  C   UNL     1      -0.703  -7.200  -2.970  1.00  0.00    -0.003 A 
ATOM     41  C   UNL     1       0.205  -6.241  -2.575  1.00  0.00     0.057 A 
ATOM     42  C   UNL     1      -0.628  -7.713  -4.252  1.00  0.00     0.011 A 
ATOM     43  C   UNL     1       1.363  -5.865  -3.339  1.00  0.00     0.158 A 
ATOM     44  C   UNL     1       0.466  -7.372  -5.098  1.00  0.00     0.051 A 
ATOM     45  C   UNL     1       1.522  -6.504  -4.586  1.00  0.00     0.160 A 
BRANCH  43  46
ATOM     46  O   UNL     1       2.195  -4.851  -2.875  1.00  0.00    -0.504 OA
ATOM     47  H   UNL     1       3.174  -5.141  -2.635  1.00  0.00     0.293 HD
ENDBRANCH  43  46
BRANCH  45  48
ATOM     48  O   UNL     1       2.703  -6.331  -5.352  1.00  0.00    -0.493 OA
ATOM     49  C   UNL     1       3.928  -7.011  -5.063  1.00  0.00     0.278 C 
ENDBRANCH  45  48
ENDBRANCH  35  40
ENDBRANCH  26  27
ENDBRANCH   5  26
BRANCH   4  50
ATOM     50  O   UNL     1      -6.340  -5.846   0.047  1.00  0.00    -0.384 OA
ATOM     51  H   UNL     1      -6.890  -5.112  -0.322  1.00  0.00     0.211 HD
ENDBRANCH   4  50
TORSDOF 15
ENDMDL
MODEL 8
REMARK VINA RESULT:    -7.417      2.535      8.228
REMARK INTER + INTRA:         -13.852
REMARK INTER:                 -11.496
REMARK INTRA:                  -2.356
REMARK UNBOUND:                -1.666
REMARK SMILES COc1ccc([C@@H]2CC(=O)c3c(O)cc(O[C@H]4O[C@H](CO[C@@H]5O[C@H](C)[C@@H](O)[C@H](O)[C@H]5O)[C@H](O)[C@H](O)[C@@H]4O)cc3O2)cc1O
REMARK SMILES IDX 19 1 32 2 34 3 36 4 17 5 18 6 20 7 21 8 22 9 25 10 24 11
REMARK SMILES IDX 26 12 23 13 28 14 30 15 27 16 29 18 31 20 33 22 35 24 16 26
REMARK SMILES IDX 15 27 14 28 38 29 12 30 39 31 11 32 40 33 9 34 7 35 10 36
REMARK SMILES IDX 8 37 13 38 6 40 41 41 5 42 42 43 4 44 3 45 43 46 2 48 1 49
REMARK SMILES IDX 37 50
REMARK H PARENT 27 17 29 19 31 21 33 23 35 25 13 39 43 47 37 51
REMARK Flexibility Score: inf
ROOT
ATOM      1  C   UNL     1      -3.602  -5.936   2.943  1.00  0.00     0.180 C 
ATOM      2  C   UNL     1      -5.024  -5.860   3.593  1.00  0.00     0.177 C 
ATOM      3  C   UNL     1      -6.270  -5.603   2.606  1.00  0.00     0.180 C 
ATOM      4  C   UNL     1      -5.988  -4.579   1.450  1.00  0.00     0.214 C 
ATOM      5  C   UNL     1      -4.515  -4.614   1.089  1.00  0.00     0.339 C 
ATOM      6  O   UNL     1      -3.400  -4.895   1.998  1.00  0.00    -0.332 OA
ENDROOT
BRANCH   1   7
ATOM      7  C   UNL     1      -3.159  -7.303   2.371  1.00  0.00     0.198 C 
BRANCH   7   8
ATOM      8  O   UNL     1      -2.567  -8.088   3.381  1.00  0.00    -0.347 OA
BRANCH   8   9
ATOM      9  C   UNL     1      -1.530  -8.971   2.849  1.00  0.00     0.281 C 
ATOM     10  C   UNL     1      -1.343  -9.426   6.124  1.00  0.00     0.041 C 
ATOM     11  C   UNL     1      -0.548  -9.932   4.954  1.00  0.00     0.150 C 
ATOM     12  C   UNL     1       0.791  -9.050   4.778  1.00  0.00     0.174 C 
ATOM     13  O   UNL     1      -1.311 -10.114   3.705  1.00  0.00    -0.344 OA
ATOM     14  C   UNL     1       0.517  -7.756   3.865  1.00  0.00     0.179 C 
ATOM     15  C   UNL     1      -0.137  -8.229   2.549  1.00  0.00     0.202 C 
BRANCH  12  16
ATOM     16  O   UNL     1       1.884  -9.751   4.154  1.00  0.00    -0.388 OA
ATOM     17  H   UNL     1       2.107 -10.560   4.681  1.00  0.00     0.211 HD
ENDBRANCH  12  16
BRANCH  14  18
ATOM     18  O   UNL     1      -0.345  -6.938   4.600  1.00  0.00    -0.387 OA
ATOM     19  H   UNL     1      -1.146  -7.518   4.885  1.00  0.00     0.211 HD
ENDBRANCH  14  18
BRANCH  15  20
ATOM     20  O   UNL     1       0.796  -9.009   1.855  1.00  0.00    -0.385 OA
ATOM     21  H   UNL     1       1.473  -8.426   1.351  1.00  0.00     0.211 HD
ENDBRANCH  15  20
ENDBRANCH   8   9
ENDBRANCH   7   8
ENDBRANCH   1   7
BRANCH   2  22
ATOM     22  O   UNL     1      -5.230  -6.872   4.552  1.00  0.00    -0.387 OA
ATOM     23  H   UNL     1      -4.676  -6.705   5.425  1.00  0.00     0.211 HD
ENDBRANCH   2  22
BRANCH   3  24
ATOM     24  O   UNL     1      -7.153  -6.671   2.467  1.00  0.00    -0.387 OA
ATOM     25  H   UNL     1      -7.776  -6.603   3.268  1.00  0.00     0.211 HD
ENDBRANCH   3  24
BRANCH   5  26
ATOM     26  O   UNL     1      -4.126  -3.376   0.411  1.00  0.00    -0.462 OA
BRANCH  26  27
ATOM     27  C   UNL     1      -3.646  -3.352  -0.952  1.00  0.00     0.130 A 
ATOM     28  C   UNL     1      -4.470  -3.456  -2.127  1.00  0.00     0.093 A 
ATOM     29  C   UNL     1      -2.408  -4.030  -1.207  1.00  0.00     0.094 A 
ATOM     30  C   UNL     1      -4.724  -4.715  -2.682  1.00  0.00     0.133 A 
ATOM     31  C   UNL     1      -2.629  -5.362  -1.601  1.00  0.00     0.138 A 
ATOM     32  C   UNL     1      -3.733  -5.750  -2.355  1.00  0.00     0.102 A 
ATOM     33  O   UNL     1      -1.713  -6.308  -1.100  1.00  0.00    -0.484 OA
ATOM     34  C   UNL     1      -3.972  -7.159  -2.475  1.00  0.00     0.174 C 
ATOM     35  C   UNL     1      -1.414  -7.443  -1.915  1.00  0.00     0.211 C 
ATOM     36  O   UNL     1      -5.150  -7.693  -2.261  1.00  0.00    -0.294 OA
ATOM     37  C   UNL     1      -2.710  -8.090  -2.426  1.00  0.00     0.131 C 
BRANCH  30  38
ATOM     38  O   UNL     1      -5.547  -4.866  -3.766  1.00  0.00    -0.507 OA
ATOM     39  H   UNL     1      -5.189  -5.093  -4.721  1.00  0.00     0.293 HD
ENDBRANCH  30  38
BRANCH  35  40
ATOM     40  C   UNL     1      -0.465  -7.102  -3.078  1.00  0.00    -0.003 A 
ATOM     41  C   UNL     1       0.648  -6.350  -2.770  1.00  0.00     0.057 A 
ATOM     42  C   UNL     1      -0.673  -7.495  -4.388  1.00  0.00     0.011 A 
ATOM     43  C   UNL     1       1.729  -6.099  -3.683  1.00  0.00     0.158 A 
ATOM     44  C   UNL     1       0.327  -7.260  -5.374  1.00  0.00     0.051 A 
ATOM     45  C   UNL     1       1.585  -6.633  -4.981  1.00  0.00     0.160 A 
BRANCH  43  46
ATOM     46  O   UNL     1       2.788  -5.287  -3.291  1.00  0.00    -0.504 OA
ATOM     47  H   UNL     1       3.076  -4.552  -3.982  1.00  0.00     0.293 HD
ENDBRANCH  43  46
BRANCH  45  48
ATOM     48  O   UNL     1       2.652  -6.586  -5.914  1.00  0.00    -0.493 OA
ATOM     49  C   UNL     1       2.532  -7.048  -7.263  1.00  0.00     0.278 C 
ENDBRANCH  45  48
ENDBRANCH  35  40
ENDBRANCH  26  27
ENDBRANCH   5  26
BRANCH   4  50
ATOM     50  O   UNL     1      -6.836  -4.413   0.277  1.00  0.00    -0.384 OA
ATOM     51  H   UNL     1      -7.718  -4.856   0.341  1.00  0.00     0.211 HD
ENDBRANCH   4  50
TORSDOF 15
ENDMDL
MODEL 9
REMARK VINA RESULT:    -7.185      2.349      3.904
REMARK INTER + INTRA:         -13.472
REMARK INTER:                 -10.969
REMARK INTRA:                  -2.503
REMARK UNBOUND:                -1.666
REMARK SMILES COc1ccc([C@@H]2CC(=O)c3c(O)cc(O[C@H]4O[C@H](CO[C@@H]5O[C@H](C)[C@@H](O)[C@H](O)[C@H]5O)[C@H](O)[C@H](O)[C@@H]4O)cc3O2)cc1O
REMARK SMILES IDX 19 1 32 2 34 3 36 4 17 5 18 6 20 7 21 8 22 9 25 10 24 11
REMARK SMILES IDX 26 12 23 13 28 14 30 15 27 16 29 18 31 20 33 22 35 24 16 26
REMARK SMILES IDX 15 27 14 28 38 29 12 30 39 31 11 32 40 33 9 34 7 35 10 36
REMARK SMILES IDX 8 37 13 38 6 40 41 41 5 42 42 43 4 44 3 45 43 46 2 48 1 49
REMARK SMILES IDX 37 50
REMARK H PARENT 27 17 29 19 31 21 33 23 35 25 13 39 43 47 37 51
REMARK Flexibility Score: inf
ROOT
ATOM      1  C   UNL     1      -5.380  -7.825   1.381  1.00  0.00     0.180 C 
ATOM      2  C   UNL     1      -6.641  -7.295   0.620  1.00  0.00     0.177 C 
ATOM      3  C   UNL     1      -7.506  -6.145   1.342  1.00  0.00     0.180 C 
ATOM      4  C   UNL     1      -7.665  -6.322   2.893  1.00  0.00     0.214 C 
ATOM      5  C   UNL     1      -6.458  -7.056   3.447  1.00  0.00     0.339 C 
ATOM      6  O   UNL     1      -5.658  -8.069   2.753  1.00  0.00    -0.332 OA
ENDROOT
BRANCH   1   7
ATOM      7  C   UNL     1      -4.067  -7.026   1.212  1.00  0.00     0.198 C 
BRANCH   7   8
ATOM      8  O   UNL     1      -4.267  -5.932   0.345  1.00  0.00    -0.347 OA
BRANCH   8   9
ATOM      9  C   UNL     1      -3.004  -5.298  -0.035  1.00  0.00     0.281 C 
ATOM     10  C   UNL     1      -5.295  -3.475  -1.583  1.00  0.00     0.041 C 
ATOM     11  C   UNL     1      -3.794  -3.470  -1.568  1.00  0.00     0.150 C 
ATOM     12  C   UNL     1      -3.230  -4.256  -2.860  1.00  0.00     0.174 C 
ATOM     13  O   UNL     1      -3.173  -3.888  -0.298  1.00  0.00    -0.344 OA
ATOM     14  C   UNL     1      -3.097  -5.831  -2.566  1.00  0.00     0.179 C 
ATOM     15  C   UNL     1      -2.270  -6.008  -1.275  1.00  0.00     0.202 C 
BRANCH  12  16
ATOM     16  O   UNL     1      -1.927  -3.822  -3.295  1.00  0.00    -0.388 OA
ATOM     17  H   UNL     1      -1.798  -2.867  -3.064  1.00  0.00     0.211 HD
ENDBRANCH  12  16
BRANCH  14  18
ATOM     18  O   UNL     1      -4.400  -6.308  -2.409  1.00  0.00    -0.387 OA
ATOM     19  H   UNL     1      -4.497  -6.613  -1.430  1.00  0.00     0.211 HD
ENDBRANCH  14  18
BRANCH  15  20
ATOM     20  O   UNL     1      -0.972  -5.543  -1.521  1.00  0.00    -0.385 OA
ATOM     21  H   UNL     1      -0.882  -5.166  -2.471  1.00  0.00     0.211 HD
ENDBRANCH  15  20
ENDBRANCH   8   9
ENDBRANCH   7   8
ENDBRANCH   1   7
BRANCH   2  22
ATOM     22  O   UNL     1      -6.387  -7.072  -0.748  1.00  0.00    -0.387 OA
ATOM     23  H   UNL     1      -5.587  -7.648  -1.099  1.00  0.00     0.211 HD
ENDBRANCH   2  22
BRANCH   3  24
ATOM     24  O   UNL     1      -7.470  -4.895   0.727  1.00  0.00    -0.387 OA
ATOM     25  H   UNL     1      -7.631  -5.083  -0.260  1.00  0.00     0.211 HD
ENDBRANCH   3  24
BRANCH   5  26
ATOM     26  O   UNL     1      -6.780  -7.670   4.736  1.00  0.00    -0.462 OA
BRANCH  26  27
ATOM     27  C   UNL     1      -6.027  -7.398   5.939  1.00  0.00     0.130 A 
ATOM     28  C   UNL     1      -6.271  -6.309   6.847  1.00  0.00     0.093 A 
ATOM     29  C   UNL     1      -4.610  -7.620   5.871  1.00  0.00     0.094 A 
ATOM     30  C   UNL     1      -5.609  -5.092   6.659  1.00  0.00     0.133 A 
ATOM     31  C   UNL     1      -3.928  -6.445   5.509  1.00  0.00     0.138 A 
ATOM     32  C   UNL     1      -4.356  -5.177   5.896  1.00  0.00     0.102 A 
ATOM     33  O   UNL     1      -2.832  -6.616   4.640  1.00  0.00    -0.484 OA
ATOM     34  C   UNL     1      -3.723  -4.059   5.260  1.00  0.00     0.174 C 
ATOM     35  C   UNL     1      -1.733  -5.713   4.767  1.00  0.00     0.211 C 
ATOM     36  O   UNL     1      -4.405  -3.067   4.740  1.00  0.00    -0.294 OA
ATOM     37  C   UNL     1      -2.236  -4.262   4.803  1.00  0.00     0.131 C 
BRANCH  30  38
ATOM     38  O   UNL     1      -5.854  -4.012   7.464  1.00  0.00    -0.507 OA
ATOM     39  H   UNL     1      -5.184  -3.692   8.199  1.00  0.00     0.293 HD
ENDBRANCH  30  38
BRANCH  35  40
ATOM     40  C   UNL     1      -0.848  -6.026   5.987  1.00  0.00    -0.003 A 
ATOM     41  C   UNL     1      -0.616  -4.990   6.866  1.00  0.00     0.057 A 
ATOM     42  C   UNL     1      -0.278  -7.261   6.234  1.00  0.00     0.011 A 
ATOM     43  C   UNL     1       0.024  -5.146   8.144  1.00  0.00     0.158 A 
ATOM     44  C   UNL     1       0.407  -7.503   7.459  1.00  0.00     0.051 A 
ATOM     45  C   UNL     1       0.472  -6.445   8.463  1.00  0.00     0.160 A 
BRANCH  43  46
ATOM     46  O   UNL     1       0.254  -4.028   8.940  1.00  0.00    -0.504 OA
ATOM     47  H   UNL     1       0.545  -4.227   9.928  1.00  0.00     0.293 HD
ENDBRANCH  43  46
BRANCH  45  48
ATOM     48  O   UNL     1       0.972  -6.750   9.753  1.00  0.00    -0.493 OA
ATOM     49  C   UNL     1       1.825  -7.868  10.017  1.00  0.00     0.278 C 
ENDBRANCH  45  48
ENDBRANCH  35  40
ENDBRANCH  26  27
ENDBRANCH   5  26
BRANCH   4  50
ATOM     50  O   UNL     1      -8.132  -5.277   3.795  1.00  0.00    -0.384 OA
ATOM     51  H   UNL     1      -7.412  -4.788   4.264  1.00  0.00     0.211 HD
ENDBRANCH   4  50
TORSDOF 15
ENDMDL
