MODEL 1
REMARK VINA RESULT:    -4.132      0.000      0.000
REMARK INTER + INTRA:          -4.472
REMARK INTER:                  -4.374
REMARK INTRA:                  -0.099
REMARK UNBOUND:                -0.099
REMARK SMILES C=C(C)[C@@H]1CC=C(C)C(=O)C1
REMARK SMILES IDX 8 1 7 2 6 3 5 4 4 5 11 6 9 7 10 8 2 9 1 10 3 11
REMARK H PARENT
REMARK Flexibility Score: inf
ROOT
ATOM      1  C   UNL     1      79.757  14.819   6.916  1.00  0.00     0.048 C 
ATOM      2  C   UNL     1      79.486  14.966   5.445  1.00  0.00    -0.012 C 
ATOM      3  C   UNL     1      79.348  13.876   4.671  1.00  0.00    -0.019 C 
ATOM      4  C   UNL     1      78.997  13.971   3.209  1.00  0.00     0.036 C 
ATOM      5  C   UNL     1      79.545  15.271   2.590  1.00  0.00     0.025 C 
ATOM      6  C   UNL     1      79.057  16.492   3.388  1.00  0.00     0.089 C 
ATOM      7  C   UNL     1      79.348  16.320   4.854  1.00  0.00     0.158 C 
ATOM      8  O   UNL     1      79.430  17.342   5.588  1.00  0.00    -0.295 OA
ENDROOT
BRANCH   5   9
ATOM      9  C   UNL     1      79.177  15.385   1.117  1.00  0.00    -0.077 C 
ATOM     10  C   UNL     1      78.638  16.520   0.644  1.00  0.00     0.008 C 
ATOM     11  C   UNL     1      79.401  14.240   0.160  1.00  0.00     0.039 C 
ENDBRANCH   5   9
TORSDOF 1
ENDMDL
MODEL 2
REMARK VINA RESULT:    -3.980      1.692      2.154
REMARK INTER + INTRA:          -4.312
REMARK INTER:                  -4.223
REMARK INTRA:                  -0.088
REMARK UNBOUND:                -0.099
REMARK SMILES C=C(C)[C@@H]1CC=C(C)C(=O)C1
REMARK SMILES IDX 8 1 7 2 6 3 5 4 4 5 11 6 9 7 10 8 2 9 1 10 3 11
REMARK H PARENT
REMARK Flexibility Score: inf
ROOT
ATOM      1  C   UNL     1      79.681  17.612   5.629  1.00  0.00     0.048 C 
ATOM      2  C   UNL     1      79.380  16.892   4.344  1.00  0.00    -0.012 C 
ATOM      3  C   UNL     1      78.657  15.759   4.358  1.00  0.00    -0.019 C 
ATOM      4  C   UNL     1      78.261  15.047   3.090  1.00  0.00     0.036 C 
ATOM      5  C   UNL     1      79.312  15.258   1.983  1.00  0.00     0.025 C 
ATOM      6  C   UNL     1      79.557  16.760   1.757  1.00  0.00     0.089 C 
ATOM      7  C   UNL     1      79.864  17.451   3.058  1.00  0.00     0.158 C 
ATOM      8  O   UNL     1      80.501  18.539   3.041  1.00  0.00    -0.295 OA
ENDROOT
BRANCH   5   9
ATOM      9  C   UNL     1      78.910  14.559   0.693  1.00  0.00    -0.077 C 
ATOM     10  C   UNL     1      79.823  13.875  -0.016  1.00  0.00     0.008 C 
ATOM     11  C   UNL     1      77.493  14.615   0.177  1.00  0.00     0.039 C 
ENDBRANCH   5   9
TORSDOF 1
ENDMDL
MODEL 3
REMARK VINA RESULT:    -3.931      1.597      1.956
REMARK INTER + INTRA:          -4.260
REMARK INTER:                  -4.163
REMARK INTRA:                  -0.097
REMARK UNBOUND:                -0.099
REMARK SMILES C=C(C)[C@@H]1CC=C(C)C(=O)C1
REMARK SMILES IDX 8 1 7 2 6 3 5 4 4 5 11 6 9 7 10 8 2 9 1 10 3 11
REMARK H PARENT
REMARK Flexibility Score: inf
ROOT
ATOM      1  C   UNL     1      79.825  14.627   6.514  1.00  0.00     0.048 C 
ATOM      2  C   UNL     1      79.539  14.998   5.086  1.00  0.00    -0.012 C 
ATOM      3  C   UNL     1      78.470  15.755   4.785  1.00  0.00    -0.019 C 
ATOM      4  C   UNL     1      78.188  16.219   3.380  1.00  0.00     0.036 C 
ATOM      5  C   UNL     1      78.708  15.204   2.344  1.00  0.00     0.025 C 
ATOM      6  C   UNL     1      80.203  14.921   2.576  1.00  0.00     0.089 C 
ATOM      7  C   UNL     1      80.456  14.545   4.011  1.00  0.00     0.158 C 
ATOM      8  O   UNL     1      81.485  13.876   4.298  1.00  0.00    -0.295 OA
ENDROOT
BRANCH   5   9
ATOM      9  C   UNL     1      78.445  15.676   0.921  1.00  0.00    -0.077 C 
ATOM     10  C   UNL     1      78.717  16.943   0.571  1.00  0.00     0.008 C 
ATOM     11  C   UNL     1      77.876  14.747  -0.123  1.00  0.00     0.039 C 
ENDBRANCH   5   9
TORSDOF 1
ENDMDL
MODEL 4
REMARK VINA RESULT:    -3.930      1.796      4.226
REMARK INTER + INTRA:          -4.258
REMARK INTER:                  -4.162
REMARK INTRA:                  -0.096
REMARK UNBOUND:                -0.099
REMARK SMILES C=C(C)[C@@H]1CC=C(C)C(=O)C1
REMARK SMILES IDX 8 1 7 2 6 3 5 4 4 5 11 6 9 7 10 8 2 9 1 10 3 11
REMARK H PARENT
REMARK Flexibility Score: inf
ROOT
ATOM      1  C   UNL     1      77.900  18.387   0.624  1.00  0.00     0.048 C 
ATOM      2  C   UNL     1      78.486  17.386   1.580  1.00  0.00    -0.012 C 
ATOM      3  C   UNL     1      77.884  16.199   1.767  1.00  0.00    -0.019 C 
ATOM      4  C   UNL     1      78.476  15.133   2.652  1.00  0.00     0.036 C 
ATOM      5  C   UNL     1      79.291  15.755   3.802  1.00  0.00     0.025 C 
ATOM      6  C   UNL     1      80.361  16.710   3.245  1.00  0.00     0.089 C 
ATOM      7  C   UNL     1      79.744  17.704   2.298  1.00  0.00     0.158 C 
ATOM      8  O   UNL     1      80.334  18.798   2.087  1.00  0.00    -0.295 OA
ENDROOT
BRANCH   5   9
ATOM      9  C   UNL     1      79.910  14.683   4.689  1.00  0.00    -0.077 C 
ATOM     10  C   UNL     1      80.948  13.957   4.244  1.00  0.00     0.008 C 
ATOM     11  C   UNL     1      79.380  14.408   6.075  1.00  0.00     0.039 C 
ENDBRANCH   5   9
TORSDOF 1
ENDMDL
MODEL 5
REMARK VINA RESULT:    -3.865      1.801      4.316
REMARK INTER + INTRA:          -4.190
REMARK INTER:                  -4.091
REMARK INTRA:                  -0.099
REMARK UNBOUND:                -0.099
REMARK SMILES C=C(C)[C@@H]1CC=C(C)C(=O)C1
REMARK SMILES IDX 8 1 7 2 6 3 5 4 4 5 11 6 9 7 10 8 2 9 1 10 3 11
REMARK H PARENT
REMARK Flexibility Score: inf
ROOT
ATOM      1  C   UNL     1      79.333  14.087  -0.124  1.00  0.00     0.048 C 
ATOM      2  C   UNL     1      79.447  14.573   1.294  1.00  0.00    -0.012 C 
ATOM      3  C   UNL     1      80.287  13.966   2.150  1.00  0.00    -0.019 C 
ATOM      4  C   UNL     1      80.495  14.467   3.556  1.00  0.00     0.036 C 
ATOM      5  C   UNL     1      79.223  15.144   4.099  1.00  0.00     0.025 C 
ATOM      6  C   UNL     1      78.760  16.259   3.145  1.00  0.00     0.089 C 
ATOM      7  C   UNL     1      78.648  15.741   1.737  1.00  0.00     0.158 C 
ATOM      8  O   UNL     1      77.896  16.340   0.920  1.00  0.00    -0.295 OA
ENDROOT
BRANCH   5   9
ATOM      9  C   UNL     1      79.432  15.671   5.512  1.00  0.00    -0.077 C 
ATOM     10  C   UNL     1      79.424  16.994   5.745  1.00  0.00     0.008 C 
ATOM     11  C   UNL     1      79.653  14.736   6.675  1.00  0.00     0.039 C 
ENDBRANCH   5   9
TORSDOF 1
ENDMDL
MODEL 6
REMARK VINA RESULT:    -3.770      1.459      2.385
REMARK INTER + INTRA:          -4.089
REMARK INTER:                  -3.993
REMARK INTRA:                  -0.096
REMARK UNBOUND:                -0.099
REMARK SMILES C=C(C)[C@@H]1CC=C(C)C(=O)C1
REMARK SMILES IDX 8 1 7 2 6 3 5 4 4 5 11 6 9 7 10 8 2 9 1 10 3 11
REMARK H PARENT
REMARK Flexibility Score: inf
ROOT
ATOM      1  C   UNL     1      79.680  17.463   5.672  1.00  0.00     0.048 C 
ATOM      2  C   UNL     1      79.559  16.671   4.399  1.00  0.00    -0.012 C 
ATOM      3  C   UNL     1      79.737  17.272   3.210  1.00  0.00    -0.019 C 
ATOM      4  C   UNL     1      79.705  16.506   1.914  1.00  0.00     0.036 C 
ATOM      5  C   UNL     1      78.766  15.289   2.010  1.00  0.00     0.025 C 
ATOM      6  C   UNL     1      79.159  14.401   3.204  1.00  0.00     0.089 C 
ATOM      7  C   UNL     1      79.265  15.219   4.462  1.00  0.00     0.158 C 
ATOM      8  O   UNL     1      79.146  14.645   5.579  1.00  0.00    -0.295 OA
ENDROOT
BRANCH   5   9
ATOM      9  C   UNL     1      78.744  14.497   0.710  1.00  0.00    -0.077 C 
ATOM     10  C   UNL     1      79.854  13.875   0.282  1.00  0.00     0.008 C 
ATOM     11  C   UNL     1      77.492  14.391  -0.125  1.00  0.00     0.039 C 
ENDBRANCH   5   9
TORSDOF 1
ENDMDL
MODEL 7
REMARK VINA RESULT:    -3.524      2.173      4.524
REMARK INTER + INTRA:          -3.829
REMARK INTER:                  -3.742
REMARK INTRA:                  -0.087
REMARK UNBOUND:                -0.099
REMARK SMILES C=C(C)[C@@H]1CC=C(C)C(=O)C1
REMARK SMILES IDX 8 1 7 2 6 3 5 4 4 5 11 6 9 7 10 8 2 9 1 10 3 11
REMARK H PARENT
REMARK Flexibility Score: inf
ROOT
ATOM      1  C   UNL     1      78.184  18.341   0.524  1.00  0.00     0.048 C 
ATOM      2  C   UNL     1      78.678  17.356   1.547  1.00  0.00    -0.012 C 
ATOM      3  C   UNL     1      79.404  17.777   2.596  1.00  0.00    -0.019 C 
ATOM      4  C   UNL     1      79.851  16.840   3.687  1.00  0.00     0.036 C 
ATOM      5  C   UNL     1      80.069  15.416   3.143  1.00  0.00     0.025 C 
ATOM      6  C   UNL     1      78.802  14.916   2.427  1.00  0.00     0.089 C 
ATOM      7  C   UNL     1      78.338  15.919   1.406  1.00  0.00     0.158 C 
ATOM      8  O   UNL     1      77.616  15.530   0.448  1.00  0.00    -0.295 OA
ENDROOT
BRANCH   5   9
ATOM      9  C   UNL     1      80.501  14.458   4.244  1.00  0.00    -0.077 C 
ATOM     10  C   UNL     1      81.710  13.875   4.194  1.00  0.00     0.008 C 
ATOM     11  C   UNL     1      79.595  14.138   5.408  1.00  0.00     0.039 C 
ENDBRANCH   5   9
TORSDOF 1
ENDMDL
MODEL 8
REMARK VINA RESULT:    -3.244      1.266      1.913
REMARK INTER + INTRA:          -3.532
REMARK INTER:                  -3.444
REMARK INTRA:                  -0.088
REMARK UNBOUND:                -0.099
REMARK SMILES C=C(C)[C@@H]1CC=C(C)C(=O)C1
REMARK SMILES IDX 8 1 7 2 6 3 5 4 4 5 11 6 9 7 10 8 2 9 1 10 3 11
REMARK H PARENT
REMARK Flexibility Score: inf
ROOT
ATOM      1  C   UNL     1      80.110  16.046   8.299  1.00  0.00     0.048 C 
ATOM      2  C   UNL     1      79.771  15.657   6.888  1.00  0.00    -0.012 C 
ATOM      3  C   UNL     1      79.759  14.362   6.528  1.00  0.00    -0.019 C 
ATOM      4  C   UNL     1      79.347  13.918   5.149  1.00  0.00     0.036 C 
ATOM      5  C   UNL     1      79.687  14.989   4.096  1.00  0.00     0.025 C 
ATOM      6  C   UNL     1      79.061  16.341   4.485  1.00  0.00     0.089 C 
ATOM      7  C   UNL     1      79.425  16.707   5.898  1.00  0.00     0.158 C 
ATOM      8  O   UNL     1      79.389  17.918   6.247  1.00  0.00    -0.295 OA
ENDROOT
BRANCH   5   9
ATOM      9  C   UNL     1      79.255  14.557   2.701  1.00  0.00    -0.077 C 
ATOM     10  C   UNL     1      80.103  13.876   1.914  1.00  0.00     0.008 C 
ATOM     11  C   UNL     1      77.880  14.879   2.169  1.00  0.00     0.039 C 
ENDBRANCH   5   9
TORSDOF 1
ENDMDL
