MODEL 1
REMARK VINA RESULT:    -5.976      0.000      0.000
REMARK INTER + INTRA:         -10.025
REMARK INTER:                  -9.120
REMARK INTRA:                  -0.905
REMARK UNBOUND:                -0.905
REMARK SMILES CC(=O)CCC=C(C)CCC=C(C)CCC=C(C)C
REMARK SMILES IDX 10 1 11 2 12 3 13 4 14 5 15 6 16 7 18 8 17 9 19 10 9 11 7 12
REMARK SMILES IDX 6 13 8 14 5 15 4 16 2 17 3 18 1 19
REMARK H PARENT
REMARK Flexibility Score: inf
ROOT
ATOM      1  C   UNL     1     -25.859  17.697 -30.881  1.00  0.00     0.032 C 
ENDROOT
BRANCH   1   2
ATOM      2  C   UNL     1     -25.857  16.261 -30.422  1.00  0.00    -0.028 C 
ATOM      3  C   UNL     1     -24.850  15.387 -30.649  1.00  0.00    -0.077 C 
ATOM      4  C   UNL     1     -23.579  15.799 -31.355  1.00  0.00     0.039 C 
BRANCH   3   5
ATOM      5  C   UNL     1     -24.991  13.958 -30.164  1.00  0.00     0.034 C 
BRANCH   5   6
ATOM      6  C   UNL     1     -26.251  13.283 -30.724  1.00  0.00     0.032 C 
BRANCH   6   7
ATOM      7  C   UNL     1     -27.302  13.082 -29.658  1.00  0.00    -0.028 C 
ATOM      8  C   UNL     1     -28.492  11.281 -30.929  1.00  0.00     0.039 C 
ATOM      9  C   UNL     1     -28.288  12.159 -29.719  1.00  0.00    -0.080 C 
ATOM     10  C   UNL     1     -29.262  12.029 -28.577  1.00  0.00     0.039 C 
ENDBRANCH   6   7
ENDBRANCH   5   6
ENDBRANCH   3   5
ENDBRANCH   1   2
BRANCH   1  11
ATOM     11  C   UNL     1     -27.139  18.020 -31.658  1.00  0.00     0.034 C 
BRANCH  11  12
ATOM     12  C   UNL     1     -26.883  19.090 -32.697  1.00  0.00    -0.077 C 
ATOM     13  C   UNL     1     -25.607  19.416 -33.004  1.00  0.00    -0.028 C 
ATOM     14  C   UNL     1     -28.062  19.749 -33.377  1.00  0.00     0.039 C 
BRANCH  13  15
ATOM     15  C   UNL     1     -25.211  20.485 -33.991  1.00  0.00     0.035 C 
BRANCH  15  16
ATOM     16  C   UNL     1     -23.688  20.686 -33.989  1.00  0.00     0.079 C 
BRANCH  16  17
ATOM     17  C   UNL     1     -23.111  21.084 -32.648  1.00  0.00     0.130 C 
ATOM     18  O   UNL     1     -23.110  22.268 -32.347  1.00  0.00    -0.300 OA
ATOM     19  C   UNL     1     -22.535  20.091 -31.677  1.00  0.00     0.087 C 
ENDBRANCH  16  17
ENDBRANCH  15  16
ENDBRANCH  13  15
ENDBRANCH  11  12
ENDBRANCH   1  11
TORSDOF 9
ENDMDL
MODEL 2
REMARK VINA RESULT:    -5.871      3.070      8.016
REMARK INTER + INTRA:          -9.865
REMARK INTER:                  -8.806
REMARK INTRA:                  -1.058
REMARK UNBOUND:                -0.905
REMARK SMILES CC(=O)CCC=C(C)CCC=C(C)CCC=C(C)C
REMARK SMILES IDX 10 1 11 2 12 3 13 4 14 5 15 6 16 7 18 8 17 9 19 10 9 11 7 12
REMARK SMILES IDX 6 13 8 14 5 15 4 16 2 17 3 18 1 19
REMARK H PARENT
REMARK Flexibility Score: inf
ROOT
ATOM      1  C   UNL     1     -24.888  18.037 -30.857  1.00  0.00     0.032 C 
ENDROOT
BRANCH   1   2
ATOM      2  C   UNL     1     -25.033  18.735 -32.185  1.00  0.00    -0.028 C 
ATOM      3  C   UNL     1     -24.121  19.590 -32.703  1.00  0.00    -0.077 C 
ATOM      4  C   UNL     1     -22.816  19.887 -32.001  1.00  0.00     0.039 C 
BRANCH   3   5
ATOM      5  C   UNL     1     -24.405  20.253 -34.036  1.00  0.00     0.034 C 
BRANCH   5   6
ATOM      6  C   UNL     1     -25.895  20.185 -34.403  1.00  0.00     0.032 C 
BRANCH   6   7
ATOM      7  C   UNL     1     -26.624  21.454 -34.031  1.00  0.00    -0.028 C 
ATOM      8  C   UNL     1     -28.610  20.244 -33.101  1.00  0.00     0.039 C 
ATOM      9  C   UNL     1     -27.824  21.494 -33.409  1.00  0.00    -0.080 C 
ATOM     10  C   UNL     1     -28.440  22.823 -33.058  1.00  0.00     0.039 C 
ENDBRANCH   6   7
ENDBRANCH   5   6
ENDBRANCH   3   5
ENDBRANCH   1   2
BRANCH   1  11
ATOM     11  C   UNL     1     -25.969  16.965 -30.684  1.00  0.00     0.034 C 
BRANCH  11  12
ATOM     12  C   UNL     1     -25.347  15.593 -30.541  1.00  0.00    -0.077 C 
ATOM     13  C   UNL     1     -26.085  14.588 -30.017  1.00  0.00    -0.028 C 
ATOM     14  C   UNL     1     -23.926  15.380 -31.009  1.00  0.00     0.039 C 
BRANCH  13  15
ATOM     15  C   UNL     1     -25.580  13.186 -29.786  1.00  0.00     0.035 C 
BRANCH  15  16
ATOM     16  C   UNL     1     -26.744  12.184 -29.792  1.00  0.00     0.079 C 
BRANCH  16  17
ATOM     17  C   UNL     1     -27.567  12.174 -28.522  1.00  0.00     0.130 C 
ATOM     18  O   UNL     1     -27.037  11.792 -27.491  1.00  0.00    -0.300 OA
ATOM     19  C   UNL     1     -29.007  12.605 -28.477  1.00  0.00     0.087 C 
ENDBRANCH  16  17
ENDBRANCH  15  16
ENDBRANCH  13  15
ENDBRANCH  11  12
ENDBRANCH   1  11
TORSDOF 9
ENDMDL
MODEL 3
REMARK VINA RESULT:    -5.824     10.689     13.875
REMARK INTER + INTRA:          -9.793
REMARK INTER:                  -7.469
REMARK INTRA:                  -2.324
REMARK UNBOUND:                -0.905
REMARK SMILES CC(=O)CCC=C(C)CCC=C(C)CCC=C(C)C
REMARK SMILES IDX 10 1 11 2 12 3 13 4 14 5 15 6 16 7 18 8 17 9 19 10 9 11 7 12
REMARK SMILES IDX 6 13 8 14 5 15 4 16 2 17 3 18 1 19
REMARK H PARENT
REMARK Flexibility Score: inf
ROOT
ATOM      1  C   UNL     1     -14.025  15.988 -32.254  1.00  0.00     0.032 C 
ENDROOT
BRANCH   1   2
ATOM      2  C   UNL     1     -12.526  15.975 -32.097  1.00  0.00    -0.028 C 
ATOM      3  C   UNL     1     -11.694  15.147 -32.769  1.00  0.00    -0.077 C 
ATOM      4  C   UNL     1     -12.204  14.172 -33.806  1.00  0.00     0.039 C 
BRANCH   3   5
ATOM      5  C   UNL     1     -10.206  15.212 -32.491  1.00  0.00     0.034 C 
BRANCH   5   6
ATOM      6  C   UNL     1      -9.891  15.008 -31.002  1.00  0.00     0.032 C 
BRANCH   6   7
ATOM      7  C   UNL     1     -10.472  13.715 -30.478  1.00  0.00    -0.028 C 
ATOM      8  C   UNL     1     -11.820  14.845 -28.695  1.00  0.00     0.039 C 
ATOM      9  C   UNL     1     -11.370  13.632 -29.470  1.00  0.00    -0.080 C 
ATOM     10  C   UNL     1     -11.904  12.286 -29.054  1.00  0.00     0.039 C 
ENDBRANCH   6   7
ENDBRANCH   5   6
ENDBRANCH   3   5
ENDBRANCH   1   2
BRANCH   1  11
ATOM     11  C   UNL     1     -14.717  15.745 -30.908  1.00  0.00     0.034 C 
BRANCH  11  12
ATOM     12  C   UNL     1     -15.144  14.299 -30.777  1.00  0.00    -0.077 C 
ATOM     13  C   UNL     1     -15.308  13.773 -29.542  1.00  0.00    -0.028 C 
ATOM     14  C   UNL     1     -15.395  13.492 -32.030  1.00  0.00     0.039 C 
BRANCH  13  15
ATOM     15  C   UNL     1     -15.695  12.341 -29.267  1.00  0.00     0.035 C 
BRANCH  15  16
ATOM     16  C   UNL     1     -16.910  12.279 -28.330  1.00  0.00     0.079 C 
BRANCH  16  17
ATOM     17  C   UNL     1     -18.223  11.992 -29.026  1.00  0.00     0.130 C 
ATOM     18  O   UNL     1     -18.864  11.015 -28.672  1.00  0.00    -0.300 OA
ATOM     19  C   UNL     1     -18.767  12.850 -30.135  1.00  0.00     0.087 C 
ENDBRANCH  16  17
ENDBRANCH  15  16
ENDBRANCH  13  15
ENDBRANCH  11  12
ENDBRANCH   1  11
TORSDOF 9
ENDMDL
MODEL 4
REMARK VINA RESULT:    -5.779     10.103     12.558
REMARK INTER + INTRA:          -9.725
REMARK INTER:                  -7.522
REMARK INTRA:                  -2.203
REMARK UNBOUND:                -0.905
REMARK SMILES CC(=O)CCC=C(C)CCC=C(C)CCC=C(C)C
REMARK SMILES IDX 10 1 11 2 12 3 13 4 14 5 15 6 16 7 18 8 17 9 19 10 9 11 7 12
REMARK SMILES IDX 6 13 8 14 5 15 4 16 2 17 3 18 1 19
REMARK H PARENT
REMARK Flexibility Score: inf
ROOT
ATOM      1  C   UNL     1     -12.080  13.258 -28.482  1.00  0.00     0.032 C 
ENDROOT
BRANCH   1   2
ATOM      2  C   UNL     1     -13.204  12.810 -27.581  1.00  0.00    -0.028 C 
ATOM      3  C   UNL     1     -14.013  11.757 -27.835  1.00  0.00    -0.077 C 
ATOM      4  C   UNL     1     -13.823  10.877 -29.050  1.00  0.00     0.039 C 
BRANCH   3   5
ATOM      5  C   UNL     1     -15.129  11.434 -26.862  1.00  0.00     0.034 C 
BRANCH   5   6
ATOM      6  C   UNL     1     -16.286  12.439 -26.963  1.00  0.00     0.032 C 
BRANCH   6   7
ATOM      7  C   UNL     1     -17.153  12.178 -28.173  1.00  0.00    -0.028 C 
ATOM      8  C   UNL     1     -16.551  14.340 -29.284  1.00  0.00     0.039 C 
ATOM      9  C   UNL     1     -17.248  13.004 -29.239  1.00  0.00    -0.080 C 
ATOM     10  C   UNL     1     -18.123  12.621 -30.404  1.00  0.00     0.039 C 
ENDBRANCH   6   7
ENDBRANCH   5   6
ENDBRANCH   3   5
ENDBRANCH   1   2
BRANCH   1  11
ATOM     11  C   UNL     1     -12.142  14.771 -28.718  1.00  0.00     0.034 C 
BRANCH  11  12
ATOM     12  C   UNL     1     -12.294  15.079 -30.192  1.00  0.00    -0.077 C 
ATOM     13  C   UNL     1     -13.337  15.837 -30.600  1.00  0.00    -0.028 C 
ATOM     14  C   UNL     1     -11.263  14.549 -31.162  1.00  0.00     0.039 C 
BRANCH  13  15
ATOM     15  C   UNL     1     -13.628  16.189 -32.038  1.00  0.00     0.035 C 
BRANCH  15  16
ATOM     16  C   UNL     1     -14.940  15.539 -32.499  1.00  0.00     0.079 C 
BRANCH  16  17
ATOM     17  C   UNL     1     -14.802  14.102 -32.950  1.00  0.00     0.130 C 
ATOM     18  O   UNL     1     -14.753  13.873 -34.148  1.00  0.00    -0.300 OA
ATOM     19  C   UNL     1     -14.731  12.946 -31.990  1.00  0.00     0.087 C 
ENDBRANCH  16  17
ENDBRANCH  15  16
ENDBRANCH  13  15
ENDBRANCH  11  12
ENDBRANCH   1  11
TORSDOF 9
ENDMDL
MODEL 5
REMARK VINA RESULT:    -5.593     10.104     13.055
REMARK INTER + INTRA:          -9.441
REMARK INTER:                  -7.129
REMARK INTRA:                  -2.312
REMARK UNBOUND:                -0.905
REMARK SMILES CC(=O)CCC=C(C)CCC=C(C)CCC=C(C)C
REMARK SMILES IDX 10 1 11 2 12 3 13 4 14 5 15 6 16 7 18 8 17 9 19 10 9 11 7 12
REMARK SMILES IDX 6 13 8 14 5 15 4 16 2 17 3 18 1 19
REMARK H PARENT
REMARK Flexibility Score: inf
ROOT
ATOM      1  C   UNL     1     -15.975  11.994 -27.387  1.00  0.00     0.032 C 
ENDROOT
BRANCH   1   2
ATOM      2  C   UNL     1     -14.555  12.496 -27.323  1.00  0.00    -0.028 C 
ATOM      3  C   UNL     1     -13.578  12.138 -28.188  1.00  0.00    -0.077 C 
ATOM      4  C   UNL     1     -13.844  11.219 -29.358  1.00  0.00     0.039 C 
BRANCH   3   5
ATOM      5  C   UNL     1     -12.180  12.690 -27.990  1.00  0.00     0.034 C 
BRANCH   5   6
ATOM      6  C   UNL     1     -12.076  14.157 -28.435  1.00  0.00     0.032 C 
BRANCH   6   7
ATOM      7  C   UNL     1     -11.590  14.277 -29.861  1.00  0.00    -0.028 C 
ATOM      8  C   UNL     1     -13.266  16.040 -30.462  1.00  0.00     0.039 C 
ATOM      9  C   UNL     1     -12.089  15.148 -30.768  1.00  0.00    -0.080 C 
ATOM     10  C   UNL     1     -11.502  15.199 -32.155  1.00  0.00     0.039 C 
ENDBRANCH   6   7
ENDBRANCH   5   6
ENDBRANCH   3   5
ENDBRANCH   1   2
BRANCH   1  11
ATOM     11  C   UNL     1     -16.922  13.096 -27.873  1.00  0.00     0.034 C 
BRANCH  11  12
ATOM     12  C   UNL     1     -17.105  13.025 -29.373  1.00  0.00    -0.077 C 
ATOM     13  C   UNL     1     -16.339  13.807 -30.167  1.00  0.00    -0.028 C 
ATOM     14  C   UNL     1     -18.125  12.065 -29.942  1.00  0.00     0.039 C 
BRANCH  13  15
ATOM     15  C   UNL     1     -16.443  13.862 -31.671  1.00  0.00     0.035 C 
BRANCH  15  16
ATOM     16  C   UNL     1     -15.109  13.464 -32.320  1.00  0.00     0.079 C 
BRANCH  16  17
ATOM     17  C   UNL     1     -14.728  14.295 -33.526  1.00  0.00     0.130 C 
ATOM     18  O   UNL     1     -14.116  13.753 -34.433  1.00  0.00    -0.300 OA
ATOM     19  C   UNL     1     -15.062  15.756 -33.652  1.00  0.00     0.087 C 
ENDBRANCH  16  17
ENDBRANCH  15  16
ENDBRANCH  13  15
ENDBRANCH  11  12
ENDBRANCH   1  11
TORSDOF 9
ENDMDL
MODEL 6
REMARK VINA RESULT:    -5.498     10.358     13.688
REMARK INTER + INTRA:          -9.296
REMARK INTER:                  -6.965
REMARK INTRA:                  -2.331
REMARK UNBOUND:                -0.905
REMARK SMILES CC(=O)CCC=C(C)CCC=C(C)CCC=C(C)C
REMARK SMILES IDX 10 1 11 2 12 3 13 4 14 5 15 6 16 7 18 8 17 9 19 10 9 11 7 12
REMARK SMILES IDX 6 13 8 14 5 15 4 16 2 17 3 18 1 19
REMARK H PARENT
REMARK Flexibility Score: inf
ROOT
ATOM      1  C   UNL     1     -12.250  12.550 -28.240  1.00  0.00     0.032 C 
ENDROOT
BRANCH   1   2
ATOM      2  C   UNL     1     -11.451  12.924 -29.463  1.00  0.00    -0.028 C 
ATOM      3  C   UNL     1     -11.224  14.194 -29.868  1.00  0.00    -0.077 C 
ATOM      4  C   UNL     1     -11.718  15.385 -29.080  1.00  0.00     0.039 C 
BRANCH   3   5
ATOM      5  C   UNL     1     -10.432  14.431 -31.138  1.00  0.00     0.034 C 
BRANCH   5   6
ATOM      6  C   UNL     1     -11.264  15.158 -32.205  1.00  0.00     0.032 C 
BRANCH   6   7
ATOM      7  C   UNL     1     -12.495  14.370 -32.589  1.00  0.00    -0.028 C 
ATOM      8  C   UNL     1     -14.082  16.099 -31.714  1.00  0.00     0.039 C 
ATOM      9  C   UNL     1     -13.765  14.800 -32.411  1.00  0.00    -0.080 C 
ATOM     10  C   UNL     1     -14.915  13.939 -32.864  1.00  0.00     0.039 C 
ENDBRANCH   6   7
ENDBRANCH   5   6
ENDBRANCH   3   5
ENDBRANCH   1   2
BRANCH   1  11
ATOM     11  C   UNL     1     -13.267  11.452 -28.568  1.00  0.00     0.034 C 
BRANCH  11  12
ATOM     12  C   UNL     1     -14.502  12.038 -29.217  1.00  0.00    -0.077 C 
ATOM     13  C   UNL     1     -14.884  13.293 -28.889  1.00  0.00    -0.028 C 
ATOM     14  C   UNL     1     -15.260  11.212 -30.231  1.00  0.00     0.039 C 
BRANCH  13  15
ATOM     15  C   UNL     1     -16.110  13.984 -29.431  1.00  0.00     0.035 C 
BRANCH  15  16
ATOM     16  C   UNL     1     -17.336  13.676 -28.558  1.00  0.00     0.079 C 
BRANCH  16  17
ATOM     17  C   UNL     1     -18.459  12.969 -29.284  1.00  0.00     0.130 C 
ATOM     18  O   UNL     1     -19.194  13.632 -30.000  1.00  0.00    -0.300 OA
ATOM     19  C   UNL     1     -18.714  11.493 -29.158  1.00  0.00     0.087 C 
ENDBRANCH  16  17
ENDBRANCH  15  16
ENDBRANCH  13  15
ENDBRANCH  11  12
ENDBRANCH   1  11
TORSDOF 9
ENDMDL
MODEL 7
REMARK VINA RESULT:    -5.478     10.927     13.564
REMARK INTER + INTRA:          -9.266
REMARK INTER:                  -7.272
REMARK INTRA:                  -1.994
REMARK UNBOUND:                -0.905
REMARK SMILES CC(=O)CCC=C(C)CCC=C(C)CCC=C(C)C
REMARK SMILES IDX 10 1 11 2 12 3 13 4 14 5 15 6 16 7 18 8 17 9 19 10 9 11 7 12
REMARK SMILES IDX 6 13 8 14 5 15 4 16 2 17 3 18 1 19
REMARK H PARENT
REMARK Flexibility Score: inf
ROOT
ATOM      1  C   UNL     1     -13.064  12.399 -27.369  1.00  0.00     0.032 C 
ENDROOT
BRANCH   1   2
ATOM      2  C   UNL     1     -14.570  12.423 -27.439  1.00  0.00    -0.028 C 
ATOM      3  C   UNL     1     -15.304  11.764 -28.364  1.00  0.00    -0.077 C 
ATOM      4  C   UNL     1     -14.664  10.875 -29.406  1.00  0.00     0.039 C 
BRANCH   3   5
ATOM      5  C   UNL     1     -16.813  11.901 -28.343  1.00  0.00     0.034 C 
BRANCH   5   6
ATOM      6  C   UNL     1     -17.311  12.909 -29.389  1.00  0.00     0.032 C 
BRANCH   6   7
ATOM      7  C   UNL     1     -16.401  14.111 -29.488  1.00  0.00    -0.028 C 
ATOM      8  C   UNL     1     -15.579  13.516 -31.777  1.00  0.00     0.039 C 
ATOM      9  C   UNL     1     -15.650  14.417 -30.570  1.00  0.00    -0.080 C 
ATOM     10  C   UNL     1     -14.804  15.663 -30.564  1.00  0.00     0.039 C 
ENDBRANCH   6   7
ENDBRANCH   5   6
ENDBRANCH   3   5
ENDBRANCH   1   2
BRANCH   1  11
ATOM     11  C   UNL     1     -12.481  13.779 -27.691  1.00  0.00     0.034 C 
BRANCH  11  12
ATOM     12  C   UNL     1     -11.742  13.757 -29.010  1.00  0.00    -0.077 C 
ATOM     13  C   UNL     1     -11.409  14.929 -29.597  1.00  0.00    -0.028 C 
ATOM     14  C   UNL     1     -11.377  12.424 -29.624  1.00  0.00     0.039 C 
BRANCH  13  15
ATOM     15  C   UNL     1     -10.705  15.051 -30.926  1.00  0.00     0.035 C 
BRANCH  15  16
ATOM     16  C   UNL     1     -11.722  15.230 -32.062  1.00  0.00     0.079 C 
BRANCH  16  17
ATOM     17  C   UNL     1     -11.608  14.206 -33.170  1.00  0.00     0.130 C 
ATOM     18  O   UNL     1     -12.620  13.900 -33.782  1.00  0.00    -0.300 OA
ATOM     19  C   UNL     1     -10.310  13.545 -33.545  1.00  0.00     0.087 C 
ENDBRANCH  16  17
ENDBRANCH  15  16
ENDBRANCH  13  15
ENDBRANCH  11  12
ENDBRANCH   1  11
TORSDOF 9
ENDMDL
MODEL 8
REMARK VINA RESULT:    -5.429     10.407     13.789
REMARK INTER + INTRA:          -9.190
REMARK INTER:                  -6.943
REMARK INTRA:                  -2.247
REMARK UNBOUND:                -0.905
REMARK SMILES CC(=O)CCC=C(C)CCC=C(C)CCC=C(C)C
REMARK SMILES IDX 10 1 11 2 12 3 13 4 14 5 15 6 16 7 18 8 17 9 19 10 9 11 7 12
REMARK SMILES IDX 6 13 8 14 5 15 4 16 2 17 3 18 1 19
REMARK H PARENT
REMARK Flexibility Score: inf
ROOT
ATOM      1  C   UNL     1     -11.353  14.059 -29.216  1.00  0.00     0.032 C 
ENDROOT
BRANCH   1   2
ATOM      2  C   UNL     1     -11.679  15.025 -30.328  1.00  0.00    -0.028 C 
ATOM      3  C   UNL     1     -11.604  14.728 -31.645  1.00  0.00    -0.077 C 
ATOM      4  C   UNL     1     -11.229  13.347 -32.132  1.00  0.00     0.039 C 
BRANCH   3   5
ATOM      5  C   UNL     1     -11.926  15.803 -32.663  1.00  0.00     0.034 C 
BRANCH   5   6
ATOM      6  C   UNL     1     -13.325  16.399 -32.445  1.00  0.00     0.032 C 
BRANCH   6   7
ATOM      7  C   UNL     1     -14.413  15.388 -32.721  1.00  0.00    -0.028 C 
ATOM      8  C   UNL     1     -15.196  15.328 -30.342  1.00  0.00     0.039 C 
ATOM      9  C   UNL     1     -15.286  14.931 -31.794  1.00  0.00    -0.080 C 
ATOM     10  C   UNL     1     -16.353  13.945 -32.195  1.00  0.00     0.039 C 
ENDBRANCH   6   7
ENDBRANCH   5   6
ENDBRANCH   3   5
ENDBRANCH   1   2
BRANCH   1  11
ATOM     11  C   UNL     1     -12.561  13.864 -28.293  1.00  0.00     0.034 C 
BRANCH  11  12
ATOM     12  C   UNL     1     -13.259  12.555 -28.590  1.00  0.00    -0.077 C 
ATOM     13  C   UNL     1     -14.559  12.410 -28.246  1.00  0.00    -0.028 C 
ATOM     14  C   UNL     1     -12.489  11.454 -29.283  1.00  0.00     0.039 C 
BRANCH  13  15
ATOM     15  C   UNL     1     -15.363  11.150 -28.451  1.00  0.00     0.035 C 
BRANCH  15  16
ATOM     16  C   UNL     1     -16.423  11.357 -29.542  1.00  0.00     0.079 C 
BRANCH  16  17
ATOM     17  C   UNL     1     -17.786  11.761 -29.023  1.00  0.00     0.130 C 
ATOM     18  O   UNL     1     -18.384  10.981 -28.298  1.00  0.00    -0.300 OA
ATOM     19  C   UNL     1     -18.436  13.073 -29.364  1.00  0.00     0.087 C 
ENDBRANCH  16  17
ENDBRANCH  15  16
ENDBRANCH  13  15
ENDBRANCH  11  12
ENDBRANCH   1  11
TORSDOF 9
ENDMDL
MODEL 9
REMARK VINA RESULT:    -5.427     11.198     13.652
REMARK INTER + INTRA:          -9.187
REMARK INTER:                  -7.190
REMARK INTRA:                  -1.997
REMARK UNBOUND:                -0.905
REMARK SMILES CC(=O)CCC=C(C)CCC=C(C)CCC=C(C)C
REMARK SMILES IDX 10 1 11 2 12 3 13 4 14 5 15 6 16 7 18 8 17 9 19 10 9 11 7 12
REMARK SMILES IDX 6 13 8 14 5 15 4 16 2 17 3 18 1 19
REMARK H PARENT
REMARK Flexibility Score: inf
ROOT
ATOM      1  C   UNL     1     -15.402  14.772 -31.362  1.00  0.00     0.032 C 
ENDROOT
BRANCH   1   2
ATOM      2  C   UNL     1     -15.130  13.376 -30.860  1.00  0.00    -0.028 C 
ATOM      3  C   UNL     1     -16.007  12.637 -30.143  1.00  0.00    -0.077 C 
ATOM      4  C   UNL     1     -17.396  13.139 -29.818  1.00  0.00     0.039 C 
BRANCH   3   5
ATOM      5  C   UNL     1     -15.595  11.259 -29.668  1.00  0.00     0.034 C 
BRANCH   5   6
ATOM      6  C   UNL     1     -15.482  11.189 -28.138  1.00  0.00     0.032 C 
BRANCH   6   7
ATOM      7  C   UNL     1     -14.636  12.313 -27.586  1.00  0.00    -0.028 C 
ATOM      8  C   UNL     1     -12.472  11.143 -28.057  1.00  0.00     0.039 C 
ATOM      9  C   UNL     1     -13.283  12.322 -27.582  1.00  0.00    -0.080 C 
ATOM     10  C   UNL     1     -12.546  13.515 -27.032  1.00  0.00     0.039 C 
ENDBRANCH   6   7
ENDBRANCH   5   6
ENDBRANCH   3   5
ENDBRANCH   1   2
BRANCH   1  11
ATOM     11  C   UNL     1     -14.471  15.785 -30.688  1.00  0.00     0.034 C 
BRANCH  11  12
ATOM     12  C   UNL     1     -13.037  15.568 -31.119  1.00  0.00    -0.077 C 
ATOM     13  C   UNL     1     -12.119  15.211 -30.193  1.00  0.00    -0.028 C 
ATOM     14  C   UNL     1     -12.677  15.737 -32.577  1.00  0.00     0.039 C 
BRANCH  13  15
ATOM     15  C   UNL     1     -10.653  14.998 -30.479  1.00  0.00     0.035 C 
BRANCH  15  16
ATOM     16  C   UNL     1     -10.303  13.504 -30.426  1.00  0.00     0.079 C 
BRANCH  16  17
ATOM     17  C   UNL     1     -10.796  12.703 -31.610  1.00  0.00     0.130 C 
ATOM     18  O   UNL     1     -11.752  11.960 -31.450  1.00  0.00    -0.300 OA
ATOM     19  C   UNL     1     -10.160  12.777 -32.971  1.00  0.00     0.087 C 
ENDBRANCH  16  17
ENDBRANCH  15  16
ENDBRANCH  13  15
ENDBRANCH  11  12
ENDBRANCH   1  11
TORSDOF 9
ENDMDL
