MODEL 1
REMARK VINA RESULT:    -4.005      0.000      0.000
REMARK INTER + INTRA:          -9.558
REMARK INTER:                  -6.580
REMARK INTRA:                  -2.978
REMARK UNBOUND:                -2.978
REMARK SMILES COc1ccc([C@H]2CC(=O)c3c(O)cc(O[C@H]4O[C@@H](CO[C@@H]5O[C@@H](C)[C@@H](O)[C@H](O)[C@@H]5O)[C@H](O)[C@@H](O)[C@H]4O)cc3O2)cc1O
REMARK SMILES IDX 19 1 32 2 34 3 36 4 17 5 18 6 20 7 21 8 22 9 25 10 24 11
REMARK SMILES IDX 26 12 23 13 28 14 30 15 27 16 29 18 31 20 33 22 35 24 16 26
REMARK SMILES IDX 15 27 14 28 38 29 12 30 39 31 11 32 40 33 9 34 7 35 10 36
REMARK SMILES IDX 8 37 13 38 6 40 41 41 5 42 42 43 4 44 3 45 43 46 2 48 1 49
REMARK SMILES IDX 37 50
REMARK H PARENT 27 17 29 19 31 21 33 23 35 25 13 39 43 47 37 51
REMARK Flexibility Score: inf
ROOT
ATOM      1  C   UNL     1      35.259  -2.904  11.097  1.00  0.00     0.180 C 
ATOM      2  C   UNL     1      34.660  -3.876  10.042  1.00  0.00     0.177 C 
ATOM      3  C   UNL     1      35.659  -4.904   9.466  1.00  0.00     0.180 C 
ATOM      4  C   UNL     1      36.910  -5.118  10.326  1.00  0.00     0.214 C 
ATOM      5  C   UNL     1      36.579  -4.793  11.824  1.00  0.00     0.339 C 
ATOM      6  O   UNL     1      36.328  -3.399  11.917  1.00  0.00    -0.332 OA
ENDROOT
BRANCH   1   7
ATOM      7  C   UNL     1      35.642  -1.526  10.492  1.00  0.00     0.198 C 
BRANCH   7   8
ATOM      8  O   UNL     1      36.965  -1.500   9.976  1.00  0.00    -0.347 OA
BRANCH   8   9
ATOM      9  C   UNL     1      37.946  -1.284  10.989  1.00  0.00     0.281 C 
ATOM     10  C   UNL     1      36.936   2.148  11.903  1.00  0.00     0.041 C 
ATOM     11  C   UNL     1      37.456   1.014  11.023  1.00  0.00     0.150 C 
ATOM     12  C   UNL     1      38.802   1.410  10.376  1.00  0.00     0.174 C 
ATOM     13  O   UNL     1      37.582  -0.171  11.800  1.00  0.00    -0.344 OA
ATOM     14  C   UNL     1      39.344   0.241   9.524  1.00  0.00     0.179 C 
ATOM     15  C   UNL     1      39.355  -1.027  10.401  1.00  0.00     0.202 C 
BRANCH  12  16
ATOM     16  O   UNL     1      39.756   1.720  11.361  1.00  0.00    -0.388 OA
ATOM     17  H   UNL     1      39.326   1.573  12.245  1.00  0.00     0.211 HD
ENDBRANCH  12  16
BRANCH  14  18
ATOM     18  O   UNL     1      38.553   0.010   8.383  1.00  0.00    -0.387 OA
ATOM     19  H   UNL     1      38.179   0.888   8.082  1.00  0.00     0.211 HD
ENDBRANCH  14  18
BRANCH  15  20
ATOM     20  O   UNL     1      39.841  -2.148   9.717  1.00  0.00    -0.385 OA
ATOM     21  H   UNL     1      39.969  -2.853  10.414  1.00  0.00     0.211 HD
ENDBRANCH  15  20
ENDBRANCH   8   9
ENDBRANCH   7   8
ENDBRANCH   1   7
BRANCH   2  22
ATOM     22  O   UNL     1      33.604  -4.587  10.664  1.00  0.00    -0.387 OA
ATOM     23  H   UNL     1      33.995  -5.161  11.377  1.00  0.00     0.211 HD
ENDBRANCH   2  22
BRANCH   3  24
ATOM     24  O   UNL     1      35.987  -4.619   8.129  1.00  0.00    -0.387 OA
ATOM     25  H   UNL     1      35.831  -5.466   7.616  1.00  0.00     0.211 HD
ENDBRANCH   3  24
BRANCH   5  26
ATOM     26  O   UNL     1      37.648  -5.080  12.755  1.00  0.00    -0.462 OA
BRANCH  26  27
ATOM     27  C   UNL     1      38.632  -4.195  13.231  1.00  0.00     0.130 A 
ATOM     28  C   UNL     1      38.450  -3.362  14.358  1.00  0.00     0.093 A 
ATOM     29  C   UNL     1      39.843  -4.128  12.539  1.00  0.00     0.094 A 
ATOM     30  C   UNL     1      39.546  -2.678  14.907  1.00  0.00     0.133 A 
ATOM     31  C   UNL     1      40.910  -3.377  13.032  1.00  0.00     0.138 A 
ATOM     32  C   UNL     1      40.792  -2.725  14.263  1.00  0.00     0.102 A 
ATOM     33  O   UNL     1      42.118  -3.300  12.324  1.00  0.00    -0.484 OA
ATOM     34  C   UNL     1      42.033  -2.260  14.882  1.00  0.00     0.174 C 
ATOM     35  C   UNL     1      43.120  -2.299  12.563  1.00  0.00     0.211 C 
ATOM     36  O   UNL     1      42.293  -2.547  16.086  1.00  0.00    -0.294 OA
ATOM     37  C   UNL     1      43.123  -1.710  14.007  1.00  0.00     0.131 C 
BRANCH  30  38
ATOM     38  O   UNL     1      39.404  -1.943  16.088  1.00  0.00    -0.507 OA
ATOM     39  H   UNL     1      39.605  -0.947  16.136  1.00  0.00     0.293 HD
ENDBRANCH  30  38
BRANCH  35  40
ATOM     40  C   UNL     1      43.038  -1.179  11.541  1.00  0.00    -0.003 A 
ATOM     41  C   UNL     1      42.962   0.178  11.921  1.00  0.00     0.057 A 
ATOM     42  C   UNL     1      43.116  -1.499  10.175  1.00  0.00     0.011 A 
ATOM     43  C   UNL     1      42.954   1.191  10.951  1.00  0.00     0.158 A 
ATOM     44  C   UNL     1      43.125  -0.491   9.207  1.00  0.00     0.051 A 
ATOM     45  C   UNL     1      43.059   0.866   9.585  1.00  0.00     0.160 A 
BRANCH  43  46
ATOM     46  O   UNL     1      42.865   2.522  11.369  1.00  0.00    -0.504 OA
ATOM     47  H   UNL     1      43.317   2.852  12.209  1.00  0.00     0.293 HD
ENDBRANCH  43  46
BRANCH  45  48
ATOM     48  O   UNL     1      43.121   1.907   8.642  1.00  0.00    -0.493 OA
ATOM     49  C   UNL     1      41.986   2.503   8.027  1.00  0.00     0.278 C 
ENDBRANCH  45  48
ENDBRANCH  35  40
ENDBRANCH  26  27
ENDBRANCH   5  26
BRANCH   4  50
ATOM     50  O   UNL     1      38.009  -4.389   9.821  1.00  0.00    -0.384 OA
ATOM     51  H   UNL     1      38.662  -5.010   9.403  1.00  0.00     0.211 HD
ENDBRANCH   4  50
TORSDOF 15
ENDMDL
MODEL 2
REMARK VINA RESULT:    -3.628      2.386      5.575
REMARK INTER + INTRA:          -8.939
REMARK INTER:                  -8.417
REMARK INTRA:                  -0.522
REMARK UNBOUND:                -2.978
REMARK SMILES COc1ccc([C@H]2CC(=O)c3c(O)cc(O[C@H]4O[C@@H](CO[C@@H]5O[C@@H](C)[C@@H](O)[C@H](O)[C@@H]5O)[C@H](O)[C@@H](O)[C@H]4O)cc3O2)cc1O
REMARK SMILES IDX 19 1 32 2 34 3 36 4 17 5 18 6 20 7 21 8 22 9 25 10 24 11
REMARK SMILES IDX 26 12 23 13 28 14 30 15 27 16 29 18 31 20 33 22 35 24 16 26
REMARK SMILES IDX 15 27 14 28 38 29 12 30 39 31 11 32 40 33 9 34 7 35 10 36
REMARK SMILES IDX 8 37 13 38 6 40 41 41 5 42 42 43 4 44 3 45 43 46 2 48 1 49
REMARK SMILES IDX 37 50
REMARK H PARENT 27 17 29 19 31 21 33 23 35 25 13 39 43 47 37 51
REMARK Flexibility Score: inf
ROOT
ATOM      1  C   UNL     1      36.220  -3.999  12.205  1.00  0.00     0.180 C 
ATOM      2  C   UNL     1      34.676  -3.893  12.049  1.00  0.00     0.177 C 
ATOM      3  C   UNL     1      34.184  -2.626  11.316  1.00  0.00     0.180 C 
ATOM      4  C   UNL     1      35.255  -1.932  10.468  1.00  0.00     0.214 C 
ATOM      5  C   UNL     1      36.329  -2.980  10.016  1.00  0.00     0.339 C 
ATOM      6  O   UNL     1      37.027  -3.409  11.175  1.00  0.00    -0.332 OA
ENDROOT
BRANCH   1   7
ATOM      7  C   UNL     1      36.713  -3.539  13.603  1.00  0.00     0.198 C 
BRANCH   7   8
ATOM      8  O   UNL     1      38.014  -4.020  13.913  1.00  0.00    -0.347 OA
BRANCH   8   9
ATOM      9  C   UNL     1      39.047  -3.202  13.365  1.00  0.00     0.281 C 
ATOM     10  C   UNL     1      41.917  -5.118  14.679  1.00  0.00     0.041 C 
ATOM     11  C   UNL     1      40.652  -4.264  14.713  1.00  0.00     0.150 C 
ATOM     12  C   UNL     1      40.868  -3.021  15.605  1.00  0.00     0.174 C 
ATOM     13  O   UNL     1      40.291  -3.895  13.387  1.00  0.00    -0.344 OA
ATOM     14  C   UNL     1      39.600  -2.139  15.599  1.00  0.00     0.179 C 
ATOM     15  C   UNL     1      39.212  -1.867  14.132  1.00  0.00     0.202 C 
BRANCH  12  16
ATOM     16  O   UNL     1      41.946  -2.252  15.134  1.00  0.00    -0.388 OA
ATOM     17  H   UNL     1      42.698  -2.375  15.772  1.00  0.00     0.211 HD
ENDBRANCH  12  16
BRANCH  14  18
ATOM     18  O   UNL     1      38.522  -2.761  16.257  1.00  0.00    -0.387 OA
ATOM     19  H   UNL     1      37.673  -2.416  15.855  1.00  0.00     0.211 HD
ENDBRANCH  14  18
BRANCH  15  20
ATOM     20  O   UNL     1      38.071  -1.063  14.019  1.00  0.00    -0.385 OA
ATOM     21  H   UNL     1      38.358  -0.262  13.493  1.00  0.00     0.211 HD
ENDBRANCH  15  20
ENDBRANCH   8   9
ENDBRANCH   7   8
ENDBRANCH   1   7
BRANCH   2  22
ATOM     22  O   UNL     1      34.241  -5.025  11.317  1.00  0.00    -0.387 OA
ATOM     23  H   UNL     1      33.787  -4.705  10.491  1.00  0.00     0.211 HD
ENDBRANCH   2  22
BRANCH   3  24
ATOM     24  O   UNL     1      33.550  -1.730  12.194  1.00  0.00    -0.387 OA
ATOM     25  H   UNL     1      33.467  -2.209  13.071  1.00  0.00     0.211 HD
ENDBRANCH   3  24
BRANCH   5  26
ATOM     26  O   UNL     1      37.327  -2.468   9.102  1.00  0.00    -0.462 OA
BRANCH  26  27
ATOM     27  C   UNL     1      38.422  -1.639   9.404  1.00  0.00     0.130 A 
ATOM     28  C   UNL     1      39.267  -1.841  10.519  1.00  0.00     0.093 A 
ATOM     29  C   UNL     1      38.671  -0.552   8.564  1.00  0.00     0.094 A 
ATOM     30  C   UNL     1      40.465  -1.116  10.629  1.00  0.00     0.133 A 
ATOM     31  C   UNL     1      39.816   0.230   8.723  1.00  0.00     0.138 A 
ATOM     32  C   UNL     1      40.758  -0.108   9.698  1.00  0.00     0.102 A 
ATOM     33  O   UNL     1      40.051   1.331   7.887  1.00  0.00    -0.484 OA
ATOM     34  C   UNL     1      42.075   0.519   9.584  1.00  0.00     0.174 C 
ATOM     35  C   UNL     1      40.992   2.374   8.189  1.00  0.00     0.211 C 
ATOM     36  O   UNL     1      43.125  -0.187   9.622  1.00  0.00    -0.294 OA
ATOM     37  C   UNL     1      42.167   1.945   9.121  1.00  0.00     0.131 C 
BRANCH  30  38
ATOM     38  O   UNL     1      41.364  -1.388  11.664  1.00  0.00    -0.507 OA
ATOM     39  H   UNL     1      42.179  -0.806  11.842  1.00  0.00     0.293 HD
ENDBRANCH  30  38
BRANCH  35  40
ATOM     40  C   UNL     1      40.296   3.598   8.755  1.00  0.00    -0.003 A 
ATOM     41  C   UNL     1      40.399   4.867   8.147  1.00  0.00     0.057 A 
ATOM     42  C   UNL     1      39.461   3.448   9.876  1.00  0.00     0.011 A 
ATOM     43  C   UNL     1      39.689   5.964   8.660  1.00  0.00     0.158 A 
ATOM     44  C   UNL     1      38.740   4.535  10.378  1.00  0.00     0.051 A 
ATOM     45  C   UNL     1      38.834   5.801   9.766  1.00  0.00     0.160 A 
BRANCH  43  46
ATOM     46  O   UNL     1      39.830   7.207   8.034  1.00  0.00    -0.504 OA
ATOM     47  H   UNL     1      40.719   7.680   7.974  1.00  0.00     0.293 HD
ENDBRANCH  43  46
BRANCH  45  48
ATOM     48  O   UNL     1      38.082   6.903  10.210  1.00  0.00    -0.493 OA
ATOM     49  C   UNL     1      36.706   6.847  10.563  1.00  0.00     0.278 C 
ENDBRANCH  45  48
ENDBRANCH  35  40
ENDBRANCH  26  27
ENDBRANCH   5  26
BRANCH   4  50
ATOM     50  O   UNL     1      35.803  -0.821  11.146  1.00  0.00    -0.384 OA
ATOM     51  H   UNL     1      35.104  -0.128  11.280  1.00  0.00     0.211 HD
ENDBRANCH   4  50
TORSDOF 15
ENDMDL
MODEL 3
REMARK VINA RESULT:    -1.949      2.445      7.296
REMARK INTER + INTRA:          -6.180
REMARK INTER:                  -4.138
REMARK INTRA:                  -2.042
REMARK UNBOUND:                -2.978
REMARK SMILES COc1ccc([C@H]2CC(=O)c3c(O)cc(O[C@H]4O[C@@H](CO[C@@H]5O[C@@H](C)[C@@H](O)[C@H](O)[C@@H]5O)[C@H](O)[C@@H](O)[C@H]4O)cc3O2)cc1O
REMARK SMILES IDX 19 1 32 2 34 3 36 4 17 5 18 6 20 7 21 8 22 9 25 10 24 11
REMARK SMILES IDX 26 12 23 13 28 14 30 15 27 16 29 18 31 20 33 22 35 24 16 26
REMARK SMILES IDX 15 27 14 28 38 29 12 30 39 31 11 32 40 33 9 34 7 35 10 36
REMARK SMILES IDX 8 37 13 38 6 40 41 41 5 42 42 43 4 44 3 45 43 46 2 48 1 49
REMARK SMILES IDX 37 50
REMARK H PARENT 27 17 29 19 31 21 33 23 35 25 13 39 43 47 37 51
REMARK Flexibility Score: inf
ROOT
ATOM      1  C   UNL     1      40.134  -2.550  14.877  1.00  0.00     0.180 C 
ATOM      2  C   UNL     1      41.527  -2.834  15.506  1.00  0.00     0.177 C 
ATOM      3  C   UNL     1      42.681  -2.981  14.490  1.00  0.00     0.180 C 
ATOM      4  C   UNL     1      42.387  -2.380  13.111  1.00  0.00     0.214 C 
ATOM      5  C   UNL     1      41.338  -1.224  13.255  1.00  0.00     0.339 C 
ATOM      6  O   UNL     1      40.106  -1.807  13.649  1.00  0.00    -0.332 OA
ENDROOT
BRANCH   1   7
ATOM      7  C   UNL     1      39.264  -3.829  14.749  1.00  0.00     0.198 C 
BRANCH   7   8
ATOM      8  O   UNL     1      38.233  -3.699  13.779  1.00  0.00    -0.347 OA
BRANCH   8   9
ATOM      9  C   UNL     1      37.952  -4.925  13.107  1.00  0.00     0.281 C 
ATOM     10  C   UNL     1      39.451  -4.037   9.852  1.00  0.00     0.041 C 
ATOM     11  C   UNL     1      38.491  -3.956  11.036  1.00  0.00     0.150 C 
ATOM     12  C   UNL     1      37.027  -3.962  10.542  1.00  0.00     0.174 C 
ATOM     13  O   UNL     1      38.743  -5.036  11.928  1.00  0.00    -0.344 OA
ATOM     14  C   UNL     1      36.062  -3.925  11.747  1.00  0.00     0.179 C 
ATOM     15  C   UNL     1      36.460  -5.057  12.715  1.00  0.00     0.202 C 
BRANCH  12  16
ATOM     16  O   UNL     1      36.759  -5.122   9.794  1.00  0.00    -0.388 OA
ATOM     17  H   UNL     1      37.618  -5.610   9.688  1.00  0.00     0.211 HD
ENDBRANCH  12  16
BRANCH  14  18
ATOM     18  O   UNL     1      36.113  -2.693  12.426  1.00  0.00    -0.387 OA
ATOM     19  H   UNL     1      36.532  -2.020  11.815  1.00  0.00     0.211 HD
ENDBRANCH  14  18
BRANCH  15  20
ATOM     20  O   UNL     1      35.634  -5.111  13.845  1.00  0.00    -0.385 OA
ATOM     21  H   UNL     1      35.909  -4.339  14.417  1.00  0.00     0.211 HD
ENDBRANCH  15  20
ENDBRANCH   8   9
ENDBRANCH   7   8
ENDBRANCH   1   7
BRANCH   2  22
ATOM     22  O   UNL     1      41.835  -1.754  16.371  1.00  0.00    -0.387 OA
ATOM     23  H   UNL     1      41.393  -1.922  17.246  1.00  0.00     0.211 HD
ENDBRANCH   2  22
BRANCH   3  24
ATOM     24  O   UNL     1      43.125  -4.311  14.396  1.00  0.00    -0.387 OA
ATOM     25  H   UNL     1      44.003  -4.348  14.880  1.00  0.00     0.211 HD
ENDBRANCH   3  24
BRANCH   5  26
ATOM     26  O   UNL     1      41.074  -0.492  12.035  1.00  0.00    -0.462 OA
BRANCH  26  27
ATOM     27  C   UNL     1      39.827  -0.260  11.428  1.00  0.00     0.130 A 
ATOM     28  C   UNL     1      39.559  -0.539  10.068  1.00  0.00     0.093 A 
ATOM     29  C   UNL     1      38.810   0.290  12.210  1.00  0.00     0.094 A 
ATOM     30  C   UNL     1      38.239  -0.496   9.592  1.00  0.00     0.133 A 
ATOM     31  C   UNL     1      37.512   0.420  11.713  1.00  0.00     0.138 A 
ATOM     32  C   UNL     1      37.207  -0.058  10.435  1.00  0.00     0.102 A 
ATOM     33  O   UNL     1      36.500   0.989  12.498  1.00  0.00    -0.484 OA
ATOM     34  C   UNL     1      35.788  -0.215  10.115  1.00  0.00     0.174 C 
ATOM     35  C   UNL     1      35.256   1.474  11.966  1.00  0.00     0.211 C 
ATOM     36  O   UNL     1      35.358  -1.304   9.635  1.00  0.00    -0.294 OA
ATOM     37  C   UNL     1      34.806   0.795  10.635  1.00  0.00     0.131 C 
BRANCH  30  38
ATOM     38  O   UNL     1      37.947  -0.881   8.281  1.00  0.00    -0.507 OA
ATOM     39  H   UNL     1      38.672  -1.151   7.620  1.00  0.00     0.293 HD
ENDBRANCH  30  38
BRANCH  35  40
ATOM     40  C   UNL     1      35.276   2.983  11.802  1.00  0.00    -0.003 A 
ATOM     41  C   UNL     1      36.273   3.642  11.051  1.00  0.00     0.057 A 
ATOM     42  C   UNL     1      34.228   3.740  12.353  1.00  0.00     0.011 A 
ATOM     43  C   UNL     1      36.225   5.032  10.866  1.00  0.00     0.158 A 
ATOM     44  C   UNL     1      34.168   5.123  12.156  1.00  0.00     0.051 A 
ATOM     45  C   UNL     1      35.158   5.782  11.397  1.00  0.00     0.160 A 
BRANCH  43  46
ATOM     46  O   UNL     1      37.239   5.647  10.125  1.00  0.00    -0.504 OA
ATOM     47  H   UNL     1      37.042   6.213   9.313  1.00  0.00     0.293 HD
ENDBRANCH  43  46
BRANCH  45  48
ATOM     48  O   UNL     1      35.100   7.161  11.132  1.00  0.00    -0.493 OA
ATOM     49  C   UNL     1      36.100   8.096  11.515  1.00  0.00     0.278 C 
ENDBRANCH  45  48
ENDBRANCH  35  40
ENDBRANCH  26  27
ENDBRANCH   5  26
BRANCH   4  50
ATOM     50  O   UNL     1      42.002  -3.378  12.190  1.00  0.00    -0.384 OA
ATOM     51  H   UNL     1      41.359  -3.002  11.533  1.00  0.00     0.211 HD
ENDBRANCH   4  50
TORSDOF 15
ENDMDL
MODEL 4
REMARK VINA RESULT:    -1.739      2.894      8.340
REMARK INTER + INTRA:          -5.835
REMARK INTER:                  -4.625
REMARK INTRA:                  -1.210
REMARK UNBOUND:                -2.978
REMARK SMILES COc1ccc([C@H]2CC(=O)c3c(O)cc(O[C@H]4O[C@@H](CO[C@@H]5O[C@@H](C)[C@@H](O)[C@H](O)[C@@H]5O)[C@H](O)[C@@H](O)[C@H]4O)cc3O2)cc1O
REMARK SMILES IDX 19 1 32 2 34 3 36 4 17 5 18 6 20 7 21 8 22 9 25 10 24 11
REMARK SMILES IDX 26 12 23 13 28 14 30 15 27 16 29 18 31 20 33 22 35 24 16 26
REMARK SMILES IDX 15 27 14 28 38 29 12 30 39 31 11 32 40 33 9 34 7 35 10 36
REMARK SMILES IDX 8 37 13 38 6 40 41 41 5 42 42 43 4 44 3 45 43 46 2 48 1 49
REMARK SMILES IDX 37 50
REMARK H PARENT 27 17 29 19 31 21 33 23 35 25 13 39 43 47 37 51
REMARK Flexibility Score: inf
ROOT
ATOM      1  C   UNL     1      41.819  -2.536  12.939  1.00  0.00     0.180 C 
ATOM      2  C   UNL     1      42.863  -2.900  14.033  1.00  0.00     0.177 C 
ATOM      3  C   UNL     1      42.419  -2.598  15.481  1.00  0.00     0.180 C 
ATOM      4  C   UNL     1      40.904  -2.440  15.655  1.00  0.00     0.214 C 
ATOM      5  C   UNL     1      40.159  -3.255  14.542  1.00  0.00     0.339 C 
ATOM      6  O   UNL     1      40.432  -2.632  13.297  1.00  0.00    -0.332 OA
ENDROOT
BRANCH   1   7
ATOM      7  C   UNL     1      42.107  -1.167  12.269  1.00  0.00     0.198 C 
BRANCH   7   8
ATOM      8  O   UNL     1      40.927  -0.518  11.813  1.00  0.00    -0.347 OA
BRANCH   8   9
ATOM      9  C   UNL     1      40.750   0.772  12.394  1.00  0.00     0.281 C 
ATOM     10  C   UNL     1      37.135   1.105  11.718  1.00  0.00     0.041 C 
ATOM     11  C   UNL     1      38.624   0.963  11.412  1.00  0.00     0.150 C 
ATOM     12  C   UNL     1      39.074   2.055  10.417  1.00  0.00     0.174 C 
ATOM     13  O   UNL     1      39.367   1.026  12.624  1.00  0.00    -0.344 OA
ATOM     14  C   UNL     1      40.590   1.932  10.146  1.00  0.00     0.179 C 
ATOM     15  C   UNL     1      41.319   1.905  11.505  1.00  0.00     0.202 C 
BRANCH  12  16
ATOM     16  O   UNL     1      38.819   3.337  10.935  1.00  0.00    -0.388 OA
ATOM     17  H   UNL     1      37.834   3.427  11.027  1.00  0.00     0.211 HD
ENDBRANCH  12  16
BRANCH  14  18
ATOM     18  O   UNL     1      40.905   0.764   9.426  1.00  0.00    -0.387 OA
ATOM     19  H   UNL     1      40.048   0.357   9.106  1.00  0.00     0.211 HD
ENDBRANCH  14  18
BRANCH  15  20
ATOM     20  O   UNL     1      42.708   1.802  11.366  1.00  0.00    -0.385 OA
ATOM     21  H   UNL     1      43.091   2.161  12.218  1.00  0.00     0.211 HD
ENDBRANCH  15  20
ENDBRANCH   8   9
ENDBRANCH   7   8
ENDBRANCH   1   7
BRANCH   2  22
ATOM     22  O   UNL     1      43.124  -4.289  13.931  1.00  0.00    -0.387 OA
ATOM     23  H   UNL     1      43.464  -4.474  13.014  1.00  0.00     0.211 HD
ENDBRANCH   2  22
BRANCH   3  24
ATOM     24  O   UNL     1      43.124  -1.511  16.026  1.00  0.00    -0.387 OA
ATOM     25  H   UNL     1      42.657  -0.685  15.702  1.00  0.00     0.211 HD
ENDBRANCH   3  24
BRANCH   5  26
ATOM     26  O   UNL     1      38.719  -3.287  14.678  1.00  0.00    -0.462 OA
BRANCH  26  27
ATOM     27  C   UNL     1      37.762  -3.334  13.649  1.00  0.00     0.130 A 
ATOM     28  C   UNL     1      37.894  -2.632  12.429  1.00  0.00     0.093 A 
ATOM     29  C   UNL     1      36.614  -4.103  13.857  1.00  0.00     0.094 A 
ATOM     30  C   UNL     1      37.018  -2.905  11.367  1.00  0.00     0.133 A 
ATOM     31  C   UNL     1      35.691  -4.304  12.831  1.00  0.00     0.138 A 
ATOM     32  C   UNL     1      35.939  -3.780  11.559  1.00  0.00     0.102 A 
ATOM     33  O   UNL     1      34.532  -5.063  13.051  1.00  0.00    -0.484 OA
ATOM     34  C   UNL     1      35.133  -4.313  10.461  1.00  0.00     0.174 C 
ATOM     35  C   UNL     1      33.383  -5.033  12.188  1.00  0.00     0.211 C 
ATOM     36  O   UNL     1      35.689  -4.729   9.403  1.00  0.00    -0.294 OA
ATOM     37  C   UNL     1      33.688  -4.643  10.709  1.00  0.00     0.131 C 
BRANCH  30  38
ATOM     38  O   UNL     1      37.209  -2.303  10.120  1.00  0.00    -0.507 OA
ATOM     39  H   UNL     1      37.040  -2.797   9.246  1.00  0.00     0.293 HD
ENDBRANCH  30  38
BRANCH  35  40
ATOM     40  C   UNL     1      32.293  -4.140  12.750  1.00  0.00    -0.003 A 
ATOM     41  C   UNL     1      30.960  -4.581  12.888  1.00  0.00     0.057 A 
ATOM     42  C   UNL     1      32.637  -2.860  13.219  1.00  0.00     0.011 A 
ATOM     43  C   UNL     1      29.990  -3.752  13.472  1.00  0.00     0.158 A 
ATOM     44  C   UNL     1      31.677  -2.039  13.817  1.00  0.00     0.051 A 
ATOM     45  C   UNL     1      30.347  -2.482  13.964  1.00  0.00     0.160 A 
BRANCH  43  46
ATOM     46  O   UNL     1      28.678  -4.223  13.578  1.00  0.00    -0.504 OA
ATOM     47  H   UNL     1      28.282  -4.863  12.906  1.00  0.00     0.293 HD
ENDBRANCH  43  46
BRANCH  45  48
ATOM     48  O   UNL     1      29.368  -1.705  14.610  1.00  0.00    -0.493 OA
ATOM     49  C   UNL     1      28.505  -0.789  13.950  1.00  0.00     0.278 C 
ENDBRANCH  45  48
ENDBRANCH  35  40
ENDBRANCH  26  27
ENDBRANCH   5  26
BRANCH   4  50
ATOM     50  O   UNL     1      40.534  -1.078  15.700  1.00  0.00    -0.384 OA
ATOM     51  H   UNL     1      39.940  -0.915  16.479  1.00  0.00     0.211 HD
ENDBRANCH   4  50
TORSDOF 15
ENDMDL
MODEL 5
REMARK VINA RESULT:    -1.694      2.105      4.830
REMARK INTER + INTRA:          -5.761
REMARK INTER:                  -5.460
REMARK INTRA:                  -0.301
REMARK UNBOUND:                -2.978
REMARK SMILES COc1ccc([C@H]2CC(=O)c3c(O)cc(O[C@H]4O[C@@H](CO[C@@H]5O[C@@H](C)[C@@H](O)[C@H](O)[C@@H]5O)[C@H](O)[C@@H](O)[C@H]4O)cc3O2)cc1O
REMARK SMILES IDX 19 1 32 2 34 3 36 4 17 5 18 6 20 7 21 8 22 9 25 10 24 11
REMARK SMILES IDX 26 12 23 13 28 14 30 15 27 16 29 18 31 20 33 22 35 24 16 26
REMARK SMILES IDX 15 27 14 28 38 29 12 30 39 31 11 32 40 33 9 34 7 35 10 36
REMARK SMILES IDX 8 37 13 38 6 40 41 41 5 42 42 43 4 44 3 45 43 46 2 48 1 49
REMARK SMILES IDX 37 50
REMARK H PARENT 27 17 29 19 31 21 33 23 35 25 13 39 43 47 37 51
REMARK Flexibility Score: inf
ROOT
ATOM      1  C   UNL     1      35.324  -4.850  12.349  1.00  0.00     0.180 C 
ATOM      2  C   UNL     1      33.987  -4.111  12.059  1.00  0.00     0.177 C 
ATOM      3  C   UNL     1      34.138  -2.757  11.331  1.00  0.00     0.180 C 
ATOM      4  C   UNL     1      35.478  -2.576  10.608  1.00  0.00     0.214 C 
ATOM      5  C   UNL     1      36.057  -3.979  10.217  1.00  0.00     0.339 C 
ATOM      6  O   UNL     1      36.399  -4.654  11.417  1.00  0.00    -0.332 OA
ENDROOT
BRANCH   1   7
ATOM      7  C   UNL     1      35.826  -4.631  13.801  1.00  0.00     0.198 C 
BRANCH   7   8
ATOM      8  O   UNL     1      36.975  -3.797  13.866  1.00  0.00    -0.347 OA
BRANCH   8   9
ATOM      9  C   UNL     1      38.017  -4.358  14.662  1.00  0.00     0.281 C 
ATOM     10  C   UNL     1      37.935  -1.863  17.382  1.00  0.00     0.041 C 
ATOM     11  C   UNL     1      38.120  -2.408  15.969  1.00  0.00     0.150 C 
ATOM     12  C   UNL     1      39.496  -1.987  15.407  1.00  0.00     0.174 C 
ATOM     13  O   UNL     1      37.975  -3.823  15.982  1.00  0.00    -0.344 OA
ATOM     14  C   UNL     1      39.695  -2.579  13.994  1.00  0.00     0.179 C 
ATOM     15  C   UNL     1      39.422  -4.095  14.067  1.00  0.00     0.202 C 
BRANCH  12  16
ATOM     16  O   UNL     1      40.534  -2.452  16.233  1.00  0.00    -0.388 OA
ATOM     17  H   UNL     1      41.212  -1.728  16.291  1.00  0.00     0.211 HD
ENDBRANCH  12  16
BRANCH  14  18
ATOM     18  O   UNL     1      38.828  -1.995  13.051  1.00  0.00    -0.387 OA
ATOM     19  H   UNL     1      39.386  -1.536  12.360  1.00  0.00     0.211 HD
ENDBRANCH  14  18
BRANCH  15  20
ATOM     20  O   UNL     1      39.585  -4.729  12.829  1.00  0.00    -0.385 OA
ATOM     21  H   UNL     1      38.963  -4.259  12.203  1.00  0.00     0.211 HD
ENDBRANCH  15  20
ENDBRANCH   8   9
ENDBRANCH   7   8
ENDBRANCH   1   7
BRANCH   2  22
ATOM     22  O   UNL     1      33.193  -4.962  11.250  1.00  0.00    -0.387 OA
ATOM     23  H   UNL     1      32.325  -5.107  11.713  1.00  0.00     0.211 HD
ENDBRANCH   2  22
BRANCH   3  24
ATOM     24  O   UNL     1      33.852  -1.674  12.180  1.00  0.00    -0.387 OA
ATOM     25  H   UNL     1      34.679  -1.520  12.725  1.00  0.00     0.211 HD
ENDBRANCH   3  24
BRANCH   5  26
ATOM     26  O   UNL     1      37.260  -3.934   9.415  1.00  0.00    -0.462 OA
BRANCH  26  27
ATOM     27  C   UNL     1      38.391  -3.120   9.610  1.00  0.00     0.130 A 
ATOM     28  C   UNL     1      39.312  -3.307  10.665  1.00  0.00     0.093 A 
ATOM     29  C   UNL     1      38.598  -2.065   8.720  1.00  0.00     0.094 A 
ATOM     30  C   UNL     1      40.528  -2.605  10.664  1.00  0.00     0.133 A 
ATOM     31  C   UNL     1      39.767  -1.304   8.770  1.00  0.00     0.138 A 
ATOM     32  C   UNL     1      40.772  -1.633   9.684  1.00  0.00     0.102 A 
ATOM     33  O   UNL     1      39.962  -0.234   7.884  1.00  0.00    -0.484 OA
ATOM     34  C   UNL     1      42.089  -1.039   9.453  1.00  0.00     0.174 C 
ATOM     35  C   UNL     1      40.942   0.797   8.084  1.00  0.00     0.211 C 
ATOM     36  O   UNL     1      43.124  -1.766   9.437  1.00  0.00    -0.294 OA
ATOM     37  C   UNL     1      42.174   0.371   8.940  1.00  0.00     0.131 C 
BRANCH  30  38
ATOM     38  O   UNL     1      41.495  -2.865  11.639  1.00  0.00    -0.507 OA
ATOM     39  H   UNL     1      41.292  -2.811  12.635  1.00  0.00     0.293 HD
ENDBRANCH  30  38
BRANCH  35  40
ATOM     40  C   UNL     1      40.314   2.053   8.660  1.00  0.00    -0.003 A 
ATOM     41  C   UNL     1      39.701   2.069   9.931  1.00  0.00     0.057 A 
ATOM     42  C   UNL     1      40.413   3.255   7.938  1.00  0.00     0.011 A 
ATOM     43  C   UNL     1      39.188   3.262  10.461  1.00  0.00     0.158 A 
ATOM     44  C   UNL     1      39.918   4.449   8.472  1.00  0.00     0.051 A 
ATOM     45  C   UNL     1      39.314   4.468   9.746  1.00  0.00     0.160 A 
BRANCH  43  46
ATOM     46  O   UNL     1      38.577   3.231  11.719  1.00  0.00    -0.504 OA
ATOM     47  H   UNL     1      37.631   3.549  11.863  1.00  0.00     0.293 HD
ENDBRANCH  43  46
BRANCH  45  48
ATOM     48  O   UNL     1      38.854   5.658  10.336  1.00  0.00    -0.493 OA
ATOM     49  C   UNL     1      38.266   6.736   9.620  1.00  0.00     0.278 C 
ENDBRANCH  45  48
ENDBRANCH  35  40
ENDBRANCH  26  27
ENDBRANCH   5  26
BRANCH   4  50
ATOM     50  O   UNL     1      36.369  -1.792  11.372  1.00  0.00    -0.384 OA
ATOM     51  H   UNL     1      36.445  -2.164  12.290  1.00  0.00     0.211 HD
ENDBRANCH   4  50
TORSDOF 15
ENDMDL
MODEL 6
REMARK VINA RESULT:    -1.264      1.936      6.587
REMARK INTER + INTRA:          -5.054
REMARK INTER:                  -3.819
REMARK INTRA:                  -1.235
REMARK UNBOUND:                -2.978
REMARK SMILES COc1ccc([C@H]2CC(=O)c3c(O)cc(O[C@H]4O[C@@H](CO[C@@H]5O[C@@H](C)[C@@H](O)[C@H](O)[C@@H]5O)[C@H](O)[C@@H](O)[C@H]4O)cc3O2)cc1O
REMARK SMILES IDX 19 1 32 2 34 3 36 4 17 5 18 6 20 7 21 8 22 9 25 10 24 11
REMARK SMILES IDX 26 12 23 13 28 14 30 15 27 16 29 18 31 20 33 22 35 24 16 26
REMARK SMILES IDX 15 27 14 28 38 29 12 30 39 31 11 32 40 33 9 34 7 35 10 36
REMARK SMILES IDX 8 37 13 38 6 40 41 41 5 42 42 43 4 44 3 45 43 46 2 48 1 49
REMARK SMILES IDX 37 50
REMARK H PARENT 27 17 29 19 31 21 33 23 35 25 13 39 43 47 37 51
REMARK Flexibility Score: inf
ROOT
ATOM      1  C   UNL     1      42.675  -3.113  13.567  1.00  0.00     0.180 C 
ATOM      2  C   UNL     1      42.342  -2.920  15.074  1.00  0.00     0.177 C 
ATOM      3  C   UNL     1      40.837  -2.783  15.393  1.00  0.00     0.180 C 
ATOM      4  C   UNL     1      39.909  -3.312  14.294  1.00  0.00     0.214 C 
ATOM      5  C   UNL     1      40.648  -4.425  13.473  1.00  0.00     0.339 C 
ATOM      6  O   UNL     1      41.708  -3.804  12.763  1.00  0.00    -0.332 OA
ENDROOT
BRANCH   1   7
ATOM      7  C   UNL     1      43.104  -1.792  12.875  1.00  0.00     0.198 C 
BRANCH   7   8
ATOM      8  O   UNL     1      42.040  -1.172  12.166  1.00  0.00    -0.347 OA
BRANCH   8   9
ATOM      9  C   UNL     1      42.462  -0.020  11.438  1.00  0.00     0.281 C 
ATOM     10  C   UNL     1      39.773   2.256  12.546  1.00  0.00     0.041 C 
ATOM     11  C   UNL     1      40.413   1.048  11.867  1.00  0.00     0.150 C 
ATOM     12  C   UNL     1      39.941   0.945  10.399  1.00  0.00     0.174 C 
ATOM     13  O   UNL     1      41.830   1.149  11.951  1.00  0.00    -0.344 OA
ATOM     14  C   UNL     1      40.627  -0.253   9.705  1.00  0.00     0.179 C 
ATOM     15  C   UNL     1      42.148  -0.128   9.926  1.00  0.00     0.202 C 
BRANCH  12  16
ATOM     16  O   UNL     1      40.266   2.114   9.689  1.00  0.00    -0.388 OA
ATOM     17  H   UNL     1      40.604   1.833   8.798  1.00  0.00     0.211 HD
ENDBRANCH  12  16
BRANCH  14  18
ATOM     18  O   UNL     1      40.182  -1.486  10.220  1.00  0.00    -0.387 OA
ATOM     19  H   UNL     1      39.760  -1.315  11.110  1.00  0.00     0.211 HD
ENDBRANCH  14  18
BRANCH  15  20
ATOM     20  O   UNL     1      42.864  -1.170   9.325  1.00  0.00    -0.385 OA
ATOM     21  H   UNL     1      43.698  -1.271   9.867  1.00  0.00     0.211 HD
ENDBRANCH  15  20
ENDBRANCH   8   9
ENDBRANCH   7   8
ENDBRANCH   1   7
BRANCH   2  22
ATOM     22  O   UNL     1      42.841  -4.048  15.772  1.00  0.00    -0.387 OA
ATOM     23  H   UNL     1      42.554  -3.976  16.722  1.00  0.00     0.211 HD
ENDBRANCH   2  22
BRANCH   3  24
ATOM     24  O   UNL     1      40.502  -1.471  15.772  1.00  0.00    -0.387 OA
ATOM     25  H   UNL     1      39.507  -1.398  15.677  1.00  0.00     0.211 HD
ENDBRANCH   3  24
BRANCH   5  26
ATOM     26  O   UNL     1      39.828  -5.093  12.486  1.00  0.00    -0.462 OA
BRANCH  26  27
ATOM     27  C   UNL     1      38.970  -4.501  11.542  1.00  0.00     0.130 A 
ATOM     28  C   UNL     1      39.235  -4.480  10.154  1.00  0.00     0.093 A 
ATOM     29  C   UNL     1      37.805  -3.890  12.009  1.00  0.00     0.094 A 
ATOM     30  C   UNL     1      38.233  -4.078   9.256  1.00  0.00     0.133 A 
ATOM     31  C   UNL     1      36.844  -3.405  11.122  1.00  0.00     0.138 A 
ATOM     32  C   UNL     1      37.016  -3.581   9.746  1.00  0.00     0.102 A 
ATOM     33  O   UNL     1      35.684  -2.777  11.597  1.00  0.00    -0.484 OA
ATOM     34  C   UNL     1      35.837  -3.377   8.905  1.00  0.00     0.174 C 
ATOM     35  C   UNL     1      34.831  -1.955  10.783  1.00  0.00     0.211 C 
ATOM     36  O   UNL     1      35.499  -4.251   8.055  1.00  0.00    -0.294 OA
ATOM     37  C   UNL     1      34.868  -2.285   9.259  1.00  0.00     0.131 C 
BRANCH  30  38
ATOM     38  O   UNL     1      38.443  -4.162   7.877  1.00  0.00    -0.507 OA
ATOM     39  H   UNL     1      38.714  -3.355   7.318  1.00  0.00     0.293 HD
ENDBRANCH  30  38
BRANCH  35  40
ATOM     40  C   UNL     1      35.110  -0.480  11.006  1.00  0.00    -0.003 A 
ATOM     41  C   UNL     1      34.179   0.371  11.639  1.00  0.00     0.057 A 
ATOM     42  C   UNL     1      36.364   0.038  10.638  1.00  0.00     0.011 A 
ATOM     43  C   UNL     1      34.495   1.716  11.888  1.00  0.00     0.158 A 
ATOM     44  C   UNL     1      36.688   1.373  10.900  1.00  0.00     0.051 A 
ATOM     45  C   UNL     1      35.763   2.222  11.542  1.00  0.00     0.160 A 
BRANCH  43  46
ATOM     46  O   UNL     1      33.540   2.528  12.506  1.00  0.00    -0.504 OA
ATOM     47  H   UNL     1      32.914   2.175  13.214  1.00  0.00     0.293 HD
ENDBRANCH  43  46
BRANCH  45  48
ATOM     48  O   UNL     1      36.074   3.553  11.870  1.00  0.00    -0.493 OA
ATOM     49  C   UNL     1      35.405   4.689  11.339  1.00  0.00     0.278 C 
ENDBRANCH  45  48
ENDBRANCH  35  40
ENDBRANCH  26  27
ENDBRANCH   5  26
BRANCH   4  50
ATOM     50  O   UNL     1      39.410  -2.260  13.495  1.00  0.00    -0.384 OA
ATOM     51  H   UNL     1      39.663  -2.408  12.546  1.00  0.00     0.211 HD
ENDBRANCH   4  50
TORSDOF 15
ENDMDL
MODEL 7
REMARK VINA RESULT:    -1.081      2.032      6.812
REMARK INTER + INTRA:          -4.754
REMARK INTER:                  -3.345
REMARK INTRA:                  -1.409
REMARK UNBOUND:                -2.978
REMARK SMILES COc1ccc([C@H]2CC(=O)c3c(O)cc(O[C@H]4O[C@@H](CO[C@@H]5O[C@@H](C)[C@@H](O)[C@H](O)[C@@H]5O)[C@H](O)[C@@H](O)[C@H]4O)cc3O2)cc1O
REMARK SMILES IDX 19 1 32 2 34 3 36 4 17 5 18 6 20 7 21 8 22 9 25 10 24 11
REMARK SMILES IDX 26 12 23 13 28 14 30 15 27 16 29 18 31 20 33 22 35 24 16 26
REMARK SMILES IDX 15 27 14 28 38 29 12 30 39 31 11 32 40 33 9 34 7 35 10 36
REMARK SMILES IDX 8 37 13 38 6 40 41 41 5 42 42 43 4 44 3 45 43 46 2 48 1 49
REMARK SMILES IDX 37 50
REMARK H PARENT 27 17 29 19 31 21 33 23 35 25 13 39 43 47 37 51
REMARK Flexibility Score: inf
ROOT
ATOM      1  C   UNL     1      42.593  -2.960  13.436  1.00  0.00     0.180 C 
ATOM      2  C   UNL     1      42.495  -2.968  14.988  1.00  0.00     0.177 C 
ATOM      3  C   UNL     1      41.062  -2.826  15.548  1.00  0.00     0.180 C 
ATOM      4  C   UNL     1      39.956  -3.166  14.543  1.00  0.00     0.214 C 
ATOM      5  C   UNL     1      40.506  -4.177  13.479  1.00  0.00     0.339 C 
ATOM      6  O   UNL     1      41.482  -3.499  12.704  1.00  0.00    -0.332 OA
ENDROOT
BRANCH   1   7
ATOM      7  C   UNL     1      42.987  -1.570  12.868  1.00  0.00     0.198 C 
BRANCH   7   8
ATOM      8  O   UNL     1      41.940  -0.615  12.977  1.00  0.00    -0.347 OA
BRANCH   8   9
ATOM      9  C   UNL     1      40.934  -0.788  11.980  1.00  0.00     0.281 C 
ATOM     10  C   UNL     1      43.125  -0.445   9.028  1.00  0.00     0.041 C 
ATOM     11  C   UNL     1      42.407  -0.035  10.311  1.00  0.00     0.150 C 
ATOM     12  C   UNL     1      41.643   1.291  10.099  1.00  0.00     0.174 C 
ATOM     13  O   UNL     1      41.530  -1.079  10.720  1.00  0.00    -0.344 OA
ATOM     14  C   UNL     1      40.883   1.676  11.387  1.00  0.00     0.179 C 
ATOM     15  C   UNL     1      40.036   0.464  11.824  1.00  0.00     0.202 C 
BRANCH  12  16
ATOM     16  O   UNL     1      40.711   1.168   9.054  1.00  0.00    -0.388 OA
ATOM     17  H   UNL     1      40.187   2.011   9.025  1.00  0.00     0.211 HD
ENDBRANCH  12  16
BRANCH  14  18
ATOM     18  O   UNL     1      41.759   2.032  12.430  1.00  0.00    -0.387 OA
ATOM     19  H   UNL     1      41.221   2.469  13.152  1.00  0.00     0.211 HD
ENDBRANCH  14  18
BRANCH  15  20
ATOM     20  O   UNL     1      39.298   0.717  12.987  1.00  0.00    -0.385 OA
ATOM     21  H   UNL     1      38.513   1.262  12.694  1.00  0.00     0.211 HD
ENDBRANCH  15  20
ENDBRANCH   8   9
ENDBRANCH   7   8
ENDBRANCH   1   7
BRANCH   2  22
ATOM     22  O   UNL     1      43.029  -4.198  15.446  1.00  0.00    -0.387 OA
ATOM     23  H   UNL     1      43.062  -4.171  16.439  1.00  0.00     0.211 HD
ENDBRANCH   2  22
BRANCH   3  24
ATOM     24  O   UNL     1      40.858  -1.570  16.145  1.00  0.00    -0.387 OA
ATOM     25  H   UNL     1      40.476  -0.980  15.430  1.00  0.00     0.211 HD
ENDBRANCH   3  24
BRANCH   5  26
ATOM     26  O   UNL     1      39.516  -4.673  12.547  1.00  0.00    -0.462 OA
BRANCH  26  27
ATOM     27  C   UNL     1      38.755  -3.929  11.627  1.00  0.00     0.130 A 
ATOM     28  C   UNL     1      39.167  -3.677  10.299  1.00  0.00     0.093 A 
ATOM     29  C   UNL     1      37.538  -3.399  12.061  1.00  0.00     0.094 A 
ATOM     30  C   UNL     1      38.262  -3.127   9.378  1.00  0.00     0.133 A 
ATOM     31  C   UNL     1      36.671  -2.770  11.168  1.00  0.00     0.138 A 
ATOM     32  C   UNL     1      36.993  -2.714   9.809  1.00  0.00     0.102 A 
ATOM     33  O   UNL     1      35.458  -2.225  11.613  1.00  0.00    -0.484 OA
ATOM     34  C   UNL     1      35.907  -2.368   8.891  1.00  0.00     0.174 C 
ATOM     35  C   UNL     1      34.686  -1.275  10.859  1.00  0.00     0.211 C 
ATOM     36  O   UNL     1      35.675  -3.087   7.876  1.00  0.00    -0.294 OA
ATOM     37  C   UNL     1      34.891  -1.347   9.315  1.00  0.00     0.131 C 
BRANCH  30  38
ATOM     38  O   UNL     1      38.620  -2.980   8.035  1.00  0.00    -0.507 OA
ATOM     39  H   UNL     1      38.304  -3.626   7.315  1.00  0.00     0.293 HD
ENDBRANCH  30  38
BRANCH  35  40
ATOM     40  C   UNL     1      34.917   0.141  11.353  1.00  0.00    -0.003 A 
ATOM     41  C   UNL     1      36.143   0.812  11.156  1.00  0.00     0.057 A 
ATOM     42  C   UNL     1      33.853   0.832  11.957  1.00  0.00     0.011 A 
ATOM     43  C   UNL     1      36.302   2.144  11.567  1.00  0.00     0.158 A 
ATOM     44  C   UNL     1      34.003   2.165  12.351  1.00  0.00     0.051 A 
ATOM     45  C   UNL     1      35.224   2.840  12.147  1.00  0.00     0.160 A 
BRANCH  43  46
ATOM     46  O   UNL     1      37.537   2.767  11.365  1.00  0.00    -0.504 OA
ATOM     47  H   UNL     1      38.178   2.468  10.646  1.00  0.00     0.293 HD
ENDBRANCH  43  46
BRANCH  45  48
ATOM     48  O   UNL     1      35.393   4.195  12.481  1.00  0.00    -0.493 OA
ATOM     49  C   UNL     1      34.764   5.275  11.803  1.00  0.00     0.278 C 
ENDBRANCH  45  48
ENDBRANCH  35  40
ENDBRANCH  26  27
ENDBRANCH   5  26
BRANCH   4  50
ATOM     50  O   UNL     1      39.403  -1.996  13.976  1.00  0.00    -0.384 OA
ATOM     51  H   UNL     1      39.152  -1.359  14.696  1.00  0.00     0.211 HD
ENDBRANCH   4  50
TORSDOF 15
ENDMDL
