MODEL 1
REMARK VINA RESULT:    -1.572      0.000      0.000
REMARK INTER + INTRA:          -2.639
REMARK INTER:                  -2.399
REMARK INTRA:                  -0.240
REMARK UNBOUND:                -0.240
REMARK SMILES CCCCCCCCCCC(=O)[O-]
REMARK SMILES IDX 7 1 8 2 9 3 10 4 11 5 12 6 13 7 6 8 5 9 4 10 3 11 2 12 1 13
REMARK H PARENT
REMARK Flexibility Score: inf
ROOT
ATOM      1  C   UNL     1     -18.097   4.726 -18.922  1.00  0.00     0.000 C 
ENDROOT
BRANCH   1   2
ATOM      2  C   UNL     1     -17.651   3.776 -20.040  1.00  0.00     0.000 C 
BRANCH   2   3
ATOM      3  C   UNL     1     -16.172   3.399 -19.885  1.00  0.00     0.006 C 
BRANCH   3   4
ATOM      4  C   UNL     1     -15.850   3.023 -18.436  1.00  0.00     0.053 C 
BRANCH   4   5
ATOM      5  C   UNL     1     -14.726   3.863 -17.915  1.00  0.00     0.041 C 
ATOM      6  O   UNL     1     -14.225   4.766 -18.633  1.00  0.00    -0.550 OA
ATOM      7  O   UNL     1     -14.200   3.614 -16.653  1.00  0.00    -0.550 OA
ENDBRANCH   4   5
ENDBRANCH   3   4
ENDBRANCH   2   3
ENDBRANCH   1   2
BRANCH   1   8
ATOM      8  C   UNL     1     -19.481   5.316 -19.221  1.00  0.00     0.000 C 
BRANCH   8   9
ATOM      9  C   UNL     1     -20.518   4.207 -19.431  1.00  0.00    -0.000 C 
BRANCH   9  10
ATOM     10  C   UNL     1     -20.265   3.027 -18.484  1.00  0.00    -0.000 C 
BRANCH  10  11
ATOM     11  C   UNL     1     -21.403   2.886 -17.464  1.00  0.00    -0.000 C 
BRANCH  11  12
ATOM     12  C   UNL     1     -20.944   3.168 -16.024  1.00  0.00    -0.003 C 
ATOM     13  C   UNL     1     -22.029   2.875 -14.989  1.00  0.00     0.004 C 
ENDBRANCH  11  12
ENDBRANCH  10  11
ENDBRANCH   9  10
ENDBRANCH   8   9
ENDBRANCH   1   8
TORSDOF 9
ENDMDL
MODEL 2
REMARK VINA RESULT:    -1.518      1.524      2.736
REMARK INTER + INTRA:          -2.556
REMARK INTER:                  -3.056
REMARK INTRA:                   0.500
REMARK UNBOUND:                -0.240
REMARK SMILES CCCCCCCCCCC(=O)[O-]
REMARK SMILES IDX 7 1 8 2 9 3 10 4 11 5 12 6 13 7 6 8 5 9 4 10 3 11 2 12 1 13
REMARK H PARENT
REMARK Flexibility Score: inf
ROOT
ATOM      1  C   UNL     1     -16.565   2.875 -18.285  1.00  0.00     0.000 C 
ENDROOT
BRANCH   1   2
ATOM      2  C   UNL     1     -15.910   2.893 -16.899  1.00  0.00     0.000 C 
BRANCH   2   3
ATOM      3  C   UNL     1     -14.385   3.012 -17.011  1.00  0.00     0.006 C 
BRANCH   3   4
ATOM      4  C   UNL     1     -13.952   3.170 -18.472  1.00  0.00     0.053 C 
BRANCH   4   5
ATOM      5  C   UNL     1     -14.250   4.553 -18.959  1.00  0.00     0.041 C 
ATOM      6  O   UNL     1     -13.875   5.553 -18.293  1.00  0.00    -0.550 OA
ATOM      7  O   UNL     1     -14.985   4.737 -20.123  1.00  0.00    -0.550 OA
ENDBRANCH   4   5
ENDBRANCH   3   4
ENDBRANCH   2   3
ENDBRANCH   1   2
BRANCH   1   8
ATOM      8  C   UNL     1     -18.057   3.213 -18.193  1.00  0.00     0.000 C 
BRANCH   8   9
ATOM      9  C   UNL     1     -18.630   3.556 -19.573  1.00  0.00    -0.000 C 
BRANCH   9  10
ATOM     10  C   UNL     1     -19.108   5.012 -19.627  1.00  0.00    -0.000 C 
BRANCH  10  11
ATOM     11  C   UNL     1     -20.610   5.111 -19.325  1.00  0.00    -0.000 C 
BRANCH  11  12
ATOM     12  C   UNL     1     -21.278   3.733 -19.195  1.00  0.00    -0.003 C 
ATOM     13  C   UNL     1     -21.580   3.355 -17.746  1.00  0.00     0.004 C 
ENDBRANCH  11  12
ENDBRANCH  10  11
ENDBRANCH   9  10
ENDBRANCH   8   9
ENDBRANCH   1   8
TORSDOF 9
ENDMDL
MODEL 3
REMARK VINA RESULT:    -1.107      1.151      1.846
REMARK INTER + INTRA:          -1.930
REMARK INTER:                  -2.679
REMARK INTRA:                   0.749
REMARK UNBOUND:                -0.240
REMARK SMILES CCCCCCCCCCC(=O)[O-]
REMARK SMILES IDX 7 1 8 2 9 3 10 4 11 5 12 6 13 7 6 8 5 9 4 10 3 11 2 12 1 13
REMARK H PARENT
REMARK Flexibility Score: inf
ROOT
ATOM      1  C   UNL     1     -17.639   3.062 -19.095  1.00  0.00     0.000 C 
ENDROOT
BRANCH   1   2
ATOM      2  C   UNL     1     -16.511   2.937 -20.125  1.00  0.00     0.000 C 
BRANCH   2   3
ATOM      3  C   UNL     1     -15.138   3.115 -19.463  1.00  0.00     0.006 C 
BRANCH   3   4
ATOM      4  C   UNL     1     -15.222   2.877 -17.952  1.00  0.00     0.053 C 
BRANCH   4   5
ATOM      5  C   UNL     1     -14.326   3.827 -17.222  1.00  0.00     0.041 C 
ATOM      6  O   UNL     1     -13.953   3.569 -16.048  1.00  0.00    -0.550 OA
ATOM      7  O   UNL     1     -13.943   5.020 -17.820  1.00  0.00    -0.550 OA
ENDBRANCH   4   5
ENDBRANCH   3   4
ENDBRANCH   2   3
ENDBRANCH   1   2
BRANCH   1   8
ATOM      8  C   UNL     1     -17.871   4.528 -18.707  1.00  0.00     0.000 C 
BRANCH   8   9
ATOM      9  C   UNL     1     -19.027   5.134 -19.511  1.00  0.00    -0.000 C 
BRANCH   9  10
ATOM     10  C   UNL     1     -20.131   4.098 -19.756  1.00  0.00    -0.000 C 
BRANCH  10  11
ATOM     11  C   UNL     1     -21.277   4.267 -18.748  1.00  0.00    -0.000 C 
BRANCH  11  12
ATOM     12  C   UNL     1     -21.264   3.189 -17.653  1.00  0.00    -0.003 C 
ATOM     13  C   UNL     1     -19.857   2.876 -17.147  1.00  0.00     0.004 C 
ENDBRANCH  11  12
ENDBRANCH  10  11
ENDBRANCH   9  10
ENDBRANCH   8   9
ENDBRANCH   1   8
TORSDOF 9
ENDMDL
MODEL 4
REMARK VINA RESULT:     1.406     20.576     22.513
REMARK INTER + INTRA:           1.905
REMARK INTER:                   2.247
REMARK INTRA:                  -0.341
REMARK UNBOUND:                -0.240
REMARK SMILES CCCCCCCCCCC(=O)[O-]
REMARK SMILES IDX 7 1 8 2 9 3 10 4 11 5 12 6 13 7 6 8 5 9 4 10 3 11 2 12 1 13
REMARK H PARENT
REMARK Flexibility Score: inf
ROOT
ATOM      1  C   UNL     1     -33.221  18.676 -10.369  1.00  0.00     0.000 C 
ENDROOT
BRANCH   1   2
ATOM      2  C   UNL     1     -33.047  20.193 -10.223  1.00  0.00     0.000 C 
BRANCH   2   3
ATOM      3  C   UNL     1     -31.672  20.641 -10.735  1.00  0.00     0.006 C 
BRANCH   3   4
ATOM      4  C   UNL     1     -31.631  22.158 -10.939  1.00  0.00     0.053 C 
BRANCH   4   5
ATOM      5  C   UNL     1     -32.560  22.841  -9.986  1.00  0.00     0.041 C 
ATOM      6  O   UNL     1     -32.176  23.124  -8.821  1.00  0.00    -0.550 OA
ATOM      7  O   UNL     1     -33.866  23.120 -10.367  1.00  0.00    -0.550 OA
ENDBRANCH   4   5
ENDBRANCH   3   4
ENDBRANCH   2   3
ENDBRANCH   1   2
BRANCH   1   8
ATOM      8  C   UNL     1     -31.871  17.956 -10.269  1.00  0.00     0.000 C 
BRANCH   8   9
ATOM      9  C   UNL     1     -31.973  16.520 -10.794  1.00  0.00    -0.000 C 
BRANCH   9  10
ATOM     10  C   UNL     1     -30.586  15.949 -11.115  1.00  0.00    -0.000 C 
BRANCH  10  11
ATOM     11  C   UNL     1     -29.579  17.074 -11.392  1.00  0.00    -0.000 C 
BRANCH  11  12
ATOM     12  C   UNL     1     -29.348  17.305 -12.894  1.00  0.00    -0.003 C 
ATOM     13  C   UNL     1     -29.443  16.018 -13.712  1.00  0.00     0.004 C 
ENDBRANCH  11  12
ENDBRANCH  10  11
ENDBRANCH   9  10
ENDBRANCH   8   9
ENDBRANCH   1   8
TORSDOF 9
ENDMDL
