MODEL 1
REMARK VINA RESULT:     8.266      0.000      0.000
REMARK INTER + INTRA:          10.962
REMARK INTER:                  11.166
REMARK INTRA:                  -0.204
REMARK UNBOUND:                -0.204
REMARK SMILES CCCCCCCC(=O)[O-]
REMARK SMILES IDX 5 1 6 2 7 3 8 4 9 5 10 6 4 7 3 8 2 9 1 10
REMARK H PARENT
REMARK Flexibility Score: inf
ROOT
ATOM      1  C   UNL     1     -12.972  -8.462 -22.294  1.00  0.00     0.000 C 
ENDROOT
BRANCH   1   2
ATOM      2  C   UNL     1     -13.303  -7.786 -20.950  1.00  0.00     0.006 C 
BRANCH   2   3
ATOM      3  C   UNL     1     -12.310  -8.107 -19.822  1.00  0.00     0.053 C 
BRANCH   3   4
ATOM      4  C   UNL     1     -13.006  -8.556 -18.573  1.00  0.00     0.041 C 
ATOM      5  O   UNL     1     -12.679  -9.638 -18.020  1.00  0.00    -0.550 OA
ATOM      6  O   UNL     1     -13.991  -7.759 -18.002  1.00  0.00    -0.550 OA
ENDBRANCH   3   4
ENDBRANCH   2   3
ENDBRANCH   1   2
BRANCH   1   7
ATOM      7  C   UNL     1     -14.208  -8.628 -23.195  1.00  0.00     0.000 C 
BRANCH   7   8
ATOM      8  C   UNL     1     -15.000  -7.321 -23.356  1.00  0.00    -0.000 C 
BRANCH   8   9
ATOM      9  C   UNL     1     -15.176  -6.916 -24.826  1.00  0.00    -0.003 C 
ATOM     10  C   UNL     1     -14.457  -5.603 -25.124  1.00  0.00     0.004 C 
ENDBRANCH   8   9
ENDBRANCH   7   8
ENDBRANCH   1   7
TORSDOF 6
ENDMDL
MODEL 2
REMARK VINA RESULT:     8.499      0.904      1.507
REMARK INTER + INTRA:          11.275
REMARK INTER:                  11.611
REMARK INTRA:                  -0.336
REMARK UNBOUND:                -0.204
REMARK SMILES CCCCCCCC(=O)[O-]
REMARK SMILES IDX 5 1 6 2 7 3 8 4 9 5 10 6 4 7 3 8 2 9 1 10
REMARK H PARENT
REMARK Flexibility Score: inf
ROOT
ATOM      1  C   UNL     1     -14.112  -8.574 -23.184  1.00  0.00     0.000 C 
ENDROOT
BRANCH   1   2
ATOM      2  C   UNL     1     -13.004  -8.263 -22.160  1.00  0.00     0.006 C 
BRANCH   2   3
ATOM      3  C   UNL     1     -13.513  -7.642 -20.850  1.00  0.00     0.053 C 
BRANCH   3   4
ATOM      4  C   UNL     1     -12.764  -8.153 -19.659  1.00  0.00     0.041 C 
ATOM      5  O   UNL     1     -11.603  -8.620 -19.792  1.00  0.00    -0.550 OA
ATOM      6  O   UNL     1     -13.336  -8.082 -18.395  1.00  0.00    -0.550 OA
ENDBRANCH   3   4
ENDBRANCH   2   3
ENDBRANCH   1   2
BRANCH   1   7
ATOM      7  C   UNL     1     -15.063  -7.386 -23.410  1.00  0.00     0.000 C 
BRANCH   7   8
ATOM      8  C   UNL     1     -15.160  -6.981 -24.889  1.00  0.00    -0.000 C 
BRANCH   8   9
ATOM      9  C   UNL     1     -14.774  -5.514 -25.125  1.00  0.00    -0.003 C 
ATOM     10  C   UNL     1     -13.438  -5.184 -24.466  1.00  0.00     0.004 C 
ENDBRANCH   8   9
ENDBRANCH   7   8
ENDBRANCH   1   7
TORSDOF 6
ENDMDL
MODEL 3
REMARK VINA RESULT:     9.795      7.738      8.838
REMARK INTER + INTRA:          13.027
REMARK INTER:                  13.261
REMARK INTRA:                  -0.234
REMARK UNBOUND:                -0.204
REMARK SMILES CCCCCCCC(=O)[O-]
REMARK SMILES IDX 5 1 6 2 7 3 8 4 9 5 10 6 4 7 3 8 2 9 1 10
REMARK H PARENT
REMARK Flexibility Score: inf
ROOT
ATOM      1  C   UNL     1     -19.655 -13.166 -24.946  1.00  0.00     0.000 C 
ENDROOT
BRANCH   1   2
ATOM      2  C   UNL     1     -18.468 -12.699 -24.083  1.00  0.00     0.006 C 
BRANCH   2   3
ATOM      3  C   UNL     1     -17.300 -13.697 -24.025  1.00  0.00     0.053 C 
BRANCH   3   4
ATOM      4  C   UNL     1     -16.373 -13.409 -22.884  1.00  0.00     0.041 C 
ATOM      5  O   UNL     1     -16.588 -13.912 -21.750  1.00  0.00    -0.550 OA
ATOM      6  O   UNL     1     -15.252 -12.614 -23.084  1.00  0.00    -0.550 OA
ENDBRANCH   3   4
ENDBRANCH   2   3
ENDBRANCH   1   2
BRANCH   1   7
ATOM      7  C   UNL     1     -21.001 -13.065 -24.208  1.00  0.00     0.000 C 
BRANCH   7   8
ATOM      8  C   UNL     1     -21.881 -14.308 -24.413  1.00  0.00    -0.000 C 
BRANCH   8   9
ATOM      9  C   UNL     1     -22.499 -14.815 -23.102  1.00  0.00    -0.003 C 
ATOM     10  C   UNL     1     -21.986 -14.017 -21.908  1.00  0.00     0.004 C 
ENDBRANCH   8   9
ENDBRANCH   7   8
ENDBRANCH   1   7
TORSDOF 6
ENDMDL
MODEL 4
REMARK VINA RESULT:     9.841      8.430      9.685
REMARK INTER + INTRA:          13.088
REMARK INTER:                  13.291
REMARK INTRA:                  -0.203
REMARK UNBOUND:                -0.204
REMARK SMILES CCCCCCCC(=O)[O-]
REMARK SMILES IDX 5 1 6 2 7 3 8 4 9 5 10 6 4 7 3 8 2 9 1 10
REMARK H PARENT
REMARK Flexibility Score: inf
ROOT
ATOM      1  C   UNL     1     -19.647 -13.206 -24.991  1.00  0.00     0.000 C 
ENDROOT
BRANCH   1   2
ATOM      2  C   UNL     1     -21.039 -12.972 -24.375  1.00  0.00     0.006 C 
BRANCH   2   3
ATOM      3  C   UNL     1     -21.849 -14.256 -24.142  1.00  0.00     0.053 C 
BRANCH   3   4
ATOM      4  C   UNL     1     -22.191 -14.450 -22.696  1.00  0.00     0.041 C 
ATOM      5  O   UNL     1     -21.879 -13.573 -21.848  1.00  0.00    -0.550 OA
ATOM      6  O   UNL     1     -22.885 -15.583 -22.292  1.00  0.00    -0.550 OA
ENDBRANCH   3   4
ENDBRANCH   2   3
ENDBRANCH   1   2
BRANCH   1   7
ATOM      7  C   UNL     1     -18.506 -12.976 -23.984  1.00  0.00     0.000 C 
BRANCH   7   8
ATOM      8  C   UNL     1     -17.262 -13.821 -24.299  1.00  0.00    -0.000 C 
BRANCH   8   9
ATOM      9  C   UNL     1     -16.069 -13.471 -23.399  1.00  0.00    -0.003 C 
ATOM     10  C   UNL     1     -16.474 -13.461 -21.928  1.00  0.00     0.004 C 
ENDBRANCH   8   9
ENDBRANCH   7   8
ENDBRANCH   1   7
TORSDOF 6
ENDMDL
MODEL 5
REMARK VINA RESULT:    10.189     15.919     16.892
REMARK INTER + INTRA:          13.559
REMARK INTER:                  13.861
REMARK INTRA:                  -0.301
REMARK UNBOUND:                -0.204
REMARK SMILES CCCCCCCC(=O)[O-]
REMARK SMILES IDX 5 1 6 2 7 3 8 4 9 5 10 6 4 7 3 8 2 9 1 10
REMARK H PARENT
REMARK Flexibility Score: inf
ROOT
ATOM      1  C   UNL     1     -25.901  -4.991 -12.234  1.00  0.00     0.000 C 
ENDROOT
BRANCH   1   2
ATOM      2  C   UNL     1     -27.245  -5.007 -11.483  1.00  0.00     0.006 C 
BRANCH   2   3
ATOM      3  C   UNL     1     -27.761  -3.616 -11.084  1.00  0.00     0.053 C 
BRANCH   3   4
ATOM      4  C   UNL     1     -29.250  -3.594 -10.925  1.00  0.00     0.041 C 
ATOM      5  O   UNL     1     -29.958  -2.875 -11.678  1.00  0.00    -0.550 OA
ATOM      6  O   UNL     1     -29.858  -4.395  -9.966  1.00  0.00    -0.550 OA
ENDBRANCH   3   4
ENDBRANCH   2   3
ENDBRANCH   1   2
BRANCH   1   7
ATOM      7  C   UNL     1     -25.161  -3.648 -12.099  1.00  0.00     0.000 C 
BRANCH   7   8
ATOM      8  C   UNL     1     -24.713  -3.083 -13.455  1.00  0.00    -0.000 C 
BRANCH   8   9
ATOM      9  C   UNL     1     -25.079  -4.003 -14.628  1.00  0.00    -0.003 C 
ATOM     10  C   UNL     1     -24.895  -3.291 -15.964  1.00  0.00     0.004 C 
ENDBRANCH   8   9
ENDBRANCH   7   8
ENDBRANCH   1   7
TORSDOF 6
ENDMDL
MODEL 6
REMARK VINA RESULT:    10.679     16.641     17.795
REMARK INTER + INTRA:          14.220
REMARK INTER:                  14.587
REMARK INTRA:                  -0.367
REMARK UNBOUND:                -0.204
REMARK SMILES CCCCCCCC(=O)[O-]
REMARK SMILES IDX 5 1 6 2 7 3 8 4 9 5 10 6 4 7 3 8 2 9 1 10
REMARK H PARENT
REMARK Flexibility Score: inf
ROOT
ATOM      1  C   UNL     1     -26.648  -3.597 -11.732  1.00  0.00     0.000 C 
ENDROOT
BRANCH   1   2
ATOM      2  C   UNL     1     -26.027  -5.005 -11.788  1.00  0.00     0.006 C 
BRANCH   2   3
ATOM      3  C   UNL     1     -26.936  -6.117 -11.242  1.00  0.00     0.053 C 
BRANCH   3   4
ATOM      4  C   UNL     1     -26.167  -7.358 -10.908  1.00  0.00     0.041 C 
ATOM      5  O   UNL     1     -26.757  -8.467 -10.827  1.00  0.00    -0.550 OA
ATOM      6  O   UNL     1     -24.792  -7.293 -10.720  1.00  0.00    -0.550 OA
ENDBRANCH   3   4
ENDBRANCH   2   3
ENDBRANCH   1   2
BRANCH   1   7
ATOM      7  C   UNL     1     -27.825  -3.506 -10.746  1.00  0.00     0.000 C 
BRANCH   7   8
ATOM      8  C   UNL     1     -29.160  -3.212 -11.447  1.00  0.00    -0.000 C 
BRANCH   8   9
ATOM      9  C   UNL     1     -30.353  -3.881 -10.748  1.00  0.00    -0.003 C 
ATOM     10  C   UNL     1     -29.892  -4.729  -9.567  1.00  0.00     0.004 C 
ENDBRANCH   8   9
ENDBRANCH   7   8
ENDBRANCH   1   7
TORSDOF 6
ENDMDL
MODEL 7
REMARK VINA RESULT:    10.728     17.079     18.429
REMARK INTER + INTRA:          14.287
REMARK INTER:                  14.583
REMARK INTRA:                  -0.295
REMARK UNBOUND:                -0.204
REMARK SMILES CCCCCCCC(=O)[O-]
REMARK SMILES IDX 5 1 6 2 7 3 8 4 9 5 10 6 4 7 3 8 2 9 1 10
REMARK H PARENT
REMARK Flexibility Score: inf
ROOT
ATOM      1  C   UNL     1     -27.349  -4.400 -11.958  1.00  0.00     0.000 C 
ENDROOT
BRANCH   1   2
ATOM      2  C   UNL     1     -27.907  -3.357 -10.972  1.00  0.00     0.006 C 
BRANCH   2   3
ATOM      3  C   UNL     1     -29.440  -3.333 -10.881  1.00  0.00     0.053 C 
BRANCH   3   4
ATOM      4  C   UNL     1     -29.969  -4.449 -10.033  1.00  0.00     0.041 C 
ATOM      5  O   UNL     1     -30.844  -5.231 -10.489  1.00  0.00    -0.550 OA
ATOM      6  O   UNL     1     -29.470  -4.646  -8.752  1.00  0.00    -0.550 OA
ENDBRANCH   3   4
ENDBRANCH   2   3
ENDBRANCH   1   2
BRANCH   1   7
ATOM      7  C   UNL     1     -25.827  -4.583 -11.831  1.00  0.00     0.000 C 
BRANCH   7   8
ATOM      8  C   UNL     1     -25.443  -5.953 -11.252  1.00  0.00    -0.000 C 
BRANCH   8   9
ATOM      9  C   UNL     1     -26.639  -6.913 -11.169  1.00  0.00    -0.003 C 
ATOM     10  C   UNL     1     -26.277  -8.175 -10.392  1.00  0.00     0.004 C 
ENDBRANCH   8   9
ENDBRANCH   7   8
ENDBRANCH   1   7
TORSDOF 6
ENDMDL
