MODEL 1
REMARK VINA RESULT:    -3.462      0.000      0.000
REMARK INTER + INTRA:          -6.420
REMARK INTER:                  -5.284
REMARK INTRA:                  -1.137
REMARK UNBOUND:                -1.137
REMARK SMILES CCCCCCCCCCC(=O)[O-]
REMARK SMILES IDX 7 1 8 2 9 3 10 4 11 5 12 6 13 7 6 8 5 9 4 10 3 11 2 12 1 13
REMARK H PARENT
REMARK Flexibility Score: inf
ROOT
ATOM      1  C   UNL     1       0.762  16.333  30.105  1.00  0.00     0.000 C 
ENDROOT
BRANCH   1   2
ATOM      2  C   UNL     1       0.600  14.837  30.442  1.00  0.00     0.000 C 
BRANCH   2   3
ATOM      3  C   UNL     1      -0.496  14.107  29.645  1.00  0.00     0.006 C 
BRANCH   3   4
ATOM      4  C   UNL     1      -0.616  12.624  30.016  1.00  0.00     0.053 C 
BRANCH   4   5
ATOM      5  C   UNL     1       0.500  11.839  29.402  1.00  0.00     0.041 C 
ATOM      6  O   UNL     1       0.580  11.726  28.150  1.00  0.00    -0.550 OA
ATOM      7  O   UNL     1       1.481  11.276  30.208  1.00  0.00    -0.550 OA
ENDBRANCH   4   5
ENDBRANCH   3   4
ENDBRANCH   2   3
ENDBRANCH   1   2
BRANCH   1   8
ATOM      8  C   UNL     1      -0.117  16.840  28.945  1.00  0.00     0.000 C 
BRANCH   8   9
ATOM      9  C   UNL     1       0.657  17.269  27.683  1.00  0.00    -0.000 C 
BRANCH   9  10
ATOM     10  C   UNL     1       2.143  17.609  27.912  1.00  0.00    -0.000 C 
BRANCH  10  11
ATOM     11  C   UNL     1       3.141  16.635  27.259  1.00  0.00    -0.000 C 
BRANCH  11  12
ATOM     12  C   UNL     1       2.526  15.258  26.971  1.00  0.00    -0.003 C 
ATOM     13  C   UNL     1       3.142  14.185  27.864  1.00  0.00     0.004 C 
ENDBRANCH  11  12
ENDBRANCH  10  11
ENDBRANCH   9  10
ENDBRANCH   8   9
ENDBRANCH   1   8
TORSDOF 9
ENDMDL
MODEL 2
REMARK VINA RESULT:    -3.444      1.796      3.043
REMARK INTER + INTRA:          -6.393
REMARK INTER:                  -5.300
REMARK INTRA:                  -1.092
REMARK UNBOUND:                -1.137
REMARK SMILES CCCCCCCCCCC(=O)[O-]
REMARK SMILES IDX 7 1 8 2 9 3 10 4 11 5 12 6 13 7 6 8 5 9 4 10 3 11 2 12 1 13
REMARK H PARENT
REMARK Flexibility Score: inf
ROOT
ATOM      1  C   UNL     1       1.939  16.554  31.241  1.00  0.00     0.000 C 
ENDROOT
BRANCH   1   2
ATOM      2  C   UNL     1       1.019  15.323  31.362  1.00  0.00     0.000 C 
BRANCH   2   3
ATOM      3  C   UNL     1       0.922  14.457  30.093  1.00  0.00     0.006 C 
BRANCH   3   4
ATOM      4  C   UNL     1      -0.457  13.810  29.916  1.00  0.00     0.053 C 
BRANCH   4   5
ATOM      5  C   UNL     1      -0.349  12.320  29.991  1.00  0.00     0.041 C 
ATOM      6  O   UNL     1       0.777  11.773  30.135  1.00  0.00    -0.550 OA
ATOM      7  O   UNL     1      -1.494  11.536  29.953  1.00  0.00    -0.550 OA
ENDBRANCH   4   5
ENDBRANCH   3   4
ENDBRANCH   2   3
ENDBRANCH   1   2
BRANCH   1   8
ATOM      8  C   UNL     1       1.545  17.753  32.125  1.00  0.00     0.000 C 
BRANCH   8   9
ATOM      9  C   UNL     1       1.444  19.101  31.384  1.00  0.00    -0.000 C 
BRANCH   9  10
ATOM     10  C   UNL     1       1.059  19.000  29.895  1.00  0.00    -0.000 C 
BRANCH  10  11
ATOM     11  C   UNL     1      -0.445  18.811  29.623  1.00  0.00    -0.000 C 
BRANCH  11  12
ATOM     12  C   UNL     1      -0.743  17.580  28.755  1.00  0.00    -0.003 C 
ATOM     13  C   UNL     1       0.382  17.330  27.754  1.00  0.00     0.004 C 
ENDBRANCH  11  12
ENDBRANCH  10  11
ENDBRANCH   9  10
ENDBRANCH   8   9
ENDBRANCH   1   8
TORSDOF 9
ENDMDL
MODEL 3
REMARK VINA RESULT:    -3.444      1.153      2.657
REMARK INTER + INTRA:          -6.392
REMARK INTER:                  -5.151
REMARK INTRA:                  -1.241
REMARK UNBOUND:                -1.137
REMARK SMILES CCCCCCCCCCC(=O)[O-]
REMARK SMILES IDX 7 1 8 2 9 3 10 4 11 5 12 6 13 7 6 8 5 9 4 10 3 11 2 12 1 13
REMARK H PARENT
REMARK Flexibility Score: inf
ROOT
ATOM      1  C   UNL     1       1.996  14.884  30.089  1.00  0.00     0.000 C 
ENDROOT
BRANCH   1   2
ATOM      2  C   UNL     1       0.612  14.657  30.729  1.00  0.00     0.000 C 
BRANCH   2   3
ATOM      3  C   UNL     1      -0.532  14.404  29.731  1.00  0.00     0.006 C 
BRANCH   3   4
ATOM      4  C   UNL     1      -1.268  13.084  29.990  1.00  0.00     0.053 C 
BRANCH   4   5
ATOM      5  C   UNL     1      -0.326  11.928  29.869  1.00  0.00     0.041 C 
ATOM      6  O   UNL     1      -0.145  11.154  30.846  1.00  0.00    -0.550 OA
ATOM      7  O   UNL     1       0.312  11.673  28.662  1.00  0.00    -0.550 OA
ENDBRANCH   4   5
ENDBRANCH   3   4
ENDBRANCH   2   3
ENDBRANCH   1   2
BRANCH   1   8
ATOM      8  C   UNL     1       2.010  14.883  28.547  1.00  0.00     0.000 C 
BRANCH   8   9
ATOM      9  C   UNL     1       2.640  16.133  27.902  1.00  0.00    -0.000 C 
BRANCH   9  10
ATOM     10  C   UNL     1       1.691  17.339  27.753  1.00  0.00    -0.000 C 
BRANCH  10  11
ATOM     11  C   UNL     1       1.755  18.363  28.902  1.00  0.00    -0.000 C 
BRANCH  11  12
ATOM     12  C   UNL     1       0.471  18.396  29.742  1.00  0.00    -0.003 C 
ATOM     13  C   UNL     1      -0.746  18.024  28.900  1.00  0.00     0.004 C 
ENDBRANCH  11  12
ENDBRANCH  10  11
ENDBRANCH   9  10
ENDBRANCH   8   9
ENDBRANCH   1   8
TORSDOF 9
ENDMDL
MODEL 4
REMARK VINA RESULT:    -3.433      2.690      4.331
REMARK INTER + INTRA:          -6.375
REMARK INTER:                  -5.891
REMARK INTRA:                  -0.485
REMARK UNBOUND:                -1.137
REMARK SMILES CCCCCCCCCCC(=O)[O-]
REMARK SMILES IDX 7 1 8 2 9 3 10 4 11 5 12 6 13 7 6 8 5 9 4 10 3 11 2 12 1 13
REMARK H PARENT
REMARK Flexibility Score: inf
ROOT
ATOM      1  C   UNL     1      -0.133  15.586  29.500  1.00  0.00     0.000 C 
ENDROOT
BRANCH   1   2
ATOM      2  C   UNL     1       0.892  15.349  30.627  1.00  0.00     0.000 C 
BRANCH   2   3
ATOM      3  C   UNL     1       0.940  13.909  31.170  1.00  0.00     0.006 C 
BRANCH   3   4
ATOM      4  C   UNL     1       0.255  12.900  30.242  1.00  0.00     0.053 C 
BRANCH   4   5
ATOM      5  C   UNL     1      -0.818  12.159  30.976  1.00  0.00     0.041 C 
ATOM      6  O   UNL     1      -1.999  12.598  30.983  1.00  0.00    -0.550 OA
ATOM      7  O   UNL     1      -0.526  10.958  31.610  1.00  0.00    -0.550 OA
ENDBRANCH   4   5
ENDBRANCH   3   4
ENDBRANCH   2   3
ENDBRANCH   1   2
BRANCH   1   8
ATOM      8  C   UNL     1      -0.101  16.994  28.874  1.00  0.00     0.000 C 
BRANCH   8   9
ATOM      9  C   UNL     1       0.220  18.136  29.858  1.00  0.00    -0.000 C 
BRANCH   9  10
ATOM     10  C   UNL     1      -0.670  19.387  29.720  1.00  0.00    -0.000 C 
BRANCH  10  11
ATOM     11  C   UNL     1      -2.115  19.110  29.265  1.00  0.00    -0.000 C 
BRANCH  11  12
ATOM     12  C   UNL     1      -3.125  20.105  29.852  1.00  0.00    -0.003 C 
ATOM     13  C   UNL     1      -2.441  21.410  30.252  1.00  0.00     0.004 C 
ENDBRANCH  11  12
ENDBRANCH  10  11
ENDBRANCH   9  10
ENDBRANCH   8   9
ENDBRANCH   1   8
TORSDOF 9
ENDMDL
MODEL 5
REMARK VINA RESULT:    -3.431      4.614      6.178
REMARK INTER + INTRA:          -6.373
REMARK INTER:                  -5.085
REMARK INTRA:                  -1.288
REMARK UNBOUND:                -1.137
REMARK SMILES CCCCCCCCCCC(=O)[O-]
REMARK SMILES IDX 7 1 8 2 9 3 10 4 11 5 12 6 13 7 6 8 5 9 4 10 3 11 2 12 1 13
REMARK H PARENT
REMARK Flexibility Score: inf
ROOT
ATOM      1  C   UNL     1       0.974  18.708  30.823  1.00  0.00     0.000 C 
ENDROOT
BRANCH   1   2
ATOM      2  C   UNL     1       2.462  18.895  30.464  1.00  0.00     0.000 C 
BRANCH   2   3
ATOM      3  C   UNL     1       2.750  20.019  29.453  1.00  0.00     0.006 C 
BRANCH   3   4
ATOM      4  C   UNL     1       3.841  19.646  28.443  1.00  0.00     0.053 C 
BRANCH   4   5
ATOM      5  C   UNL     1       5.115  20.363  28.762  1.00  0.00     0.041 C 
ATOM      6  O   UNL     1       5.632  20.256  29.906  1.00  0.00    -0.550 OA
ATOM      7  O   UNL     1       5.761  21.106  27.783  1.00  0.00    -0.550 OA
ENDBRANCH   4   5
ENDBRANCH   3   4
ENDBRANCH   2   3
ENDBRANCH   1   2
BRANCH   1   8
ATOM      8  C   UNL     1      -0.019  19.418  29.882  1.00  0.00     0.000 C 
BRANCH   8   9
ATOM      9  C   UNL     1      -1.027  18.487  29.179  1.00  0.00    -0.000 C 
BRANCH   9  10
ATOM     10  C   UNL     1      -0.424  17.195  28.592  1.00  0.00    -0.000 C 
BRANCH  10  11
ATOM     11  C   UNL     1       0.493  17.402  27.372  1.00  0.00    -0.000 C 
BRANCH  11  12
ATOM     12  C   UNL     1       1.819  16.637  27.488  1.00  0.00    -0.003 C 
ATOM     13  C   UNL     1       1.801  15.684  28.680  1.00  0.00     0.004 C 
ENDBRANCH  11  12
ENDBRANCH  10  11
ENDBRANCH   9  10
ENDBRANCH   8   9
ENDBRANCH   1   8
TORSDOF 9
ENDMDL
MODEL 6
REMARK VINA RESULT:    -3.427      1.752      2.496
REMARK INTER + INTRA:          -6.366
REMARK INTER:                  -4.998
REMARK INTRA:                  -1.368
REMARK UNBOUND:                -1.137
REMARK SMILES CCCCCCCCCCC(=O)[O-]
REMARK SMILES IDX 7 1 8 2 9 3 10 4 11 5 12 6 13 7 6 8 5 9 4 10 3 11 2 12 1 13
REMARK H PARENT
REMARK Flexibility Score: inf
ROOT
ATOM      1  C   UNL     1       2.601  16.892  31.138  1.00  0.00     0.000 C 
ENDROOT
BRANCH   1   2
ATOM      2  C   UNL     1       2.255  15.403  30.936  1.00  0.00     0.000 C 
BRANCH   2   3
ATOM      3  C   UNL     1       0.794  15.028  31.246  1.00  0.00     0.006 C 
BRANCH   3   4
ATOM      4  C   UNL     1       0.100  14.321  30.077  1.00  0.00     0.053 C 
BRANCH   4   5
ATOM      5  C   UNL     1      -0.747  13.193  30.577  1.00  0.00     0.041 C 
ATOM      6  O   UNL     1      -1.309  12.414  29.762  1.00  0.00    -0.550 OA
ATOM      7  O   UNL     1      -0.876  12.971  31.941  1.00  0.00    -0.550 OA
ENDBRANCH   4   5
ENDBRANCH   3   4
ENDBRANCH   2   3
ENDBRANCH   1   2
BRANCH   1   8
ATOM      8  C   UNL     1       1.387  17.835  31.254  1.00  0.00     0.000 C 
BRANCH   8   9
ATOM      9  C   UNL     1       1.026  18.592  29.961  1.00  0.00    -0.000 C 
BRANCH   9  10
ATOM     10  C   UNL     1      -0.164  18.009  29.173  1.00  0.00    -0.000 C 
BRANCH  10  11
ATOM     11  C   UNL     1       0.203  17.365  27.823  1.00  0.00    -0.000 C 
BRANCH  11  12
ATOM     12  C   UNL     1       1.718  17.301  27.586  1.00  0.00    -0.003 C 
ATOM     13  C   UNL     1       2.161  15.881  27.246  1.00  0.00     0.004 C 
ENDBRANCH  11  12
ENDBRANCH  10  11
ENDBRANCH   9  10
ENDBRANCH   8   9
ENDBRANCH   1   8
TORSDOF 9
ENDMDL
MODEL 7
REMARK VINA RESULT:    -3.368      1.154      1.913
REMARK INTER + INTRA:          -6.277
REMARK INTER:                  -4.918
REMARK INTRA:                  -1.360
REMARK UNBOUND:                -1.137
REMARK SMILES CCCCCCCCCCC(=O)[O-]
REMARK SMILES IDX 7 1 8 2 9 3 10 4 11 5 12 6 13 7 6 8 5 9 4 10 3 11 2 12 1 13
REMARK H PARENT
REMARK Flexibility Score: inf
ROOT
ATOM      1  C   UNL     1      -0.068  15.669  29.474  1.00  0.00     0.000 C 
ENDROOT
BRANCH   1   2
ATOM      2  C   UNL     1       1.025  15.412  30.531  1.00  0.00     0.000 C 
BRANCH   2   3
ATOM      3  C   UNL     1       2.004  14.274  30.190  1.00  0.00     0.006 C 
BRANCH   3   4
ATOM      4  C   UNL     1       1.699  13.610  28.842  1.00  0.00     0.053 C 
BRANCH   4   5
ATOM      5  C   UNL     1       1.386  12.159  29.033  1.00  0.00     0.041 C 
ATOM      6  O   UNL     1       1.867  11.531  30.013  1.00  0.00    -0.550 OA
ATOM      7  O   UNL     1       0.523  11.512  28.158  1.00  0.00    -0.550 OA
ENDBRANCH   4   5
ENDBRANCH   3   4
ENDBRANCH   2   3
ENDBRANCH   1   2
BRANCH   1   8
ATOM      8  C   UNL     1      -0.103  17.101  28.907  1.00  0.00     0.000 C 
BRANCH   8   9
ATOM      9  C   UNL     1       0.597  17.278  27.545  1.00  0.00    -0.000 C 
BRANCH   9  10
ATOM     10  C   UNL     1       2.067  17.735  27.620  1.00  0.00    -0.000 C 
BRANCH  10  11
ATOM     11  C   UNL     1       3.101  16.667  27.216  1.00  0.00    -0.000 C 
BRANCH  11  12
ATOM     12  C   UNL     1       4.240  16.525  28.235  1.00  0.00    -0.003 C 
ATOM     13  C   UNL     1       3.986  17.391  29.466  1.00  0.00     0.004 C 
ENDBRANCH  11  12
ENDBRANCH  10  11
ENDBRANCH   9  10
ENDBRANCH   8   9
ENDBRANCH   1   8
TORSDOF 9
ENDMDL
MODEL 8
REMARK VINA RESULT:    -3.366      2.296      3.563
REMARK INTER + INTRA:          -6.274
REMARK INTER:                  -5.099
REMARK INTRA:                  -1.175
REMARK UNBOUND:                -1.137
REMARK SMILES CCCCCCCCCCC(=O)[O-]
REMARK SMILES IDX 7 1 8 2 9 3 10 4 11 5 12 6 13 7 6 8 5 9 4 10 3 11 2 12 1 13
REMARK H PARENT
REMARK Flexibility Score: inf
ROOT
ATOM      1  C   UNL     1      -0.136  17.605  28.410  1.00  0.00     0.000 C 
ENDROOT
BRANCH   1   2
ATOM      2  C   UNL     1      -0.024  16.151  28.911  1.00  0.00     0.000 C 
BRANCH   2   3
ATOM      3  C   UNL     1       1.171  15.874  29.840  1.00  0.00     0.006 C 
BRANCH   3   4
ATOM      4  C   UNL     1       2.472  15.609  29.075  1.00  0.00     0.053 C 
BRANCH   4   5
ATOM      5  C   UNL     1       2.280  14.507  28.081  1.00  0.00     0.041 C 
ATOM      6  O   UNL     1       2.483  14.717  26.856  1.00  0.00    -0.550 OA
ATOM      7  O   UNL     1       1.927  13.235  28.512  1.00  0.00    -0.550 OA
ENDBRANCH   4   5
ENDBRANCH   3   4
ENDBRANCH   2   3
ENDBRANCH   1   2
BRANCH   1   8
ATOM      8  C   UNL     1      -1.154  18.480  29.166  1.00  0.00     0.000 C 
BRANCH   8   9
ATOM      9  C   UNL     1      -0.552  19.699  29.891  1.00  0.00    -0.000 C 
BRANCH   9  10
ATOM     10  C   UNL     1       0.812  19.450  30.565  1.00  0.00    -0.000 C 
BRANCH  10  11
ATOM     11  C   UNL     1       1.999  20.193  29.924  1.00  0.00    -0.000 C 
BRANCH  11  12
ATOM     12  C   UNL     1       3.122  19.246  29.476  1.00  0.00    -0.003 C 
ATOM     13  C   UNL     1       3.205  19.176  27.954  1.00  0.00     0.004 C 
ENDBRANCH  11  12
ENDBRANCH  10  11
ENDBRANCH   9  10
ENDBRANCH   8   9
ENDBRANCH   1   8
TORSDOF 9
ENDMDL
