MODEL 1
REMARK VINA RESULT:    -7.125      0.000      0.000
REMARK INTER + INTRA:          -9.188
REMARK INTER:                  -8.791
REMARK INTRA:                  -0.397
REMARK UNBOUND:                -0.397
REMARK SMILES COc1cc(-c2oc3cc(O)cc(O)c3c(=O)c2O)ccc1O
REMARK SMILES IDX 6 1 18 2 16 3 17 4 15 5 13 6 12 7 10 8 9 9 8 10 7 11 5 12
REMARK SMILES IDX 3 13 22 14 4 15 21 16 20 17 2 18 1 19 23 20 19 22 14 24
REMARK SMILES IDX 11 26
REMARK H PARENT 23 21 19 23 14 25 11 27
REMARK Flexibility Score: inf
ROOT
ATOM      1  C   UNL     1       3.797   0.031 -23.339  1.00  0.00     0.180 A 
ATOM      2  C   UNL     1       4.717  -1.029 -23.254  1.00  0.00     0.208 A 
ATOM      3  C   UNL     1       4.236  -2.348 -23.240  1.00  0.00     0.238 A 
ATOM      4  O   UNL     1       5.066  -3.294 -23.218  1.00  0.00    -0.285 OA
ATOM      5  C   UNL     1       2.842  -2.591 -23.296  1.00  0.00     0.111 A 
ATOM      6  C   UNL     1       2.242  -3.885 -23.248  1.00  0.00     0.134 A 
ATOM      7  C   UNL     1       0.861  -4.013 -23.441  1.00  0.00     0.093 A 
ATOM      8  C   UNL     1       0.051  -2.892 -23.616  1.00  0.00     0.123 A 
ATOM      9  C   UNL     1       0.619  -1.618 -23.605  1.00  0.00     0.094 A 
ATOM     10  C   UNL     1       1.999  -1.459 -23.450  1.00  0.00     0.146 A 
ATOM     11  O   UNL     1       2.501  -0.231 -23.456  1.00  0.00    -0.452 OA
ENDROOT
BRANCH   1  12
ATOM     12  C   UNL     1       4.226   1.449 -23.335  1.00  0.00     0.025 A 
ATOM     13  C   UNL     1       4.818   3.468 -24.580  1.00  0.00     0.161 A 
ATOM     14  C   UNL     1       4.981   4.158 -23.371  1.00  0.00     0.157 A 
ATOM     15  C   UNL     1       4.433   2.113 -24.555  1.00  0.00     0.062 A 
ATOM     16  C   UNL     1       4.757   3.504 -22.153  1.00  0.00     0.051 A 
ATOM     17  C   UNL     1       4.375   2.162 -22.134  1.00  0.00     0.016 A 
BRANCH  13  18
ATOM     18  O   UNL     1       5.045   4.159 -25.782  1.00  0.00    -0.493 OA
ATOM     19  C   UNL     1       4.657   3.689 -27.068  1.00  0.00     0.278 C 
ENDBRANCH  13  18
BRANCH  14  20
ATOM     20  O   UNL     1       5.364   5.498 -23.389  1.00  0.00    -0.504 OA
ATOM     21  H   UNL     1       5.332   6.048 -24.240  1.00  0.00     0.293 HD
ENDBRANCH  14  20
ENDBRANCH   1  12
BRANCH   2  22
ATOM     22  O   UNL     1       6.090  -0.767 -23.222  1.00  0.00    -0.502 OA
ATOM     23  H   UNL     1       6.585  -0.368 -24.010  1.00  0.00     0.293 HD
ENDBRANCH   2  22
BRANCH   6  24
ATOM     24  O   UNL     1       2.948  -5.063 -22.987  1.00  0.00    -0.507 OA
ATOM     25  H   UNL     1       3.330  -5.317 -22.088  1.00  0.00     0.293 HD
ENDBRANCH   6  24
BRANCH   8  26
ATOM     26  O   UNL     1      -1.321  -3.056 -23.791  1.00  0.00    -0.508 OA
ATOM     27  H   UNL     1      -1.987  -2.709 -23.111  1.00  0.00     0.293 HD
ENDBRANCH   8  26
TORSDOF 6
ENDMDL
MODEL 2
REMARK VINA RESULT:    -6.990      2.046      2.487
REMARK INTER + INTRA:          -9.022
REMARK INTER:                  -8.639
REMARK INTRA:                  -0.383
REMARK UNBOUND:                -0.397
REMARK SMILES COc1cc(-c2oc3cc(O)cc(O)c3c(=O)c2O)ccc1O
REMARK SMILES IDX 6 1 18 2 16 3 17 4 15 5 13 6 12 7 10 8 9 9 8 10 7 11 5 12
REMARK SMILES IDX 3 13 22 14 4 15 21 16 20 17 2 18 1 19 23 20 19 22 14 24
REMARK SMILES IDX 11 26
REMARK H PARENT 23 21 19 23 14 25 11 27
REMARK Flexibility Score: inf
ROOT
ATOM      1  C   UNL     1       4.465   1.240 -23.993  1.00  0.00     0.180 A 
ATOM      2  C   UNL     1       4.978   0.548 -25.105  1.00  0.00     0.208 A 
ATOM      3  C   UNL     1       4.809  -0.844 -25.177  1.00  0.00     0.238 A 
ATOM      4  O   UNL     1       5.222  -1.451 -26.199  1.00  0.00    -0.285 OA
ATOM      5  C   UNL     1       4.143  -1.528 -24.131  1.00  0.00     0.111 A 
ATOM      6  C   UNL     1       3.950  -2.942 -24.080  1.00  0.00     0.134 A 
ATOM      7  C   UNL     1       3.165  -3.496 -23.063  1.00  0.00     0.093 A 
ATOM      8  C   UNL     1       2.619  -2.697 -22.059  1.00  0.00     0.123 A 
ATOM      9  C   UNL     1       2.851  -1.322 -22.064  1.00  0.00     0.094 A 
ATOM     10  C   UNL     1       3.601  -0.734 -23.086  1.00  0.00     0.146 A 
ATOM     11  O   UNL     1       3.789   0.579 -23.061  1.00  0.00    -0.452 OA
ENDROOT
BRANCH   1  12
ATOM     12  C   UNL     1       4.625   2.704 -23.834  1.00  0.00     0.025 A 
ATOM     13  C   UNL     1       3.796   4.965 -24.254  1.00  0.00     0.161 A 
ATOM     14  C   UNL     1       4.859   5.487 -23.504  1.00  0.00     0.157 A 
ATOM     15  C   UNL     1       3.681   3.570 -24.409  1.00  0.00     0.062 A 
ATOM     16  C   UNL     1       5.791   4.626 -22.913  1.00  0.00     0.051 A 
ATOM     17  C   UNL     1       5.673   3.244 -23.070  1.00  0.00     0.016 A 
BRANCH  13  18
ATOM     18  O   UNL     1       2.877   5.860 -24.825  1.00  0.00    -0.493 OA
ATOM     19  C   UNL     1       1.741   5.471 -25.589  1.00  0.00     0.278 C 
ENDBRANCH  13  18
BRANCH  14  20
ATOM     20  O   UNL     1       4.979   6.868 -23.348  1.00  0.00    -0.504 OA
ATOM     21  H   UNL     1       5.342   7.455 -24.089  1.00  0.00     0.293 HD
ENDBRANCH  14  20
ENDBRANCH   1  12
BRANCH   2  22
ATOM     22  O   UNL     1       5.612   1.246 -26.136  1.00  0.00    -0.502 OA
ATOM     23  H   UNL     1       6.028   0.779 -26.933  1.00  0.00     0.293 HD
ENDBRANCH   2  22
BRANCH   6  24
ATOM     24  O   UNL     1       4.528  -3.840 -24.982  1.00  0.00    -0.507 OA
ATOM     25  H   UNL     1       5.321  -4.430 -24.779  1.00  0.00     0.293 HD
ENDBRANCH   6  24
BRANCH   8  26
ATOM     26  O   UNL     1       1.855  -3.284 -21.052  1.00  0.00    -0.508 OA
ATOM     27  H   UNL     1       1.910  -2.968 -20.092  1.00  0.00     0.293 HD
ENDBRANCH   8  26
TORSDOF 6
ENDMDL
MODEL 3
REMARK VINA RESULT:    -6.889      1.606      7.393
REMARK INTER + INTRA:          -8.896
REMARK INTER:                  -8.543
REMARK INTRA:                  -0.354
REMARK UNBOUND:                -0.397
REMARK SMILES COc1cc(-c2oc3cc(O)cc(O)c3c(=O)c2O)ccc1O
REMARK SMILES IDX 6 1 18 2 16 3 17 4 15 5 13 6 12 7 10 8 9 9 8 10 7 11 5 12
REMARK SMILES IDX 3 13 22 14 4 15 21 16 20 17 2 18 1 19 23 20 19 22 14 24
REMARK SMILES IDX 11 26
REMARK H PARENT 23 21 19 23 14 25 11 27
REMARK Flexibility Score: inf
ROOT
ATOM      1  C   UNL     1       3.742   0.750 -24.268  1.00  0.00     0.180 A 
ATOM      2  C   UNL     1       3.185   1.234 -25.465  1.00  0.00     0.208 A 
ATOM      3  C   UNL     1       3.291   2.602 -25.760  1.00  0.00     0.238 A 
ATOM      4  O   UNL     1       2.838   3.022 -26.857  1.00  0.00    -0.285 OA
ATOM      5  C   UNL     1       3.939   3.472 -24.849  1.00  0.00     0.111 A 
ATOM      6  C   UNL     1       4.070   4.882 -25.026  1.00  0.00     0.134 A 
ATOM      7  C   UNL     1       4.843   5.623 -24.125  1.00  0.00     0.093 A 
ATOM      8  C   UNL     1       5.436   5.018 -23.018  1.00  0.00     0.123 A 
ATOM      9  C   UNL     1       5.266   3.650 -22.801  1.00  0.00     0.094 A 
ATOM     10  C   UNL     1       4.530   2.877 -23.702  1.00  0.00     0.146 A 
ATOM     11  O   UNL     1       4.400   1.577 -23.466  1.00  0.00    -0.452 OA
ENDROOT
BRANCH   1  12
ATOM     12  C   UNL     1       3.649  -0.676 -23.877  1.00  0.00     0.025 A 
ATOM     13  C   UNL     1       2.321  -2.529 -22.994  1.00  0.00     0.161 A 
ATOM     14  C   UNL     1       3.412  -3.390 -23.178  1.00  0.00     0.157 A 
ATOM     15  C   UNL     1       2.444  -1.173 -23.353  1.00  0.00     0.062 A 
ATOM     16  C   UNL     1       4.608  -2.903 -23.718  1.00  0.00     0.051 A 
ATOM     17  C   UNL     1       4.725  -1.557 -24.072  1.00  0.00     0.016 A 
BRANCH  13  18
ATOM     18  O   UNL     1       1.135  -3.057 -22.457  1.00  0.00    -0.493 OA
ATOM     19  C   UNL     1       0.035  -3.520 -23.232  1.00  0.00     0.278 C 
ENDBRANCH  13  18
BRANCH  14  20
ATOM     20  O   UNL     1       3.297  -4.733 -22.823  1.00  0.00    -0.504 OA
ATOM     21  H   UNL     1       4.014  -5.202 -22.283  1.00  0.00     0.293 HD
ENDBRANCH  14  20
ENDBRANCH   1  12
BRANCH   2  22
ATOM     22  O   UNL     1       2.569   0.355 -26.360  1.00  0.00    -0.502 OA
ATOM     23  H   UNL     1       1.665  -0.064 -26.175  1.00  0.00     0.293 HD
ENDBRANCH   2  22
BRANCH   6  24
ATOM     24  O   UNL     1       3.441   5.601 -26.047  1.00  0.00    -0.507 OA
ATOM     25  H   UNL     1       3.031   5.190 -26.872  1.00  0.00     0.293 HD
ENDBRANCH   6  24
BRANCH   8  26
ATOM     26  O   UNL     1       6.187   5.788 -22.133  1.00  0.00    -0.508 OA
ATOM     27  H   UNL     1       5.745   6.377 -21.436  1.00  0.00     0.293 HD
ENDBRANCH   8  26
TORSDOF 6
ENDMDL
MODEL 4
REMARK VINA RESULT:    -6.866      1.497      7.173
REMARK INTER + INTRA:          -8.869
REMARK INTER:                  -8.513
REMARK INTRA:                  -0.356
REMARK UNBOUND:                -0.397
REMARK SMILES COc1cc(-c2oc3cc(O)cc(O)c3c(=O)c2O)ccc1O
REMARK SMILES IDX 6 1 18 2 16 3 17 4 15 5 13 6 12 7 10 8 9 9 8 10 7 11 5 12
REMARK SMILES IDX 3 13 22 14 4 15 21 16 20 17 2 18 1 19 23 20 19 22 14 24
REMARK SMILES IDX 11 26
REMARK H PARENT 23 21 19 23 14 25 11 27
REMARK Flexibility Score: inf
ROOT
ATOM      1  C   UNL     1       4.165   0.872 -23.634  1.00  0.00     0.180 A 
ATOM      2  C   UNL     1       4.368   1.731 -22.539  1.00  0.00     0.208 A 
ATOM      3  C   UNL     1       4.586   3.097 -22.778  1.00  0.00     0.238 A 
ATOM      4  O   UNL     1       4.714   3.870 -21.793  1.00  0.00    -0.285 OA
ATOM      5  C   UNL     1       4.612   3.586 -24.107  1.00  0.00     0.111 A 
ATOM      6  C   UNL     1       4.864   4.944 -24.467  1.00  0.00     0.134 A 
ATOM      7  C   UNL     1       4.738   5.338 -25.805  1.00  0.00     0.093 A 
ATOM      8  C   UNL     1       4.433   4.414 -26.802  1.00  0.00     0.123 A 
ATOM      9  C   UNL     1       4.244   3.072 -26.470  1.00  0.00     0.094 A 
ATOM     10  C   UNL     1       4.327   2.654 -25.140  1.00  0.00     0.146 A 
ATOM     11  O   UNL     1       4.130   1.370 -24.864  1.00  0.00    -0.452 OA
ENDROOT
BRANCH   1  12
ATOM     12  C   UNL     1       3.953  -0.584 -23.464  1.00  0.00     0.025 A 
ATOM     13  C   UNL     1       2.447  -2.442 -22.957  1.00  0.00     0.161 A 
ATOM     14  C   UNL     1       3.494  -3.345 -23.191  1.00  0.00     0.157 A 
ATOM     15  C   UNL     1       2.682  -1.061 -23.103  1.00  0.00     0.062 A 
ATOM     16  C   UNL     1       4.757  -2.875 -23.570  1.00  0.00     0.051 A 
ATOM     17  C   UNL     1       4.984  -1.504 -23.713  1.00  0.00     0.016 A 
BRANCH  13  18
ATOM     18  O   UNL     1       1.193  -2.953 -22.585  1.00  0.00    -0.493 OA
ATOM     19  C   UNL     1       0.120  -3.192 -23.489  1.00  0.00     0.278 C 
ENDBRANCH  13  18
BRANCH  14  20
ATOM     20  O   UNL     1       3.268  -4.714 -23.047  1.00  0.00    -0.504 OA
ATOM     21  H   UNL     1       3.746  -5.258 -22.338  1.00  0.00     0.293 HD
ENDBRANCH  14  20
ENDBRANCH   1  12
BRANCH   2  22
ATOM     22  O   UNL     1       4.316   1.232 -21.235  1.00  0.00    -0.502 OA
ATOM     23  H   UNL     1       4.905   1.590 -20.492  1.00  0.00     0.293 HD
ENDBRANCH   2  22
BRANCH   6  24
ATOM     24  O   UNL     1       5.266   5.929 -23.561  1.00  0.00    -0.507 OA
ATOM     25  H   UNL     1       5.466   5.767 -22.586  1.00  0.00     0.293 HD
ENDBRANCH   6  24
BRANCH   8  26
ATOM     26  O   UNL     1       4.330   4.838 -28.125  1.00  0.00    -0.508 OA
ATOM     27  H   UNL     1       3.526   5.358 -28.455  1.00  0.00     0.293 HD
ENDBRANCH   8  26
TORSDOF 6
ENDMDL
MODEL 5
REMARK VINA RESULT:    -6.764      2.083      3.115
REMARK INTER + INTRA:          -8.743
REMARK INTER:                  -8.371
REMARK INTRA:                  -0.372
REMARK UNBOUND:                -0.397
REMARK SMILES COc1cc(-c2oc3cc(O)cc(O)c3c(=O)c2O)ccc1O
REMARK SMILES IDX 6 1 18 2 16 3 17 4 15 5 13 6 12 7 10 8 9 9 8 10 7 11 5 12
REMARK SMILES IDX 3 13 22 14 4 15 21 16 20 17 2 18 1 19 23 20 19 22 14 24
REMARK SMILES IDX 11 26
REMARK H PARENT 23 21 19 23 14 25 11 27
REMARK Flexibility Score: inf
ROOT
ATOM      1  C   UNL     1       3.901   1.348 -24.880  1.00  0.00     0.180 A 
ATOM      2  C   UNL     1       4.631   0.642 -25.852  1.00  0.00     0.208 A 
ATOM      3  C   UNL     1       4.776  -0.748 -25.717  1.00  0.00     0.238 A 
ATOM      4  O   UNL     1       5.385  -1.382 -26.618  1.00  0.00    -0.285 OA
ATOM      5  C   UNL     1       4.204  -1.412 -24.605  1.00  0.00     0.111 A 
ATOM      6  C   UNL     1       4.323  -2.811 -24.346  1.00  0.00     0.134 A 
ATOM      7  C   UNL     1       3.607  -3.381 -23.286  1.00  0.00     0.093 A 
ATOM      8  C   UNL     1       2.830  -2.594 -22.437  1.00  0.00     0.123 A 
ATOM      9  C   UNL     1       2.754  -1.217 -22.645  1.00  0.00     0.094 A 
ATOM     10  C   UNL     1       3.428  -0.624 -23.715  1.00  0.00     0.146 A 
ATOM     11  O   UNL     1       3.321   0.689 -23.884  1.00  0.00    -0.452 OA
ENDROOT
BRANCH   1  12
ATOM     12  C   UNL     1       3.724   2.818 -24.940  1.00  0.00     0.025 A 
ATOM     13  C   UNL     1       4.478   5.052 -24.297  1.00  0.00     0.161 A 
ATOM     14  C   UNL     1       3.460   5.614 -25.079  1.00  0.00     0.157 A 
ATOM     15  C   UNL     1       4.609   3.651 -24.238  1.00  0.00     0.062 A 
ATOM     16  C   UNL     1       2.588   4.787 -25.797  1.00  0.00     0.051 A 
ATOM     17  C   UNL     1       2.722   3.399 -25.735  1.00  0.00     0.016 A 
BRANCH  13  18
ATOM     18  O   UNL     1       5.338   5.915 -23.597  1.00  0.00    -0.493 OA
ATOM     19  C   UNL     1       6.131   5.530 -22.479  1.00  0.00     0.278 C 
ENDBRANCH  13  18
BRANCH  14  20
ATOM     20  O   UNL     1       3.324   7.001 -25.140  1.00  0.00    -0.504 OA
ATOM     21  H   UNL     1       3.937   7.617 -24.621  1.00  0.00     0.293 HD
ENDBRANCH  14  20
ENDBRANCH   1  12
BRANCH   2  22
ATOM     22  O   UNL     1       5.168   1.314 -26.953  1.00  0.00    -0.502 OA
ATOM     23  H   UNL     1       4.588   1.749 -27.661  1.00  0.00     0.293 HD
ENDBRANCH   2  22
BRANCH   6  24
ATOM     24  O   UNL     1       5.147  -3.672 -25.077  1.00  0.00    -0.507 OA
ATOM     25  H   UNL     1       4.992  -3.938 -26.038  1.00  0.00     0.293 HD
ENDBRANCH   6  24
BRANCH   8  26
ATOM     26  O   UNL     1       2.144  -3.192 -21.383  1.00  0.00    -0.508 OA
ATOM     27  H   UNL     1       1.707  -4.101 -21.481  1.00  0.00     0.293 HD
ENDBRANCH   8  26
TORSDOF 6
ENDMDL
MODEL 6
REMARK VINA RESULT:    -6.647      1.828      7.134
REMARK INTER + INTRA:          -8.598
REMARK INTER:                  -8.282
REMARK INTRA:                  -0.316
REMARK UNBOUND:                -0.397
REMARK SMILES COc1cc(-c2oc3cc(O)cc(O)c3c(=O)c2O)ccc1O
REMARK SMILES IDX 6 1 18 2 16 3 17 4 15 5 13 6 12 7 10 8 9 9 8 10 7 11 5 12
REMARK SMILES IDX 3 13 22 14 4 15 21 16 20 17 2 18 1 19 23 20 19 22 14 24
REMARK SMILES IDX 11 26
REMARK H PARENT 23 21 19 23 14 25 11 27
REMARK Flexibility Score: inf
ROOT
ATOM      1  C   UNL     1       4.035   1.297 -23.464  1.00  0.00     0.180 A 
ATOM      2  C   UNL     1       4.160   2.120 -22.330  1.00  0.00     0.208 A 
ATOM      3  C   UNL     1       4.338   3.501 -22.509  1.00  0.00     0.238 A 
ATOM      4  O   UNL     1       4.395   4.239 -21.491  1.00  0.00    -0.285 OA
ATOM      5  C   UNL     1       4.406   4.041 -23.816  1.00  0.00     0.111 A 
ATOM      6  C   UNL     1       4.624   5.419 -24.115  1.00  0.00     0.134 A 
ATOM      7  C   UNL     1       4.543   5.860 -25.441  1.00  0.00     0.093 A 
ATOM      8  C   UNL     1       4.316   4.965 -26.485  1.00  0.00     0.123 A 
ATOM      9  C   UNL     1       4.160   3.606 -26.211  1.00  0.00     0.094 A 
ATOM     10  C   UNL     1       4.201   3.140 -24.894  1.00  0.00     0.146 A 
ATOM     11  O   UNL     1       4.037   1.841 -24.675  1.00  0.00    -0.452 OA
ENDROOT
BRANCH   1  12
ATOM     12  C   UNL     1       3.869  -0.171 -23.357  1.00  0.00     0.025 A 
ATOM     13  C   UNL     1       4.835  -2.411 -23.515  1.00  0.00     0.161 A 
ATOM     14  C   UNL     1       3.612  -2.960 -23.108  1.00  0.00     0.157 A 
ATOM     15  C   UNL     1       4.959  -1.013 -23.631  1.00  0.00     0.062 A 
ATOM     16  C   UNL     1       2.528  -2.123 -22.815  1.00  0.00     0.051 A 
ATOM     17  C   UNL     1       2.656  -0.738 -22.931  1.00  0.00     0.016 A 
BRANCH  13  18
ATOM     18  O   UNL     1       5.901  -3.283 -23.792  1.00  0.00    -0.493 OA
ATOM     19  C   UNL     1       6.635  -3.296 -25.012  1.00  0.00     0.278 C 
ENDBRANCH  13  18
BRANCH  14  20
ATOM     20  O   UNL     1       3.482  -4.344 -22.992  1.00  0.00    -0.504 OA
ATOM     21  H   UNL     1       4.001  -4.977 -23.589  1.00  0.00     0.293 HD
ENDBRANCH  14  20
ENDBRANCH   1  12
BRANCH   2  22
ATOM     22  O   UNL     1       4.068   1.570 -21.049  1.00  0.00    -0.502 OA
ATOM     23  H   UNL     1       4.594   1.933 -20.263  1.00  0.00     0.293 HD
ENDBRANCH   2  22
BRANCH   6  24
ATOM     24  O   UNL     1       4.950   6.383 -23.155  1.00  0.00    -0.507 OA
ATOM     25  H   UNL     1       4.425   7.227 -22.987  1.00  0.00     0.293 HD
ENDBRANCH   6  24
BRANCH   8  26
ATOM     26  O   UNL     1       4.257   5.436 -27.794  1.00  0.00    -0.508 OA
ATOM     27  H   UNL     1       3.470   5.229 -28.397  1.00  0.00     0.293 HD
ENDBRANCH   8  26
TORSDOF 6
ENDMDL
MODEL 7
REMARK VINA RESULT:    -6.558      2.058      7.326
REMARK INTER + INTRA:          -8.489
REMARK INTER:                  -8.106
REMARK INTRA:                  -0.383
REMARK UNBOUND:                -0.397
REMARK SMILES COc1cc(-c2oc3cc(O)cc(O)c3c(=O)c2O)ccc1O
REMARK SMILES IDX 6 1 18 2 16 3 17 4 15 5 13 6 12 7 10 8 9 9 8 10 7 11 5 12
REMARK SMILES IDX 3 13 22 14 4 15 21 16 20 17 2 18 1 19 23 20 19 22 14 24
REMARK SMILES IDX 11 26
REMARK H PARENT 23 21 19 23 14 25 11 27
REMARK Flexibility Score: inf
ROOT
ATOM      1  C   UNL     1       3.765   1.120 -24.328  1.00  0.00     0.180 A 
ATOM      2  C   UNL     1       3.172   1.635 -25.494  1.00  0.00     0.208 A 
ATOM      3  C   UNL     1       3.273   3.010 -25.757  1.00  0.00     0.238 A 
ATOM      4  O   UNL     1       2.787   3.458 -26.829  1.00  0.00    -0.285 OA
ATOM      5  C   UNL     1       3.950   3.855 -24.845  1.00  0.00     0.111 A 
ATOM      6  C   UNL     1       4.078   5.270 -24.990  1.00  0.00     0.134 A 
ATOM      7  C   UNL     1       4.880   5.987 -24.094  1.00  0.00     0.093 A 
ATOM      8  C   UNL     1       5.505   5.352 -23.022  1.00  0.00     0.123 A 
ATOM      9  C   UNL     1       5.339   3.980 -22.835  1.00  0.00     0.094 A 
ATOM     10  C   UNL     1       4.574   3.231 -23.732  1.00  0.00     0.146 A 
ATOM     11  O   UNL     1       4.449   1.926 -23.525  1.00  0.00    -0.452 OA
ENDROOT
BRANCH   1  12
ATOM     12  C   UNL     1       3.681  -0.316 -23.970  1.00  0.00     0.025 A 
ATOM     13  C   UNL     1       4.582  -2.581 -24.149  1.00  0.00     0.161 A 
ATOM     14  C   UNL     1       3.594  -3.037 -23.266  1.00  0.00     0.157 A 
ATOM     15  C   UNL     1       4.625  -1.215 -24.492  1.00  0.00     0.062 A 
ATOM     16  C   UNL     1       2.664  -2.140 -22.728  1.00  0.00     0.051 A 
ATOM     17  C   UNL     1       2.710  -0.787 -23.071  1.00  0.00     0.016 A 
BRANCH  13  18
ATOM     18  O   UNL     1       5.502  -3.510 -24.662  1.00  0.00    -0.493 OA
ATOM     19  C   UNL     1       6.905  -3.289 -24.753  1.00  0.00     0.278 C 
ENDBRANCH  13  18
BRANCH  14  20
ATOM     20  O   UNL     1       3.545  -4.388 -22.925  1.00  0.00    -0.504 OA
ATOM     21  H   UNL     1       3.760  -5.114 -23.598  1.00  0.00     0.293 HD
ENDBRANCH  14  20
ENDBRANCH   1  12
BRANCH   2  22
ATOM     22  O   UNL     1       2.527   0.780 -26.392  1.00  0.00    -0.502 OA
ATOM     23  H   UNL     1       1.558   0.506 -26.281  1.00  0.00     0.293 HD
ENDBRANCH   2  22
BRANCH   6  24
ATOM     24  O   UNL     1       3.420   6.015 -25.973  1.00  0.00    -0.507 OA
ATOM     25  H   UNL     1       3.386   7.022 -26.005  1.00  0.00     0.293 HD
ENDBRANCH   6  24
BRANCH   8  26
ATOM     26  O   UNL     1       6.284   6.099 -22.141  1.00  0.00    -0.508 OA
ATOM     27  H   UNL     1       6.923   5.657 -21.492  1.00  0.00     0.293 HD
ENDBRANCH   8  26
TORSDOF 6
ENDMDL
MODEL 8
REMARK VINA RESULT:    -6.499      1.195      2.179
REMARK INTER + INTRA:          -8.416
REMARK INTER:                  -8.113
REMARK INTRA:                  -0.303
REMARK UNBOUND:                -0.397
REMARK SMILES COc1cc(-c2oc3cc(O)cc(O)c3c(=O)c2O)ccc1O
REMARK SMILES IDX 6 1 18 2 16 3 17 4 15 5 13 6 12 7 10 8 9 9 8 10 7 11 5 12
REMARK SMILES IDX 3 13 22 14 4 15 21 16 20 17 2 18 1 19 23 20 19 22 14 24
REMARK SMILES IDX 11 26
REMARK H PARENT 23 21 19 23 14 25 11 27
REMARK Flexibility Score: inf
ROOT
ATOM      1  C   UNL     1       3.127  -0.274 -24.549  1.00  0.00     0.180 A 
ATOM      2  C   UNL     1       4.237  -1.111 -24.337  1.00  0.00     0.208 A 
ATOM      3  C   UNL     1       4.024  -2.420 -23.878  1.00  0.00     0.238 A 
ATOM      4  O   UNL     1       5.016  -3.182 -23.742  1.00  0.00    -0.285 OA
ATOM      5  C   UNL     1       2.706  -2.873 -23.623  1.00  0.00     0.111 A 
ATOM      6  C   UNL     1       2.376  -4.167 -23.118  1.00  0.00     0.134 A 
ATOM      7  C   UNL     1       1.033  -4.550 -23.026  1.00  0.00     0.093 A 
ATOM      8  C   UNL     1       0.007  -3.667 -23.359  1.00  0.00     0.123 A 
ATOM      9  C   UNL     1       0.317  -2.378 -23.797  1.00  0.00     0.094 A 
ATOM     10  C   UNL     1       1.648  -1.978 -23.933  1.00  0.00     0.146 A 
ATOM     11  O   UNL     1       1.900  -0.748 -24.363  1.00  0.00    -0.452 OA
ENDROOT
BRANCH   1  12
ATOM     12  C   UNL     1       3.272   1.127 -25.008  1.00  0.00     0.025 A 
ATOM     13  C   UNL     1       3.950   3.429 -24.544  1.00  0.00     0.161 A 
ATOM     14  C   UNL     1       3.622   3.784 -25.860  1.00  0.00     0.157 A 
ATOM     15  C   UNL     1       3.780   2.095 -24.126  1.00  0.00     0.062 A 
ATOM     16  C   UNL     1       3.134   2.817 -26.748  1.00  0.00     0.051 A 
ATOM     17  C   UNL     1       2.967   1.496 -26.329  1.00  0.00     0.016 A 
BRANCH  13  18
ATOM     18  O   UNL     1       4.444   4.425 -23.686  1.00  0.00    -0.493 OA
ATOM     19  C   UNL     1       4.426   4.346 -22.265  1.00  0.00     0.278 C 
ENDBRANCH  13  18
BRANCH  14  20
ATOM     20  O   UNL     1       3.786   5.104 -26.279  1.00  0.00    -0.504 OA
ATOM     21  H   UNL     1       3.733   5.360 -27.258  1.00  0.00     0.293 HD
ENDBRANCH  14  20
ENDBRANCH   1  12
BRANCH   2  22
ATOM     22  O   UNL     1       5.526  -0.651 -24.616  1.00  0.00    -0.502 OA
ATOM     23  H   UNL     1       6.246  -1.252 -24.999  1.00  0.00     0.293 HD
ENDBRANCH   2  22
BRANCH   6  24
ATOM     24  O   UNL     1       3.322  -5.093 -22.670  1.00  0.00    -0.507 OA
ATOM     25  H   UNL     1       4.267  -4.866 -22.402  1.00  0.00     0.293 HD
ENDBRANCH   6  24
BRANCH   8  26
ATOM     26  O   UNL     1      -1.319  -4.076 -23.241  1.00  0.00    -0.508 OA
ATOM     27  H   UNL     1      -1.730  -4.736 -23.891  1.00  0.00     0.293 HD
ENDBRANCH   8  26
TORSDOF 6
ENDMDL
MODEL 9
REMARK VINA RESULT:    -6.466      2.408      3.567
REMARK INTER + INTRA:          -8.374
REMARK INTER:                  -7.975
REMARK INTRA:                  -0.399
REMARK UNBOUND:                -0.397
REMARK SMILES COc1cc(-c2oc3cc(O)cc(O)c3c(=O)c2O)ccc1O
REMARK SMILES IDX 6 1 18 2 16 3 17 4 15 5 13 6 12 7 10 8 9 9 8 10 7 11 5 12
REMARK SMILES IDX 3 13 22 14 4 15 21 16 20 17 2 18 1 19 23 20 19 22 14 24
REMARK SMILES IDX 11 26
REMARK H PARENT 23 21 19 23 14 25 11 27
REMARK Flexibility Score: inf
ROOT
ATOM      1  C   UNL     1       4.597   2.045 -23.708  1.00  0.00     0.180 A 
ATOM      2  C   UNL     1       4.108   1.246 -22.658  1.00  0.00     0.208 A 
ATOM      3  C   UNL     1       3.799  -0.099 -22.915  1.00  0.00     0.238 A 
ATOM      4  O   UNL     1       3.413  -0.823 -21.960  1.00  0.00    -0.285 OA
ATOM      5  C   UNL     1       3.967  -0.625 -24.219  1.00  0.00     0.111 A 
ATOM      6  C   UNL     1       3.648  -1.963 -24.601  1.00  0.00     0.134 A 
ATOM      7  C   UNL     1       3.977  -2.411 -25.886  1.00  0.00     0.093 A 
ATOM      8  C   UNL     1       4.553  -1.554 -26.822  1.00  0.00     0.123 A 
ATOM      9  C   UNL     1       4.815  -0.228 -26.478  1.00  0.00     0.094 A 
ATOM     10  C   UNL     1       4.531   0.240 -25.193  1.00  0.00     0.146 A 
ATOM     11  O   UNL     1       4.806   1.506 -24.903  1.00  0.00    -0.452 OA
ENDROOT
BRANCH   1  12
ATOM     12  C   UNL     1       4.922   3.478 -23.521  1.00  0.00     0.025 A 
ATOM     13  C   UNL     1       4.213   5.817 -23.576  1.00  0.00     0.161 A 
ATOM     14  C   UNL     1       5.480   6.205 -23.120  1.00  0.00     0.157 A 
ATOM     15  C   UNL     1       3.937   4.449 -23.767  1.00  0.00     0.062 A 
ATOM     16  C   UNL     1       6.458   5.238 -22.854  1.00  0.00     0.051 A 
ATOM     17  C   UNL     1       6.180   3.884 -23.046  1.00  0.00     0.016 A 
BRANCH  13  18
ATOM     18  O   UNL     1       3.256   6.815 -23.823  1.00  0.00    -0.493 OA
ATOM     19  C   UNL     1       2.824   7.213 -25.120  1.00  0.00     0.278 C 
ENDBRANCH  13  18
BRANCH  14  20
ATOM     20  O   UNL     1       5.760   7.558 -22.930  1.00  0.00    -0.504 OA
ATOM     21  H   UNL     1       5.401   8.267 -23.558  1.00  0.00     0.293 HD
ENDBRANCH  14  20
ENDBRANCH   1  12
BRANCH   2  22
ATOM     22  O   UNL     1       3.970   1.780 -21.374  1.00  0.00    -0.502 OA
ATOM     23  H   UNL     1       3.568   1.254 -20.607  1.00  0.00     0.293 HD
ENDBRANCH   2  22
BRANCH   6  24
ATOM     24  O   UNL     1       2.987  -2.874 -23.772  1.00  0.00    -0.507 OA
ATOM     25  H   UNL     1       1.989  -3.020 -23.758  1.00  0.00     0.293 HD
ENDBRANCH   6  24
BRANCH   8  26
ATOM     26  O   UNL     1       4.853  -2.029 -28.097  1.00  0.00    -0.508 OA
ATOM     27  H   UNL     1       5.025  -1.399 -28.871  1.00  0.00     0.293 HD
ENDBRANCH   8  26
TORSDOF 6
ENDMDL
