MODEL 1
REMARK VINA RESULT:    -4.790      0.000      0.000
REMARK INTER + INTRA:         -10.487
REMARK INTER:                  -9.271
REMARK INTRA:                  -1.216
REMARK UNBOUND:                -1.216
REMARK SMILES CCCCCCCCCCCCCCCCCC(=O)[O-]
REMARK SMILES IDX 10 1 11 2 12 3 13 4 14 5 15 6 16 7 17 8 18 9 19 10 20 11
REMARK SMILES IDX 9 12 8 13 7 14 6 15 5 16 4 17 3 18 2 19 1 20
REMARK H PARENT
REMARK Flexibility Score: inf
ROOT
ATOM      1  C   UNL     1       4.767   9.429   7.796  1.00  0.00     0.000 C 
ENDROOT
BRANCH   1   2
ATOM      2  C   UNL     1       3.330   9.588   8.323  1.00  0.00     0.000 C 
BRANCH   2   3
ATOM      3  C   UNL     1       3.246  10.341   9.668  1.00  0.00     0.000 C 
BRANCH   3   4
ATOM      4  C   UNL     1       2.660  11.756   9.506  1.00  0.00     0.000 C 
BRANCH   4   5
ATOM      5  C   UNL     1       1.169  11.820   9.873  1.00  0.00     0.000 C 
BRANCH   5   6
ATOM      6  C   UNL     1       0.444  12.991   9.187  1.00  0.00     0.000 C 
BRANCH   6   7
ATOM      7  C   UNL     1      -1.085  12.891   9.312  1.00  0.00     0.006 C 
BRANCH   7   8
ATOM      8  C   UNL     1      -1.803  13.124   7.976  1.00  0.00     0.053 C 
BRANCH   8   9
ATOM      9  C   UNL     1      -3.266  12.849   8.116  1.00  0.00     0.041 C 
ATOM     10  O   UNL     1      -3.718  12.354   9.181  1.00  0.00    -0.550 OA
ATOM     11  O   UNL     1      -4.125  13.093   7.051  1.00  0.00    -0.550 OA
ENDBRANCH   8   9
ENDBRANCH   7   8
ENDBRANCH   6   7
ENDBRANCH   5   6
ENDBRANCH   4   5
ENDBRANCH   3   4
ENDBRANCH   2   3
ENDBRANCH   1   2
BRANCH   1  12
ATOM     12  C   UNL     1       5.674  10.611   8.168  1.00  0.00     0.000 C 
BRANCH  12  13
ATOM     13  C   UNL     1       5.885  11.541   6.967  1.00  0.00    -0.000 C 
BRANCH  13  14
ATOM     14  C   UNL     1       5.432  10.868   5.664  1.00  0.00    -0.000 C 
BRANCH  14  15
ATOM     15  C   UNL     1       5.759  11.711   4.421  1.00  0.00    -0.000 C 
BRANCH  15  16
ATOM     16  C   UNL     1       6.861  12.749   4.688  1.00  0.00    -0.000 C 
BRANCH  16  17
ATOM     17  C   UNL     1       8.260  12.252   4.281  1.00  0.00    -0.000 C 
BRANCH  17  18
ATOM     18  C   UNL     1       9.406  12.725   5.196  1.00  0.00    -0.000 C 
BRANCH  18  19
ATOM     19  C   UNL     1       9.807  11.678   6.246  1.00  0.00    -0.003 C 
ATOM     20  C   UNL     1       9.446  12.146   7.653  1.00  0.00     0.004 C 
ENDBRANCH  18  19
ENDBRANCH  17  18
ENDBRANCH  16  17
ENDBRANCH  15  16
ENDBRANCH  14  15
ENDBRANCH  13  14
ENDBRANCH  12  13
ENDBRANCH   1  12
TORSDOF 16
ENDMDL
MODEL 2
REMARK VINA RESULT:    -4.667      1.145      2.217
REMARK INTER + INTRA:         -10.248
REMARK INTER:                  -9.513
REMARK INTRA:                  -0.735
REMARK UNBOUND:                -1.216
REMARK SMILES CCCCCCCCCCCCCCCCCC(=O)[O-]
REMARK SMILES IDX 10 1 11 2 12 3 13 4 14 5 15 6 16 7 17 8 18 9 19 10 20 11
REMARK SMILES IDX 9 12 8 13 7 14 6 15 5 16 4 17 3 18 2 19 1 20
REMARK H PARENT
REMARK Flexibility Score: inf
ROOT
ATOM      1  C   UNL     1       4.019  10.701   7.481  1.00  0.00     0.000 C 
ENDROOT
BRANCH   1   2
ATOM      2  C   UNL     1       3.978   9.863   8.771  1.00  0.00     0.000 C 
BRANCH   2   3
ATOM      3  C   UNL     1       2.814  10.237   9.713  1.00  0.00     0.000 C 
BRANCH   3   4
ATOM      4  C   UNL     1       1.736  11.074   9.001  1.00  0.00     0.000 C 
BRANCH   4   5
ATOM      5  C   UNL     1       0.856  11.860   9.985  1.00  0.00     0.000 C 
BRANCH   5   6
ATOM      6  C   UNL     1       0.112  13.025   9.310  1.00  0.00     0.000 C 
BRANCH   6   7
ATOM      7  C   UNL     1      -0.985  12.543   8.346  1.00  0.00     0.006 C 
BRANCH   7   8
ATOM      8  C   UNL     1      -2.371  13.097   8.704  1.00  0.00     0.053 C 
BRANCH   8   9
ATOM      9  C   UNL     1      -3.428  12.415   7.898  1.00  0.00     0.041 C 
ATOM     10  O   UNL     1      -4.437  13.057   7.504  1.00  0.00    -0.550 OA
ATOM     11  O   UNL     1      -3.326  11.056   7.623  1.00  0.00    -0.550 OA
ENDBRANCH   8   9
ENDBRANCH   7   8
ENDBRANCH   6   7
ENDBRANCH   5   6
ENDBRANCH   4   5
ENDBRANCH   3   4
ENDBRANCH   2   3
ENDBRANCH   1   2
BRANCH   1  12
ATOM     12  C   UNL     1       4.933  11.929   7.593  1.00  0.00     0.000 C 
BRANCH  12  13
ATOM     13  C   UNL     1       5.483  12.076   9.018  1.00  0.00    -0.000 C 
BRANCH  13  14
ATOM     14  C   UNL     1       7.007  12.257   9.004  1.00  0.00    -0.000 C 
BRANCH  14  15
ATOM     15  C   UNL     1       7.583  12.283   7.579  1.00  0.00    -0.000 C 
BRANCH  15  16
ATOM     16  C   UNL     1       8.886  11.474   7.456  1.00  0.00    -0.000 C 
BRANCH  16  17
ATOM     17  C   UNL     1       9.608  11.707   6.117  1.00  0.00    -0.000 C 
BRANCH  17  18
ATOM     18  C   UNL     1       8.933  12.733   5.187  1.00  0.00    -0.000 C 
BRANCH  18  19
ATOM     19  C   UNL     1       7.966  12.088   4.183  1.00  0.00    -0.003 C 
ATOM     20  C   UNL     1       6.525  12.506   4.463  1.00  0.00     0.004 C 
ENDBRANCH  18  19
ENDBRANCH  17  18
ENDBRANCH  16  17
ENDBRANCH  15  16
ENDBRANCH  14  15
ENDBRANCH  13  14
ENDBRANCH  12  13
ENDBRANCH   1  12
TORSDOF 16
ENDMDL
MODEL 3
REMARK VINA RESULT:    -4.304      4.489      8.663
REMARK INTER + INTRA:          -9.547
REMARK INTER:                  -7.618
REMARK INTRA:                  -1.929
REMARK UNBOUND:                -1.216
REMARK SMILES CCCCCCCCCCCCCCCCCC(=O)[O-]
REMARK SMILES IDX 10 1 11 2 12 3 13 4 14 5 15 6 16 7 17 8 18 9 19 10 20 11
REMARK SMILES IDX 9 12 8 13 7 14 6 15 5 16 4 17 3 18 2 19 1 20
REMARK H PARENT
REMARK Flexibility Score: inf
ROOT
ATOM      1  C   UNL     1       5.716  10.886   6.164  1.00  0.00     0.000 C 
ENDROOT
BRANCH   1   2
ATOM      2  C   UNL     1       5.677  12.423   6.110  1.00  0.00     0.000 C 
BRANCH   2   3
ATOM      3  C   UNL     1       6.673  13.100   7.076  1.00  0.00     0.000 C 
BRANCH   3   4
ATOM      4  C   UNL     1       7.418  12.077   7.953  1.00  0.00     0.000 C 
BRANCH   4   5
ATOM      5  C   UNL     1       8.712  12.649   8.554  1.00  0.00     0.000 C 
BRANCH   5   6
ATOM      6  C   UNL     1       9.945  12.358   7.681  1.00  0.00     0.000 C 
BRANCH   6   7
ATOM      7  C   UNL     1       9.816  12.944   6.265  1.00  0.00     0.006 C 
BRANCH   7   8
ATOM      8  C   UNL     1       9.855  11.866   5.175  1.00  0.00     0.053 C 
BRANCH   8   9
ATOM      9  C   UNL     1       9.350  12.416   3.880  1.00  0.00     0.041 C 
ATOM     10  O   UNL     1      10.125  13.053   3.119  1.00  0.00    -0.550 OA
ATOM     11  O   UNL     1       8.012  12.271   3.536  1.00  0.00    -0.550 OA
ENDBRANCH   8   9
ENDBRANCH   7   8
ENDBRANCH   6   7
ENDBRANCH   5   6
ENDBRANCH   4   5
ENDBRANCH   3   4
ENDBRANCH   2   3
ENDBRANCH   1   2
BRANCH   1  12
ATOM     12  C   UNL     1       4.342  10.245   5.924  1.00  0.00     0.000 C 
BRANCH  12  13
ATOM     13  C   UNL     1       3.534  10.172   7.225  1.00  0.00    -0.000 C 
BRANCH  13  14
ATOM     14  C   UNL     1       4.456   9.959   8.434  1.00  0.00    -0.000 C 
BRANCH  14  15
ATOM     15  C   UNL     1       4.069  10.840   9.632  1.00  0.00    -0.000 C 
BRANCH  15  16
ATOM     16  C   UNL     1       3.878  12.315   9.240  1.00  0.00    -0.000 C 
BRANCH  16  17
ATOM     17  C   UNL     1       2.477  12.849   9.589  1.00  0.00    -0.000 C 
BRANCH  17  18
ATOM     18  C   UNL     1       1.528  11.812  10.220  1.00  0.00    -0.000 C 
BRANCH  18  19
ATOM     19  C   UNL     1       0.087  11.921   9.699  1.00  0.00    -0.003 C 
ATOM     20  C   UNL     1      -0.057  13.084   8.722  1.00  0.00     0.004 C 
ENDBRANCH  18  19
ENDBRANCH  17  18
ENDBRANCH  16  17
ENDBRANCH  15  16
ENDBRANCH  14  15
ENDBRANCH  13  14
ENDBRANCH  12  13
ENDBRANCH   1  12
TORSDOF 16
ENDMDL
MODEL 4
REMARK VINA RESULT:    -4.243      4.133      9.099
REMARK INTER + INTRA:          -9.429
REMARK INTER:                  -9.066
REMARK INTRA:                  -0.362
REMARK UNBOUND:                -1.216
REMARK SMILES CCCCCCCCCCCCCCCCCC(=O)[O-]
REMARK SMILES IDX 10 1 11 2 12 3 13 4 14 5 15 6 16 7 17 8 18 9 19 10 20 11
REMARK SMILES IDX 9 12 8 13 7 14 6 15 5 16 4 17 3 18 2 19 1 20
REMARK H PARENT
REMARK Flexibility Score: inf
ROOT
ATOM      1  C   UNL     1       5.093  10.095   7.285  1.00  0.00     0.000 C 
ENDROOT
BRANCH   1   2
ATOM      2  C   UNL     1       5.832  10.698   8.493  1.00  0.00     0.000 C 
BRANCH   2   3
ATOM      3  C   UNL     1       7.345  10.890   8.257  1.00  0.00     0.000 C 
BRANCH   3   4
ATOM      4  C   UNL     1       7.774  12.361   8.402  1.00  0.00     0.000 C 
BRANCH   4   5
ATOM      5  C   UNL     1       9.267  12.571   8.101  1.00  0.00     0.000 C 
BRANCH   5   6
ATOM      6  C   UNL     1       9.530  12.895   6.621  1.00  0.00     0.000 C 
BRANCH   6   7
ATOM      7  C   UNL     1       9.831  11.638   5.787  1.00  0.00     0.006 C 
BRANCH   7   8
ATOM      8  C   UNL     1       8.654  11.227   4.893  1.00  0.00     0.053 C 
BRANCH   8   9
ATOM      9  C   UNL     1       8.250  12.364   4.010  1.00  0.00     0.041 C 
ATOM     10  O   UNL     1       8.990  12.718   3.056  1.00  0.00    -0.550 OA
ATOM     11  O   UNL     1       7.079  13.066   4.272  1.00  0.00    -0.550 OA
ENDBRANCH   8   9
ENDBRANCH   7   8
ENDBRANCH   6   7
ENDBRANCH   5   6
ENDBRANCH   4   5
ENDBRANCH   3   4
ENDBRANCH   2   3
ENDBRANCH   1   2
BRANCH   1  12
ATOM     12  C   UNL     1       3.732  10.755   7.026  1.00  0.00     0.000 C 
BRANCH  12  13
ATOM     13  C   UNL     1       2.859  10.727   8.287  1.00  0.00    -0.000 C 
BRANCH  13  14
ATOM     14  C   UNL     1       3.250  11.856   9.252  1.00  0.00    -0.000 C 
BRANCH  14  15
ATOM     15  C   UNL     1       2.063  12.764   9.609  1.00  0.00    -0.000 C 
BRANCH  15  16
ATOM     16  C   UNL     1       0.708  12.127   9.252  1.00  0.00    -0.000 C 
BRANCH  16  17
ATOM     17  C   UNL     1      -0.461  13.125   9.341  1.00  0.00    -0.000 C 
BRANCH  17  18
ATOM     18  C   UNL     1      -1.410  13.120   8.128  1.00  0.00    -0.000 C 
BRANCH  18  19
ATOM     19  C   UNL     1      -2.894  13.088   8.526  1.00  0.00    -0.003 C 
ATOM     20  C   UNL     1      -3.667  12.076   7.684  1.00  0.00     0.004 C 
ENDBRANCH  18  19
ENDBRANCH  17  18
ENDBRANCH  16  17
ENDBRANCH  15  16
ENDBRANCH  14  15
ENDBRANCH  13  14
ENDBRANCH  12  13
ENDBRANCH   1  12
TORSDOF 16
ENDMDL
MODEL 5
REMARK VINA RESULT:    -4.140      3.017      6.881
REMARK INTER + INTRA:          -9.229
REMARK INTER:                  -7.830
REMARK INTRA:                  -1.398
REMARK UNBOUND:                -1.216
REMARK SMILES CCCCCCCCCCCCCCCCCC(=O)[O-]
REMARK SMILES IDX 10 1 11 2 12 3 13 4 14 5 15 6 16 7 17 8 18 9 19 10 20 11
REMARK SMILES IDX 9 12 8 13 7 14 6 15 5 16 4 17 3 18 2 19 1 20
REMARK H PARENT
REMARK Flexibility Score: inf
ROOT
ATOM      1  C   UNL     1       9.100  10.935   5.665  1.00  0.00     0.000 C 
ENDROOT
BRANCH   1   2
ATOM      2  C   UNL     1       9.202  12.428   5.307  1.00  0.00     0.000 C 
BRANCH   2   3
ATOM      3  C   UNL     1       8.140  12.891   4.286  1.00  0.00     0.000 C 
BRANCH   3   4
ATOM      4  C   UNL     1       6.716  12.852   4.870  1.00  0.00     0.000 C 
BRANCH   4   5
ATOM      5  C   UNL     1       5.758  11.997   4.027  1.00  0.00     0.000 C 
BRANCH   5   6
ATOM      6  C   UNL     1       5.362  10.687   4.730  1.00  0.00     0.000 C 
BRANCH   6   7
ATOM      7  C   UNL     1       4.943  10.909   6.194  1.00  0.00     0.006 C 
BRANCH   7   8
ATOM      8  C   UNL     1       3.791   9.991   6.622  1.00  0.00     0.053 C 
BRANCH   8   9
ATOM      9  C   UNL     1       4.011   9.496   8.016  1.00  0.00     0.041 C 
ATOM     10  O   UNL     1       3.029   9.264   8.768  1.00  0.00    -0.550 OA
ATOM     11  O   UNL     1       5.303   9.337   8.502  1.00  0.00    -0.550 OA
ENDBRANCH   8   9
ENDBRANCH   7   8
ENDBRANCH   6   7
ENDBRANCH   5   6
ENDBRANCH   4   5
ENDBRANCH   3   4
ENDBRANCH   2   3
ENDBRANCH   1   2
BRANCH   1  12
ATOM     12  C   UNL     1       9.078  10.684   7.180  1.00  0.00     0.000 C 
BRANCH  12  13
ATOM     13  C   UNL     1       7.717  11.062   7.780  1.00  0.00    -0.000 C 
BRANCH  13  14
ATOM     14  C   UNL     1       7.744  12.489   8.346  1.00  0.00    -0.000 C 
BRANCH  14  15
ATOM     15  C   UNL     1       6.625  12.736   9.371  1.00  0.00    -0.000 C 
BRANCH  15  16
ATOM     16  C   UNL     1       5.293  13.122   8.706  1.00  0.00    -0.000 C 
BRANCH  16  17
ATOM     17  C   UNL     1       4.075  12.475   9.390  1.00  0.00    -0.000 C 
BRANCH  17  18
ATOM     18  C   UNL     1       2.717  13.101   9.020  1.00  0.00    -0.000 C 
BRANCH  18  19
ATOM     19  C   UNL     1       1.610  12.775  10.035  1.00  0.00    -0.003 C 
ATOM     20  C   UNL     1       0.320  12.367   9.327  1.00  0.00     0.004 C 
ENDBRANCH  18  19
ENDBRANCH  17  18
ENDBRANCH  16  17
ENDBRANCH  15  16
ENDBRANCH  14  15
ENDBRANCH  13  14
ENDBRANCH  12  13
ENDBRANCH   1  12
TORSDOF 16
ENDMDL
MODEL 6
REMARK VINA RESULT:    -4.137      4.250      9.208
REMARK INTER + INTRA:          -9.223
REMARK INTER:                  -7.919
REMARK INTRA:                  -1.304
REMARK UNBOUND:                -1.216
REMARK SMILES CCCCCCCCCCCCCCCCCC(=O)[O-]
REMARK SMILES IDX 10 1 11 2 12 3 13 4 14 5 15 6 16 7 17 8 18 9 19 10 20 11
REMARK SMILES IDX 9 12 8 13 7 14 6 15 5 16 4 17 3 18 2 19 1 20
REMARK H PARENT
REMARK Flexibility Score: inf
ROOT
ATOM      1  C   UNL     1       3.156  10.353   8.041  1.00  0.00     0.000 C 
ENDROOT
BRANCH   1   2
ATOM      2  C   UNL     1       4.567   9.945   7.583  1.00  0.00     0.000 C 
BRANCH   2   3
ATOM      3  C   UNL     1       5.230  10.970   6.639  1.00  0.00     0.000 C 
BRANCH   3   4
ATOM      4  C   UNL     1       5.746  12.209   7.394  1.00  0.00     0.000 C 
BRANCH   4   5
ATOM      5  C   UNL     1       6.509  11.840   8.676  1.00  0.00     0.000 C 
BRANCH   5   6
ATOM      6  C   UNL     1       7.993  12.242   8.614  1.00  0.00     0.000 C 
BRANCH   6   7
ATOM      7  C   UNL     1       8.378  12.865   7.262  1.00  0.00     0.006 C 
BRANCH   7   8
ATOM      8  C   UNL     1       9.387  12.009   6.485  1.00  0.00     0.053 C 
BRANCH   8   9
ATOM      9  C   UNL     1       8.750  11.440   5.258  1.00  0.00     0.041 C 
ATOM     10  O   UNL     1       8.454  12.190   4.292  1.00  0.00    -0.550 OA
ATOM     11  O   UNL     1       8.436  10.087   5.200  1.00  0.00    -0.550 OA
ENDBRANCH   8   9
ENDBRANCH   7   8
ENDBRANCH   6   7
ENDBRANCH   5   6
ENDBRANCH   4   5
ENDBRANCH   3   4
ENDBRANCH   2   3
ENDBRANCH   1   2
BRANCH   1  12
ATOM     12  C   UNL     1       2.972  10.268   9.563  1.00  0.00     0.000 C 
BRANCH  12  13
ATOM     13  C   UNL     1       1.649  10.914   9.994  1.00  0.00    -0.000 C 
BRANCH  13  14
ATOM     14  C   UNL     1       1.766  12.444  10.015  1.00  0.00    -0.000 C 
BRANCH  14  15
ATOM     15  C   UNL     1       0.752  13.125   9.083  1.00  0.00    -0.000 C 
BRANCH  15  16
ATOM     16  C   UNL     1      -0.559  12.329   8.958  1.00  0.00    -0.000 C 
BRANCH  16  17
ATOM     17  C   UNL     1      -1.675  13.123   8.255  1.00  0.00    -0.000 C 
BRANCH  17  18
ATOM     18  C   UNL     1      -3.034  13.109   8.979  1.00  0.00    -0.000 C 
BRANCH  18  19
ATOM     19  C   UNL     1      -4.221  12.905   8.024  1.00  0.00    -0.003 C 
ATOM     20  C   UNL     1      -3.741  12.674   6.594  1.00  0.00     0.004 C 
ENDBRANCH  18  19
ENDBRANCH  17  18
ENDBRANCH  16  17
ENDBRANCH  15  16
ENDBRANCH  14  15
ENDBRANCH  13  14
ENDBRANCH  12  13
ENDBRANCH   1  12
TORSDOF 16
ENDMDL
MODEL 7
REMARK VINA RESULT:    -4.066      1.443      2.871
REMARK INTER + INTRA:          -9.086
REMARK INTER:                  -8.387
REMARK INTRA:                  -0.699
REMARK UNBOUND:                -1.216
REMARK SMILES CCCCCCCCCCCCCCCCCC(=O)[O-]
REMARK SMILES IDX 10 1 11 2 12 3 13 4 14 5 15 6 16 7 17 8 18 9 19 10 20 11
REMARK SMILES IDX 9 12 8 13 7 14 6 15 5 16 4 17 3 18 2 19 1 20
REMARK H PARENT
REMARK Flexibility Score: inf
ROOT
ATOM      1  C   UNL     1       4.483  11.393   7.330  1.00  0.00     0.000 C 
ENDROOT
BRANCH   1   2
ATOM      2  C   UNL     1       4.259   9.880   7.158  1.00  0.00     0.000 C 
BRANCH   2   3
ATOM      3  C   UNL     1       3.427   9.247   8.294  1.00  0.00     0.000 C 
BRANCH   3   4
ATOM      4  C   UNL     1       3.599   9.997   9.628  1.00  0.00     0.000 C 
BRANCH   4   5
ATOM      5  C   UNL     1       2.431   9.750  10.596  1.00  0.00     0.000 C 
BRANCH   5   6
ATOM      6  C   UNL     1       1.494  10.965  10.709  1.00  0.00     0.000 C 
BRANCH   6   7
ATOM      7  C   UNL     1       1.865  12.089   9.727  1.00  0.00     0.006 C 
BRANCH   7   8
ATOM      8  C   UNL     1       0.743  13.123   9.563  1.00  0.00     0.053 C 
BRANCH   8   9
ATOM      9  C   UNL     1      -0.379  12.550   8.758  1.00  0.00     0.041 C 
ATOM     10  O   UNL     1      -1.504  13.115   8.748  1.00  0.00    -0.550 OA
ATOM     11  O   UNL     1      -0.198  11.363   8.058  1.00  0.00    -0.550 OA
ENDBRANCH   8   9
ENDBRANCH   7   8
ENDBRANCH   6   7
ENDBRANCH   5   6
ENDBRANCH   4   5
ENDBRANCH   3   4
ENDBRANCH   2   3
ENDBRANCH   1   2
BRANCH   1  12
ATOM     12  C   UNL     1       5.387  11.731   8.523  1.00  0.00     0.000 C 
BRANCH  12  13
ATOM     13  C   UNL     1       6.565  12.613   8.088  1.00  0.00    -0.000 C 
BRANCH  13  14
ATOM     14  C   UNL     1       7.902  11.891   8.309  1.00  0.00    -0.000 C 
BRANCH  14  15
ATOM     15  C   UNL     1       8.140  10.769   7.287  1.00  0.00    -0.000 C 
BRANCH  15  16
ATOM     16  C   UNL     1       9.204  11.143   6.240  1.00  0.00    -0.000 C 
BRANCH  16  17
ATOM     17  C   UNL     1       9.020  12.568   5.686  1.00  0.00    -0.000 C 
BRANCH  17  18
ATOM     18  C   UNL     1       8.358  12.642   4.297  1.00  0.00    -0.000 C 
BRANCH  18  19
ATOM     19  C   UNL     1       6.861  12.982   4.362  1.00  0.00    -0.003 C 
ATOM     20  C   UNL     1       6.011  11.715   4.378  1.00  0.00     0.004 C 
ENDBRANCH  18  19
ENDBRANCH  17  18
ENDBRANCH  16  17
ENDBRANCH  15  16
ENDBRANCH  14  15
ENDBRANCH  13  14
ENDBRANCH  12  13
ENDBRANCH   1  12
TORSDOF 16
ENDMDL
MODEL 8
REMARK VINA RESULT:    -3.948      4.345      9.108
REMARK INTER + INTRA:          -8.858
REMARK INTER:                  -8.503
REMARK INTRA:                  -0.355
REMARK UNBOUND:                -1.216
REMARK SMILES CCCCCCCCCCCCCCCCCC(=O)[O-]
REMARK SMILES IDX 10 1 11 2 12 3 13 4 14 5 15 6 16 7 17 8 18 9 19 10 20 11
REMARK SMILES IDX 9 12 8 13 7 14 6 15 5 16 4 17 3 18 2 19 1 20
REMARK H PARENT
REMARK Flexibility Score: inf
ROOT
ATOM      1  C   UNL     1       4.095  10.307   6.699  1.00  0.00     0.000 C 
ENDROOT
BRANCH   1   2
ATOM      2  C   UNL     1       5.354  10.894   7.360  1.00  0.00     0.000 C 
BRANCH   2   3
ATOM      3  C   UNL     1       5.324  12.432   7.488  1.00  0.00     0.000 C 
BRANCH   3   4
ATOM      4  C   UNL     1       6.263  13.118   6.480  1.00  0.00     0.000 C 
BRANCH   4   5
ATOM      5  C   UNL     1       6.375  12.342   5.158  1.00  0.00     0.000 C 
BRANCH   5   6
ATOM      6  C   UNL     1       7.525  12.850   4.272  1.00  0.00     0.000 C 
BRANCH   6   7
ATOM      7  C   UNL     1       8.747  11.917   4.299  1.00  0.00     0.006 C 
BRANCH   7   8
ATOM      8  C   UNL     1       8.668  10.875   5.423  1.00  0.00     0.053 C 
BRANCH   8   9
ATOM      9  C   UNL     1       9.238  11.429   6.688  1.00  0.00     0.041 C 
ATOM     10  O   UNL     1       8.883  10.960   7.801  1.00  0.00    -0.550 OA
ATOM     11  O   UNL     1      10.125  12.498   6.642  1.00  0.00    -0.550 OA
ENDBRANCH   8   9
ENDBRANCH   7   8
ENDBRANCH   6   7
ENDBRANCH   5   6
ENDBRANCH   4   5
ENDBRANCH   3   4
ENDBRANCH   2   3
ENDBRANCH   1   2
BRANCH   1  12
ATOM     12  C   UNL     1       3.265   9.442   7.658  1.00  0.00     0.000 C 
BRANCH  12  13
ATOM     13  C   UNL     1       3.212  10.068   9.058  1.00  0.00    -0.000 C 
BRANCH  13  14
ATOM     14  C   UNL     1       2.572  11.463   9.012  1.00  0.00    -0.000 C 
BRANCH  14  15
ATOM     15  C   UNL     1       1.555  11.681  10.144  1.00  0.00    -0.000 C 
BRANCH  15  16
ATOM     16  C   UNL     1       0.757  12.985   9.974  1.00  0.00    -0.000 C 
BRANCH  16  17
ATOM     17  C   UNL     1      -0.139  12.976   8.721  1.00  0.00    -0.000 C 
BRANCH  17  18
ATOM     18  C   UNL     1      -1.646  13.124   9.002  1.00  0.00    -0.000 C 
BRANCH  18  19
ATOM     19  C   UNL     1      -2.517  12.259   8.078  1.00  0.00    -0.003 C 
ATOM     20  C   UNL     1      -3.879  12.907   7.843  1.00  0.00     0.004 C 
ENDBRANCH  18  19
ENDBRANCH  17  18
ENDBRANCH  16  17
ENDBRANCH  15  16
ENDBRANCH  14  15
ENDBRANCH  13  14
ENDBRANCH  12  13
ENDBRANCH   1  12
TORSDOF 16
ENDMDL
