MODEL 1
REMARK VINA RESULT:    -3.882      0.000      0.000
REMARK INTER + INTRA:          -4.240
REMARK INTER:                  -4.223
REMARK INTRA:                  -0.017
REMARK UNBOUND:                -0.017
REMARK SMILES OCc1ccccc1
REMARK SMILES IDX 2 1 3 2 6 3 5 4 7 5 4 6 8 7 1 8
REMARK H PARENT 1 9
REMARK Flexibility Score: inf
ROOT
ATOM      1  C   UNL     1      -2.113  13.251   3.313  1.00  0.00     0.191 C 
ENDROOT
BRANCH   1   2
ATOM      2  C   UNL     1      -2.080  13.120   1.815  1.00  0.00    -0.023 A 
ATOM      3  C   UNL     1      -2.098  12.875  -0.980  1.00  0.00     0.000 A 
ATOM      4  C   UNL     1      -2.023  11.732  -0.178  1.00  0.00     0.000 A 
ATOM      5  C   UNL     1      -2.172  14.139  -0.389  1.00  0.00     0.000 A 
ATOM      6  C   UNL     1      -2.020  11.852   1.215  1.00  0.00     0.006 A 
ATOM      7  C   UNL     1      -2.169  14.263   1.004  1.00  0.00     0.006 A 
ENDBRANCH   1   2
BRANCH   1   8
ATOM      8  O   UNL     1      -2.753  12.140   3.878  1.00  0.00    -0.392 OA
ATOM      9  H   UNL     1      -2.743  12.276   4.862  1.00  0.00     0.211 HD
ENDBRANCH   1   8
TORSDOF 2
ENDMDL
MODEL 2
REMARK VINA RESULT:    -3.873      0.059      1.714
REMARK INTER + INTRA:          -4.230
REMARK INTER:                  -4.215
REMARK INTRA:                  -0.016
REMARK UNBOUND:                -0.017
REMARK SMILES OCc1ccccc1
REMARK SMILES IDX 2 1 3 2 6 3 5 4 7 5 4 6 8 7 1 8
REMARK H PARENT 1 9
REMARK Flexibility Score: inf
ROOT
ATOM      1  C   UNL     1      -2.054  13.220   3.321  1.00  0.00     0.191 C 
ENDROOT
BRANCH   1   2
ATOM      2  C   UNL     1      -2.090  13.127   1.820  1.00  0.00    -0.023 A 
ATOM      3  C   UNL     1      -2.078  12.955  -0.981  1.00  0.00     0.000 A 
ATOM      4  C   UNL     1      -2.131  14.205  -0.357  1.00  0.00     0.000 A 
ATOM      5  C   UNL     1      -2.022  11.791  -0.209  1.00  0.00     0.000 A 
ATOM      6  C   UNL     1      -2.131  14.294   1.038  1.00  0.00     0.006 A 
ATOM      7  C   UNL     1      -2.022  11.875   1.187  1.00  0.00     0.006 A 
ENDBRANCH   1   2
BRANCH   1   8
ATOM      8  O   UNL     1      -2.761  12.151   3.885  1.00  0.00    -0.392 OA
ATOM      9  H   UNL     1      -2.115  11.401   3.978  1.00  0.00     0.211 HD
ENDBRANCH   1   8
TORSDOF 2
ENDMDL
MODEL 3
REMARK VINA RESULT:    -3.759      2.491      3.514
REMARK INTER + INTRA:          -4.106
REMARK INTER:                  -4.089
REMARK INTRA:                  -0.017
REMARK UNBOUND:                -0.017
REMARK SMILES OCc1ccccc1
REMARK SMILES IDX 2 1 3 2 6 3 5 4 7 5 4 6 8 7 1 8
REMARK H PARENT 1 9
REMARK Flexibility Score: inf
ROOT
ATOM      1  C   UNL     1      -2.103  14.831  -1.854  1.00  0.00     0.191 C 
ENDROOT
BRANCH   1   2
ATOM      2  C   UNL     1      -2.104  13.892  -0.678  1.00  0.00    -0.023 A 
ATOM      3  C   UNL     1      -2.026  12.146   1.516  1.00  0.00     0.000 A 
ATOM      4  C   UNL     1      -1.996  11.636   0.215  1.00  0.00     0.000 A 
ATOM      5  C   UNL     1      -2.087  13.527   1.724  1.00  0.00     0.000 A 
ATOM      6  C   UNL     1      -2.028  12.504  -0.880  1.00  0.00     0.006 A 
ATOM      7  C   UNL     1      -2.120  14.399   0.631  1.00  0.00     0.006 A 
ENDBRANCH   1   2
BRANCH   1   8
ATOM      8  O   UNL     1      -1.393  15.996  -1.537  1.00  0.00    -0.392 OA
ATOM      9  H   UNL     1      -1.866  16.747  -1.984  1.00  0.00     0.211 HD
ENDBRANCH   1   8
TORSDOF 2
ENDMDL
MODEL 4
REMARK VINA RESULT:    -3.714      1.469      2.552
REMARK INTER + INTRA:          -4.057
REMARK INTER:                  -4.046
REMARK INTRA:                  -0.011
REMARK UNBOUND:                -0.017
REMARK SMILES OCc1ccccc1
REMARK SMILES IDX 2 1 3 2 6 3 5 4 7 5 4 6 8 7 1 8
REMARK H PARENT 1 9
REMARK Flexibility Score: inf
ROOT
ATOM      1  C   UNL     1      -2.168  10.591   0.355  1.00  0.00     0.191 C 
ENDROOT
BRANCH   1   2
ATOM      2  C   UNL     1      -2.040  12.089   0.317  1.00  0.00    -0.023 A 
ATOM      3  C   UNL     1      -1.724  14.876   0.231  1.00  0.00     0.000 A 
ATOM      4  C   UNL     1      -1.610  14.197   1.447  1.00  0.00     0.000 A 
ATOM      5  C   UNL     1      -1.986  14.166  -0.944  1.00  0.00     0.000 A 
ATOM      6  C   UNL     1      -1.761  12.807   1.491  1.00  0.00     0.006 A 
ATOM      7  C   UNL     1      -2.138  12.776  -0.904  1.00  0.00     0.006 A 
ENDBRANCH   1   2
BRANCH   1   8
ATOM      8  O   UNL     1      -3.241  10.222   1.176  1.00  0.00    -0.392 OA
ATOM      9  H   UNL     1      -3.109   9.263   1.400  1.00  0.00     0.211 HD
ENDBRANCH   1   8
TORSDOF 2
ENDMDL
MODEL 5
REMARK VINA RESULT:    -3.714      1.446      2.638
REMARK INTER + INTRA:          -4.057
REMARK INTER:                  -4.043
REMARK INTRA:                  -0.014
REMARK UNBOUND:                -0.017
REMARK SMILES OCc1ccccc1
REMARK SMILES IDX 2 1 3 2 6 3 5 4 7 5 4 6 8 7 1 8
REMARK H PARENT 1 9
REMARK Flexibility Score: inf
ROOT
ATOM      1  C   UNL     1      -2.227  10.638   0.270  1.00  0.00     0.191 C 
ENDROOT
BRANCH   1   2
ATOM      2  C   UNL     1      -1.998  12.124   0.324  1.00  0.00    -0.023 A 
ATOM      3  C   UNL     1      -1.648  14.906   0.439  1.00  0.00     0.000 A 
ATOM      4  C   UNL     1      -1.891  14.281  -0.788  1.00  0.00     0.000 A 
ATOM      5  C   UNL     1      -1.588  14.145   1.610  1.00  0.00     0.000 A 
ATOM      6  C   UNL     1      -2.072  12.896  -0.847  1.00  0.00     0.006 A 
ATOM      7  C   UNL     1      -1.768  12.759   1.556  1.00  0.00     0.006 A 
ENDBRANCH   1   2
BRANCH   1   8
ATOM      8  O   UNL     1      -3.174  10.263   1.232  1.00  0.00    -0.392 OA
ATOM      9  H   UNL     1      -2.983  10.802   2.044  1.00  0.00     0.211 HD
ENDBRANCH   1   8
TORSDOF 2
ENDMDL
MODEL 6
REMARK VINA RESULT:    -3.541      9.319     10.268
REMARK INTER + INTRA:          -3.869
REMARK INTER:                  -3.850
REMARK INTRA:                  -0.019
REMARK UNBOUND:                -0.017
REMARK SMILES OCc1ccccc1
REMARK SMILES IDX 2 1 3 2 6 3 5 4 7 5 4 6 8 7 1 8
REMARK H PARENT 1 9
REMARK Flexibility Score: inf
ROOT
ATOM      1  C   UNL     1     -10.753   6.731   5.003  1.00  0.00     0.191 C 
ENDROOT
BRANCH   1   2
ATOM      2  C   UNL     1      -9.607   7.458   5.651  1.00  0.00    -0.023 A 
ATOM      3  C   UNL     1      -7.420   8.782   6.809  1.00  0.00     0.000 A 
ATOM      4  C   UNL     1      -7.811   7.529   7.287  1.00  0.00     0.000 A 
ATOM      5  C   UNL     1      -8.113   9.372   5.747  1.00  0.00     0.000 A 
ATOM      6  C   UNL     1      -8.897   6.864   6.708  1.00  0.00     0.006 A 
ATOM      7  C   UNL     1      -9.199   8.711   5.166  1.00  0.00     0.006 A 
ENDBRANCH   1   2
BRANCH   1   8
ATOM      8  O   UNL     1     -10.747   5.384   5.388  1.00  0.00    -0.392 OA
ATOM      9  H   UNL     1     -10.450   4.864   4.596  1.00  0.00     0.211 HD
ENDBRANCH   1   8
TORSDOF 2
ENDMDL
MODEL 7
REMARK VINA RESULT:    -3.499      2.046      2.747
REMARK INTER + INTRA:          -3.823
REMARK INTER:                  -3.803
REMARK INTRA:                  -0.020
REMARK UNBOUND:                -0.017
REMARK SMILES OCc1ccccc1
REMARK SMILES IDX 2 1 3 2 6 3 5 4 7 5 4 6 8 7 1 8
REMARK H PARENT 1 9
REMARK Flexibility Score: inf
ROOT
ATOM      1  C   UNL     1      -1.353  15.515   2.071  1.00  0.00     0.191 C 
ENDROOT
BRANCH   1   2
ATOM      2  C   UNL     1      -1.677  14.291   1.259  1.00  0.00    -0.023 A 
ATOM      3  C   UNL     1      -2.205  11.994  -0.263  1.00  0.00     0.000 A 
ATOM      4  C   UNL     1      -2.075  13.235  -0.893  1.00  0.00     0.000 A 
ATOM      5  C   UNL     1      -2.063  11.896   1.124  1.00  0.00     0.000 A 
ATOM      6  C   UNL     1      -1.806  14.381  -0.137  1.00  0.00     0.006 A 
ATOM      7  C   UNL     1      -1.795  13.039   1.884  1.00  0.00     0.006 A 
ENDBRANCH   1   2
BRANCH   1   8
ATOM      8  O   UNL     1      -1.357  16.651   1.251  1.00  0.00    -0.392 OA
ATOM      9  H   UNL     1      -1.094  17.417   1.826  1.00  0.00     0.211 HD
ENDBRANCH   1   8
TORSDOF 2
ENDMDL
MODEL 8
REMARK VINA RESULT:    -3.479      8.506      9.717
REMARK INTER + INTRA:          -3.802
REMARK INTER:                  -3.787
REMARK INTRA:                  -0.015
REMARK UNBOUND:                -0.017
REMARK SMILES OCc1ccccc1
REMARK SMILES IDX 2 1 3 2 6 3 5 4 7 5 4 6 8 7 1 8
REMARK H PARENT 1 9
REMARK Flexibility Score: inf
ROOT
ATOM      1  C   UNL     1      -1.665   8.436  -7.135  1.00  0.00     0.191 C 
ENDROOT
BRANCH   1   2
ATOM      2  C   UNL     1      -1.287   7.390  -6.122  1.00  0.00    -0.023 A 
ATOM      3  C   UNL     1      -0.650   5.401  -4.249  1.00  0.00     0.000 A 
ATOM      4  C   UNL     1      -1.345   6.544  -3.845  1.00  0.00     0.000 A 
ATOM      5  C   UNL     1      -0.280   5.245  -5.588  1.00  0.00     0.000 A 
ATOM      6  C   UNL     1      -1.669   7.534  -4.778  1.00  0.00     0.006 A 
ATOM      7  C   UNL     1      -0.601   6.232  -6.524  1.00  0.00     0.006 A 
ENDBRANCH   1   2
BRANCH   1   8
ATOM      8  O   UNL     1      -3.006   8.804  -6.969  1.00  0.00    -0.392 OA
ATOM      9  H   UNL     1      -3.530   8.269  -7.622  1.00  0.00     0.211 HD
ENDBRANCH   1   8
TORSDOF 2
ENDMDL
MODEL 9
REMARK VINA RESULT:    -3.339     10.751     11.501
REMARK INTER + INTRA:          -3.649
REMARK INTER:                  -3.631
REMARK INTRA:                  -0.018
REMARK UNBOUND:                -0.017
REMARK SMILES OCc1ccccc1
REMARK SMILES IDX 2 1 3 2 6 3 5 4 7 5 4 6 8 7 1 8
REMARK H PARENT 1 9
REMARK Flexibility Score: inf
ROOT
ATOM      1  C   UNL     1       5.867  14.277  -4.226  1.00  0.00     0.191 C 
ENDROOT
BRANCH   1   2
ATOM      2  C   UNL     1       6.916  15.353  -4.168  1.00  0.00    -0.023 A 
ATOM      3  C   UNL     1       8.919  17.313  -4.018  1.00  0.00     0.000 A 
ATOM      4  C   UNL     1       7.894  17.285  -3.067  1.00  0.00     0.000 A 
ATOM      5  C   UNL     1       8.950  16.359  -5.038  1.00  0.00     0.000 A 
ATOM      6  C   UNL     1       6.899  16.306  -3.136  1.00  0.00     0.006 A 
ATOM      7  C   UNL     1       7.956  15.378  -5.112  1.00  0.00     0.006 A 
ENDBRANCH   1   2
BRANCH   1   8
ATOM      8  O   UNL     1       4.719  14.688  -3.537  1.00  0.00    -0.392 OA
ATOM      9  H   UNL     1       5.011  15.381  -2.888  1.00  0.00     0.211 HD
ENDBRANCH   1   8
TORSDOF 2
ENDMDL
