MODEL 1
REMARK VINA RESULT:    -6.196      0.000      0.000
REMARK INTER + INTRA:         -12.045
REMARK INTER:                 -11.267
REMARK INTRA:                  -0.778
REMARK UNBOUND:                -0.778
REMARK SMILES CCCCCCCCCCCCCC[C@@H](C)C(=O)[O-]
REMARK SMILES IDX 9 1 10 2 11 3 12 4 13 5 14 6 15 7 16 8 17 9 18 10 19 11 8 12
REMARK SMILES IDX 7 13 6 14 5 15 4 16 3 17 2 18 1 19
REMARK H PARENT
REMARK Flexibility Score: inf
ROOT
ATOM      1  C   UNL     1      89.189 325.118 198.687  1.00  0.00     0.000 C 
ENDROOT
BRANCH   1   2
ATOM      2  C   UNL     1      89.313 326.584 199.132  1.00  0.00     0.000 C 
BRANCH   2   3
ATOM      3  C   UNL     1      89.788 326.725 200.587  1.00  0.00     0.000 C 
BRANCH   3   4
ATOM      4  C   UNL     1      88.758 326.139 201.560  1.00  0.00     0.000 C 
BRANCH   4   5
ATOM      5  C   UNL     1      89.304 326.124 202.996  1.00  0.00     0.001 C 
BRANCH   5   6
ATOM      6  C   UNL     1      89.237 327.505 203.676  1.00  0.00     0.009 C 
BRANCH   6   7
ATOM      7  C   UNL     1      89.249 327.452 205.221  1.00  0.00     0.032 C 
ATOM      8  C   UNL     1      88.490 326.218 205.719  1.00  0.00     0.014 C 
BRANCH   7   9
ATOM      9  C   UNL     1      90.654 327.436 205.760  1.00  0.00     0.044 C 
ATOM     10  O   UNL     1      90.869 327.098 206.954  1.00  0.00    -0.550 OA
ATOM     11  O   UNL     1      91.723 327.794 204.947  1.00  0.00    -0.550 OA
ENDBRANCH   7   9
ENDBRANCH   6   7
ENDBRANCH   5   6
ENDBRANCH   4   5
ENDBRANCH   3   4
ENDBRANCH   2   3
ENDBRANCH   1   2
BRANCH   1  12
ATOM     12  C   UNL     1      88.603 324.978 197.272  1.00  0.00     0.000 C 
BRANCH  12  13
ATOM     13  C   UNL     1      88.385 326.336 196.587  1.00  0.00    -0.000 C 
BRANCH  13  14
ATOM     14  C   UNL     1      86.992 326.466 195.952  1.00  0.00    -0.000 C 
BRANCH  14  15
ATOM     15  C   UNL     1      87.088 326.501 194.422  1.00  0.00    -0.000 C 
BRANCH  15  16
ATOM     16  C   UNL     1      86.058 325.558 193.784  1.00  0.00    -0.000 C 
BRANCH  16  17
ATOM     17  C   UNL     1      86.662 324.664 192.686  1.00  0.00    -0.000 C 
BRANCH  17  18
ATOM     18  C   UNL     1      88.106 325.016 192.288  1.00  0.00    -0.003 C 
ATOM     19  C   UNL     1      88.581 324.271 191.041  1.00  0.00     0.004 C 
ENDBRANCH  17  18
ENDBRANCH  16  17
ENDBRANCH  15  16
ENDBRANCH  14  15
ENDBRANCH  13  14
ENDBRANCH  12  13
ENDBRANCH   1  12
TORSDOF 14
ENDMDL
MODEL 2
REMARK VINA RESULT:    -6.136      2.169      3.992
REMARK INTER + INTRA:         -11.935
REMARK INTER:                 -10.886
REMARK INTRA:                  -1.049
REMARK UNBOUND:                -0.778
REMARK SMILES CCCCCCCCCCCCCC[C@@H](C)C(=O)[O-]
REMARK SMILES IDX 9 1 10 2 11 3 12 4 13 5 14 6 15 7 16 8 17 9 18 10 19 11 8 12
REMARK SMILES IDX 7 13 6 14 5 15 4 16 3 17 2 18 1 19
REMARK H PARENT
REMARK Flexibility Score: inf
ROOT
ATOM      1  C   UNL     1      86.602 326.822 195.687  1.00  0.00     0.000 C 
ENDROOT
BRANCH   1   2
ATOM      2  C   UNL     1      87.761 326.401 196.605  1.00  0.00     0.000 C 
BRANCH   2   3
ATOM      3  C   UNL     1      88.423 325.087 196.163  1.00  0.00     0.000 C 
BRANCH   3   4
ATOM      4  C   UNL     1      89.464 324.624 197.189  1.00  0.00     0.000 C 
BRANCH   4   5
ATOM      5  C   UNL     1      88.901 324.698 198.616  1.00  0.00     0.001 C 
BRANCH   5   6
ATOM      6  C   UNL     1      89.783 325.533 199.565  1.00  0.00     0.009 C 
BRANCH   6   7
ATOM      7  C   UNL     1      89.037 326.091 200.797  1.00  0.00     0.032 C 
ATOM      8  C   UNL     1      88.345 324.957 201.561  1.00  0.00     0.014 C 
BRANCH   7   9
ATOM      9  C   UNL     1      89.970 326.829 201.719  1.00  0.00     0.044 C 
ATOM     10  O   UNL     1      89.585 327.168 202.869  1.00  0.00    -0.550 OA
ATOM     11  O   UNL     1      91.260 327.143 201.309  1.00  0.00    -0.550 OA
ENDBRANCH   7   9
ENDBRANCH   6   7
ENDBRANCH   5   6
ENDBRANCH   4   5
ENDBRANCH   3   4
ENDBRANCH   2   3
ENDBRANCH   1   2
BRANCH   1  12
ATOM     12  C   UNL     1      86.899 326.553 194.201  1.00  0.00     0.000 C 
BRANCH  12  13
ATOM     13  C   UNL     1      85.906 325.563 193.572  1.00  0.00    -0.000 C 
BRANCH  13  14
ATOM     14  C   UNL     1      86.573 324.605 192.573  1.00  0.00    -0.000 C 
BRANCH  14  15
ATOM     15  C   UNL     1      88.060 324.939 192.402  1.00  0.00    -0.000 C 
BRANCH  15  16
ATOM     16  C   UNL     1      88.729 323.977 191.409  1.00  0.00    -0.000 C 
BRANCH  16  17
ATOM     17  C   UNL     1      87.731 323.345 190.421  1.00  0.00    -0.000 C 
BRANCH  17  18
ATOM     18  C   UNL     1      88.239 323.231 188.973  1.00  0.00    -0.003 C 
ATOM     19  C   UNL     1      89.661 323.761 188.795  1.00  0.00     0.004 C 
ENDBRANCH  17  18
ENDBRANCH  16  17
ENDBRANCH  15  16
ENDBRANCH  14  15
ENDBRANCH  13  14
ENDBRANCH  12  13
ENDBRANCH   1  12
TORSDOF 14
ENDMDL
MODEL 3
REMARK VINA RESULT:    -6.108     20.090     21.063
REMARK INTER + INTRA:         -11.885
REMARK INTER:                 -11.355
REMARK INTRA:                  -0.530
REMARK UNBOUND:                -0.778
REMARK SMILES CCCCCCCCCCCCCC[C@@H](C)C(=O)[O-]
REMARK SMILES IDX 9 1 10 2 11 3 12 4 13 5 14 6 15 7 16 8 17 9 18 10 19 11 8 12
REMARK SMILES IDX 7 13 6 14 5 15 4 16 3 17 2 18 1 19
REMARK H PARENT
REMARK Flexibility Score: inf
ROOT
ATOM      1  C   UNL     1     104.200 311.385 196.761  1.00  0.00     0.000 C 
ENDROOT
BRANCH   1   2
ATOM      2  C   UNL     1     104.026 312.270 198.007  1.00  0.00     0.000 C 
BRANCH   2   3
ATOM      3  C   UNL     1     103.474 311.495 199.214  1.00  0.00     0.000 C 
BRANCH   3   4
ATOM      4  C   UNL     1     103.526 312.349 200.485  1.00  0.00     0.000 C 
BRANCH   4   5
ATOM      5  C   UNL     1     104.412 311.692 201.555  1.00  0.00     0.001 C 
BRANCH   5   6
ATOM      6  C   UNL     1     103.596 310.965 202.642  1.00  0.00     0.009 C 
BRANCH   6   7
ATOM      7  C   UNL     1     104.275 310.936 204.030  1.00  0.00     0.032 C 
ATOM      8  C   UNL     1     105.128 312.193 204.233  1.00  0.00     0.014 C 
BRANCH   7   9
ATOM      9  C   UNL     1     103.262 310.827 205.137  1.00  0.00     0.044 C 
ATOM     10  O   UNL     1     102.217 310.144 204.972  1.00  0.00    -0.550 OA
ATOM     11  O   UNL     1     103.470 311.479 206.348  1.00  0.00    -0.550 OA
ENDBRANCH   7   9
ENDBRANCH   6   7
ENDBRANCH   5   6
ENDBRANCH   4   5
ENDBRANCH   3   4
ENDBRANCH   2   3
ENDBRANCH   1   2
BRANCH   1  12
ATOM     12  C   UNL     1     104.380 312.208 195.474  1.00  0.00     0.000 C 
BRANCH  12  13
ATOM     13  C   UNL     1     105.755 311.991 194.822  1.00  0.00    -0.000 C 
BRANCH  13  14
ATOM     14  C   UNL     1     105.655 311.530 193.360  1.00  0.00    -0.000 C 
BRANCH  14  15
ATOM     15  C   UNL     1     104.535 312.276 192.625  1.00  0.00    -0.000 C 
BRANCH  15  16
ATOM     16  C   UNL     1     105.062 313.568 191.984  1.00  0.00    -0.000 C 
BRANCH  16  17
ATOM     17  C   UNL     1     103.959 314.387 191.290  1.00  0.00    -0.000 C 
BRANCH  17  18
ATOM     18  C   UNL     1     103.558 313.879 189.894  1.00  0.00    -0.003 C 
ATOM     19  C   UNL     1     103.220 315.008 188.921  1.00  0.00     0.004 C 
ENDBRANCH  17  18
ENDBRANCH  16  17
ENDBRANCH  15  16
ENDBRANCH  14  15
ENDBRANCH  13  14
ENDBRANCH  12  13
ENDBRANCH   1  12
TORSDOF 14
ENDMDL
MODEL 4
REMARK VINA RESULT:    -6.072     20.326     23.297
REMARK INTER + INTRA:         -11.820
REMARK INTER:                 -11.120
REMARK INTRA:                  -0.700
REMARK UNBOUND:                -0.778
REMARK SMILES CCCCCCCCCCCCCC[C@@H](C)C(=O)[O-]
REMARK SMILES IDX 9 1 10 2 11 3 12 4 13 5 14 6 15 7 16 8 17 9 18 10 19 11 8 12
REMARK SMILES IDX 7 13 6 14 5 15 4 16 3 17 2 18 1 19
REMARK H PARENT
REMARK Flexibility Score: inf
ROOT
ATOM      1  C   UNL     1     105.965 311.866 193.484  1.00  0.00     0.000 C 
ENDROOT
BRANCH   1   2
ATOM      2  C   UNL     1     104.571 311.859 192.837  1.00  0.00     0.000 C 
BRANCH   2   3
ATOM      3  C   UNL     1     104.246 313.175 192.112  1.00  0.00     0.000 C 
BRANCH   3   4
ATOM      4  C   UNL     1     105.500 313.765 191.457  1.00  0.00     0.000 C 
BRANCH   4   5
ATOM      5  C   UNL     1     105.134 314.601 190.221  1.00  0.00     0.001 C 
BRANCH   5   6
ATOM      6  C   UNL     1     103.670 314.408 189.780  1.00  0.00     0.009 C 
BRANCH   6   7
ATOM      7  C   UNL     1     103.404 314.753 188.298  1.00  0.00     0.032 C 
ATOM      8  C   UNL     1     101.897 314.841 188.033  1.00  0.00     0.014 C 
BRANCH   7   9
ATOM      9  C   UNL     1     104.064 316.048 187.905  1.00  0.00     0.044 C 
ATOM     10  O   UNL     1     105.006 316.048 187.070  1.00  0.00    -0.550 OA
ATOM     11  O   UNL     1     103.641 317.249 188.462  1.00  0.00    -0.550 OA
ENDBRANCH   7   9
ENDBRANCH   6   7
ENDBRANCH   5   6
ENDBRANCH   4   5
ENDBRANCH   3   4
ENDBRANCH   2   3
ENDBRANCH   1   2
BRANCH   1  12
ATOM     12  C   UNL     1     105.903 311.811 195.020  1.00  0.00     0.000 C 
BRANCH  12  13
ATOM     13  C   UNL     1     104.500 312.124 195.565  1.00  0.00    -0.000 C 
BRANCH  13  14
ATOM     14  C   UNL     1     104.222 311.448 196.916  1.00  0.00    -0.000 C 
BRANCH  14  15
ATOM     15  C   UNL     1     103.905 312.489 197.996  1.00  0.00    -0.000 C 
BRANCH  15  16
ATOM     16  C   UNL     1     103.685 311.818 199.360  1.00  0.00    -0.000 C 
BRANCH  16  17
ATOM     17  C   UNL     1     104.675 312.303 200.434  1.00  0.00    -0.000 C 
BRANCH  17  18
ATOM     18  C   UNL     1     104.099 312.375 201.859  1.00  0.00    -0.003 C 
ATOM     19  C   UNL     1     104.064 311.017 202.560  1.00  0.00     0.004 C 
ENDBRANCH  17  18
ENDBRANCH  16  17
ENDBRANCH  15  16
ENDBRANCH  14  15
ENDBRANCH  13  14
ENDBRANCH  12  13
ENDBRANCH   1  12
TORSDOF 14
ENDMDL
MODEL 5
REMARK VINA RESULT:    -6.015      1.622      2.586
REMARK INTER + INTRA:         -11.716
REMARK INTER:                 -10.601
REMARK INTRA:                  -1.115
REMARK UNBOUND:                -0.778
REMARK SMILES CCCCCCCCCCCCCC[C@@H](C)C(=O)[O-]
REMARK SMILES IDX 9 1 10 2 11 3 12 4 13 5 14 6 15 7 16 8 17 9 18 10 19 11 8 12
REMARK SMILES IDX 7 13 6 14 5 15 4 16 3 17 2 18 1 19
REMARK H PARENT
REMARK Flexibility Score: inf
ROOT
ATOM      1  C   UNL     1      88.133 326.197 196.636  1.00  0.00     0.000 C 
ENDROOT
BRANCH   1   2
ATOM      2  C   UNL     1      88.876 324.944 197.127  1.00  0.00     0.000 C 
BRANCH   2   3
ATOM      3  C   UNL     1      89.167 324.978 198.636  1.00  0.00     0.000 C 
BRANCH   3   4
ATOM      4  C   UNL     1      89.226 326.421 199.150  1.00  0.00     0.000 C 
BRANCH   4   5
ATOM      5  C   UNL     1      89.940 326.492 200.509  1.00  0.00     0.001 C 
BRANCH   5   6
ATOM      6  C   UNL     1      88.962 326.499 201.700  1.00  0.00     0.009 C 
BRANCH   6   7
ATOM      7  C   UNL     1      89.648 326.444 203.083  1.00  0.00     0.032 C 
ATOM      8  C   UNL     1      89.236 327.652 203.931  1.00  0.00     0.014 C 
BRANCH   7   9
ATOM      9  C   UNL     1      89.313 325.173 203.815  1.00  0.00     0.044 C 
ATOM     10  O   UNL     1      88.125 324.936 204.158  1.00  0.00    -0.550 OA
ATOM     11  O   UNL     1      90.310 324.253 204.119  1.00  0.00    -0.550 OA
ENDBRANCH   7   9
ENDBRANCH   6   7
ENDBRANCH   5   6
ENDBRANCH   4   5
ENDBRANCH   3   4
ENDBRANCH   2   3
ENDBRANCH   1   2
BRANCH   1  12
ATOM     12  C   UNL     1      88.830 326.866 195.439  1.00  0.00     0.000 C 
BRANCH  12  13
ATOM     13  C   UNL     1      87.956 326.868 194.174  1.00  0.00    -0.000 C 
BRANCH  13  14
ATOM     14  C   UNL     1      86.603 326.172 194.384  1.00  0.00    -0.000 C 
BRANCH  14  15
ATOM     15  C   UNL     1      86.432 324.998 193.413  1.00  0.00    -0.000 C 
BRANCH  15  16
ATOM     16  C   UNL     1      87.438 323.878 193.722  1.00  0.00    -0.000 C 
BRANCH  16  17
ATOM     17  C   UNL     1      88.492 323.696 192.615  1.00  0.00    -0.000 C 
BRANCH  17  18
ATOM     18  C   UNL     1      88.197 324.458 191.311  1.00  0.00    -0.003 C 
ATOM     19  C   UNL     1      89.038 323.971 190.131  1.00  0.00     0.004 C 
ENDBRANCH  17  18
ENDBRANCH  16  17
ENDBRANCH  15  16
ENDBRANCH  14  15
ENDBRANCH  13  14
ENDBRANCH  12  13
ENDBRANCH   1  12
TORSDOF 14
ENDMDL
MODEL 6
REMARK VINA RESULT:    -6.005     20.231     21.114
REMARK INTER + INTRA:         -11.697
REMARK INTER:                 -11.225
REMARK INTRA:                  -0.472
REMARK UNBOUND:                -0.778
REMARK SMILES CCCCCCCCCCCCCC[C@@H](C)C(=O)[O-]
REMARK SMILES IDX 9 1 10 2 11 3 12 4 13 5 14 6 15 7 16 8 17 9 18 10 19 11 8 12
REMARK SMILES IDX 7 13 6 14 5 15 4 16 3 17 2 18 1 19
REMARK H PARENT
REMARK Flexibility Score: inf
ROOT
ATOM      1  C   UNL     1     103.912 312.437 198.113  1.00  0.00     0.000 C 
ENDROOT
BRANCH   1   2
ATOM      2  C   UNL     1     103.409 311.689 199.358  1.00  0.00     0.000 C 
BRANCH   2   3
ATOM      3  C   UNL     1     104.263 311.969 200.605  1.00  0.00     0.000 C 
BRANCH   3   4
ATOM      4  C   UNL     1     103.575 311.444 201.870  1.00  0.00     0.000 C 
BRANCH   4   5
ATOM      5  C   UNL     1     104.608 311.090 202.952  1.00  0.00     0.001 C 
BRANCH   5   6
ATOM      6  C   UNL     1     103.961 310.753 204.309  1.00  0.00     0.009 C 
BRANCH   6   7
ATOM      7  C   UNL     1     104.668 311.392 205.525  1.00  0.00     0.032 C 
ATOM      8  C   UNL     1     105.755 312.366 205.059  1.00  0.00     0.014 C 
BRANCH   7   9
ATOM      9  C   UNL     1     103.691 312.111 206.416  1.00  0.00     0.044 C 
ATOM     10  O   UNL     1     104.002 313.216 206.934  1.00  0.00    -0.550 OA
ATOM     11  O   UNL     1     102.440 311.561 206.674  1.00  0.00    -0.550 OA
ENDBRANCH   7   9
ENDBRANCH   6   7
ENDBRANCH   5   6
ENDBRANCH   4   5
ENDBRANCH   3   4
ENDBRANCH   2   3
ENDBRANCH   1   2
BRANCH   1  12
ATOM     12  C   UNL     1     104.198 311.493 196.932  1.00  0.00     0.000 C 
BRANCH  12  13
ATOM     13  C   UNL     1     104.359 312.246 195.601  1.00  0.00    -0.000 C 
BRANCH  13  14
ATOM     14  C   UNL     1     105.733 312.021 194.953  1.00  0.00    -0.000 C 
BRANCH  14  15
ATOM     15  C   UNL     1     105.585 311.496 193.520  1.00  0.00    -0.000 C 
BRANCH  15  16
ATOM     16  C   UNL     1     105.657 312.644 192.503  1.00  0.00    -0.000 C 
BRANCH  16  17
ATOM     17  C   UNL     1     104.288 312.993 191.894  1.00  0.00    -0.000 C 
BRANCH  17  18
ATOM     18  C   UNL     1     104.256 314.299 191.081  1.00  0.00    -0.003 C 
ATOM     19  C   UNL     1     103.509 314.160 189.754  1.00  0.00     0.004 C 
ENDBRANCH  17  18
ENDBRANCH  16  17
ENDBRANCH  15  16
ENDBRANCH  14  15
ENDBRANCH  13  14
ENDBRANCH  12  13
ENDBRANCH   1  12
TORSDOF 14
ENDMDL
MODEL 7
REMARK VINA RESULT:    -5.966      0.907      1.893
REMARK INTER + INTRA:         -11.626
REMARK INTER:                 -10.843
REMARK INTRA:                  -0.783
REMARK UNBOUND:                -0.778
REMARK SMILES CCCCCCCCCCCCCC[C@@H](C)C(=O)[O-]
REMARK SMILES IDX 9 1 10 2 11 3 12 4 13 5 14 6 15 7 16 8 17 9 18 10 19 11 8 12
REMARK SMILES IDX 7 13 6 14 5 15 4 16 3 17 2 18 1 19
REMARK H PARENT
REMARK Flexibility Score: inf
ROOT
ATOM      1  C   UNL     1      88.875 325.079 196.736  1.00  0.00     0.000 C 
ENDROOT
BRANCH   1   2
ATOM      2  C   UNL     1      89.310 324.636 198.142  1.00  0.00     0.000 C 
BRANCH   2   3
ATOM      3  C   UNL     1      89.260 325.779 199.168  1.00  0.00     0.000 C 
BRANCH   3   4
ATOM      4  C   UNL     1      88.711 325.286 200.512  1.00  0.00     0.000 C 
BRANCH   4   5
ATOM      5  C   UNL     1      88.581 326.445 201.512  1.00  0.00     0.001 C 
BRANCH   5   6
ATOM      6  C   UNL     1      89.264 326.151 202.861  1.00  0.00     0.009 C 
BRANCH   6   7
ATOM      7  C   UNL     1      89.713 327.411 203.634  1.00  0.00     0.032 C 
ATOM      8  C   UNL     1      89.174 327.379 205.068  1.00  0.00     0.014 C 
BRANCH   7   9
ATOM      9  C   UNL     1      91.212 327.538 203.658  1.00  0.00     0.044 C 
ATOM     10  O   UNL     1      91.860 327.581 202.580  1.00  0.00    -0.550 OA
ATOM     11  O   UNL     1      91.892 327.608 204.869  1.00  0.00    -0.550 OA
ENDBRANCH   7   9
ENDBRANCH   6   7
ENDBRANCH   5   6
ENDBRANCH   4   5
ENDBRANCH   3   4
ENDBRANCH   2   3
ENDBRANCH   1   2
BRANCH   1  12
ATOM     12  C   UNL     1      88.242 326.481 196.728  1.00  0.00     0.000 C 
BRANCH  12  13
ATOM     13  C   UNL     1      86.918 326.526 195.948  1.00  0.00    -0.000 C 
BRANCH  13  14
ATOM     14  C   UNL     1      87.120 326.416 194.428  1.00  0.00    -0.000 C 
BRANCH  14  15
ATOM     15  C   UNL     1      86.026 325.551 193.791  1.00  0.00    -0.000 C 
BRANCH  15  16
ATOM     16  C   UNL     1      86.611 324.636 192.706  1.00  0.00    -0.000 C 
BRANCH  16  17
ATOM     17  C   UNL     1      88.047 325.022 192.305  1.00  0.00    -0.000 C 
BRANCH  17  18
ATOM     18  C   UNL     1      88.562 324.350 191.021  1.00  0.00    -0.003 C 
ATOM     19  C   UNL     1      88.854 322.861 191.200  1.00  0.00     0.004 C 
ENDBRANCH  17  18
ENDBRANCH  16  17
ENDBRANCH  15  16
ENDBRANCH  14  15
ENDBRANCH  13  14
ENDBRANCH  12  13
ENDBRANCH   1  12
TORSDOF 14
ENDMDL
MODEL 8
REMARK VINA RESULT:    -5.954      7.137     10.841
REMARK INTER + INTRA:         -11.604
REMARK INTER:                  -9.363
REMARK INTRA:                  -2.241
REMARK UNBOUND:                -0.778
REMARK SMILES CCCCCCCCCCCCCC[C@@H](C)C(=O)[O-]
REMARK SMILES IDX 9 1 10 2 11 3 12 4 13 5 14 6 15 7 16 8 17 9 18 10 19 11 8 12
REMARK SMILES IDX 7 13 6 14 5 15 4 16 3 17 2 18 1 19
REMARK H PARENT
REMARK Flexibility Score: inf
ROOT
ATOM      1  C   UNL     1      87.867 327.041 193.962  1.00  0.00     0.000 C 
ENDROOT
BRANCH   1   2
ATOM      2  C   UNL     1      88.175 325.817 193.084  1.00  0.00     0.000 C 
BRANCH   2   3
ATOM      3  C   UNL     1      86.941 324.935 192.841  1.00  0.00     0.000 C 
BRANCH   3   4
ATOM      4  C   UNL     1      87.170 323.984 191.660  1.00  0.00     0.000 C 
BRANCH   4   5
ATOM      5  C   UNL     1      88.521 324.264 190.982  1.00  0.00     0.001 C 
BRANCH   5   6
ATOM      6  C   UNL     1      88.792 323.335 189.783  1.00  0.00     0.009 C 
BRANCH   6   7
ATOM      7  C   UNL     1      87.767 322.189 189.624  1.00  0.00     0.032 C 
ATOM      8  C   UNL     1      87.096 322.261 188.248  1.00  0.00     0.014 C 
BRANCH   7   9
ATOM      9  C   UNL     1      88.415 320.842 189.802  1.00  0.00     0.044 C 
ATOM     10  O   UNL     1      89.641 320.762 190.075  1.00  0.00    -0.550 OA
ATOM     11  O   UNL     1      87.665 319.679 189.666  1.00  0.00    -0.550 OA
ENDBRANCH   7   9
ENDBRANCH   6   7
ENDBRANCH   5   6
ENDBRANCH   4   5
ENDBRANCH   3   4
ENDBRANCH   2   3
ENDBRANCH   1   2
BRANCH   1  12
ATOM     12  C   UNL     1      86.619 326.840 194.839  1.00  0.00     0.000 C 
BRANCH  12  13
ATOM     13  C   UNL     1      86.960 326.292 196.234  1.00  0.00    -0.000 C 
BRANCH  13  14
ATOM     14  C   UNL     1      88.430 326.517 196.619  1.00  0.00    -0.000 C 
BRANCH  14  15
ATOM     15  C   UNL     1      89.089 325.205 197.060  1.00  0.00    -0.000 C 
BRANCH  15  16
ATOM     16  C   UNL     1      88.357 323.994 196.463  1.00  0.00    -0.000 C 
BRANCH  16  17
ATOM     17  C   UNL     1      89.214 323.215 195.448  1.00  0.00    -0.000 C 
BRANCH  17  18
ATOM     18  C   UNL     1      88.448 322.162 194.629  1.00  0.00    -0.003 C 
ATOM     19  C   UNL     1      89.293 321.537 193.519  1.00  0.00     0.004 C 
ENDBRANCH  17  18
ENDBRANCH  16  17
ENDBRANCH  15  16
ENDBRANCH  14  15
ENDBRANCH  13  14
ENDBRANCH  12  13
ENDBRANCH   1  12
TORSDOF 14
ENDMDL
MODEL 9
REMARK VINA RESULT:    -5.935     19.842     22.506
REMARK INTER + INTRA:         -11.570
REMARK INTER:                  -9.606
REMARK INTRA:                  -1.963
REMARK UNBOUND:                -0.778
REMARK SMILES CCCCCCCCCCCCCC[C@@H](C)C(=O)[O-]
REMARK SMILES IDX 9 1 10 2 11 3 12 4 13 5 14 6 15 7 16 8 17 9 18 10 19 11 8 12
REMARK SMILES IDX 7 13 6 14 5 15 4 16 3 17 2 18 1 19
REMARK H PARENT
REMARK Flexibility Score: inf
ROOT
ATOM      1  C   UNL     1     104.588 311.890 192.884  1.00  0.00     0.000 C 
ENDROOT
BRANCH   1   2
ATOM      2  C   UNL     1     104.642 312.997 191.819  1.00  0.00     0.000 C 
BRANCH   2   3
ATOM      3  C   UNL     1     106.009 313.696 191.757  1.00  0.00     0.000 C 
BRANCH   3   4
ATOM      4  C   UNL     1     106.028 314.766 190.659  1.00  0.00     0.000 C 
BRANCH   4   5
ATOM      5  C   UNL     1     104.631 314.954 190.049  1.00  0.00     0.001 C 
BRANCH   5   6
ATOM      6  C   UNL     1     104.672 315.579 188.641  1.00  0.00     0.009 C 
BRANCH   6   7
ATOM      7  C   UNL     1     103.430 315.273 187.775  1.00  0.00     0.032 C 
ATOM      8  C   UNL     1     102.550 314.221 188.457  1.00  0.00     0.014 C 
BRANCH   7   9
ATOM      9  C   UNL     1     102.623 316.515 187.510  1.00  0.00     0.044 C 
ATOM     10  O   UNL     1     103.087 317.646 187.810  1.00  0.00    -0.550 OA
ATOM     11  O   UNL     1     101.360 316.424 186.935  1.00  0.00    -0.550 OA
ENDBRANCH   7   9
ENDBRANCH   6   7
ENDBRANCH   5   6
ENDBRANCH   4   5
ENDBRANCH   3   4
ENDBRANCH   2   3
ENDBRANCH   1   2
BRANCH   1  12
ATOM     12  C   UNL     1     105.892 311.786 193.694  1.00  0.00     0.000 C 
BRANCH  12  13
ATOM     13  C   UNL     1     105.640 311.707 195.209  1.00  0.00    -0.000 C 
BRANCH  13  14
ATOM     14  C   UNL     1     104.182 312.009 195.586  1.00  0.00    -0.000 C 
BRANCH  14  15
ATOM     15  C   UNL     1     104.111 312.989 196.763  1.00  0.00    -0.000 C 
BRANCH  15  16
ATOM     16  C   UNL     1     103.594 314.361 196.305  1.00  0.00    -0.000 C 
BRANCH  16  17
ATOM     17  C   UNL     1     104.398 314.943 195.129  1.00  0.00    -0.000 C 
BRANCH  17  18
ATOM     18  C   UNL     1     103.548 315.605 194.030  1.00  0.00    -0.003 C 
ATOM     19  C   UNL     1     104.261 316.769 193.342  1.00  0.00     0.004 C 
ENDBRANCH  17  18
ENDBRANCH  16  17
ENDBRANCH  15  16
ENDBRANCH  14  15
ENDBRANCH  13  14
ENDBRANCH  12  13
ENDBRANCH   1  12
TORSDOF 14
ENDMDL
