MODEL 1
REMARK VINA RESULT:    -4.753      0.000      0.000
REMARK INTER + INTRA:          -7.664
REMARK INTER:                  -7.254
REMARK INTRA:                  -0.409
REMARK UNBOUND:                -0.409
REMARK SMILES CCCCCCCCCCC(=O)[O-]
REMARK SMILES IDX 7 1 8 2 9 3 10 4 11 5 12 6 13 7 6 8 5 9 4 10 3 11 2 12 1 13
REMARK H PARENT
REMARK Flexibility Score: inf
ROOT
ATOM      1  C   UNL     1       3.436  -7.538 -21.119  1.00  0.00     0.000 C 
ENDROOT
BRANCH   1   2
ATOM      2  C   UNL     1       3.161  -6.723 -19.837  1.00  0.00     0.000 C 
BRANCH   2   3
ATOM      3  C   UNL     1       4.401  -5.991 -19.296  1.00  0.00     0.006 C 
BRANCH   3   4
ATOM      4  C   UNL     1       4.051  -4.879 -18.301  1.00  0.00     0.053 C 
BRANCH   4   5
ATOM      5  C   UNL     1       5.250  -4.028 -18.026  1.00  0.00     0.041 C 
ATOM      6  O   UNL     1       5.954  -4.236 -17.003  1.00  0.00    -0.550 OA
ATOM      7  O   UNL     1       5.563  -2.973 -18.875  1.00  0.00    -0.550 OA
ENDBRANCH   4   5
ENDBRANCH   3   4
ENDBRANCH   2   3
ENDBRANCH   1   2
BRANCH   1   8
ATOM      8  C   UNL     1       4.724  -8.373 -21.011  1.00  0.00     0.000 C 
BRANCH   8   9
ATOM      9  C   UNL     1       5.748  -8.029 -22.103  1.00  0.00    -0.000 C 
BRANCH   9  10
ATOM     10  C   UNL     1       6.251  -9.271 -22.857  1.00  0.00    -0.000 C 
BRANCH  10  11
ATOM     11  C   UNL     1       5.300 -10.475 -22.700  1.00  0.00    -0.000 C 
BRANCH  11  12
ATOM     12  C   UNL     1       5.575 -11.612 -23.700  1.00  0.00    -0.003 C 
ATOM     13  C   UNL     1       6.943 -11.502 -24.368  1.00  0.00     0.004 C 
ENDBRANCH  11  12
ENDBRANCH  10  11
ENDBRANCH   9  10
ENDBRANCH   8   9
ENDBRANCH   1   8
TORSDOF 9
ENDMDL
MODEL 2
REMARK VINA RESULT:    -4.614      1.081      1.366
REMARK INTER + INTRA:          -7.451
REMARK INTER:                  -7.071
REMARK INTRA:                  -0.380
REMARK UNBOUND:                -0.409
REMARK SMILES CCCCCCCCCCC(=O)[O-]
REMARK SMILES IDX 7 1 8 2 9 3 10 4 11 5 12 6 13 7 6 8 5 9 4 10 3 11 2 12 1 13
REMARK H PARENT
REMARK Flexibility Score: inf
ROOT
ATOM      1  C   UNL     1       4.482  -6.641 -20.497  1.00  0.00     0.000 C 
ENDROOT
BRANCH   1   2
ATOM      2  C   UNL     1       3.159  -6.636 -19.702  1.00  0.00     0.000 C 
BRANCH   2   3
ATOM      3  C   UNL     1       3.237  -5.848 -18.383  1.00  0.00     0.006 C 
BRANCH   3   4
ATOM      4  C   UNL     1       4.427  -4.885 -18.333  1.00  0.00     0.053 C 
BRANCH   4   5
ATOM      5  C   UNL     1       4.006  -3.511 -18.749  1.00  0.00     0.041 C 
ATOM      6  O   UNL     1       4.850  -2.706 -19.223  1.00  0.00    -0.550 OA
ATOM      7  O   UNL     1       2.690  -3.103 -18.570  1.00  0.00    -0.550 OA
ENDBRANCH   4   5
ENDBRANCH   3   4
ENDBRANCH   2   3
ENDBRANCH   1   2
BRANCH   1   8
ATOM      8  C   UNL     1       4.712  -7.974 -21.232  1.00  0.00     0.000 C 
BRANCH   8   9
ATOM      9  C   UNL     1       5.815  -7.881 -22.296  1.00  0.00    -0.000 C 
BRANCH   9  10
ATOM     10  C   UNL     1       6.295  -9.262 -22.776  1.00  0.00    -0.000 C 
BRANCH  10  11
ATOM     11  C   UNL     1       5.205 -10.344 -22.622  1.00  0.00    -0.000 C 
BRANCH  11  12
ATOM     12  C   UNL     1       5.402 -11.552 -23.554  1.00  0.00    -0.003 C 
ATOM     13  C   UNL     1       6.761 -11.555 -24.250  1.00  0.00     0.004 C 
ENDBRANCH  11  12
ENDBRANCH  10  11
ENDBRANCH   9  10
ENDBRANCH   8   9
ENDBRANCH   1   8
TORSDOF 9
ENDMDL
MODEL 3
REMARK VINA RESULT:    -4.540      1.252      1.803
REMARK INTER + INTRA:          -7.339
REMARK INTER:                  -6.900
REMARK INTRA:                  -0.439
REMARK UNBOUND:                -0.409
REMARK SMILES CCCCCCCCCCC(=O)[O-]
REMARK SMILES IDX 7 1 8 2 9 3 10 4 11 5 12 6 13 7 6 8 5 9 4 10 3 11 2 12 1 13
REMARK H PARENT
REMARK Flexibility Score: inf
ROOT
ATOM      1  C   UNL     1       5.122  -6.947 -21.923  1.00  0.00     0.000 C 
ENDROOT
BRANCH   1   2
ATOM      2  C   UNL     1       4.423  -7.589 -20.706  1.00  0.00     0.000 C 
BRANCH   2   3
ATOM      3  C   UNL     1       4.232  -6.622 -19.525  1.00  0.00     0.006 C 
BRANCH   3   4
ATOM      4  C   UNL     1       4.805  -5.226 -19.798  1.00  0.00     0.053 C 
BRANCH   4   5
ATOM      5  C   UNL     1       4.618  -4.343 -18.605  1.00  0.00     0.041 C 
ATOM      6  O   UNL     1       5.588  -4.098 -17.841  1.00  0.00    -0.550 OA
ATOM      7  O   UNL     1       3.361  -3.829 -18.311  1.00  0.00    -0.550 OA
ENDBRANCH   4   5
ENDBRANCH   3   4
ENDBRANCH   2   3
ENDBRANCH   1   2
BRANCH   1   8
ATOM      8  C   UNL     1       6.200  -7.867 -22.524  1.00  0.00     0.000 C 
BRANCH   8   9
ATOM      9  C   UNL     1       5.793  -9.347 -22.508  1.00  0.00    -0.000 C 
BRANCH   9  10
ATOM     10  C   UNL     1       6.615 -10.200 -23.489  1.00  0.00    -0.000 C 
BRANCH  10  11
ATOM     11  C   UNL     1       5.930 -11.545 -23.809  1.00  0.00    -0.000 C 
BRANCH  11  12
ATOM     12  C   UNL     1       4.704 -11.836 -22.927  1.00  0.00    -0.003 C 
ATOM     13  C   UNL     1       4.894 -13.049 -22.019  1.00  0.00     0.004 C 
ENDBRANCH  11  12
ENDBRANCH  10  11
ENDBRANCH   9  10
ENDBRANCH   8   9
ENDBRANCH   1   8
TORSDOF 9
ENDMDL
MODEL 4
REMARK VINA RESULT:    -4.481      4.103      7.120
REMARK INTER + INTRA:          -7.248
REMARK INTER:                  -6.787
REMARK INTRA:                  -0.460
REMARK UNBOUND:                -0.409
REMARK SMILES CCCCCCCCCCC(=O)[O-]
REMARK SMILES IDX 7 1 8 2 9 3 10 4 11 5 12 6 13 7 6 8 5 9 4 10 3 11 2 12 1 13
REMARK H PARENT
REMARK Flexibility Score: inf
ROOT
ATOM      1  C   UNL     1       7.115  -9.355 -23.287  1.00  0.00     0.000 C 
ENDROOT
BRANCH   1   2
ATOM      2  C   UNL     1       6.820 -10.688 -24.007  1.00  0.00     0.000 C 
BRANCH   2   3
ATOM      3  C   UNL     1       5.483 -11.327 -23.595  1.00  0.00     0.006 C 
BRANCH   3   4
ATOM      4  C   UNL     1       5.648 -12.738 -23.020  1.00  0.00     0.053 C 
BRANCH   4   5
ATOM      5  C   UNL     1       4.651 -12.979 -21.932  1.00  0.00     0.041 C 
ATOM      6  O   UNL     1       4.480 -14.139 -21.475  1.00  0.00    -0.550 OA
ATOM      7  O   UNL     1       3.875 -11.929 -21.455  1.00  0.00    -0.550 OA
ENDBRANCH   4   5
ENDBRANCH   3   4
ENDBRANCH   2   3
ENDBRANCH   1   2
BRANCH   1   8
ATOM      8  C   UNL     1       5.951  -8.914 -22.382  1.00  0.00     0.000 C 
BRANCH   8   9
ATOM      9  C   UNL     1       5.832  -7.387 -22.271  1.00  0.00    -0.000 C 
BRANCH   9  10
ATOM     10  C   UNL     1       4.471  -6.937 -21.710  1.00  0.00    -0.000 C 
BRANCH  10  11
ATOM     11  C   UNL     1       4.276  -7.365 -20.241  1.00  0.00    -0.000 C 
BRANCH  11  12
ATOM     12  C   UNL     1       4.185  -6.182 -19.262  1.00  0.00    -0.003 C 
ATOM     13  C   UNL     1       4.864  -4.919 -19.786  1.00  0.00     0.004 C 
ENDBRANCH  11  12
ENDBRANCH  10  11
ENDBRANCH   9  10
ENDBRANCH   8   9
ENDBRANCH   1   8
TORSDOF 9
ENDMDL
MODEL 5
REMARK VINA RESULT:    -4.366      1.619      2.276
REMARK INTER + INTRA:          -7.073
REMARK INTER:                  -6.846
REMARK INTRA:                  -0.227
REMARK UNBOUND:                -0.409
REMARK SMILES CCCCCCCCCCC(=O)[O-]
REMARK SMILES IDX 7 1 8 2 9 3 10 4 11 5 12 6 13 7 6 8 5 9 4 10 3 11 2 12 1 13
REMARK H PARENT
REMARK Flexibility Score: inf
ROOT
ATOM      1  C   UNL     1       5.608  -7.315 -22.248  1.00  0.00     0.000 C 
ENDROOT
BRANCH   1   2
ATOM      2  C   UNL     1       4.768  -6.852 -21.039  1.00  0.00     0.000 C 
BRANCH   2   3
ATOM      3  C   UNL     1       5.095  -5.423 -20.573  1.00  0.00     0.006 C 
BRANCH   3   4
ATOM      4  C   UNL     1       4.420  -5.058 -19.247  1.00  0.00     0.053 C 
BRANCH   4   5
ATOM      5  C   UNL     1       5.183  -3.974 -18.553  1.00  0.00     0.041 C 
ATOM      6  O   UNL     1       5.300  -2.840 -19.086  1.00  0.00    -0.550 OA
ATOM      7  O   UNL     1       5.806  -4.232 -17.338  1.00  0.00    -0.550 OA
ENDBRANCH   4   5
ENDBRANCH   3   4
ENDBRANCH   2   3
ENDBRANCH   1   2
BRANCH   1   8
ATOM      8  C   UNL     1       5.887  -8.828 -22.214  1.00  0.00     0.000 C 
BRANCH   8   9
ATOM      9  C   UNL     1       4.606  -9.666 -22.100  1.00  0.00    -0.000 C 
BRANCH   9  10
ATOM     10  C   UNL     1       4.814 -11.131 -22.521  1.00  0.00    -0.000 C 
BRANCH  10  11
ATOM     11  C   UNL     1       3.965 -12.106 -21.680  1.00  0.00    -0.000 C 
BRANCH  11  12
ATOM     12  C   UNL     1       4.241 -13.588 -21.989  1.00  0.00    -0.003 C 
ATOM     13  C   UNL     1       5.636 -14.038 -21.560  1.00  0.00     0.004 C 
ENDBRANCH  11  12
ENDBRANCH  10  11
ENDBRANCH   9  10
ENDBRANCH   8   9
ENDBRANCH   1   8
TORSDOF 9
ENDMDL
MODEL 6
REMARK VINA RESULT:    -4.325      4.291      7.205
REMARK INTER + INTRA:          -7.009
REMARK INTER:                  -6.438
REMARK INTRA:                  -0.571
REMARK UNBOUND:                -0.409
REMARK SMILES CCCCCCCCCCC(=O)[O-]
REMARK SMILES IDX 7 1 8 2 9 3 10 4 11 5 12 6 13 7 6 8 5 9 4 10 3 11 2 12 1 13
REMARK H PARENT
REMARK Flexibility Score: inf
ROOT
ATOM      1  C   UNL     1       5.893  -9.003 -22.140  1.00  0.00     0.000 C 
ENDROOT
BRANCH   1   2
ATOM      2  C   UNL     1       6.601  -9.751 -23.289  1.00  0.00     0.000 C 
BRANCH   2   3
ATOM      3  C   UNL     1       5.984 -11.126 -23.600  1.00  0.00     0.006 C 
BRANCH   3   4
ATOM      4  C   UNL     1       4.517 -11.233 -23.170  1.00  0.00     0.053 C 
BRANCH   4   5
ATOM      5  C   UNL     1       4.246 -12.576 -22.569  1.00  0.00     0.041 C 
ATOM      6  O   UNL     1       5.105 -13.125 -21.830  1.00  0.00    -0.550 OA
ATOM      7  O   UNL     1       3.064 -13.244 -22.864  1.00  0.00    -0.550 OA
ENDBRANCH   4   5
ENDBRANCH   3   4
ENDBRANCH   2   3
ENDBRANCH   1   2
BRANCH   1   8
ATOM      8  C   UNL     1       5.879  -7.480 -22.361  1.00  0.00     0.000 C 
BRANCH   8   9
ATOM      9  C   UNL     1       4.516  -6.848 -22.044  1.00  0.00    -0.000 C 
BRANCH   9  10
ATOM     10  C   UNL     1       3.924  -7.348 -20.714  1.00  0.00    -0.000 C 
BRANCH  10  11
ATOM     11  C   UNL     1       4.380  -6.491 -19.515  1.00  0.00    -0.000 C 
BRANCH  11  12
ATOM     12  C   UNL     1       4.522  -4.995 -19.845  1.00  0.00    -0.003 C 
ATOM     13  C   UNL     1       5.166  -4.193 -18.717  1.00  0.00     0.004 C 
ENDBRANCH  11  12
ENDBRANCH  10  11
ENDBRANCH   9  10
ENDBRANCH   8   9
ENDBRANCH   1   8
TORSDOF 9
ENDMDL
MODEL 7
REMARK VINA RESULT:    -4.312      4.216      7.362
REMARK INTER + INTRA:          -6.990
REMARK INTER:                  -6.544
REMARK INTRA:                  -0.446
REMARK UNBOUND:                -0.409
REMARK SMILES CCCCCCCCCCC(=O)[O-]
REMARK SMILES IDX 7 1 8 2 9 3 10 4 11 5 12 6 13 7 6 8 5 9 4 10 3 11 2 12 1 13
REMARK H PARENT
REMARK Flexibility Score: inf
ROOT
ATOM      1  C   UNL     1       5.825  -7.505 -22.324  1.00  0.00     0.000 C 
ENDROOT
BRANCH   1   2
ATOM      2  C   UNL     1       6.248  -8.976 -22.526  1.00  0.00     0.000 C 
BRANCH   2   3
ATOM      3  C   UNL     1       5.084  -9.974 -22.403  1.00  0.00     0.006 C 
BRANCH   3   4
ATOM      4  C   UNL     1       5.266 -11.215 -23.283  1.00  0.00     0.053 C 
BRANCH   4   5
ATOM      5  C   UNL     1       4.034 -12.063 -23.252  1.00  0.00     0.041 C 
ATOM      6  O   UNL     1       3.171 -11.960 -24.162  1.00  0.00    -0.550 OA
ATOM      7  O   UNL     1       3.816 -12.933 -22.190  1.00  0.00    -0.550 OA
ENDBRANCH   4   5
ENDBRANCH   3   4
ENDBRANCH   2   3
ENDBRANCH   1   2
BRANCH   1   8
ATOM      8  C   UNL     1       4.478  -7.385 -21.589  1.00  0.00     0.000 C 
BRANCH   8   9
ATOM      9  C   UNL     1       4.640  -7.009 -20.110  1.00  0.00    -0.000 C 
BRANCH   9  10
ATOM     10  C   UNL     1       3.318  -6.561 -19.462  1.00  0.00    -0.000 C 
BRANCH  10  11
ATOM     11  C   UNL     1       3.469  -5.238 -18.684  1.00  0.00    -0.000 C 
BRANCH  11  12
ATOM     12  C   UNL     1       4.840  -4.565 -18.874  1.00  0.00    -0.003 C 
ATOM     13  C   UNL     1       5.493  -4.155 -17.556  1.00  0.00     0.004 C 
ENDBRANCH  11  12
ENDBRANCH  10  11
ENDBRANCH   9  10
ENDBRANCH   8   9
ENDBRANCH   1   8
TORSDOF 9
ENDMDL
MODEL 8
REMARK VINA RESULT:    -4.300      1.993      2.983
REMARK INTER + INTRA:          -6.972
REMARK INTER:                  -6.539
REMARK INTRA:                  -0.434
REMARK UNBOUND:                -0.409
REMARK SMILES CCCCCCCCCCC(=O)[O-]
REMARK SMILES IDX 7 1 8 2 9 3 10 4 11 5 12 6 13 7 6 8 5 9 4 10 3 11 2 12 1 13
REMARK H PARENT
REMARK Flexibility Score: inf
ROOT
ATOM      1  C   UNL     1       4.962  -9.327 -22.121  1.00  0.00     0.000 C 
ENDROOT
BRANCH   1   2
ATOM      2  C   UNL     1       5.286  -7.856 -21.781  1.00  0.00     0.000 C 
BRANCH   2   3
ATOM      3  C   UNL     1       4.358  -7.252 -20.714  1.00  0.00     0.006 C 
BRANCH   3   4
ATOM      4  C   UNL     1       4.753  -5.826 -20.317  1.00  0.00     0.053 C 
BRANCH   4   5
ATOM      5  C   UNL     1       4.290  -5.522 -18.928  1.00  0.00     0.041 C 
ATOM      6  O   UNL     1       4.960  -4.753 -18.190  1.00  0.00    -0.550 OA
ATOM      7  O   UNL     1       3.143  -6.128 -18.430  1.00  0.00    -0.550 OA
ENDBRANCH   4   5
ENDBRANCH   3   4
ENDBRANCH   2   3
ENDBRANCH   1   2
BRANCH   1   8
ATOM      8  C   UNL     1       6.070  -9.986 -22.962  1.00  0.00     0.000 C 
BRANCH   8   9
ATOM      9  C   UNL     1       5.646 -11.344 -23.540  1.00  0.00    -0.000 C 
BRANCH   9  10
ATOM     10  C   UNL     1       4.141 -11.615 -23.378  1.00  0.00    -0.000 C 
BRANCH  10  11
ATOM     11  C   UNL     1       3.861 -12.816 -22.451  1.00  0.00    -0.000 C 
BRANCH  11  12
ATOM     12  C   UNL     1       5.136 -13.492 -21.918  1.00  0.00    -0.003 C 
ATOM     13  C   UNL     1       5.054 -15.017 -21.931  1.00  0.00     0.004 C 
ENDBRANCH  11  12
ENDBRANCH  10  11
ENDBRANCH   9  10
ENDBRANCH   8   9
ENDBRANCH   1   8
TORSDOF 9
ENDMDL
MODEL 9
REMARK VINA RESULT:    -4.190      2.142      3.615
REMARK INTER + INTRA:          -6.804
REMARK INTER:                  -6.121
REMARK INTRA:                  -0.682
REMARK UNBOUND:                -0.409
REMARK SMILES CCCCCCCCCCC(=O)[O-]
REMARK SMILES IDX 7 1 8 2 9 3 10 4 11 5 12 6 13 7 6 8 5 9 4 10 3 11 2 12 1 13
REMARK H PARENT
REMARK Flexibility Score: inf
ROOT
ATOM      1  C   UNL     1       5.641  -9.585 -22.531  1.00  0.00     0.000 C 
ENDROOT
BRANCH   1   2
ATOM      2  C   UNL     1       6.158  -8.131 -22.510  1.00  0.00     0.000 C 
BRANCH   2   3
ATOM      3  C   UNL     1       5.146  -7.127 -21.931  1.00  0.00     0.006 C 
BRANCH   3   4
ATOM      4  C   UNL     1       4.540  -7.591 -20.602  1.00  0.00     0.053 C 
BRANCH   4   5
ATOM      5  C   UNL     1       3.932  -6.435 -19.873  1.00  0.00     0.041 C 
ATOM      6  O   UNL     1       4.518  -5.935 -18.877  1.00  0.00    -0.550 OA
ATOM      7  O   UNL     1       2.695  -5.939 -20.264  1.00  0.00    -0.550 OA
ENDBRANCH   4   5
ENDBRANCH   3   4
ENDBRANCH   2   3
ENDBRANCH   1   2
BRANCH   1   8
ATOM      8  C   UNL     1       6.367 -10.444 -23.583  1.00  0.00     0.000 C 
BRANCH   8   9
ATOM      9  C   UNL     1       5.769 -11.852 -23.714  1.00  0.00    -0.000 C 
BRANCH   9  10
ATOM     10  C   UNL     1       4.899 -12.242 -22.506  1.00  0.00    -0.000 C 
BRANCH  10  11
ATOM     11  C   UNL     1       3.493 -12.717 -22.930  1.00  0.00    -0.000 C 
BRANCH  11  12
ATOM     12  C   UNL     1       2.944 -11.986 -24.168  1.00  0.00    -0.003 C 
ATOM     13  C   UNL     1       2.200 -10.699 -23.821  1.00  0.00     0.004 C 
ENDBRANCH  11  12
ENDBRANCH  10  11
ENDBRANCH   9  10
ENDBRANCH   8   9
ENDBRANCH   1   8
TORSDOF 9
ENDMDL
