MODEL 1
REMARK VINA RESULT:    -3.925      0.000      0.000
REMARK INTER + INTRA:          -5.873
REMARK INTER:                  -5.532
REMARK INTRA:                  -0.341
REMARK UNBOUND:                -0.341
REMARK SMILES CCCCCCCCC(=O)[O-]
REMARK SMILES IDX 6 1 7 2 8 3 9 4 10 5 11 6 5 7 4 8 3 9 2 10 1 11
REMARK H PARENT
REMARK Flexibility Score: inf
ROOT
ATOM      1  C   UNL     1      72.471 -37.528  11.355  1.00  0.00     0.000 C 
ENDROOT
BRANCH   1   2
ATOM      2  C   UNL     1      73.879 -37.413  10.743  1.00  0.00     0.006 C 
BRANCH   2   3
ATOM      3  C   UNL     1      74.983 -37.913  11.683  1.00  0.00     0.053 C 
BRANCH   3   4
ATOM      4  C   UNL     1      76.278 -37.230  11.377  1.00  0.00     0.041 C 
ATOM      5  O   UNL     1      76.307 -36.248  10.590  1.00  0.00    -0.550 OA
ATOM      6  O   UNL     1      77.463 -37.708  11.923  1.00  0.00    -0.550 OA
ENDBRANCH   3   4
ENDBRANCH   2   3
ENDBRANCH   1   2
BRANCH   1   7
ATOM      7  C   UNL     1      71.316 -37.508  10.338  1.00  0.00     0.000 C 
BRANCH   7   8
ATOM      8  C   UNL     1      70.189 -38.490  10.693  1.00  0.00    -0.000 C 
BRANCH   8   9
ATOM      9  C   UNL     1      70.747 -39.741  11.383  1.00  0.00    -0.000 C 
BRANCH   9  10
ATOM     10  C   UNL     1      70.069 -41.009  10.855  1.00  0.00    -0.003 C 
ATOM     11  C   UNL     1      69.737 -40.881   9.372  1.00  0.00     0.004 C 
ENDBRANCH   9  10
ENDBRANCH   8   9
ENDBRANCH   7   8
ENDBRANCH   1   7
TORSDOF 7
ENDMDL
MODEL 2
REMARK VINA RESULT:    -3.862      1.344      2.388
REMARK INTER + INTRA:          -5.783
REMARK INTER:                  -5.291
REMARK INTRA:                  -0.492
REMARK UNBOUND:                -0.341
REMARK SMILES CCCCCCCCC(=O)[O-]
REMARK SMILES IDX 6 1 7 2 8 3 9 4 10 5 11 6 5 7 4 8 3 9 2 10 1 11
REMARK H PARENT
REMARK Flexibility Score: inf
ROOT
ATOM      1  C   UNL     1      71.821 -37.750  11.661  1.00  0.00     0.000 C 
ENDROOT
BRANCH   1   2
ATOM      2  C   UNL     1      73.017 -37.271  10.818  1.00  0.00     0.006 C 
BRANCH   2   3
ATOM      3  C   UNL     1      74.365 -37.764  11.359  1.00  0.00     0.053 C 
BRANCH   3   4
ATOM      4  C   UNL     1      75.488 -36.982  10.754  1.00  0.00     0.041 C 
ATOM      5  O   UNL     1      76.387 -36.494  11.488  1.00  0.00    -0.550 OA
ATOM      6  O   UNL     1      75.515 -36.750   9.385  1.00  0.00    -0.550 OA
ENDBRANCH   3   4
ENDBRANCH   2   3
ENDBRANCH   1   2
BRANCH   1   7
ATOM      7  C   UNL     1      71.327 -39.172  11.339  1.00  0.00     0.000 C 
BRANCH   7   8
ATOM      8  C   UNL     1      70.085 -39.185  10.435  1.00  0.00    -0.000 C 
BRANCH   8   9
ATOM      9  C   UNL     1      69.383 -37.821  10.448  1.00  0.00    -0.000 C 
BRANCH   9  10
ATOM     10  C   UNL     1      69.002 -37.385   9.029  1.00  0.00    -0.003 C 
ATOM     11  C   UNL     1      70.136 -36.606   8.368  1.00  0.00     0.004 C 
ENDBRANCH   9  10
ENDBRANCH   8   9
ENDBRANCH   7   8
ENDBRANCH   1   7
TORSDOF 7
ENDMDL
MODEL 3
REMARK VINA RESULT:    -3.836      4.339      5.629
REMARK INTER + INTRA:          -5.747
REMARK INTER:                  -5.118
REMARK INTRA:                  -0.629
REMARK UNBOUND:                -0.341
REMARK SMILES CCCCCCCCC(=O)[O-]
REMARK SMILES IDX 6 1 7 2 8 3 9 4 10 5 11 6 5 7 4 8 3 9 2 10 1 11
REMARK H PARENT
REMARK Flexibility Score: inf
ROOT
ATOM      1  C   UNL     1      72.800 -35.001   6.711  1.00  0.00     0.000 C 
ENDROOT
BRANCH   1   2
ATOM      2  C   UNL     1      73.142 -36.190   7.629  1.00  0.00     0.006 C 
BRANCH   2   3
ATOM      3  C   UNL     1      72.112 -36.399   8.746  1.00  0.00     0.053 C 
BRANCH   3   4
ATOM      4  C   UNL     1      72.773 -36.956   9.967  1.00  0.00     0.041 C 
ATOM      5  O   UNL     1      72.100 -37.169  11.010  1.00  0.00    -0.550 OA
ATOM      6  O   UNL     1      74.142 -37.193   9.971  1.00  0.00    -0.550 OA
ENDBRANCH   3   4
ENDBRANCH   2   3
ENDBRANCH   1   2
BRANCH   1   7
ATOM      7  C   UNL     1      72.197 -33.780   7.427  1.00  0.00     0.000 C 
BRANCH   7   8
ATOM      8  C   UNL     1      71.434 -32.844   6.477  1.00  0.00    -0.000 C 
BRANCH   8   9
ATOM      9  C   UNL     1      70.092 -33.459   6.062  1.00  0.00    -0.000 C 
BRANCH   9  10
ATOM     10  C   UNL     1      69.307 -33.945   7.285  1.00  0.00    -0.003 C 
ATOM     11  C   UNL     1      68.899 -35.407   7.134  1.00  0.00     0.004 C 
ENDBRANCH   9  10
ENDBRANCH   8   9
ENDBRANCH   7   8
ENDBRANCH   1   7
TORSDOF 7
ENDMDL
MODEL 4
REMARK VINA RESULT:    -3.810     11.047     12.240
REMARK INTER + INTRA:          -5.709
REMARK INTER:                  -5.091
REMARK INTRA:                  -0.619
REMARK UNBOUND:                -0.341
REMARK SMILES CCCCCCCCC(=O)[O-]
REMARK SMILES IDX 6 1 7 2 8 3 9 4 10 5 11 6 5 7 4 8 3 9 2 10 1 11
REMARK H PARENT
REMARK Flexibility Score: inf
ROOT
ATOM      1  C   UNL     1      73.687 -32.103  21.819  1.00  0.00     0.000 C 
ENDROOT
BRANCH   1   2
ATOM      2  C   UNL     1      72.168 -32.282  21.643  1.00  0.00     0.006 C 
BRANCH   2   3
ATOM      3  C   UNL     1      71.767 -32.604  20.198  1.00  0.00     0.053 C 
BRANCH   3   4
ATOM      4  C   UNL     1      72.053 -31.439  19.304  1.00  0.00     0.041 C 
ATOM      5  O   UNL     1      72.903 -31.541  18.381  1.00  0.00    -0.550 OA
ATOM      6  O   UNL     1      71.416 -30.223  19.522  1.00  0.00    -0.550 OA
ENDBRANCH   3   4
ENDBRANCH   2   3
ENDBRANCH   1   2
BRANCH   1   7
ATOM      7  C   UNL     1      74.350 -33.093  22.792  1.00  0.00     0.000 C 
BRANCH   7   8
ATOM      8  C   UNL     1      75.360 -34.024  22.104  1.00  0.00    -0.000 C 
BRANCH   8   9
ATOM      9  C   UNL     1      75.131 -35.484  22.518  1.00  0.00    -0.000 C 
BRANCH   9  10
ATOM     10  C   UNL     1      73.660 -35.732  22.866  1.00  0.00    -0.003 C 
ATOM     11  C   UNL     1      72.934 -36.439  21.726  1.00  0.00     0.004 C 
ENDBRANCH   9  10
ENDBRANCH   8   9
ENDBRANCH   7   8
ENDBRANCH   1   7
TORSDOF 7
ENDMDL
MODEL 5
REMARK VINA RESULT:    -3.807     12.296     13.951
REMARK INTER + INTRA:          -5.707
REMARK INTER:                  -5.320
REMARK INTRA:                  -0.386
REMARK UNBOUND:                -0.341
REMARK SMILES CCCCCCCCC(=O)[O-]
REMARK SMILES IDX 6 1 7 2 8 3 9 4 10 5 11 6 5 7 4 8 3 9 2 10 1 11
REMARK H PARENT
REMARK Flexibility Score: inf
ROOT
ATOM      1  C   UNL     1      62.559 -31.259  13.485  1.00  0.00     0.000 C 
ENDROOT
BRANCH   1   2
ATOM      2  C   UNL     1      62.322 -32.025  14.800  1.00  0.00     0.006 C 
BRANCH   2   3
ATOM      3  C   UNL     1      61.947 -33.495  14.577  1.00  0.00     0.053 C 
BRANCH   3   4
ATOM      4  C   UNL     1      63.163 -34.300  14.245  1.00  0.00     0.041 C 
ATOM      5  O   UNL     1      63.978 -34.619  15.151  1.00  0.00    -0.550 OA
ATOM      6  O   UNL     1      63.423 -34.658  12.928  1.00  0.00    -0.550 OA
ENDBRANCH   3   4
ENDBRANCH   2   3
ENDBRANCH   1   2
BRANCH   1   7
ATOM      7  C   UNL     1      63.199 -29.869  13.648  1.00  0.00     0.000 C 
BRANCH   7   8
ATOM      8  C   UNL     1      62.962 -29.260  15.038  1.00  0.00    -0.000 C 
BRANCH   8   9
ATOM      9  C   UNL     1      62.701 -27.751  14.939  1.00  0.00    -0.000 C 
BRANCH   9  10
ATOM     10  C   UNL     1      61.976 -27.403  13.634  1.00  0.00    -0.003 C 
ATOM     11  C   UNL     1      62.611 -26.192  12.957  1.00  0.00     0.004 C 
ENDBRANCH   9  10
ENDBRANCH   8   9
ENDBRANCH   7   8
ENDBRANCH   1   7
TORSDOF 7
ENDMDL
MODEL 6
REMARK VINA RESULT:    -3.777      3.306      4.812
REMARK INTER + INTRA:          -5.663
REMARK INTER:                  -5.373
REMARK INTRA:                  -0.290
REMARK UNBOUND:                -0.341
REMARK SMILES CCCCCCCCC(=O)[O-]
REMARK SMILES IDX 6 1 7 2 8 3 9 4 10 5 11 6 5 7 4 8 3 9 2 10 1 11
REMARK H PARENT
REMARK Flexibility Score: inf
ROOT
ATOM      1  C   UNL     1      70.696 -37.312   9.452  1.00  0.00     0.000 C 
ENDROOT
BRANCH   1   2
ATOM      2  C   UNL     1      72.140 -36.782   9.509  1.00  0.00     0.006 C 
BRANCH   2   3
ATOM      3  C   UNL     1      72.859 -37.144  10.815  1.00  0.00     0.053 C 
BRANCH   3   4
ATOM      4  C   UNL     1      74.314 -37.380  10.562  1.00  0.00     0.041 C 
ATOM      5  O   UNL     1      74.819 -37.090   9.446  1.00  0.00    -0.550 OA
ATOM      6  O   UNL     1      75.104 -37.968  11.542  1.00  0.00    -0.550 OA
ENDBRANCH   3   4
ENDBRANCH   2   3
ENDBRANCH   1   2
BRANCH   1   7
ATOM      7  C   UNL     1      69.855 -36.784   8.275  1.00  0.00     0.000 C 
BRANCH   7   8
ATOM      8  C   UNL     1      70.519 -35.605   7.547  1.00  0.00    -0.000 C 
BRANCH   8   9
ATOM      9  C   UNL     1      69.514 -34.470   7.311  1.00  0.00    -0.000 C 
BRANCH   9  10
ATOM     10  C   UNL     1      70.142 -33.344   6.482  1.00  0.00    -0.003 C 
ATOM     11  C   UNL     1      71.352 -32.744   7.192  1.00  0.00     0.004 C 
ENDBRANCH   9  10
ENDBRANCH   8   9
ENDBRANCH   7   8
ENDBRANCH   1   7
TORSDOF 7
ENDMDL
MODEL 7
REMARK VINA RESULT:    -3.718     11.831     13.515
REMARK INTER + INTRA:          -5.581
REMARK INTER:                  -5.257
REMARK INTRA:                  -0.324
REMARK UNBOUND:                -0.341
REMARK SMILES CCCCCCCCC(=O)[O-]
REMARK SMILES IDX 6 1 7 2 8 3 9 4 10 5 11 6 5 7 4 8 3 9 2 10 1 11
REMARK H PARENT
REMARK Flexibility Score: inf
ROOT
ATOM      1  C   UNL     1      62.744 -31.120  13.493  1.00  0.00     0.000 C 
ENDROOT
BRANCH   1   2
ATOM      2  C   UNL     1      62.072 -32.317  12.794  1.00  0.00     0.006 C 
BRANCH   2   3
ATOM      3  C   UNL     1      62.970 -32.975  11.739  1.00  0.00     0.053 C 
BRANCH   3   4
ATOM      4  C   UNL     1      63.832 -34.023  12.368  1.00  0.00     0.041 C 
ATOM      5  O   UNL     1      63.491 -34.555  13.457  1.00  0.00    -0.550 OA
ATOM      6  O   UNL     1      65.038 -34.379  11.776  1.00  0.00    -0.550 OA
ENDBRANCH   3   4
ENDBRANCH   2   3
ENDBRANCH   1   2
BRANCH   1   7
ATOM      7  C   UNL     1      62.267 -30.856  14.932  1.00  0.00     0.000 C 
BRANCH   7   8
ATOM      8  C   UNL     1      62.630 -29.450  15.435  1.00  0.00    -0.000 C 
BRANCH   8   9
ATOM      9  C   UNL     1      63.244 -28.606  14.310  1.00  0.00    -0.000 C 
BRANCH   9  10
ATOM     10  C   UNL     1      62.702 -27.173  14.340  1.00  0.00    -0.003 C 
ATOM     11  C   UNL     1      62.435 -26.654  12.930  1.00  0.00     0.004 C 
ENDBRANCH   9  10
ENDBRANCH   8   9
ENDBRANCH   7   8
ENDBRANCH   1   7
TORSDOF 7
ENDMDL
MODEL 8
REMARK VINA RESULT:    -3.649      4.938      6.165
REMARK INTER + INTRA:          -5.483
REMARK INTER:                  -4.855
REMARK INTRA:                  -0.628
REMARK UNBOUND:                -0.341
REMARK SMILES CCCCCCCCC(=O)[O-]
REMARK SMILES IDX 6 1 7 2 8 3 9 4 10 5 11 6 5 7 4 8 3 9 2 10 1 11
REMARK H PARENT
REMARK Flexibility Score: inf
ROOT
ATOM      1  C   UNL     1      73.570 -35.329   5.101  1.00  0.00     0.000 C 
ENDROOT
BRANCH   1   2
ATOM      2  C   UNL     1      73.033 -36.322   6.147  1.00  0.00     0.006 C 
BRANCH   2   3
ATOM      3  C   UNL     1      73.462 -35.974   7.578  1.00  0.00     0.053 C 
BRANCH   3   4
ATOM      4  C   UNL     1      74.677 -36.756   7.964  1.00  0.00     0.041 C 
ATOM      5  O   UNL     1      75.277 -37.459   7.108  1.00  0.00    -0.550 OA
ATOM      6  O   UNL     1      75.120 -36.749   9.281  1.00  0.00    -0.550 OA
ENDBRANCH   3   4
ENDBRANCH   2   3
ENDBRANCH   1   2
BRANCH   1   7
ATOM      7  C   UNL     1      73.245 -33.851   5.379  1.00  0.00     0.000 C 
BRANCH   7   8
ATOM      8  C   UNL     1      71.740 -33.547   5.320  1.00  0.00    -0.000 C 
BRANCH   8   9
ATOM      9  C   UNL     1      71.261 -32.890   6.622  1.00  0.00    -0.000 C 
BRANCH   9  10
ATOM     10  C   UNL     1      69.830 -33.322   6.961  1.00  0.00    -0.003 C 
ATOM     11  C   UNL     1      69.671 -34.836   6.853  1.00  0.00     0.004 C 
ENDBRANCH   9  10
ENDBRANCH   8   9
ENDBRANCH   7   8
ENDBRANCH   1   7
TORSDOF 7
ENDMDL
MODEL 9
REMARK VINA RESULT:    -3.634     10.827     11.652
REMARK INTER + INTRA:          -5.462
REMARK INTER:                  -5.137
REMARK INTRA:                  -0.324
REMARK UNBOUND:                -0.341
REMARK SMILES CCCCCCCCC(=O)[O-]
REMARK SMILES IDX 6 1 7 2 8 3 9 4 10 5 11 6 5 7 4 8 3 9 2 10 1 11
REMARK H PARENT
REMARK Flexibility Score: inf
ROOT
ATOM      1  C   UNL     1      71.724 -32.373  20.829  1.00  0.00     0.000 C 
ENDROOT
BRANCH   1   2
ATOM      2  C   UNL     1      71.826 -31.767  19.417  1.00  0.00     0.006 C 
BRANCH   2   3
ATOM      3  C   UNL     1      73.202 -31.156  19.125  1.00  0.00     0.053 C 
BRANCH   3   4
ATOM      4  C   UNL     1      73.131 -30.250  17.937  1.00  0.00     0.041 C 
ATOM      5  O   UNL     1      72.409 -30.554  16.951  1.00  0.00    -0.550 OA
ATOM      6  O   UNL     1      73.900 -29.094  17.897  1.00  0.00    -0.550 OA
ENDBRANCH   3   4
ENDBRANCH   2   3
ENDBRANCH   1   2
BRANCH   1   7
ATOM      7  C   UNL     1      73.057 -32.466  21.594  1.00  0.00     0.000 C 
BRANCH   7   8
ATOM      8  C   UNL     1      73.156 -33.723  22.471  1.00  0.00    -0.000 C 
BRANCH   8   9
ATOM      9  C   UNL     1      74.508 -34.423  22.277  1.00  0.00    -0.000 C 
BRANCH   9  10
ATOM     10  C   UNL     1      74.363 -35.943  22.405  1.00  0.00    -0.003 C 
ATOM     11  C   UNL     1      73.059 -36.428  21.779  1.00  0.00     0.004 C 
ENDBRANCH   9  10
ENDBRANCH   8   9
ENDBRANCH   7   8
ENDBRANCH   1   7
TORSDOF 7
ENDMDL
