MODEL 1
REMARK VINA RESULT:    -5.886      0.000      0.000
REMARK INTER + INTRA:         -11.778
REMARK INTER:                 -10.704
REMARK INTRA:                  -1.074
REMARK UNBOUND:                -1.074
REMARK SMILES CCCCCCCCCCCCCCCC(=O)[O-]
REMARK SMILES IDX 9 1 10 2 11 3 12 4 13 5 14 6 15 7 16 8 17 9 18 10 8 11 7 12
REMARK SMILES IDX 6 13 5 14 4 15 3 16 2 17 1 18
REMARK H PARENT
REMARK Flexibility Score: inf
ROOT
ATOM      1  C   UNL     1      13.556  18.811  18.802  1.00  0.00     0.000 C 
ENDROOT
BRANCH   1   2
ATOM      2  C   UNL     1      14.813  18.173  19.414  1.00  0.00     0.000 C 
BRANCH   2   3
ATOM      3  C   UNL     1      16.086  18.813  18.848  1.00  0.00     0.000 C 
BRANCH   3   4
ATOM      4  C   UNL     1      17.321  18.392  19.660  1.00  0.00     0.000 C 
BRANCH   4   5
ATOM      5  C   UNL     1      18.393  19.491  19.719  1.00  0.00     0.000 C 
BRANCH   5   6
ATOM      6  C   UNL     1      19.806  18.929  19.947  1.00  0.00     0.006 C 
BRANCH   6   7
ATOM      7  C   UNL     1      20.455  19.490  21.220  1.00  0.00     0.053 C 
BRANCH   7   8
ATOM      8  C   UNL     1      21.194  20.765  20.949  1.00  0.00     0.041 C 
ATOM      9  O   UNL     1      22.295  20.743  20.341  1.00  0.00    -0.550 OA
ATOM     10  O   UNL     1      20.645  21.980  21.338  1.00  0.00    -0.550 OA
ENDBRANCH   7   8
ENDBRANCH   6   7
ENDBRANCH   5   6
ENDBRANCH   4   5
ENDBRANCH   3   4
ENDBRANCH   2   3
ENDBRANCH   1   2
BRANCH   1  11
ATOM     11  C   UNL     1      13.862  19.547  17.480  1.00  0.00     0.000 C 
BRANCH  11  12
ATOM     12  C   UNL     1      13.644  21.068  17.557  1.00  0.00    -0.000 C 
BRANCH  12  13
ATOM     13  C   UNL     1      12.328  21.514  16.898  1.00  0.00    -0.000 C 
BRANCH  13  14
ATOM     14  C   UNL     1      11.442  20.331  16.465  1.00  0.00    -0.000 C 
BRANCH  14  15
ATOM     15  C   UNL     1      10.150  20.140  17.281  1.00  0.00    -0.000 C 
BRANCH  15  16
ATOM     16  C   UNL     1       9.740  21.400  18.062  1.00  0.00    -0.000 C 
BRANCH  16  17
ATOM     17  C   UNL     1       9.639  21.148  19.574  1.00  0.00    -0.003 C 
ATOM     18  C   UNL     1      10.995  21.204  20.276  1.00  0.00     0.004 C 
ENDBRANCH  16  17
ENDBRANCH  15  16
ENDBRANCH  14  15
ENDBRANCH  13  14
ENDBRANCH  12  13
ENDBRANCH  11  12
ENDBRANCH   1  11
TORSDOF 14
ENDMDL
MODEL 2
REMARK VINA RESULT:    -5.776      4.091      8.295
REMARK INTER + INTRA:         -11.577
REMARK INTER:                 -10.392
REMARK INTRA:                  -1.185
REMARK UNBOUND:                -1.074
REMARK SMILES CCCCCCCCCCCCCCCC(=O)[O-]
REMARK SMILES IDX 9 1 10 2 11 3 12 4 13 5 14 6 15 7 16 8 17 9 18 10 8 11 7 12
REMARK SMILES IDX 6 13 5 14 4 15 3 16 2 17 1 18
REMARK H PARENT
REMARK Flexibility Score: inf
ROOT
ATOM      1  C   UNL     1      14.730  18.532  16.572  1.00  0.00     0.000 C 
ENDROOT
BRANCH   1   2
ATOM      2  C   UNL     1      13.735  18.954  15.480  1.00  0.00     0.000 C 
BRANCH   2   3
ATOM      3  C   UNL     1      12.560  19.738  16.077  1.00  0.00     0.000 C 
BRANCH   3   4
ATOM      4  C   UNL     1      12.792  21.252  15.956  1.00  0.00     0.000 C 
BRANCH   4   5
ATOM      5  C   UNL     1      13.227  21.892  17.284  1.00  0.00     0.000 C 
BRANCH   5   6
ATOM      6  C   UNL     1      12.285  21.538  18.448  1.00  0.00     0.006 C 
BRANCH   6   7
ATOM      7  C   UNL     1      10.925  22.240  18.326  1.00  0.00     0.053 C 
BRANCH   7   8
ATOM      8  C   UNL     1       9.814  21.388  18.859  1.00  0.00     0.041 C 
ATOM      9  O   UNL     1       9.074  20.744  18.071  1.00  0.00    -0.550 OA
ATOM     10  O   UNL     1       9.619  21.279  20.230  1.00  0.00    -0.550 OA
ENDBRANCH   7   8
ENDBRANCH   6   7
ENDBRANCH   5   6
ENDBRANCH   4   5
ENDBRANCH   3   4
ENDBRANCH   2   3
ENDBRANCH   1   2
BRANCH   1  11
ATOM     11  C   UNL     1      14.039  18.325  17.937  1.00  0.00     0.000 C 
BRANCH  11  12
ATOM     12  C   UNL     1      14.980  18.515  19.139  1.00  0.00    -0.000 C 
BRANCH  12  13
ATOM     13  C   UNL     1      16.369  19.034  18.731  1.00  0.00    -0.000 C 
BRANCH  13  14
ATOM     14  C   UNL     1      17.476  18.634  19.724  1.00  0.00    -0.000 C 
BRANCH  14  15
ATOM     15  C   UNL     1      18.664  19.609  19.817  1.00  0.00    -0.000 C 
BRANCH  15  16
ATOM     16  C   UNL     1      19.986  18.914  20.183  1.00  0.00    -0.000 C 
BRANCH  16  17
ATOM     17  C   UNL     1      20.714  19.608  21.345  1.00  0.00    -0.003 C 
ATOM     18  C   UNL     1      20.521  21.123  21.345  1.00  0.00     0.004 C 
ENDBRANCH  16  17
ENDBRANCH  15  16
ENDBRANCH  14  15
ENDBRANCH  13  14
ENDBRANCH  12  13
ENDBRANCH  11  12
ENDBRANCH   1  11
TORSDOF 14
ENDMDL
MODEL 3
REMARK VINA RESULT:    -5.662      1.135      1.771
REMARK INTER + INTRA:         -11.370
REMARK INTER:                 -10.199
REMARK INTRA:                  -1.171
REMARK UNBOUND:                -1.074
REMARK SMILES CCCCCCCCCCCCCCCC(=O)[O-]
REMARK SMILES IDX 9 1 10 2 11 3 12 4 13 5 14 6 15 7 16 8 17 9 18 10 8 11 7 12
REMARK SMILES IDX 6 13 5 14 4 15 3 16 2 17 1 18
REMARK H PARENT
REMARK Flexibility Score: inf
ROOT
ATOM      1  C   UNL     1      14.791  18.479  16.686  1.00  0.00     0.000 C 
ENDROOT
BRANCH   1   2
ATOM      2  C   UNL     1      14.075  18.364  18.040  1.00  0.00     0.000 C 
BRANCH   2   3
ATOM      3  C   UNL     1      15.065  18.510  19.202  1.00  0.00     0.000 C 
BRANCH   3   4
ATOM      4  C   UNL     1      16.428  19.014  18.702  1.00  0.00     0.000 C 
BRANCH   4   5
ATOM      5  C   UNL     1      17.598  18.496  19.553  1.00  0.00     0.000 C 
BRANCH   5   6
ATOM      6  C   UNL     1      18.632  19.591  19.866  1.00  0.00     0.006 C 
BRANCH   6   7
ATOM      7  C   UNL     1      20.004  19.006  20.227  1.00  0.00     0.053 C 
BRANCH   7   8
ATOM      8  C   UNL     1      20.770  19.913  21.141  1.00  0.00     0.041 C 
ATOM      9  O   UNL     1      21.609  19.438  21.949  1.00  0.00    -0.550 OA
ATOM     10  O   UNL     1      20.581  21.288  21.072  1.00  0.00    -0.550 OA
ENDBRANCH   7   8
ENDBRANCH   6   7
ENDBRANCH   5   6
ENDBRANCH   4   5
ENDBRANCH   3   4
ENDBRANCH   2   3
ENDBRANCH   1   2
BRANCH   1  11
ATOM     11  C   UNL     1      13.854  19.001  15.575  1.00  0.00     0.000 C 
BRANCH  11  12
ATOM     12  C   UNL     1      12.650  19.797  16.108  1.00  0.00    -0.000 C 
BRANCH  12  13
ATOM     13  C   UNL     1      12.945  21.300  16.245  1.00  0.00    -0.000 C 
BRANCH  13  14
ATOM     14  C   UNL     1      12.470  21.885  17.588  1.00  0.00    -0.000 C 
BRANCH  14  15
ATOM     15  C   UNL     1      11.704  20.909  18.501  1.00  0.00    -0.000 C 
BRANCH  15  16
ATOM     16  C   UNL     1      10.506  21.563  19.209  1.00  0.00    -0.000 C 
BRANCH  16  17
ATOM     17  C   UNL     1       9.160  21.143  18.597  1.00  0.00    -0.003 C 
ATOM     18  C   UNL     1       9.295  19.990  17.603  1.00  0.00     0.004 C 
ENDBRANCH  16  17
ENDBRANCH  15  16
ENDBRANCH  14  15
ENDBRANCH  13  14
ENDBRANCH  12  13
ENDBRANCH  11  12
ENDBRANCH   1  11
TORSDOF 14
ENDMDL
MODEL 4
REMARK VINA RESULT:    -5.591      4.417      8.389
REMARK INTER + INTRA:         -11.241
REMARK INTER:                 -10.171
REMARK INTRA:                  -1.070
REMARK UNBOUND:                -1.074
REMARK SMILES CCCCCCCCCCCCCCCC(=O)[O-]
REMARK SMILES IDX 9 1 10 2 11 3 12 4 13 5 14 6 15 7 16 8 17 9 18 10 8 11 7 12
REMARK SMILES IDX 6 13 5 14 4 15 3 16 2 17 1 18
REMARK H PARENT
REMARK Flexibility Score: inf
ROOT
ATOM      1  C   UNL     1      14.160  18.172  16.135  1.00  0.00     0.000 C 
ENDROOT
BRANCH   1   2
ATOM      2  C   UNL     1      13.715  19.367  15.278  1.00  0.00     0.000 C 
BRANCH   2   3
ATOM      3  C   UNL     1      12.613  20.169  15.980  1.00  0.00     0.000 C 
BRANCH   3   4
ATOM      4  C   UNL     1      13.187  21.436  16.633  1.00  0.00     0.000 C 
BRANCH   4   5
ATOM      5  C   UNL     1      12.445  21.826  17.921  1.00  0.00     0.000 C 
BRANCH   5   6
ATOM      6  C   UNL     1      11.680  20.646  18.544  1.00  0.00     0.006 C 
BRANCH   6   7
ATOM      7  C   UNL     1      10.790  21.085  19.715  1.00  0.00     0.053 C 
BRANCH   7   8
ATOM      8  C   UNL     1       9.346  21.146  19.320  1.00  0.00     0.041 C 
ATOM      9  O   UNL     1       8.482  21.560  20.136  1.00  0.00    -0.550 OA
ATOM     10  O   UNL     1       8.962  20.780  18.036  1.00  0.00    -0.550 OA
ENDBRANCH   7   8
ENDBRANCH   6   7
ENDBRANCH   5   6
ENDBRANCH   4   5
ENDBRANCH   3   4
ENDBRANCH   2   3
ENDBRANCH   1   2
BRANCH   1  11
ATOM     11  C   UNL     1      15.326  18.537  17.079  1.00  0.00     0.000 C 
BRANCH  11  12
ATOM     12  C   UNL     1      14.907  18.669  18.553  1.00  0.00    -0.000 C 
BRANCH  12  13
ATOM     13  C   UNL     1      16.091  18.516  19.523  1.00  0.00    -0.000 C 
BRANCH  13  14
ATOM     14  C   UNL     1      17.404  19.097  18.965  1.00  0.00    -0.000 C 
BRANCH  14  15
ATOM     15  C   UNL     1      18.371  19.673  20.016  1.00  0.00    -0.000 C 
BRANCH  15  16
ATOM     16  C   UNL     1      19.709  18.918  20.080  1.00  0.00    -0.000 C 
BRANCH  16  17
ATOM     17  C   UNL     1      20.775  19.677  20.886  1.00  0.00    -0.003 C 
ATOM     18  C   UNL     1      20.238  20.960  21.518  1.00  0.00     0.004 C 
ENDBRANCH  16  17
ENDBRANCH  15  16
ENDBRANCH  14  15
ENDBRANCH  13  14
ENDBRANCH  12  13
ENDBRANCH  11  12
ENDBRANCH   1  11
TORSDOF 14
ENDMDL
MODEL 5
REMARK VINA RESULT:    -5.268      1.445      2.836
REMARK INTER + INTRA:         -10.654
REMARK INTER:                  -9.370
REMARK INTRA:                  -1.284
REMARK UNBOUND:                -1.074
REMARK SMILES CCCCCCCCCCCCCCCC(=O)[O-]
REMARK SMILES IDX 9 1 10 2 11 3 12 4 13 5 14 6 15 7 16 8 17 9 18 10 8 11 7 12
REMARK SMILES IDX 6 13 5 14 4 15 3 16 2 17 1 18
REMARK H PARENT
REMARK Flexibility Score: inf
ROOT
ATOM      1  C   UNL     1      13.898  18.308  18.709  1.00  0.00     0.000 C 
ENDROOT
BRANCH   1   2
ATOM      2  C   UNL     1      15.034  19.312  18.459  1.00  0.00     0.000 C 
BRANCH   2   3
ATOM      3  C   UNL     1      16.402  18.621  18.517  1.00  0.00     0.000 C 
BRANCH   3   4
ATOM      4  C   UNL     1      17.238  19.155  19.690  1.00  0.00     0.000 C 
BRANCH   4   5
ATOM      5  C   UNL     1      18.730  19.280  19.344  1.00  0.00     0.000 C 
BRANCH   5   6
ATOM      6  C   UNL     1      19.613  19.468  20.589  1.00  0.00     0.006 C 
BRANCH   6   7
ATOM      7  C   UNL     1      19.367  20.819  21.275  1.00  0.00     0.053 C 
BRANCH   7   8
ATOM      8  C   UNL     1      20.596  21.676  21.266  1.00  0.00     0.041 C 
ATOM      9  O   UNL     1      21.686  21.218  20.837  1.00  0.00    -0.550 OA
ATOM     10  O   UNL     1      20.525  22.995  21.699  1.00  0.00    -0.550 OA
ENDBRANCH   7   8
ENDBRANCH   6   7
ENDBRANCH   5   6
ENDBRANCH   4   5
ENDBRANCH   3   4
ENDBRANCH   2   3
ENDBRANCH   1   2
BRANCH   1  11
ATOM     11  C   UNL     1      12.812  18.882  19.645  1.00  0.00     0.000 C 
BRANCH  11  12
ATOM     12  C   UNL     1      11.653  19.565  18.899  1.00  0.00    -0.000 C 
BRANCH  12  13
ATOM     13  C   UNL     1      11.829  21.089  18.795  1.00  0.00    -0.000 C 
BRANCH  13  14
ATOM     14  C   UNL     1      11.689  21.613  17.354  1.00  0.00    -0.000 C 
BRANCH  14  15
ATOM     15  C   UNL     1      12.965  21.537  16.496  1.00  0.00    -0.000 C 
BRANCH  15  16
ATOM     16  C   UNL     1      12.767  20.746  15.193  1.00  0.00    -0.000 C 
BRANCH  16  17
ATOM     17  C   UNL     1      13.262  19.295  15.304  1.00  0.00    -0.003 C 
ATOM     18  C   UNL     1      14.574  19.057  14.558  1.00  0.00     0.004 C 
ENDBRANCH  16  17
ENDBRANCH  15  16
ENDBRANCH  14  15
ENDBRANCH  13  14
ENDBRANCH  12  13
ENDBRANCH  11  12
ENDBRANCH   1  11
TORSDOF 14
ENDMDL
MODEL 6
REMARK VINA RESULT:    -5.237      3.391      8.206
REMARK INTER + INTRA:         -10.598
REMARK INTER:                  -9.791
REMARK INTRA:                  -0.807
REMARK UNBOUND:                -1.074
REMARK SMILES CCCCCCCCCCCCCCCC(=O)[O-]
REMARK SMILES IDX 9 1 10 2 11 3 12 4 13 5 14 6 15 7 16 8 17 9 18 10 8 11 7 12
REMARK SMILES IDX 6 13 5 14 4 15 3 16 2 17 1 18
REMARK H PARENT
REMARK Flexibility Score: inf
ROOT
ATOM      1  C   UNL     1      13.757  19.302  16.592  1.00  0.00     0.000 C 
ENDROOT
BRANCH   1   2
ATOM      2  C   UNL     1      12.740  20.164  15.828  1.00  0.00     0.000 C 
BRANCH   2   3
ATOM      3  C   UNL     1      11.616  20.642  16.754  1.00  0.00     0.000 C 
BRANCH   3   4
ATOM      4  C   UNL     1      10.339  19.815  16.541  1.00  0.00     0.000 C 
BRANCH   4   5
ATOM      5  C   UNL     1       9.300  20.034  17.653  1.00  0.00     0.000 C 
BRANCH   5   6
ATOM      6  C   UNL     1       9.316  21.470  18.203  1.00  0.00     0.006 C 
BRANCH   6   7
ATOM      7  C   UNL     1       9.359  21.503  19.736  1.00  0.00     0.053 C 
BRANCH   7   8
ATOM      8  C   UNL     1      10.766  21.460  20.251  1.00  0.00     0.041 C 
ATOM      9  O   UNL     1      11.065  20.714  21.219  1.00  0.00    -0.550 OA
ATOM     10  O   UNL     1      11.753  22.220  19.636  1.00  0.00    -0.550 OA
ENDBRANCH   7   8
ENDBRANCH   6   7
ENDBRANCH   5   6
ENDBRANCH   4   5
ENDBRANCH   3   4
ENDBRANCH   2   3
ENDBRANCH   1   2
BRANCH   1  11
ATOM     11  C   UNL     1      13.448  19.243  18.104  1.00  0.00     0.000 C 
BRANCH  11  12
ATOM     12  C   UNL     1      14.536  18.534  18.929  1.00  0.00    -0.000 C 
BRANCH  12  13
ATOM     13  C   UNL     1      15.959  18.889  18.467  1.00  0.00    -0.000 C 
BRANCH  13  14
ATOM     14  C   UNL     1      16.972  18.938  19.626  1.00  0.00    -0.000 C 
BRANCH  14  15
ATOM     15  C   UNL     1      18.421  19.270  19.223  1.00  0.00    -0.000 C 
BRANCH  15  16
ATOM     16  C   UNL     1      19.454  18.814  20.266  1.00  0.00    -0.000 C 
BRANCH  16  17
ATOM     17  C   UNL     1      20.293  19.980  20.812  1.00  0.00    -0.003 C 
ATOM     18  C   UNL     1      19.446  21.049  21.501  1.00  0.00     0.004 C 
ENDBRANCH  16  17
ENDBRANCH  15  16
ENDBRANCH  14  15
ENDBRANCH  13  14
ENDBRANCH  12  13
ENDBRANCH  11  12
ENDBRANCH   1  11
TORSDOF 14
ENDMDL
MODEL 7
REMARK VINA RESULT:    -5.191     16.433     17.648
REMARK INTER + INTRA:         -10.514
REMARK INTER:                  -8.803
REMARK INTRA:                  -1.711
REMARK UNBOUND:                -1.074
REMARK SMILES CCCCCCCCCCCCCCCC(=O)[O-]
REMARK SMILES IDX 9 1 10 2 11 3 12 4 13 5 14 6 15 7 16 8 17 9 18 10 8 11 7 12
REMARK SMILES IDX 6 13 5 14 4 15 3 16 2 17 1 18
REMARK H PARENT
REMARK Flexibility Score: inf
ROOT
ATOM      1  C   UNL     1      23.811  14.032   3.440  1.00  0.00     0.000 C 
ENDROOT
BRANCH   1   2
ATOM      2  C   UNL     1      24.056  14.952   2.234  1.00  0.00     0.000 C 
BRANCH   2   3
ATOM      3  C   UNL     1      23.239  16.244   2.351  1.00  0.00     0.000 C 
BRANCH   3   4
ATOM      4  C   UNL     1      24.131  17.479   2.150  1.00  0.00     0.000 C 
BRANCH   4   5
ATOM      5  C   UNL     1      23.896  18.559   3.218  1.00  0.00     0.000 C 
BRANCH   5   6
ATOM      6  C   UNL     1      24.089  18.028   4.649  1.00  0.00     0.006 C 
BRANCH   6   7
ATOM      7  C   UNL     1      22.963  18.478   5.590  1.00  0.00     0.053 C 
BRANCH   7   8
ATOM      8  C   UNL     1      23.435  19.520   6.559  1.00  0.00     0.041 C 
ATOM      9  O   UNL     1      24.342  20.327   6.230  1.00  0.00    -0.550 OA
ATOM     10  O   UNL     1      22.846  19.618   7.813  1.00  0.00    -0.550 OA
ENDBRANCH   7   8
ENDBRANCH   6   7
ENDBRANCH   5   6
ENDBRANCH   4   5
ENDBRANCH   3   4
ENDBRANCH   2   3
ENDBRANCH   1   2
BRANCH   1  11
ATOM     11  C   UNL     1      23.627  12.559   3.019  1.00  0.00     0.000 C 
BRANCH  11  12
ATOM     12  C   UNL     1      22.375  12.315   2.158  1.00  0.00    -0.000 C 
BRANCH  12  13
ATOM     13  C   UNL     1      21.089  12.216   2.994  1.00  0.00    -0.000 C 
BRANCH  13  14
ATOM     14  C   UNL     1      20.209  13.476   2.895  1.00  0.00    -0.000 C 
BRANCH  14  15
ATOM     15  C   UNL     1      19.049  13.553   3.904  1.00  0.00    -0.000 C 
BRANCH  15  16
ATOM     16  C   UNL     1      19.072  14.837   4.750  1.00  0.00    -0.000 C 
BRANCH  16  17
ATOM     17  C   UNL     1      20.315  15.698   4.479  1.00  0.00    -0.003 C 
ATOM     18  C   UNL     1      19.968  17.125   4.057  1.00  0.00     0.004 C 
ENDBRANCH  16  17
ENDBRANCH  15  16
ENDBRANCH  14  15
ENDBRANCH  13  14
ENDBRANCH  12  13
ENDBRANCH  11  12
ENDBRANCH   1  11
TORSDOF 14
ENDMDL
MODEL 8
REMARK VINA RESULT:    -5.105     16.591     18.115
REMARK INTER + INTRA:         -10.358
REMARK INTER:                  -8.731
REMARK INTRA:                  -1.627
REMARK UNBOUND:                -1.074
REMARK SMILES CCCCCCCCCCCCCCCC(=O)[O-]
REMARK SMILES IDX 9 1 10 2 11 3 12 4 13 5 14 6 15 7 16 8 17 9 18 10 8 11 7 12
REMARK SMILES IDX 6 13 5 14 4 15 3 16 2 17 1 18
REMARK H PARENT
REMARK Flexibility Score: inf
ROOT
ATOM      1  C   UNL     1      18.624  15.378   4.902  1.00  0.00     0.000 C 
ENDROOT
BRANCH   1   2
ATOM      2  C   UNL     1      19.536  16.539   4.476  1.00  0.00     0.000 C 
BRANCH   2   3
ATOM      3  C   UNL     1      20.961  16.048   4.198  1.00  0.00     0.000 C 
BRANCH   3   4
ATOM      4  C   UNL     1      21.410  16.435   2.781  1.00  0.00     0.000 C 
BRANCH   4   5
ATOM      5  C   UNL     1      22.931  16.633   2.676  1.00  0.00     0.000 C 
BRANCH   5   6
ATOM      6  C   UNL     1      23.358  18.086   2.945  1.00  0.00     0.006 C 
BRANCH   6   7
ATOM      7  C   UNL     1      24.344  18.192   4.117  1.00  0.00     0.053 C 
BRANCH   7   8
ATOM      8  C   UNL     1      23.742  18.917   5.282  1.00  0.00     0.041 C 
ATOM      9  O   UNL     1      24.103  20.091   5.555  1.00  0.00    -0.550 OA
ATOM     10  O   UNL     1      22.755  18.305   6.045  1.00  0.00    -0.550 OA
ENDBRANCH   7   8
ENDBRANCH   6   7
ENDBRANCH   5   6
ENDBRANCH   4   5
ENDBRANCH   3   4
ENDBRANCH   2   3
ENDBRANCH   1   2
BRANCH   1  11
ATOM     11  C   UNL     1      19.249  14.002   4.586  1.00  0.00     0.000 C 
BRANCH  11  12
ATOM     12  C   UNL     1      18.503  13.223   3.490  1.00  0.00    -0.000 C 
BRANCH  12  13
ATOM     13  C   UNL     1      19.420  12.262   2.715  1.00  0.00    -0.000 C 
BRANCH  13  14
ATOM     14  C   UNL     1      20.817  12.851   2.446  1.00  0.00    -0.000 C 
BRANCH  14  15
ATOM     15  C   UNL     1      22.001  11.969   2.883  1.00  0.00    -0.000 C 
BRANCH  15  16
ATOM     16  C   UNL     1      23.352  12.461   2.336  1.00  0.00    -0.000 C 
BRANCH  16  17
ATOM     17  C   UNL     1      24.380  12.713   3.450  1.00  0.00    -0.003 C 
ATOM     18  C   UNL     1      25.343  13.853   3.121  1.00  0.00     0.004 C 
ENDBRANCH  16  17
ENDBRANCH  15  16
ENDBRANCH  14  15
ENDBRANCH  13  14
ENDBRANCH  12  13
ENDBRANCH  11  12
ENDBRANCH   1  11
TORSDOF 14
ENDMDL
MODEL 9
REMARK VINA RESULT:    -5.043     16.425     18.143
REMARK INTER + INTRA:         -10.244
REMARK INTER:                  -8.593
REMARK INTRA:                  -1.651
REMARK UNBOUND:                -1.074
REMARK SMILES CCCCCCCCCCCCCCCC(=O)[O-]
REMARK SMILES IDX 9 1 10 2 11 3 12 4 13 5 14 6 15 7 16 8 17 9 18 10 8 11 7 12
REMARK SMILES IDX 6 13 5 14 4 15 3 16 2 17 1 18
REMARK H PARENT
REMARK Flexibility Score: inf
ROOT
ATOM      1  C   UNL     1      18.665  13.259   3.558  1.00  0.00     0.000 C 
ENDROOT
BRANCH   1   2
ATOM      2  C   UNL     1      19.335  13.914   4.776  1.00  0.00     0.000 C 
BRANCH   2   3
ATOM      3  C   UNL     1      18.991  15.406   4.858  1.00  0.00     0.000 C 
BRANCH   3   4
ATOM      4  C   UNL     1      20.015  16.250   4.084  1.00  0.00     0.000 C 
BRANCH   4   5
ATOM      5  C   UNL     1      21.464  15.809   4.347  1.00  0.00     0.000 C 
BRANCH   5   6
ATOM      6  C   UNL     1      22.201  16.745   5.319  1.00  0.00     0.006 C 
BRANCH   6   7
ATOM      7  C   UNL     1      22.076  18.220   4.911  1.00  0.00     0.053 C 
BRANCH   7   8
ATOM      8  C   UNL     1      23.097  19.073   5.599  1.00  0.00     0.041 C 
ATOM      9  O   UNL     1      23.968  19.686   4.929  1.00  0.00    -0.550 OA
ATOM     10  O   UNL     1      23.064  19.217   6.981  1.00  0.00    -0.550 OA
ENDBRANCH   7   8
ENDBRANCH   6   7
ENDBRANCH   5   6
ENDBRANCH   4   5
ENDBRANCH   3   4
ENDBRANCH   2   3
ENDBRANCH   1   2
BRANCH   1  11
ATOM     11  C   UNL     1      19.690  12.873   2.469  1.00  0.00     0.000 C 
BRANCH  11  12
ATOM     12  C   UNL     1      20.941  12.168   3.022  1.00  0.00    -0.000 C 
BRANCH  12  13
ATOM     13  C   UNL     1      22.249  12.824   2.550  1.00  0.00    -0.000 C 
BRANCH  13  14
ATOM     14  C   UNL     1      23.505  12.081   3.042  1.00  0.00    -0.000 C 
BRANCH  14  15
ATOM     15  C   UNL     1      24.802  12.911   3.055  1.00  0.00    -0.000 C 
BRANCH  15  16
ATOM     16  C   UNL     1      24.547  14.425   2.955  1.00  0.00    -0.000 C 
BRANCH  16  17
ATOM     17  C   UNL     1      25.818  15.252   3.203  1.00  0.00    -0.003 C 
ATOM     18  C   UNL     1      25.520  16.644   3.760  1.00  0.00     0.004 C 
ENDBRANCH  16  17
ENDBRANCH  15  16
ENDBRANCH  14  15
ENDBRANCH  13  14
ENDBRANCH  12  13
ENDBRANCH  11  12
ENDBRANCH   1  11
TORSDOF 14
ENDMDL
