MODEL 1
REMARK VINA RESULT:    -3.554      0.000      0.000
REMARK INTER + INTRA:          -5.004
REMARK INTER:                  -5.216
REMARK INTRA:                   0.212
REMARK UNBOUND:                 0.212
REMARK SMILES C=C1CC=CC(C)(C)CC=C(C)CCC1
REMARK SMILES IDX 2 1 1 2 15 3 14 4 13 5 11 6 12 7 10 8 3 10 4 11 5 12 6 13
REMARK SMILES IDX 7 14 8 15 9 16
REMARK H PARENT
REMARK Flexibility Score: 60.00
ROOT
ATOM      1  C   UNL     1     137.139 133.298 132.225  1.00  0.00    -0.074 C 
ATOM      2  C   UNL     1     137.702 132.564 131.251  1.00  0.00     0.008 C 
ENDROOT
BRANCH   1   3
ATOM      3  C   UNL     1     138.016 134.207 133.072  1.00  0.00     0.031 C 
BRANCH   3   4
ATOM      4  C   UNL     1     139.074 134.982 132.250  1.00  0.00     0.009 C 
BRANCH   4   5
ATOM      5  C   UNL     1     138.479 136.115 131.376  1.00  0.00     0.030 C 
BRANCH   5   6
ATOM      6  C   UNL     1     137.863 137.227 132.211  1.00  0.00    -0.077 C 
ATOM      7  C   UNL     1     138.756 138.042 133.112  1.00  0.00     0.039 C 
ATOM      8  C   UNL     1     136.546 137.544 132.162  1.00  0.00    -0.027 CG0
ATOM      9  G   UNL     1     135.515 136.818 131.320  1.00  0.00     0.000 G0
ENDBRANCH   5   6
ENDBRANCH   4   5
ENDBRANCH   3   4
ENDBRANCH   1   3
BRANCH   1  10
ATOM     10  C   UNL     1     135.630 133.440 132.291  1.00  0.00     0.057 C 
BRANCH  10  11
ATOM     11  C   UNL     1     135.095 134.360 133.375  1.00  0.00    -0.026 C 
ATOM     12  C   UNL     1     134.400 135.524 133.281  1.00  0.00    -0.024 C 
BRANCH  12  13
ATOM     13  C   UNL     1     134.168 136.470 132.090  1.00  0.00    -0.014 C 
ATOM     14  C   UNL     1     133.220 135.744 131.102  1.00  0.00     0.016 C 
ATOM     15  C   UNL     1     133.424 137.720 132.603  1.00  0.00     0.016 C 
BRANCH  13  16
ATOM     16  C   UNL     1     135.481 136.821 131.328  1.00  0.00     0.038 CG0
ATOM     17  G   UNL     1     136.518 137.532 132.176  1.00  0.00     0.000 G0
ENDBRANCH  13  16
ENDBRANCH  12  13
ENDBRANCH  10  11
ENDBRANCH   1  10
TORSDOF 0
ENDMDL
MODEL 2
REMARK VINA RESULT:    -3.434      1.592      3.983
REMARK INTER + INTRA:          -4.827
REMARK INTER:                  -5.087
REMARK INTRA:                   0.259
REMARK UNBOUND:                 0.212
REMARK SMILES C=C1CC=CC(C)(C)CC=C(C)CCC1
REMARK SMILES IDX 2 1 1 2 15 3 14 4 13 5 11 6 12 7 10 8 3 10 4 11 5 12 6 13
REMARK SMILES IDX 7 14 8 15 9 16
REMARK H PARENT
REMARK Flexibility Score: 60.00
ROOT
ATOM      1  C   UNL     1     140.464 137.240 131.904  1.00  0.00    -0.074 C 
ATOM      2  C   UNL     1     141.506 137.724 131.208  1.00  0.00     0.008 C 
ENDROOT
BRANCH   1   3
ATOM      3  C   UNL     1     139.361 138.189 132.347  1.00  0.00     0.031 C 
BRANCH   3   4
ATOM      4  C   UNL     1     138.724 138.979 131.179  1.00  0.00     0.009 C 
BRANCH   4   5
ATOM      5  C   UNL     1     137.587 138.215 130.454  1.00  0.00     0.030 C 
BRANCH   5   6
ATOM      6  C   UNL     1     136.510 137.733 131.414  1.00  0.00    -0.077 C 
ATOM      7  C   UNL     1     135.664 138.753 132.133  1.00  0.00     0.039 C 
ATOM      8  C   UNL     1     136.251 136.420 131.633  1.00  0.00    -0.027 CG0
ATOM      9  G   UNL     1     137.014 135.273 131.001  1.00  0.00     0.000 G0
ENDBRANCH   5   6
ENDBRANCH   4   5
ENDBRANCH   3   4
ENDBRANCH   1   3
BRANCH   1  10
ATOM     10  C   UNL     1     140.244 135.742 131.996  1.00  0.00     0.057 C 
BRANCH  10  11
ATOM     11  C   UNL     1     139.369 135.267 133.143  1.00  0.00    -0.026 C 
ATOM     12  C   UNL     1     138.253 134.490 133.139  1.00  0.00    -0.024 C 
BRANCH  12  13
ATOM     13  C   UNL     1     137.319 134.069 131.993  1.00  0.00    -0.014 C 
ATOM     14  C   UNL     1     138.039 132.951 131.197  1.00  0.00     0.016 C 
ATOM     15  C   UNL     1     136.049 133.445 132.608  1.00  0.00     0.016 C 
BRANCH  13  16
ATOM     16  C   UNL     1     137.001 135.234 131.008  1.00  0.00     0.038 CG0
ATOM     17  G   UNL     1     136.261 136.396 131.641  1.00  0.00     0.000 G0
ENDBRANCH  13  16
ENDBRANCH  12  13
ENDBRANCH  10  11
ENDBRANCH   1  10
TORSDOF 0
ENDMDL
MODEL 3
REMARK VINA RESULT:    -3.432      1.875      5.457
REMARK INTER + INTRA:          -4.825
REMARK INTER:                  -5.120
REMARK INTRA:                   0.295
REMARK UNBOUND:                 0.212
REMARK SMILES C=C1CC=CC(C)(C)CC=C(C)CCC1
REMARK SMILES IDX 2 1 1 2 15 3 14 4 13 5 11 6 12 7 10 8 3 10 4 11 5 12 6 13
REMARK SMILES IDX 7 14 8 15 9 16
REMARK H PARENT
REMARK Flexibility Score: 60.00
ROOT
ATOM      1  C   UNL     1     136.777 140.311 132.423  1.00  0.00    -0.074 C 
ATOM      2  C   UNL     1     136.172 141.105 131.525  1.00  0.00     0.008 C 
ENDROOT
BRANCH   1   3
ATOM      3  C   UNL     1     135.929 139.395 133.294  1.00  0.00     0.031 C 
BRANCH   3   4
ATOM      4  C   UNL     1     134.811 138.665 132.512  1.00  0.00     0.009 C 
BRANCH   4   5
ATOM      5  C   UNL     1     135.336 137.581 131.537  1.00  0.00     0.030 C 
BRANCH   5   6
ATOM      6  C   UNL     1     135.944 136.392 132.266  1.00  0.00    -0.077 C 
ATOM      7  C   UNL     1     135.056 135.540 133.138  1.00  0.00     0.039 C 
ATOM      8  C   UNL     1     137.247 136.040 132.145  1.00  0.00    -0.027 CG0
ATOM      9  G   UNL     1     138.272 136.794 131.320  1.00  0.00     0.000 G0
ENDBRANCH   5   6
ENDBRANCH   4   5
ENDBRANCH   3   4
ENDBRANCH   1   3
BRANCH   1  10
ATOM     10  C   UNL     1     138.280 140.115 132.373  1.00  0.00     0.057 C 
BRANCH  10  11
ATOM     11  C   UNL     1     138.862 139.166 133.406  1.00  0.00    -0.026 C 
ATOM     12  C   UNL     1     139.516 137.985 133.251  1.00  0.00    -0.024 C 
BRANCH  12  13
ATOM     13  C   UNL     1     139.639 137.050 132.036  1.00  0.00    -0.014 C 
ATOM     14  C   UNL     1     140.605 137.725 131.030  1.00  0.00     0.016 C 
ATOM     15  C   UNL     1     140.307 135.738 132.500  1.00  0.00     0.016 C 
BRANCH  13  16
ATOM     16  C   UNL     1     138.279 136.811 131.313  1.00  0.00     0.038 CG0
ATOM     17  G   UNL     1     137.261 136.054 132.144  1.00  0.00     0.000 G0
ENDBRANCH  13  16
ENDBRANCH  12  13
ENDBRANCH  10  11
ENDBRANCH   1  10
TORSDOF 0
ENDMDL
MODEL 4
REMARK VINA RESULT:    -3.291      1.499      3.814
REMARK INTER + INTRA:          -4.618
REMARK INTER:                  -5.001
REMARK INTRA:                   0.383
REMARK UNBOUND:                 0.212
REMARK SMILES C=C1CC=CC(C)(C)CC=C(C)CCC1
REMARK SMILES IDX 2 1 1 2 15 3 14 4 13 5 11 6 12 7 10 8 3 10 4 11 5 12 6 13
REMARK SMILES IDX 7 14 8 15 9 16
REMARK H PARENT
REMARK Flexibility Score: 60.00
ROOT
ATOM      1  C   UNL     1     133.398 136.469 132.306  1.00  0.00    -0.074 C 
ATOM      2  C   UNL     1     132.781 135.847 131.288  1.00  0.00     0.008 C 
ENDROOT
BRANCH   1   3
ATOM      3  C   UNL     1     134.179 135.643 133.317  1.00  0.00     0.031 C 
BRANCH   3   4
ATOM      4  C   UNL     1     135.069 134.556 132.668  1.00  0.00     0.009 C 
BRANCH   4   5
ATOM      5  C   UNL     1     136.100 135.116 131.656  1.00  0.00     0.030 C 
BRANCH   5   6
ATOM      6  C   UNL     1     137.293 135.764 132.342  1.00  0.00    -0.077 C 
ATOM      7  C   UNL     1     138.127 134.938 133.289  1.00  0.00     0.039 C 
ATOM      8  C   UNL     1     137.664 137.048 132.120  1.00  0.00    -0.027 CG0
ATOM      9  G   UNL     1     136.929 138.014 131.211  1.00  0.00     0.000 G0
ENDBRANCH   5   6
ENDBRANCH   4   5
ENDBRANCH   3   4
ENDBRANCH   1   3
BRANCH   1  10
ATOM     10  C   UNL     1     133.559 137.977 132.287  1.00  0.00     0.057 C 
BRANCH  10  11
ATOM     11  C   UNL     1     134.523 138.556 133.308  1.00  0.00    -0.026 C 
ATOM     12  C   UNL     1     135.691 139.229 133.137  1.00  0.00    -0.024 C 
BRANCH  12  13
ATOM     13  C   UNL     1     136.597 139.385 131.903  1.00  0.00    -0.014 C 
ATOM     14  C   UNL     1     135.832 140.257 130.876  1.00  0.00     0.016 C 
ATOM     15  C   UNL     1     137.856 140.173 132.323  1.00  0.00     0.016 C 
BRANCH  13  16
ATOM     16  C   UNL     1     136.936 138.025 131.223  1.00  0.00     0.038 CG0
ATOM     17  G   UNL     1     137.655 137.043 132.127  1.00  0.00     0.000 G0
ENDBRANCH  13  16
ENDBRANCH  12  13
ENDBRANCH  10  11
ENDBRANCH   1  10
TORSDOF 0
ENDMDL
MODEL 5
REMARK VINA RESULT:    -3.121      1.743      3.880
REMARK INTER + INTRA:          -4.369
REMARK INTER:                  -4.667
REMARK INTRA:                   0.298
REMARK UNBOUND:                 0.212
REMARK SMILES C=C1CC=CC(C)(C)CC=C(C)CCC1
REMARK SMILES IDX 2 1 1 2 15 3 14 4 13 5 11 6 12 7 10 8 3 10 4 11 5 12 6 13
REMARK SMILES IDX 7 14 8 15 9 16
REMARK H PARENT
REMARK Flexibility Score: 60.00
ROOT
ATOM      1  C   UNL     1     134.909 139.419 131.919  1.00  0.00    -0.074 C 
ATOM      2  C   UNL     1     135.682 139.623 132.999  1.00  0.00     0.008 C 
ENDROOT
BRANCH   1   3
ATOM      3  C   UNL     1     135.422 139.839 130.549  1.00  0.00     0.031 C 
BRANCH   3   4
ATOM      4  C   UNL     1     136.958 139.720 130.404  1.00  0.00     0.009 C 
BRANCH   4   5
ATOM      5  C   UNL     1     137.426 138.368 129.807  1.00  0.00     0.030 C 
BRANCH   5   6
ATOM      6  C   UNL     1     137.726 137.334 130.881  1.00  0.00    -0.077 C 
ATOM      7  C   UNL     1     138.986 137.475 131.697  1.00  0.00     0.039 C 
ATOM      8  C   UNL     1     136.895 136.301 131.164  1.00  0.00    -0.027 CG0
ATOM      9  G   UNL     1     135.599 136.012 130.432  1.00  0.00     0.000 G0
ENDBRANCH   5   6
ENDBRANCH   4   5
ENDBRANCH   3   4
ENDBRANCH   1   3
BRANCH   1  10
ATOM     10  C   UNL     1     133.684 138.532 132.020  1.00  0.00     0.057 C 
BRANCH  10  11
ATOM     11  C   UNL     1     133.814 137.317 132.922  1.00  0.00    -0.026 C 
ATOM     12  C   UNL     1     134.254 136.059 132.651  1.00  0.00    -0.024 C 
BRANCH  12  13
ATOM     13  C   UNL     1     134.487 135.336 131.314  1.00  0.00    -0.014 C 
ATOM     14  C   UNL     1     134.959 133.897 131.644  1.00  0.00     0.016 C 
ATOM     15  C   UNL     1     133.132 135.216 130.586  1.00  0.00     0.016 C 
BRANCH  13  16
ATOM     16  C   UNL     1     135.584 136.014 130.440  1.00  0.00     0.038 CG0
ATOM     17  G   UNL     1     136.885 136.278 131.173  1.00  0.00     0.000 G0
ENDBRANCH  13  16
ENDBRANCH  12  13
ENDBRANCH  10  11
ENDBRANCH   1  10
TORSDOF 0
ENDMDL
MODEL 6
REMARK VINA RESULT:    -3.048      1.947      4.222
REMARK INTER + INTRA:          -4.261
REMARK INTER:                  -4.764
REMARK INTRA:                   0.503
REMARK UNBOUND:                 0.212
REMARK SMILES C=C1CC=CC(C)(C)CC=C(C)CCC1
REMARK SMILES IDX 2 1 1 2 15 3 14 4 13 5 11 6 12 7 10 8 3 10 4 11 5 12 6 13
REMARK SMILES IDX 7 14 8 15 9 16
REMARK H PARENT
REMARK Flexibility Score: 60.00
ROOT
ATOM      1  C   UNL     1     135.907 140.360 131.573  1.00  0.00    -0.074 C 
ATOM      2  C   UNL     1     135.816 141.495 130.861  1.00  0.00     0.008 C 
ENDROOT
BRANCH   1   3
ATOM      3  C   UNL     1     136.728 140.350 132.854  1.00  0.00     0.031 C 
BRANCH   3   4
ATOM      4  C   UNL     1     138.249 140.213 132.609  1.00  0.00     0.009 C 
BRANCH   4   5
ATOM      5  C   UNL     1     138.656 138.877 131.938  1.00  0.00     0.030 C 
BRANCH   5   6
ATOM      6  C   UNL     1     138.728 137.728 132.933  1.00  0.00    -0.077 C 
ATOM      7  C   UNL     1     139.738 137.793 134.051  1.00  0.00     0.039 C 
ATOM      8  C   UNL     1     137.902 136.654 132.880  1.00  0.00    -0.027 CG0
ATOM      9  G   UNL     1     136.845 136.430 131.817  1.00  0.00     0.000 G0
ENDBRANCH   5   6
ENDBRANCH   4   5
ENDBRANCH   3   4
ENDBRANCH   1   3
BRANCH   1  10
ATOM     10  C   UNL     1     134.983 139.197 131.267  1.00  0.00     0.057 C 
BRANCH  10  11
ATOM     11  C   UNL     1     134.413 138.465 132.470  1.00  0.00    -0.026 C 
ATOM     12  C   UNL     1     134.693 137.231 132.966  1.00  0.00    -0.024 C 
BRANCH  12  13
ATOM     13  C   UNL     1     135.438 136.037 132.347  1.00  0.00    -0.014 C 
ATOM     14  C   UNL     1     135.623 134.979 133.463  1.00  0.00     0.016 C 
ATOM     15  C   UNL     1     134.533 135.409 131.267  1.00  0.00     0.016 C 
BRANCH  13  16
ATOM     16  C   UNL     1     136.849 136.417 131.804  1.00  0.00     0.038 CG0
ATOM     17  G   UNL     1     137.890 136.635 132.885  1.00  0.00     0.000 G0
ENDBRANCH  13  16
ENDBRANCH  12  13
ENDBRANCH  10  11
ENDBRANCH   1  10
TORSDOF 0
ENDMDL
MODEL 7
REMARK VINA RESULT:    -3.023      2.299      4.441
REMARK INTER + INTRA:          -4.225
REMARK INTER:                  -4.521
REMARK INTRA:                   0.297
REMARK UNBOUND:                 0.212
REMARK SMILES C=C1CC=CC(C)(C)CC=C(C)CCC1
REMARK SMILES IDX 2 1 1 2 15 3 14 4 13 5 11 6 12 7 10 8 3 10 4 11 5 12 6 13
REMARK SMILES IDX 7 14 8 15 9 16
REMARK H PARENT
REMARK Flexibility Score: 60.00
ROOT
ATOM      1  C   UNL     1     135.050 139.328 129.833  1.00  0.00    -0.074 C 
ATOM      2  C   UNL     1     135.003 139.625 128.524  1.00  0.00     0.008 C 
ENDROOT
BRANCH   1   3
ATOM      3  C   UNL     1     134.862 140.442 130.853  1.00  0.00     0.031 C 
BRANCH   3   4
ATOM      4  C   UNL     1     136.191 141.099 131.297  1.00  0.00     0.009 C 
BRANCH   4   5
ATOM      5  C   UNL     1     136.692 140.619 132.683  1.00  0.00     0.030 C 
BRANCH   5   6
ATOM      6  C   UNL     1     137.496 139.330 132.594  1.00  0.00    -0.077 C 
ATOM      7  C   UNL     1     138.810 139.340 131.856  1.00  0.00     0.039 C 
ATOM      8  C   UNL     1     137.099 138.172 133.176  1.00  0.00    -0.027 CG0
ATOM      9  G   UNL     1     135.803 137.990 133.941  1.00  0.00     0.000 G0
ENDBRANCH   5   6
ENDBRANCH   4   5
ENDBRANCH   3   4
ENDBRANCH   1   3
BRANCH   1  10
ATOM     10  C   UNL     1     135.000 137.882 130.286  1.00  0.00     0.057 C 
BRANCH  10  11
ATOM     11  C   UNL     1     133.834 137.505 131.183  1.00  0.00    -0.026 C 
ATOM     12  C   UNL     1     133.806 137.171 132.501  1.00  0.00    -0.024 C 
BRANCH  12  13
ATOM     13  C   UNL     1     134.933 136.767 133.465  1.00  0.00    -0.014 C 
ATOM     14  C   UNL     1     134.269 136.133 134.713  1.00  0.00     0.016 C 
ATOM     15  C   UNL     1     135.779 135.668 132.789  1.00  0.00     0.016 C 
BRANCH  13  16
ATOM     16  C   UNL     1     135.790 137.980 133.940  1.00  0.00     0.038 CG0
ATOM     17  G   UNL     1     137.090 138.155 133.178  1.00  0.00     0.000 G0
ENDBRANCH  13  16
ENDBRANCH  12  13
ENDBRANCH  10  11
ENDBRANCH   1  10
TORSDOF 0
ENDMDL
MODEL 8
REMARK VINA RESULT:    -3.002      1.753      4.194
REMARK INTER + INTRA:          -4.194
REMARK INTER:                  -4.568
REMARK INTRA:                   0.374
REMARK UNBOUND:                 0.212
REMARK SMILES C=C1CC=CC(C)(C)CC=C(C)CCC1
REMARK SMILES IDX 2 1 1 2 15 3 14 4 13 5 11 6 12 7 10 8 3 10 4 11 5 12 6 13
REMARK SMILES IDX 7 14 8 15 9 16
REMARK H PARENT
REMARK Flexibility Score: 60.00
ROOT
ATOM      1  C   UNL     1     137.809 133.618 130.650  1.00  0.00    -0.074 C 
ATOM      2  C   UNL     1     137.655 132.417 131.230  1.00  0.00     0.008 C 
ENDROOT
BRANCH   1   3
ATOM      3  C   UNL     1     136.727 134.135 129.713  1.00  0.00     0.031 C 
BRANCH   3   4
ATOM      4  C   UNL     1     135.419 134.525 130.441  1.00  0.00     0.009 C 
BRANCH   4   5
ATOM      5  C   UNL     1     135.587 135.694 131.444  1.00  0.00     0.030 C 
BRANCH   5   6
ATOM      6  C   UNL     1     135.722 137.040 130.748  1.00  0.00    -0.077 C 
ATOM      7  C   UNL     1     134.702 137.430 129.709  1.00  0.00     0.039 C 
ATOM      8  C   UNL     1     136.706 137.926 131.039  1.00  0.00    -0.027 CG0
ATOM      9  G   UNL     1     137.814 137.684 132.046  1.00  0.00     0.000 G0
ENDBRANCH   5   6
ENDBRANCH   4   5
ENDBRANCH   3   4
ENDBRANCH   1   3
BRANCH   1  10
ATOM     10  C   UNL     1     138.892 134.563 131.137  1.00  0.00     0.057 C 
BRANCH  10  11
ATOM     11  C   UNL     1     139.332 135.634 130.154  1.00  0.00    -0.026 C 
ATOM     12  C   UNL     1     139.590 136.955 130.345  1.00  0.00    -0.024 C 
BRANCH  12  13
ATOM     13  C   UNL     1     139.252 137.892 131.516  1.00  0.00    -0.014 C 
ATOM     14  C   UNL     1     140.245 137.574 132.662  1.00  0.00     0.016 C 
ATOM     15  C   UNL     1     139.521 139.344 131.068  1.00  0.00     0.016 C 
BRANCH  13  16
ATOM     16  C   UNL     1     137.806 137.688 132.060  1.00  0.00     0.038 CG0
ATOM     17  G   UNL     1     136.718 137.921 131.030  1.00  0.00     0.000 G0
ENDBRANCH  13  16
ENDBRANCH  12  13
ENDBRANCH  10  11
ENDBRANCH   1  10
TORSDOF 0
ENDMDL
MODEL 9
REMARK VINA RESULT:    -2.974      1.856      3.787
REMARK INTER + INTRA:          -4.153
REMARK INTER:                  -4.524
REMARK INTRA:                   0.371
REMARK UNBOUND:                 0.212
REMARK SMILES C=C1CC=CC(C)(C)CC=C(C)CCC1
REMARK SMILES IDX 2 1 1 2 15 3 14 4 13 5 11 6 12 7 10 8 3 10 4 11 5 12 6 13
REMARK SMILES IDX 7 14 8 15 9 16
REMARK H PARENT
REMARK Flexibility Score: 60.00
ROOT
ATOM      1  C   UNL     1     140.286 137.636 131.635  1.00  0.00    -0.074 C 
ATOM      2  C   UNL     1     141.417 138.040 131.036  1.00  0.00     0.008 C 
ENDROOT
BRANCH   1   3
ATOM      3  C   UNL     1     140.372 136.676 132.813  1.00  0.00     0.031 C 
BRANCH   3   4
ATOM      4  C   UNL     1     140.137 135.198 132.420  1.00  0.00     0.009 C 
BRANCH   4   5
ATOM      5  C   UNL     1     138.683 134.713 132.654  1.00  0.00     0.030 C 
BRANCH   5   6
ATOM      6  C   UNL     1     137.787 134.969 131.451  1.00  0.00    -0.077 C 
ATOM      7  C   UNL     1     138.166 134.371 130.120  1.00  0.00     0.039 C 
ATOM      8  C   UNL     1     136.641 135.688 131.525  1.00  0.00    -0.027 CG0
ATOM      9  G   UNL     1     136.126 136.364 132.781  1.00  0.00     0.000 G0
ENDBRANCH   5   6
ENDBRANCH   4   5
ENDBRANCH   3   4
ENDBRANCH   1   3
BRANCH   1  10
ATOM     10  C   UNL     1     138.975 138.338 131.336  1.00  0.00     0.057 C 
BRANCH  10  11
ATOM     11  C   UNL     1     138.290 138.999 132.520  1.00  0.00    -0.026 C 
ATOM     12  C   UNL     1     137.094 138.733 133.109  1.00  0.00    -0.024 C 
BRANCH  12  13
ATOM     13  C   UNL     1     135.895 137.897 132.630  1.00  0.00    -0.014 C 
ATOM     14  C   UNL     1     134.680 138.288 133.508  1.00  0.00     0.016 C 
ATOM     15  C   UNL     1     135.564 138.311 131.181  1.00  0.00     0.016 C 
BRANCH  13  16
ATOM     16  C   UNL     1     136.125 136.363 132.781  1.00  0.00     0.038 CG0
ATOM     17  G   UNL     1     136.648 135.689 131.527  1.00  0.00     0.000 G0
ENDBRANCH  13  16
ENDBRANCH  12  13
ENDBRANCH  10  11
ENDBRANCH   1  10
TORSDOF 0
ENDMDL
