MODEL 1
REMARK VINA RESULT:    -3.617      0.000      0.000
REMARK INTER + INTRA:          -7.982
REMARK INTER:                  -6.788
REMARK INTRA:                  -1.194
REMARK UNBOUND:                -1.194
REMARK SMILES CCCCCC=CCC=CCCCCCCCC(=O)OC
REMARK SMILES IDX 11 1 10 2 9 3 8 4 7 5 6 6 5 7 4 8 3 9 2 10 1 11 12 12 13 13
REMARK SMILES IDX 14 14 15 15 16 16 17 17 18 18 19 19 20 20 21 21
REMARK H PARENT
REMARK Flexibility Score: inf
ROOT
ATOM      1  C   UNL     1      29.759  -7.054 -15.647  1.00  0.00     0.027 C 
ENDROOT
BRANCH   1   2
ATOM      2  C   UNL     1      31.187  -6.715 -15.985  1.00  0.00    -0.031 C 
ATOM      3  C   UNL     1      31.594  -5.440 -16.059  1.00  0.00    -0.027 C 
BRANCH   3   4
ATOM      4  C   UNL     1      33.047  -5.111 -16.274  1.00  0.00     0.054 C 
BRANCH   4   5
ATOM      5  C   UNL     1      33.411  -5.159 -17.733  1.00  0.00    -0.027 C 
ATOM      6  C   UNL     1      34.477  -5.807 -18.241  1.00  0.00    -0.031 C 
BRANCH   6   7
ATOM      7  C   UNL     1      35.507  -6.564 -17.434  1.00  0.00     0.027 C 
BRANCH   7   8
ATOM      8  C   UNL     1      36.164  -5.673 -16.369  1.00  0.00     0.004 C 
BRANCH   8   9
ATOM      9  C   UNL     1      37.533  -5.104 -16.791  1.00  0.00     0.000 C 
BRANCH   9  10
ATOM     10  C   UNL     1      37.552  -4.457 -18.190  1.00  0.00    -0.003 C 
ATOM     11  C   UNL     1      36.869  -3.090 -18.224  1.00  0.00     0.004 C 
ENDBRANCH   9  10
ENDBRANCH   8   9
ENDBRANCH   7   8
ENDBRANCH   6   7
ENDBRANCH   4   5
ENDBRANCH   3   4
ENDBRANCH   1   2
BRANCH   1  12
ATOM     12  C   UNL     1      29.675  -8.101 -14.526  1.00  0.00     0.004 C 
BRANCH  12  13
ATOM     13  C   UNL     1      29.392  -7.454 -13.161  1.00  0.00     0.000 C 
BRANCH  13  14
ATOM     14  C   UNL     1      28.866  -6.021 -13.320  1.00  0.00     0.000 C 
BRANCH  14  15
ATOM     15  C   UNL     1      29.857  -4.967 -12.800  1.00  0.00     0.001 C 
BRANCH  15  16
ATOM     16  C   UNL     1      31.256  -5.549 -12.531  1.00  0.00     0.012 C 
BRANCH  16  17
ATOM     17  C   UNL     1      31.670  -5.406 -11.059  1.00  0.00     0.123 C 
BRANCH  17  18
ATOM     18  C   UNL     1      32.727  -6.399 -10.674  1.00  0.00     0.305 C 
ATOM     19  O   UNL     1      33.154  -7.221 -11.527  1.00  0.00    -0.252 OA
BRANCH  18  20
ATOM     20  O   UNL     1      33.229  -6.403  -9.369  1.00  0.00    -0.469 OA
ATOM     21  C   UNL     1      33.923  -7.515  -8.819  1.00  0.00     0.282 C 
ENDBRANCH  18  20
ENDBRANCH  17  18
ENDBRANCH  16  17
ENDBRANCH  15  16
ENDBRANCH  14  15
ENDBRANCH  13  14
ENDBRANCH  12  13
ENDBRANCH   1  12
TORSDOF 15
ENDMDL
MODEL 2
REMARK VINA RESULT:    -3.475      0.841      1.431
REMARK INTER + INTRA:          -7.716
REMARK INTER:                  -6.254
REMARK INTRA:                  -1.462
REMARK UNBOUND:                -1.194
REMARK SMILES CCCCCC=CCC=CCCCCCCCC(=O)OC
REMARK SMILES IDX 11 1 10 2 9 3 8 4 7 5 6 6 5 7 4 8 3 9 2 10 1 11 12 12 13 13
REMARK SMILES IDX 14 14 15 15 16 16 17 17 18 18 19 19 20 20 21 21
REMARK H PARENT
REMARK Flexibility Score: inf
ROOT
ATOM      1  C   UNL     1      29.685  -7.335 -15.709  1.00  0.00     0.027 C 
ENDROOT
BRANCH   1   2
ATOM      2  C   UNL     1      31.066  -6.846 -16.057  1.00  0.00    -0.031 C 
ATOM      3  C   UNL     1      31.360  -5.538 -16.041  1.00  0.00    -0.027 C 
BRANCH   3   4
ATOM      4  C   UNL     1      32.771  -5.067 -16.268  1.00  0.00     0.054 C 
BRANCH   4   5
ATOM      5  C   UNL     1      33.387  -5.736 -17.467  1.00  0.00    -0.027 C 
ATOM      6  C   UNL     1      34.530  -5.347 -18.064  1.00  0.00    -0.031 C 
BRANCH   6   7
ATOM      7  C   UNL     1      35.368  -4.156 -17.659  1.00  0.00     0.027 C 
BRANCH   7   8
ATOM      8  C   UNL     1      36.870  -4.437 -17.811  1.00  0.00     0.004 C 
BRANCH   8   9
ATOM      9  C   UNL     1      37.495  -5.159 -16.600  1.00  0.00     0.000 C 
BRANCH   9  10
ATOM     10  C   UNL     1      37.547  -6.694 -16.730  1.00  0.00    -0.003 C 
ATOM     11  C   UNL     1      38.952  -7.262 -16.532  1.00  0.00     0.004 C 
ENDBRANCH   9  10
ENDBRANCH   8   9
ENDBRANCH   7   8
ENDBRANCH   6   7
ENDBRANCH   4   5
ENDBRANCH   3   4
ENDBRANCH   1   2
BRANCH   1  12
ATOM     12  C   UNL     1      29.713  -8.329 -14.538  1.00  0.00     0.004 C 
BRANCH  12  13
ATOM     13  C   UNL     1      29.532  -7.622 -13.186  1.00  0.00     0.000 C 
BRANCH  13  14
ATOM     14  C   UNL     1      28.874  -6.245 -13.358  1.00  0.00     0.000 C 
BRANCH  14  15
ATOM     15  C   UNL     1      29.699  -5.113 -12.726  1.00  0.00     0.001 C 
BRANCH  15  16
ATOM     16  C   UNL     1      31.188  -5.473 -12.578  1.00  0.00     0.012 C 
BRANCH  16  17
ATOM     17  C   UNL     1      31.691  -5.284 -11.140  1.00  0.00     0.123 C 
BRANCH  17  18
ATOM     18  C   UNL     1      32.682  -6.339 -10.748  1.00  0.00     0.305 C 
ATOM     19  O   UNL     1      33.095  -7.160 -11.609  1.00  0.00    -0.252 OA
BRANCH  18  20
ATOM     20  O   UNL     1      33.140  -6.402  -9.427  1.00  0.00    -0.469 OA
ATOM     21  C   UNL     1      33.914  -7.489  -8.937  1.00  0.00     0.282 C 
ENDBRANCH  18  20
ENDBRANCH  17  18
ENDBRANCH  16  17
ENDBRANCH  15  16
ENDBRANCH  14  15
ENDBRANCH  13  14
ENDBRANCH  12  13
ENDBRANCH   1  12
TORSDOF 15
ENDMDL
MODEL 3
REMARK VINA RESULT:    -2.715      2.518      6.746
REMARK INTER + INTRA:          -6.290
REMARK INTER:                  -5.067
REMARK INTRA:                  -1.222
REMARK UNBOUND:                -1.194
REMARK SMILES CCCCCC=CCC=CCCCCCCCC(=O)OC
REMARK SMILES IDX 11 1 10 2 9 3 8 4 7 5 6 6 5 7 4 8 3 9 2 10 1 11 12 12 13 13
REMARK SMILES IDX 14 14 15 15 16 16 17 17 18 18 19 19 20 20 21 21
REMARK H PARENT
REMARK Flexibility Score: inf
ROOT
ATOM      1  C   UNL     1      30.109  -8.385 -15.768  1.00  0.00     0.027 C 
ENDROOT
BRANCH   1   2
ATOM      2  C   UNL     1      29.304  -7.680 -14.709  1.00  0.00    -0.031 C 
ATOM      3  C   UNL     1      29.620  -7.794 -13.411  1.00  0.00    -0.027 C 
BRANCH   3   4
ATOM      4  C   UNL     1      28.890  -6.988 -12.371  1.00  0.00     0.054 C 
BRANCH   4   5
ATOM      5  C   UNL     1      28.877  -5.525 -12.719  1.00  0.00    -0.027 C 
ATOM      6  C   UNL     1      29.832  -4.641 -12.370  1.00  0.00    -0.031 C 
BRANCH   6   7
ATOM      7  C   UNL     1      31.057  -4.957 -11.542  1.00  0.00     0.027 C 
BRANCH   7   8
ATOM      8  C   UNL     1      32.025  -5.888 -12.287  1.00  0.00     0.004 C 
BRANCH   8   9
ATOM      9  C   UNL     1      32.776  -6.871 -11.366  1.00  0.00     0.000 C 
BRANCH   9  10
ATOM     10  C   UNL     1      32.992  -6.360  -9.928  1.00  0.00    -0.003 C 
ATOM     11  C   UNL     1      33.760  -7.350  -9.052  1.00  0.00     0.004 C 
ENDBRANCH   9  10
ENDBRANCH   8   9
ENDBRANCH   7   8
ENDBRANCH   6   7
ENDBRANCH   4   5
ENDBRANCH   3   4
ENDBRANCH   1   2
BRANCH   1  12
ATOM     12  C   UNL     1      31.080  -7.427 -16.475  1.00  0.00     0.004 C 
BRANCH  12  13
ATOM     13  C   UNL     1      31.106  -6.044 -15.804  1.00  0.00     0.000 C 
BRANCH  13  14
ATOM     14  C   UNL     1      32.026  -5.074 -16.559  1.00  0.00     0.000 C 
BRANCH  14  15
ATOM     15  C   UNL     1      33.454  -5.618 -16.719  1.00  0.00     0.001 C 
BRANCH  15  16
ATOM     16  C   UNL     1      34.107  -5.198 -18.048  1.00  0.00     0.012 C 
BRANCH  16  17
ATOM     17  C   UNL     1      35.579  -5.622 -18.132  1.00  0.00     0.123 C 
BRANCH  17  18
ATOM     18  C   UNL     1      36.484  -4.659 -17.423  1.00  0.00     0.305 C 
ATOM     19  O   UNL     1      36.451  -3.436 -17.721  1.00  0.00    -0.252 OA
BRANCH  18  20
ATOM     20  O   UNL     1      37.357  -5.127 -16.436  1.00  0.00    -0.469 OA
ATOM     21  C   UNL     1      37.833  -6.467 -16.409  1.00  0.00     0.282 C 
ENDBRANCH  18  20
ENDBRANCH  17  18
ENDBRANCH  16  17
ENDBRANCH  15  16
ENDBRANCH  14  15
ENDBRANCH  13  14
ENDBRANCH  12  13
ENDBRANCH   1  12
TORSDOF 15
ENDMDL
MODEL 4
REMARK VINA RESULT:    -2.427      2.304      7.065
REMARK INTER + INTRA:          -5.749
REMARK INTER:                  -5.318
REMARK INTRA:                  -0.431
REMARK UNBOUND:                -1.194
REMARK SMILES CCCCCC=CCC=CCCCCCCCC(=O)OC
REMARK SMILES IDX 11 1 10 2 9 3 8 4 7 5 6 6 5 7 4 8 3 9 2 10 1 11 12 12 13 13
REMARK SMILES IDX 14 14 15 15 16 16 17 17 18 18 19 19 20 20 21 21
REMARK H PARENT
REMARK Flexibility Score: inf
ROOT
ATOM      1  C   UNL     1      31.883  -4.934 -16.094  1.00  0.00     0.027 C 
ENDROOT
BRANCH   1   2
ATOM      2  C   UNL     1      30.691  -5.801 -15.782  1.00  0.00    -0.031 C 
ATOM      3  C   UNL     1      30.778  -7.138 -15.833  1.00  0.00    -0.027 C 
BRANCH   3   4
ATOM      4  C   UNL     1      29.621  -7.998 -15.401  1.00  0.00     0.054 C 
BRANCH   4   5
ATOM      5  C   UNL     1      29.718  -8.357 -13.943  1.00  0.00    -0.027 C 
ATOM      6  C   UNL     1      29.404  -7.534 -12.924  1.00  0.00    -0.031 C 
BRANCH   6   7
ATOM      7  C   UNL     1      28.937  -6.103 -13.066  1.00  0.00     0.027 C 
BRANCH   7   8
ATOM      8  C   UNL     1      30.035  -5.103 -12.675  1.00  0.00     0.004 C 
BRANCH   8   9
ATOM      9  C   UNL     1      31.385  -5.764 -12.333  1.00  0.00     0.000 C 
BRANCH   9  10
ATOM     10  C   UNL     1      31.889  -5.483 -10.903  1.00  0.00    -0.003 C 
ATOM     11  C   UNL     1      32.850  -6.554 -10.387  1.00  0.00     0.004 C 
ENDBRANCH   9  10
ENDBRANCH   8   9
ENDBRANCH   7   8
ENDBRANCH   6   7
ENDBRANCH   4   5
ENDBRANCH   3   4
ENDBRANCH   1   2
BRANCH   1  12
ATOM     12  C   UNL     1      32.973  -5.715 -16.842  1.00  0.00     0.004 C 
BRANCH  12  13
ATOM     13  C   UNL     1      33.737  -4.822 -17.833  1.00  0.00     0.000 C 
BRANCH  13  14
ATOM     14  C   UNL     1      34.717  -5.642 -18.684  1.00  0.00     0.000 C 
BRANCH  14  15
ATOM     15  C   UNL     1      36.142  -5.065 -18.663  1.00  0.00     0.001 C 
BRANCH  15  16
ATOM     16  C   UNL     1      36.359  -4.056 -17.521  1.00  0.00     0.012 C 
BRANCH  16  17
ATOM     17  C   UNL     1      37.081  -4.684 -16.321  1.00  0.00     0.123 C 
BRANCH  17  18
ATOM     18  C   UNL     1      37.282  -6.160 -16.494  1.00  0.00     0.305 C 
ATOM     19  O   UNL     1      36.311  -6.946 -16.336  1.00  0.00    -0.252 OA
BRANCH  18  20
ATOM     20  O   UNL     1      38.548  -6.651 -16.831  1.00  0.00    -0.469 OA
ATOM     21  C   UNL     1      39.157  -7.734 -16.140  1.00  0.00     0.282 C 
ENDBRANCH  18  20
ENDBRANCH  17  18
ENDBRANCH  16  17
ENDBRANCH  15  16
ENDBRANCH  14  15
ENDBRANCH  13  14
ENDBRANCH  12  13
ENDBRANCH   1  12
TORSDOF 15
ENDMDL
MODEL 5
REMARK VINA RESULT:    -2.357      0.969      1.926
REMARK INTER + INTRA:          -5.618
REMARK INTER:                  -6.386
REMARK INTRA:                   0.768
REMARK UNBOUND:                -1.194
REMARK SMILES CCCCCC=CCC=CCCCCCCCC(=O)OC
REMARK SMILES IDX 11 1 10 2 9 3 8 4 7 5 6 6 5 7 4 8 3 9 2 10 1 11 12 12 13 13
REMARK SMILES IDX 14 14 15 15 16 16 17 17 18 18 19 19 20 20 21 21
REMARK H PARENT
REMARK Flexibility Score: inf
ROOT
ATOM      1  C   UNL     1      30.804  -5.905 -15.160  1.00  0.00     0.027 C 
ENDROOT
BRANCH   1   2
ATOM      2  C   UNL     1      31.556  -5.200 -16.259  1.00  0.00    -0.031 C 
ATOM      3  C   UNL     1      32.834  -5.503 -16.525  1.00  0.00    -0.027 C 
BRANCH   3   4
ATOM      4  C   UNL     1      33.538  -4.884 -17.702  1.00  0.00     0.054 C 
BRANCH   4   5
ATOM      5  C   UNL     1      34.451  -5.872 -18.377  1.00  0.00    -0.027 C 
ATOM      6  C   UNL     1      35.723  -5.621 -18.742  1.00  0.00    -0.031 C 
BRANCH   6   7
ATOM      7  C   UNL     1      36.439  -4.300 -18.571  1.00  0.00     0.027 C 
BRANCH   7   8
ATOM      8  C   UNL     1      37.345  -4.298 -17.331  1.00  0.00     0.004 C 
BRANCH   8   9
ATOM      9  C   UNL     1      36.781  -5.106 -16.146  1.00  0.00     0.000 C 
BRANCH   9  10
ATOM     10  C   UNL     1      37.170  -6.598 -16.148  1.00  0.00    -0.003 C 
ATOM     11  C   UNL     1      38.605  -6.841 -16.612  1.00  0.00     0.004 C 
ENDBRANCH   9  10
ENDBRANCH   8   9
ENDBRANCH   7   8
ENDBRANCH   6   7
ENDBRANCH   4   5
ENDBRANCH   3   4
ENDBRANCH   1   2
BRANCH   1  12
ATOM     12  C   UNL     1      29.866  -6.986 -15.718  1.00  0.00     0.004 C 
BRANCH  12  13
ATOM     13  C   UNL     1      29.730  -8.176 -14.755  1.00  0.00     0.000 C 
BRANCH  13  14
ATOM     14  C   UNL     1      29.567  -7.705 -13.302  1.00  0.00     0.000 C 
BRANCH  14  15
ATOM     15  C   UNL     1      28.982  -6.287 -13.204  1.00  0.00     0.001 C 
BRANCH  15  16
ATOM     16  C   UNL     1      29.606  -5.463 -12.064  1.00  0.00     0.012 C 
BRANCH  16  17
ATOM     17  C   UNL     1      31.061  -5.072 -12.358  1.00  0.00     0.123 C 
BRANCH  17  18
ATOM     18  C   UNL     1      32.036  -5.931 -11.611  1.00  0.00     0.305 C 
ATOM     19  O   UNL     1      32.615  -6.881 -12.202  1.00  0.00    -0.252 OA
BRANCH  18  20
ATOM     20  O   UNL     1      32.296  -5.670 -10.261  1.00  0.00    -0.469 OA
ATOM     21  C   UNL     1      33.086  -6.533  -9.453  1.00  0.00     0.282 C 
ENDBRANCH  18  20
ENDBRANCH  17  18
ENDBRANCH  16  17
ENDBRANCH  15  16
ENDBRANCH  14  15
ENDBRANCH  13  14
ENDBRANCH  12  13
ENDBRANCH   1  12
TORSDOF 15
ENDMDL
MODEL 6
REMARK VINA RESULT:    -1.976      2.658      4.527
REMARK INTER + INTRA:          -4.902
REMARK INTER:                  -4.098
REMARK INTRA:                  -0.805
REMARK UNBOUND:                -1.194
REMARK SMILES CCCCCC=CCC=CCCCCCCCC(=O)OC
REMARK SMILES IDX 11 1 10 2 9 3 8 4 7 5 6 6 5 7 4 8 3 9 2 10 1 11 12 12 13 13
REMARK SMILES IDX 14 14 15 15 16 16 17 17 18 18 19 19 20 20 21 21
REMARK H PARENT
REMARK Flexibility Score: inf
ROOT
ATOM      1  C   UNL     1      32.042  -5.463 -12.318  1.00  0.00     0.027 C 
ENDROOT
BRANCH   1   2
ATOM      2  C   UNL     1      32.247  -6.107 -13.664  1.00  0.00    -0.031 C 
ATOM      3  C   UNL     1      31.956  -5.450 -14.796  1.00  0.00    -0.027 C 
BRANCH   3   4
ATOM      4  C   UNL     1      32.281  -6.052 -16.136  1.00  0.00     0.054 C 
BRANCH   4   5
ATOM      5  C   UNL     1      32.824  -5.019 -17.086  1.00  0.00    -0.027 C 
ATOM      6  C   UNL     1      34.016  -5.096 -17.709  1.00  0.00    -0.031 C 
BRANCH   6   7
ATOM      7  C   UNL     1      35.025  -6.208 -17.536  1.00  0.00     0.027 C 
BRANCH   7   8
ATOM      8  C   UNL     1      35.987  -5.929 -16.372  1.00  0.00     0.004 C 
BRANCH   8   9
ATOM      9  C   UNL     1      37.270  -5.183 -16.791  1.00  0.00     0.000 C 
BRANCH   9  10
ATOM     10  C   UNL     1      37.226  -4.584 -18.211  1.00  0.00    -0.003 C 
ATOM     11  C   UNL     1      37.056  -3.066 -18.214  1.00  0.00     0.004 C 
ENDBRANCH   9  10
ENDBRANCH   8   9
ENDBRANCH   7   8
ENDBRANCH   6   7
ENDBRANCH   4   5
ENDBRANCH   3   4
ENDBRANCH   1   2
BRANCH   1  12
ATOM     12  C   UNL     1      30.577  -5.552 -11.865  1.00  0.00     0.004 C 
BRANCH  12  13
ATOM     13  C   UNL     1      29.612  -5.059 -12.954  1.00  0.00     0.000 C 
BRANCH  13  14
ATOM     14  C   UNL     1      28.738  -6.204 -13.487  1.00  0.00     0.000 C 
BRANCH  14  15
ATOM     15  C   UNL     1      29.246  -7.587 -13.049  1.00  0.00     0.001 C 
BRANCH  15  16
ATOM     16  C   UNL     1      29.785  -8.422 -14.224  1.00  0.00     0.012 C 
BRANCH  16  17
ATOM     17  C   UNL     1      29.387  -7.835 -15.585  1.00  0.00     0.123 C 
BRANCH  17  18
ATOM     18  C   UNL     1      29.409  -8.869 -16.671  1.00  0.00     0.305 C 
ATOM     19  O   UNL     1      30.473  -9.498 -16.914  1.00  0.00    -0.252 OA
BRANCH  18  20
ATOM     20  O   UNL     1      28.247  -9.126 -17.406  1.00  0.00    -0.469 OA
ATOM     21  C   UNL     1      28.226  -9.131 -18.828  1.00  0.00     0.282 C 
ENDBRANCH  18  20
ENDBRANCH  17  18
ENDBRANCH  16  17
ENDBRANCH  15  16
ENDBRANCH  14  15
ENDBRANCH  13  14
ENDBRANCH  12  13
ENDBRANCH   1  12
TORSDOF 15
ENDMDL
MODEL 7
REMARK VINA RESULT:    -1.846      2.759      7.160
REMARK INTER + INTRA:          -4.659
REMARK INTER:                  -5.067
REMARK INTRA:                   0.408
REMARK UNBOUND:                -1.194
REMARK SMILES CCCCCC=CCC=CCCCCCCCC(=O)OC
REMARK SMILES IDX 11 1 10 2 9 3 8 4 7 5 6 6 5 7 4 8 3 9 2 10 1 11 12 12 13 13
REMARK SMILES IDX 14 14 15 15 16 16 17 17 18 18 19 19 20 20 21 21
REMARK H PARENT
REMARK Flexibility Score: inf
ROOT
ATOM      1  C   UNL     1      31.482  -4.830 -16.066  1.00  0.00     0.027 C 
ENDROOT
BRANCH   1   2
ATOM      2  C   UNL     1      30.403  -5.833 -15.750  1.00  0.00    -0.031 C 
ATOM      3  C   UNL     1      30.658  -7.149 -15.765  1.00  0.00    -0.027 C 
BRANCH   3   4
ATOM      4  C   UNL     1      29.611  -8.137 -15.327  1.00  0.00     0.054 C 
BRANCH   4   5
ATOM      5  C   UNL     1      29.704  -8.419 -13.852  1.00  0.00    -0.027 C 
ATOM      6  C   UNL     1      29.373  -7.548 -12.879  1.00  0.00    -0.031 C 
BRANCH   6   7
ATOM      7  C   UNL     1      28.890  -6.133 -13.097  1.00  0.00     0.027 C 
BRANCH   7   8
ATOM      8  C   UNL     1      29.877  -5.099 -12.534  1.00  0.00     0.004 C 
BRANCH   8   9
ATOM      9  C   UNL     1      31.331  -5.607 -12.454  1.00  0.00     0.000 C 
BRANCH   9  10
ATOM     10  C   UNL     1      31.917  -5.639 -11.028  1.00  0.00    -0.003 C 
ATOM     11  C   UNL     1      32.913  -6.780 -10.818  1.00  0.00     0.004 C 
ENDBRANCH   9  10
ENDBRANCH   8   9
ENDBRANCH   7   8
ENDBRANCH   6   7
ENDBRANCH   4   5
ENDBRANCH   3   4
ENDBRANCH   1   2
BRANCH   1  12
ATOM     12  C   UNL     1      32.776  -5.516 -16.529  1.00  0.00     0.004 C 
BRANCH  12  13
ATOM     13  C   UNL     1      33.346  -4.860 -17.797  1.00  0.00     0.000 C 
BRANCH  13  14
ATOM     14  C   UNL     1      34.497  -5.689 -18.386  1.00  0.00     0.000 C 
BRANCH  14  15
ATOM     15  C   UNL     1      35.249  -6.498 -17.318  1.00  0.00     0.001 C 
BRANCH  15  16
ATOM     16  C   UNL     1      35.470  -5.705 -16.017  1.00  0.00     0.012 C 
BRANCH  16  17
ATOM     17  C   UNL     1      36.867  -5.071 -15.953  1.00  0.00     0.123 C 
BRANCH  17  18
ATOM     18  C   UNL     1      37.677  -5.372 -17.179  1.00  0.00     0.305 C 
ATOM     19  O   UNL     1      38.327  -6.449 -17.250  1.00  0.00    -0.252 OA
BRANCH  18  20
ATOM     20  O   UNL     1      37.705  -4.453 -18.233  1.00  0.00    -0.469 OA
ATOM     21  C   UNL     1      36.972  -3.235 -18.206  1.00  0.00     0.282 C 
ENDBRANCH  18  20
ENDBRANCH  17  18
ENDBRANCH  16  17
ENDBRANCH  15  16
ENDBRANCH  14  15
ENDBRANCH  13  14
ENDBRANCH  12  13
ENDBRANCH   1  12
TORSDOF 15
ENDMDL
MODEL 8
REMARK VINA RESULT:    -1.051      2.739      7.225
REMARK INTER + INTRA:          -3.167
REMARK INTER:                  -3.617
REMARK INTRA:                   0.450
REMARK UNBOUND:                -1.194
REMARK SMILES CCCCCC=CCC=CCCCCCCCC(=O)OC
REMARK SMILES IDX 11 1 10 2 9 3 8 4 7 5 6 6 5 7 4 8 3 9 2 10 1 11 12 12 13 13
REMARK SMILES IDX 14 14 15 15 16 16 17 17 18 18 19 19 20 20 21 21
REMARK H PARENT
REMARK Flexibility Score: inf
ROOT
ATOM      1  C   UNL     1      31.432  -5.049 -16.136  1.00  0.00     0.027 C 
ENDROOT
BRANCH   1   2
ATOM      2  C   UNL     1      30.492  -5.870 -15.294  1.00  0.00    -0.031 C 
ATOM      3  C   UNL     1      30.162  -5.487 -14.052  1.00  0.00    -0.027 C 
BRANCH   3   4
ATOM      4  C   UNL     1      29.127  -6.245 -13.266  1.00  0.00     0.054 C 
BRANCH   4   5
ATOM      5  C   UNL     1      29.548  -7.672 -13.037  1.00  0.00    -0.027 C 
ATOM      6  C   UNL     1      29.618  -8.618 -13.994  1.00  0.00    -0.031 C 
BRANCH   6   7
ATOM      7  C   UNL     1      29.252  -8.421 -15.448  1.00  0.00     0.027 C 
BRANCH   7   8
ATOM      8  C   UNL     1      30.193  -9.196 -16.383  1.00  0.00     0.004 C 
BRANCH   8   9
ATOM      9  C   UNL     1      29.547  -9.597 -17.724  1.00  0.00     0.000 C 
BRANCH   9  10
ATOM     10  C   UNL     1      28.222  -8.872 -18.036  1.00  0.00    -0.003 C 
ATOM     11  C   UNL     1      27.404  -9.566 -19.125  1.00  0.00     0.004 C 
ENDBRANCH   9  10
ENDBRANCH   8   9
ENDBRANCH   7   8
ENDBRANCH   6   7
ENDBRANCH   4   5
ENDBRANCH   3   4
ENDBRANCH   1   2
BRANCH   1  12
ATOM     12  C   UNL     1      32.854  -5.628 -16.128  1.00  0.00     0.004 C 
BRANCH  12  13
ATOM     13  C   UNL     1      33.368  -5.900 -17.551  1.00  0.00     0.000 C 
BRANCH  13  14
ATOM     14  C   UNL     1      34.313  -4.786 -18.026  1.00  0.00     0.000 C 
BRANCH  14  15
ATOM     15  C   UNL     1      35.685  -5.323 -18.464  1.00  0.00     0.001 C 
BRANCH  15  16
ATOM     16  C   UNL     1      36.805  -4.276 -18.327  1.00  0.00     0.012 C 
BRANCH  16  17
ATOM     17  C   UNL     1      37.667  -4.508 -17.078  1.00  0.00     0.123 C 
BRANCH  17  18
ATOM     18  C   UNL     1      37.078  -5.549 -16.173  1.00  0.00     0.305 C 
ATOM     19  O   UNL     1      36.139  -5.240 -15.393  1.00  0.00    -0.252 OA
BRANCH  18  20
ATOM     20  O   UNL     1      37.577  -6.855 -16.204  1.00  0.00    -0.469 OA
ATOM     21  C   UNL     1      38.888  -7.162 -16.661  1.00  0.00     0.282 C 
ENDBRANCH  18  20
ENDBRANCH  17  18
ENDBRANCH  16  17
ENDBRANCH  15  16
ENDBRANCH  14  15
ENDBRANCH  13  14
ENDBRANCH  12  13
ENDBRANCH   1  12
TORSDOF 15
ENDMDL
