MODEL 1
REMARK VINA RESULT:    -3.757      0.000      0.000
REMARK INTER + INTRA:          -8.585
REMARK INTER:                  -7.052
REMARK INTRA:                  -1.533
REMARK UNBOUND:                -1.533
REMARK SMILES CCCCCCCCC=CCCCCCCCC(=O)[O-]
REMARK SMILES IDX 10 1 9 2 11 3 12 4 13 5 14 6 15 7 16 8 17 9 18 10 19 11
REMARK SMILES IDX 20 12 8 13 7 14 6 15 5 16 4 17 3 18 2 19 1 20
REMARK H PARENT
REMARK Flexibility Score: inf
ROOT
ATOM      1  C   UNL     1      13.650   0.476 -20.696  1.00  0.00    -0.031 C 
ATOM      2  C   UNL     1      13.270  -0.715 -21.194  1.00  0.00    -0.031 C 
ENDROOT
BRANCH   1   3
ATOM      3  C   UNL     1      12.994   1.800 -21.010  1.00  0.00     0.027 C 
BRANCH   3   4
ATOM      4  C   UNL     1      12.883   2.682 -19.759  1.00  0.00     0.004 C 
BRANCH   4   5
ATOM      5  C   UNL     1      13.047   4.175 -20.089  1.00  0.00     0.000 C 
BRANCH   5   6
ATOM      6  C   UNL     1      14.329   4.467 -20.885  1.00  0.00     0.000 C 
BRANCH   6   7
ATOM      7  C   UNL     1      14.887   5.872 -20.615  1.00  0.00     0.000 C 
BRANCH   7   8
ATOM      8  C   UNL     1      16.201   6.096 -21.372  1.00  0.00     0.006 C 
BRANCH   8   9
ATOM      9  C   UNL     1      15.991   5.983 -22.885  1.00  0.00     0.053 C 
BRANCH   9  10
ATOM     10  C   UNL     1      17.144   5.275 -23.523  1.00  0.00     0.041 C 
ATOM     11  O   UNL     1      18.248   5.194 -22.922  1.00  0.00    -0.550 OA
ATOM     12  O   UNL     1      17.015   4.746 -24.800  1.00  0.00    -0.550 OA
ENDBRANCH   9  10
ENDBRANCH   8   9
ENDBRANCH   7   8
ENDBRANCH   6   7
ENDBRANCH   5   6
ENDBRANCH   4   5
ENDBRANCH   3   4
ENDBRANCH   1   3
BRANCH   2  13
ATOM     13  C   UNL     1      12.091  -0.929 -22.108  1.00  0.00     0.027 C 
BRANCH  13  14
ATOM     14  C   UNL     1      11.042  -1.835 -21.450  1.00  0.00     0.004 C 
BRANCH  14  15
ATOM     15  C   UNL     1      11.112  -1.731 -19.920  1.00  0.00     0.000 C 
BRANCH  15  16
ATOM     16  C   UNL     1       9.888  -1.023 -19.318  1.00  0.00     0.000 C 
BRANCH  16  17
ATOM     17  C   UNL     1      10.275   0.051 -18.285  1.00  0.00    -0.000 C 
BRANCH  17  18
ATOM     18  C   UNL     1      11.746  -0.051 -17.851  1.00  0.00    -0.000 C 
BRANCH  18  19
ATOM     19  C   UNL     1      12.015   0.654 -16.512  1.00  0.00    -0.003 C 
ATOM     20  C   UNL     1      13.289   1.493 -16.580  1.00  0.00     0.004 C 
ENDBRANCH  18  19
ENDBRANCH  17  18
ENDBRANCH  16  17
ENDBRANCH  15  16
ENDBRANCH  14  15
ENDBRANCH  13  14
ENDBRANCH   2  13
TORSDOF 15
ENDMDL
MODEL 2
REMARK VINA RESULT:    -3.548      0.938      2.907
REMARK INTER + INTRA:          -8.192
REMARK INTER:                  -6.747
REMARK INTRA:                  -1.444
REMARK UNBOUND:                -1.533
REMARK SMILES CCCCCCCCC=CCCCCCCCC(=O)[O-]
REMARK SMILES IDX 10 1 9 2 11 3 12 4 13 5 14 6 15 7 16 8 17 9 18 10 19 11
REMARK SMILES IDX 20 12 8 13 7 14 6 15 5 16 4 17 3 18 2 19 1 20
REMARK H PARENT
REMARK Flexibility Score: inf
ROOT
ATOM      1  C   UNL     1      12.875   2.400 -18.279  1.00  0.00    -0.031 C 
ATOM      2  C   UNL     1      12.647   1.537 -17.271  1.00  0.00    -0.031 C 
ENDROOT
BRANCH   1   3
ATOM      3  C   UNL     1      12.720   2.081 -19.748  1.00  0.00     0.027 C 
BRANCH   3   4
ATOM      4  C   UNL     1      13.250   3.221 -20.628  1.00  0.00     0.004 C 
BRANCH   4   5
ATOM      5  C   UNL     1      13.285   4.562 -19.876  1.00  0.00     0.000 C 
BRANCH   5   6
ATOM      6  C   UNL     1      13.712   5.733 -20.776  1.00  0.00     0.000 C 
BRANCH   6   7
ATOM      7  C   UNL     1      15.199   6.084 -20.625  1.00  0.00     0.000 C 
BRANCH   7   8
ATOM      8  C   UNL     1      15.930   5.964 -21.968  1.00  0.00     0.006 C 
BRANCH   8   9
ATOM      9  C   UNL     1      17.408   5.617 -21.761  1.00  0.00     0.053 C 
BRANCH   9  10
ATOM     10  C   UNL     1      18.077   5.371 -23.076  1.00  0.00     0.041 C 
ATOM     11  O   UNL     1      19.328   5.468 -23.178  1.00  0.00    -0.550 OA
ATOM     12  O   UNL     1      17.315   5.083 -24.201  1.00  0.00    -0.550 OA
ENDBRANCH   9  10
ENDBRANCH   8   9
ENDBRANCH   7   8
ENDBRANCH   6   7
ENDBRANCH   5   6
ENDBRANCH   4   5
ENDBRANCH   3   4
ENDBRANCH   1   3
BRANCH   2  13
ATOM     13  C   UNL     1      12.149   0.125 -17.442  1.00  0.00     0.027 C 
BRANCH  13  14
ATOM     14  C   UNL     1      10.623   0.095 -17.598  1.00  0.00     0.004 C 
BRANCH  14  15
ATOM     15  C   UNL     1      10.227  -0.236 -19.044  1.00  0.00     0.000 C 
BRANCH  15  16
ATOM     16  C   UNL     1      10.283  -1.742 -19.343  1.00  0.00     0.000 C 
BRANCH  16  17
ATOM     17  C   UNL     1      10.590  -2.040 -20.822  1.00  0.00    -0.000 C 
BRANCH  17  18
ATOM     18  C   UNL     1      11.428  -0.936 -21.485  1.00  0.00    -0.000 C 
BRANCH  18  19
ATOM     19  C   UNL     1      12.876  -1.375 -21.752  1.00  0.00    -0.003 C 
ATOM     20  C   UNL     1      13.801  -0.934 -20.622  1.00  0.00     0.004 C 
ENDBRANCH  18  19
ENDBRANCH  17  18
ENDBRANCH  16  17
ENDBRANCH  15  16
ENDBRANCH  14  15
ENDBRANCH  13  14
ENDBRANCH   2  13
TORSDOF 15
ENDMDL
MODEL 3
REMARK VINA RESULT:    -3.302      0.867      1.491
REMARK INTER + INTRA:          -7.730
REMARK INTER:                  -6.198
REMARK INTRA:                  -1.531
REMARK UNBOUND:                -1.533
REMARK SMILES CCCCCCCCC=CCCCCCCCC(=O)[O-]
REMARK SMILES IDX 10 1 9 2 11 3 12 4 13 5 14 6 15 7 16 8 17 9 18 10 19 11
REMARK SMILES IDX 20 12 8 13 7 14 6 15 5 16 4 17 3 18 2 19 1 20
REMARK H PARENT
REMARK Flexibility Score: inf
ROOT
ATOM      1  C   UNL     1      13.574  -0.969 -21.268  1.00  0.00    -0.031 C 
ATOM      2  C   UNL     1      12.539  -1.551 -21.902  1.00  0.00    -0.031 C 
ENDROOT
BRANCH   1   3
ATOM      3  C   UNL     1      13.472   0.230 -20.355  1.00  0.00     0.027 C 
BRANCH   3   4
ATOM      4  C   UNL     1      13.576   1.544 -21.140  1.00  0.00     0.004 C 
BRANCH   4   5
ATOM      5  C   UNL     1      12.688   2.647 -20.540  1.00  0.00     0.000 C 
BRANCH   5   6
ATOM      6  C   UNL     1      13.500   3.728 -19.809  1.00  0.00     0.000 C 
BRANCH   6   7
ATOM      7  C   UNL     1      13.688   4.998 -20.651  1.00  0.00     0.000 C 
BRANCH   7   8
ATOM      8  C   UNL     1      15.152   5.454 -20.638  1.00  0.00     0.006 C 
BRANCH   8   9
ATOM      9  C   UNL     1      15.547   6.076 -21.981  1.00  0.00     0.053 C 
BRANCH   9  10
ATOM     10  C   UNL     1      16.958   5.720 -22.328  1.00  0.00     0.041 C 
ATOM     11  O   UNL     1      17.229   5.232 -23.456  1.00  0.00    -0.550 OA
ATOM     12  O   UNL     1      17.967   5.883 -21.387  1.00  0.00    -0.550 OA
ENDBRANCH   9  10
ENDBRANCH   8   9
ENDBRANCH   7   8
ENDBRANCH   6   7
ENDBRANCH   5   6
ENDBRANCH   4   5
ENDBRANCH   3   4
ENDBRANCH   1   3
BRANCH   2  13
ATOM     13  C   UNL     1      11.098  -1.130 -21.763  1.00  0.00     0.027 C 
BRANCH  13  14
ATOM     14  C   UNL     1      10.342  -2.067 -20.812  1.00  0.00     0.004 C 
BRANCH  14  15
ATOM     15  C   UNL     1      10.626  -1.706 -19.347  1.00  0.00     0.000 C 
BRANCH  15  16
ATOM     16  C   UNL     1      10.004  -0.362 -18.937  1.00  0.00     0.000 C 
BRANCH  16  17
ATOM     17  C   UNL     1      11.004   0.556 -18.211  1.00  0.00    -0.000 C 
BRANCH  17  18
ATOM     18  C   UNL     1      11.165   0.196 -16.726  1.00  0.00    -0.000 C 
BRANCH  18  19
ATOM     19  C   UNL     1      12.531   0.613 -16.162  1.00  0.00    -0.003 C 
ATOM     20  C   UNL     1      13.144   1.742 -16.986  1.00  0.00     0.004 C 
ENDBRANCH  18  19
ENDBRANCH  17  18
ENDBRANCH  16  17
ENDBRANCH  15  16
ENDBRANCH  14  15
ENDBRANCH  13  14
ENDBRANCH   2  13
TORSDOF 15
ENDMDL
MODEL 4
REMARK VINA RESULT:    -3.175      2.619      7.803
REMARK INTER + INTRA:          -7.492
REMARK INTER:                  -6.387
REMARK INTRA:                  -1.105
REMARK UNBOUND:                -1.533
REMARK SMILES CCCCCCCCC=CCCCCCCCC(=O)[O-]
REMARK SMILES IDX 10 1 9 2 11 3 12 4 13 5 14 6 15 7 16 8 17 9 18 10 19 11
REMARK SMILES IDX 20 12 8 13 7 14 6 15 5 16 4 17 3 18 2 19 1 20
REMARK H PARENT
REMARK Flexibility Score: inf
ROOT
ATOM      1  C   UNL     1      13.036   2.395 -19.779  1.00  0.00    -0.031 C 
ATOM      2  C   UNL     1      13.285   3.489 -20.524  1.00  0.00    -0.031 C 
ENDROOT
BRANCH   1   3
ATOM      3  C   UNL     1      12.349   2.397 -18.433  1.00  0.00     0.027 C 
BRANCH   3   4
ATOM      4  C   UNL     1      12.793   1.206 -17.575  1.00  0.00     0.004 C 
BRANCH   4   5
ATOM      5  C   UNL     1      11.672   0.167 -17.405  1.00  0.00     0.000 C 
BRANCH   5   6
ATOM      6  C   UNL     1      10.577   0.299 -18.476  1.00  0.00     0.000 C 
BRANCH   6   7
ATOM      7  C   UNL     1      10.116  -1.061 -19.022  1.00  0.00     0.000 C 
BRANCH   7   8
ATOM      8  C   UNL     1      11.210  -1.708 -19.881  1.00  0.00     0.006 C 
BRANCH   8   9
ATOM      9  C   UNL     1      11.417  -0.931 -21.185  1.00  0.00     0.053 C 
BRANCH   9  10
ATOM     10  C   UNL     1      12.773  -1.211 -21.751  1.00  0.00     0.041 C 
ATOM     11  O   UNL     1      12.891  -1.646 -22.927  1.00  0.00    -0.550 OA
ATOM     12  O   UNL     1      13.904  -1.038 -20.964  1.00  0.00    -0.550 OA
ENDBRANCH   9  10
ENDBRANCH   8   9
ENDBRANCH   7   8
ENDBRANCH   6   7
ENDBRANCH   5   6
ENDBRANCH   4   5
ENDBRANCH   3   4
ENDBRANCH   1   3
BRANCH   2  13
ATOM     13  C   UNL     1      12.873   4.892 -20.158  1.00  0.00     0.027 C 
BRANCH  13  14
ATOM     14  C   UNL     1      13.707   5.927 -20.923  1.00  0.00     0.004 C 
BRANCH  14  15
ATOM     15  C   UNL     1      15.205   5.743 -20.638  1.00  0.00     0.000 C 
BRANCH  15  16
ATOM     16  C   UNL     1      16.079   6.006 -21.873  1.00  0.00     0.000 C 
BRANCH  16  17
ATOM     17  C   UNL     1      17.577   5.784 -21.595  1.00  0.00    -0.000 C 
BRANCH  17  18
ATOM     18  C   UNL     1      18.364   5.412 -22.861  1.00  0.00    -0.000 C 
BRANCH  18  19
ATOM     19  C   UNL     1      17.763   6.032 -24.132  1.00  0.00    -0.003 C 
ATOM     20  C   UNL     1      17.125   4.964 -25.015  1.00  0.00     0.004 C 
ENDBRANCH  18  19
ENDBRANCH  17  18
ENDBRANCH  16  17
ENDBRANCH  15  16
ENDBRANCH  14  15
ENDBRANCH  13  14
ENDBRANCH   2  13
TORSDOF 15
ENDMDL
MODEL 5
REMARK VINA RESULT:    -3.082      0.982      2.972
REMARK INTER + INTRA:          -7.316
REMARK INTER:                  -6.601
REMARK INTRA:                  -0.715
REMARK UNBOUND:                -1.533
REMARK SMILES CCCCCCCCC=CCCCCCCCC(=O)[O-]
REMARK SMILES IDX 10 1 9 2 11 3 12 4 13 5 14 6 15 7 16 8 17 9 18 10 19 11
REMARK SMILES IDX 20 12 8 13 7 14 6 15 5 16 4 17 3 18 2 19 1 20
REMARK H PARENT
REMARK Flexibility Score: inf
ROOT
ATOM      1  C   UNL     1      12.782   1.173 -17.506  1.00  0.00    -0.031 C 
ATOM      2  C   UNL     1      11.824   0.485 -16.857  1.00  0.00    -0.031 C 
ENDROOT
BRANCH   1   3
ATOM      3  C   UNL     1      12.674   1.690 -18.921  1.00  0.00     0.027 C 
BRANCH   3   4
ATOM      4  C   UNL     1      12.862   3.211 -18.979  1.00  0.00     0.004 C 
BRANCH   4   5
ATOM      5  C   UNL     1      13.242   3.693 -20.389  1.00  0.00     0.000 C 
BRANCH   5   6
ATOM      6  C   UNL     1      13.442   5.216 -20.459  1.00  0.00     0.000 C 
BRANCH   6   7
ATOM      7  C   UNL     1      14.923   5.621 -20.428  1.00  0.00     0.000 C 
BRANCH   7   8
ATOM      8  C   UNL     1      15.551   5.515 -21.822  1.00  0.00     0.006 C 
BRANCH   8   9
ATOM      9  C   UNL     1      17.078   5.618 -21.747  1.00  0.00     0.053 C 
BRANCH   9  10
ATOM     10  C   UNL     1      17.693   5.236 -23.057  1.00  0.00     0.041 C 
ATOM     11  O   UNL     1      17.008   4.639 -23.928  1.00  0.00    -0.550 OA
ATOM     12  O   UNL     1      19.036   5.496 -23.296  1.00  0.00    -0.550 OA
ENDBRANCH   9  10
ENDBRANCH   8   9
ENDBRANCH   7   8
ENDBRANCH   6   7
ENDBRANCH   5   6
ENDBRANCH   4   5
ENDBRANCH   3   4
ENDBRANCH   1   3
BRANCH   2  13
ATOM     13  C   UNL     1      10.464   0.161 -17.422  1.00  0.00     0.027 C 
BRANCH  13  14
ATOM     14  C   UNL     1      10.565  -0.243 -18.898  1.00  0.00     0.004 C 
BRANCH  14  15
ATOM     15  C   UNL     1      10.007  -1.657 -19.118  1.00  0.00     0.000 C 
BRANCH  15  16
ATOM     16  C   UNL     1      10.304  -2.198 -20.525  1.00  0.00     0.000 C 
BRANCH  16  17
ATOM     17  C   UNL     1      10.752  -1.095 -21.500  1.00  0.00    -0.000 C 
BRANCH  17  18
ATOM     18  C   UNL     1      12.127  -1.381 -22.125  1.00  0.00    -0.000 C 
BRANCH  18  19
ATOM     19  C   UNL     1      13.244  -0.524 -21.509  1.00  0.00    -0.003 C 
ATOM     20  C   UNL     1      13.885  -1.232 -20.318  1.00  0.00     0.004 C 
ENDBRANCH  18  19
ENDBRANCH  17  18
ENDBRANCH  16  17
ENDBRANCH  15  16
ENDBRANCH  14  15
ENDBRANCH  13  14
ENDBRANCH   2  13
TORSDOF 15
ENDMDL
MODEL 6
REMARK VINA RESULT:    -3.075      3.064      7.480
REMARK INTER + INTRA:          -7.304
REMARK INTER:                  -6.101
REMARK INTRA:                  -1.203
REMARK UNBOUND:                -1.533
REMARK SMILES CCCCCCCCC=CCCCCCCCC(=O)[O-]
REMARK SMILES IDX 10 1 9 2 11 3 12 4 13 5 14 6 15 7 16 8 17 9 18 10 19 11
REMARK SMILES IDX 20 12 8 13 7 14 6 15 5 16 4 17 3 18 2 19 1 20
REMARK H PARENT
REMARK Flexibility Score: inf
ROOT
ATOM      1  C   UNL     1      13.162   0.021 -21.211  1.00  0.00    -0.031 C 
ATOM      2  C   UNL     1      13.632   1.228 -20.841  1.00  0.00    -0.031 C 
ENDROOT
BRANCH   1   3
ATOM      3  C   UNL     1      11.777  -0.243 -21.754  1.00  0.00     0.027 C 
BRANCH   3   4
ATOM      4  C   UNL     1      11.453  -1.743 -21.758  1.00  0.00     0.004 C 
BRANCH   4   5
ATOM      5  C   UNL     1      10.127  -2.049 -21.043  1.00  0.00     0.000 C 
BRANCH   5   6
ATOM      6  C   UNL     1      10.235  -1.920 -19.515  1.00  0.00     0.000 C 
BRANCH   6   7
ATOM      7  C   UNL     1       9.865  -0.517 -19.011  1.00  0.00     0.000 C 
BRANCH   7   8
ATOM      8  C   UNL     1      10.669  -0.154 -17.757  1.00  0.00     0.006 C 
BRANCH   8   9
ATOM      9  C   UNL     1      11.637   0.999 -18.039  1.00  0.00     0.053 C 
BRANCH   9  10
ATOM     10  C   UNL     1      12.593   1.170 -16.901  1.00  0.00     0.041 C 
ATOM     11  O   UNL     1      13.465   2.078 -16.937  1.00  0.00    -0.550 OA
ATOM     12  O   UNL     1      12.553   0.296 -15.822  1.00  0.00    -0.550 OA
ENDBRANCH   9  10
ENDBRANCH   8   9
ENDBRANCH   7   8
ENDBRANCH   6   7
ENDBRANCH   5   6
ENDBRANCH   4   5
ENDBRANCH   3   4
ENDBRANCH   1   3
BRANCH   2  13
ATOM     13  C   UNL     1      12.868   2.522 -20.957  1.00  0.00     0.027 C 
BRANCH  13  14
ATOM     14  C   UNL     1      13.388   3.558 -19.953  1.00  0.00     0.004 C 
BRANCH  14  15
ATOM     15  C   UNL     1      13.316   4.975 -20.542  1.00  0.00     0.000 C 
BRANCH  15  16
ATOM     16  C   UNL     1      14.674   5.692 -20.526  1.00  0.00     0.000 C 
BRANCH  16  17
ATOM     17  C   UNL     1      15.560   5.307 -21.725  1.00  0.00    -0.000 C 
BRANCH  17  18
ATOM     18  C   UNL     1      17.043   5.635 -21.493  1.00  0.00    -0.000 C 
BRANCH  18  19
ATOM     19  C   UNL     1      17.921   5.285 -22.704  1.00  0.00    -0.003 C 
ATOM     20  C   UNL     1      17.067   4.948 -23.923  1.00  0.00     0.004 C 
ENDBRANCH  18  19
ENDBRANCH  17  18
ENDBRANCH  16  17
ENDBRANCH  15  16
ENDBRANCH  14  15
ENDBRANCH  13  14
ENDBRANCH   2  13
TORSDOF 15
ENDMDL
MODEL 7
REMARK VINA RESULT:    -3.053      2.969      7.412
REMARK INTER + INTRA:          -7.262
REMARK INTER:                  -6.139
REMARK INTRA:                  -1.123
REMARK UNBOUND:                -1.533
REMARK SMILES CCCCCCCCC=CCCCCCCCC(=O)[O-]
REMARK SMILES IDX 10 1 9 2 11 3 12 4 13 5 14 6 15 7 16 8 17 9 18 10 19 11
REMARK SMILES IDX 20 12 8 13 7 14 6 15 5 16 4 17 3 18 2 19 1 20
REMARK H PARENT
REMARK Flexibility Score: inf
ROOT
ATOM      1  C   UNL     1      12.907   1.924 -17.253  1.00  0.00    -0.031 C 
ATOM      2  C   UNL     1      12.982   2.763 -18.303  1.00  0.00    -0.031 C 
ENDROOT
BRANCH   1   3
ATOM      3  C   UNL     1      12.551   0.458 -17.336  1.00  0.00     0.027 C 
BRANCH   3   4
ATOM      4  C   UNL     1      11.046   0.234 -17.141  1.00  0.00     0.004 C 
BRANCH   4   5
ATOM      5  C   UNL     1      10.315   0.026 -18.478  1.00  0.00     0.000 C 
BRANCH   5   6
ATOM      6  C   UNL     1       9.932  -1.443 -18.719  1.00  0.00     0.000 C 
BRANCH   6   7
ATOM      7  C   UNL     1      10.490  -1.992 -20.040  1.00  0.00     0.000 C 
BRANCH   7   8
ATOM      8  C   UNL     1      11.841  -1.348 -20.376  1.00  0.00     0.006 C 
BRANCH   8   9
ATOM      9  C   UNL     1      11.804  -0.677 -21.752  1.00  0.00     0.053 C 
BRANCH   9  10
ATOM     10  C   UNL     1      11.670  -1.704 -22.832  1.00  0.00     0.041 C 
ATOM     11  O   UNL     1      12.619  -1.907 -23.634  1.00  0.00    -0.550 OA
ATOM     12  O   UNL     1      10.479  -2.402 -22.983  1.00  0.00    -0.550 OA
ENDBRANCH   9  10
ENDBRANCH   8   9
ENDBRANCH   7   8
ENDBRANCH   6   7
ENDBRANCH   5   6
ENDBRANCH   4   5
ENDBRANCH   3   4
ENDBRANCH   1   3
BRANCH   2  13
ATOM     13  C   UNL     1      12.772   2.364 -19.741  1.00  0.00     0.027 C 
BRANCH  13  14
ATOM     14  C   UNL     1      13.455   3.356 -20.692  1.00  0.00     0.004 C 
BRANCH  14  15
ATOM     15  C   UNL     1      13.239   4.802 -20.223  1.00  0.00     0.000 C 
BRANCH  15  16
ATOM     16  C   UNL     1      14.441   5.709 -20.527  1.00  0.00     0.000 C 
BRANCH  16  17
ATOM     17  C   UNL     1      15.373   5.115 -21.600  1.00  0.00    -0.000 C 
BRANCH  17  18
ATOM     18  C   UNL     1      16.816   5.627 -21.476  1.00  0.00    -0.000 C 
BRANCH  18  19
ATOM     19  C   UNL     1      17.653   5.341 -22.732  1.00  0.00    -0.003 C 
ATOM     20  C   UNL     1      16.789   4.757 -23.846  1.00  0.00     0.004 C 
ENDBRANCH  18  19
ENDBRANCH  17  18
ENDBRANCH  16  17
ENDBRANCH  15  16
ENDBRANCH  14  15
ENDBRANCH  13  14
ENDBRANCH   2  13
TORSDOF 15
ENDMDL
MODEL 8
REMARK VINA RESULT:    -3.052      1.277      3.364
REMARK INTER + INTRA:          -7.262
REMARK INTER:                  -6.004
REMARK INTRA:                  -1.257
REMARK UNBOUND:                -1.533
REMARK SMILES CCCCCCCCC=CCCCCCCCC(=O)[O-]
REMARK SMILES IDX 10 1 9 2 11 3 12 4 13 5 14 6 15 7 16 8 17 9 18 10 19 11
REMARK SMILES IDX 20 12 8 13 7 14 6 15 5 16 4 17 3 18 2 19 1 20
REMARK H PARENT
REMARK Flexibility Score: inf
ROOT
ATOM      1  C   UNL     1      13.195   3.408 -20.421  1.00  0.00    -0.031 C 
ATOM      2  C   UNL     1      12.911   2.283 -19.737  1.00  0.00    -0.031 C 
ENDROOT
BRANCH   1   3
ATOM      3  C   UNL     1      12.940   4.813 -19.928  1.00  0.00     0.027 C 
BRANCH   3   4
ATOM      4  C   UNL     1      13.566   5.857 -20.861  1.00  0.00     0.004 C 
BRANCH   4   5
ATOM      5  C   UNL     1      15.084   5.983 -20.649  1.00  0.00     0.000 C 
BRANCH   5   6
ATOM      6  C   UNL     1      15.856   6.125 -21.971  1.00  0.00     0.000 C 
BRANCH   6   7
ATOM      7  C   UNL     1      16.981   5.089 -22.115  1.00  0.00     0.000 C 
BRANCH   7   8
ATOM      8  C   UNL     1      17.135   4.644 -23.574  1.00  0.00     0.006 C 
BRANCH   8   9
ATOM      9  C   UNL     1      17.139   5.848 -24.520  1.00  0.00     0.053 C 
BRANCH   9  10
ATOM     10  C   UNL     1      18.488   6.020 -25.143  1.00  0.00     0.041 C 
ATOM     11  O   UNL     1      19.512   6.124 -24.417  1.00  0.00    -0.550 OA
ATOM     12  O   UNL     1      18.610   6.113 -26.523  1.00  0.00    -0.550 OA
ENDBRANCH   9  10
ENDBRANCH   8   9
ENDBRANCH   7   8
ENDBRANCH   6   7
ENDBRANCH   5   6
ENDBRANCH   4   5
ENDBRANCH   3   4
ENDBRANCH   1   3
BRANCH   2  13
ATOM     13  C   UNL     1      12.338   2.244 -18.344  1.00  0.00     0.027 C 
BRANCH  13  14
ATOM     14  C   UNL     1      12.672   0.917 -17.650  1.00  0.00     0.004 C 
BRANCH  14  15
ATOM     15  C   UNL     1      11.390   0.168 -17.256  1.00  0.00     0.000 C 
BRANCH  15  16
ATOM     16  C   UNL     1      10.363   0.112 -18.396  1.00  0.00     0.000 C 
BRANCH  16  17
ATOM     17  C   UNL     1      10.276  -1.281 -19.046  1.00  0.00    -0.000 C 
BRANCH  17  18
ATOM     18  C   UNL     1      10.726  -1.276 -20.515  1.00  0.00    -0.000 C 
BRANCH  18  19
ATOM     19  C   UNL     1      12.179  -1.745 -20.687  1.00  0.00    -0.003 C 
ATOM     20  C   UNL     1      12.782  -1.202 -21.980  1.00  0.00     0.004 C 
ENDBRANCH  18  19
ENDBRANCH  17  18
ENDBRANCH  16  17
ENDBRANCH  15  16
ENDBRANCH  14  15
ENDBRANCH  13  14
ENDBRANCH   2  13
TORSDOF 15
ENDMDL
MODEL 9
REMARK VINA RESULT:    -2.288      3.103      6.591
REMARK INTER + INTRA:          -5.826
REMARK INTER:                  -4.621
REMARK INTRA:                  -1.205
REMARK UNBOUND:                -1.533
REMARK SMILES CCCCCCCCC=CCCCCCCCC(=O)[O-]
REMARK SMILES IDX 10 1 9 2 11 3 12 4 13 5 14 6 15 7 16 8 17 9 18 10 19 11
REMARK SMILES IDX 20 12 8 13 7 14 6 15 5 16 4 17 3 18 2 19 1 20
REMARK H PARENT
REMARK Flexibility Score: inf
ROOT
ATOM      1  C   UNL     1      12.141  -1.719 -23.265  1.00  0.00    -0.031 C 
ATOM      2  C   UNL     1      13.196  -1.355 -22.512  1.00  0.00    -0.031 C 
ENDROOT
BRANCH   1   3
ATOM      3  C   UNL     1      10.867  -2.335 -22.737  1.00  0.00     0.027 C 
BRANCH   3   4
ATOM      4  C   UNL     1      10.334  -1.566 -21.521  1.00  0.00     0.004 C 
BRANCH   4   5
ATOM      5  C   UNL     1       9.734  -2.505 -20.462  1.00  0.00     0.000 C 
BRANCH   5   6
ATOM      6  C   UNL     1       9.807  -1.919 -19.043  1.00  0.00     0.000 C 
BRANCH   6   7
ATOM      7  C   UNL     1      10.018  -0.397 -19.041  1.00  0.00     0.000 C 
BRANCH   7   8
ATOM      8  C   UNL     1      10.647   0.068 -17.722  1.00  0.00     0.006 C 
BRANCH   8   9
ATOM      9  C   UNL     1      11.699   1.154 -17.966  1.00  0.00     0.053 C 
BRANCH   9  10
ATOM     10  C   UNL     1      12.683   1.193 -16.841  1.00  0.00     0.041 C 
ATOM     11  O   UNL     1      13.601   2.055 -16.831  1.00  0.00    -0.550 OA
ATOM     12  O   UNL     1      12.618   0.245 -15.827  1.00  0.00    -0.550 OA
ENDBRANCH   9  10
ENDBRANCH   8   9
ENDBRANCH   7   8
ENDBRANCH   6   7
ENDBRANCH   5   6
ENDBRANCH   4   5
ENDBRANCH   3   4
ENDBRANCH   1   3
BRANCH   2  13
ATOM     13  C   UNL     1      13.257  -1.457 -21.009  1.00  0.00     0.027 C 
BRANCH  13  14
ATOM     14  C   UNL     1      13.629  -0.107 -20.382  1.00  0.00     0.004 C 
BRANCH  14  15
ATOM     15  C   UNL     1      12.902   1.045 -21.092  1.00  0.00     0.000 C 
BRANCH  15  16
ATOM     16  C   UNL     1      13.662   2.376 -20.989  1.00  0.00     0.000 C 
BRANCH  16  17
ATOM     17  C   UNL     1      12.849   3.467 -20.268  1.00  0.00    -0.000 C 
BRANCH  17  18
ATOM     18  C   UNL     1      13.652   4.760 -20.058  1.00  0.00    -0.000 C 
BRANCH  18  19
ATOM     19  C   UNL     1      14.812   4.901 -21.055  1.00  0.00    -0.003 C 
ATOM     20  C   UNL     1      15.717   6.073 -20.682  1.00  0.00     0.004 C 
ENDBRANCH  18  19
ENDBRANCH  17  18
ENDBRANCH  16  17
ENDBRANCH  15  16
ENDBRANCH  14  15
ENDBRANCH  13  14
ENDBRANCH   2  13
TORSDOF 15
ENDMDL
