MODEL 1
REMARK VINA RESULT:    -4.150      0.000      0.000
REMARK INTER + INTRA:         -10.446
REMARK INTER:                  -7.789
REMARK INTRA:                  -2.657
REMARK UNBOUND:                -2.657
REMARK SMILES CCCCCCCCC=CCCCCCCCC(=O)[O-]
REMARK SMILES IDX 10 1 9 2 11 3 12 4 13 5 14 6 15 7 16 8 17 9 18 10 19 11
REMARK SMILES IDX 20 12 8 13 7 14 6 15 5 16 4 17 3 18 2 19 1 20
REMARK H PARENT
REMARK Flexibility Score: inf
ROOT
ATOM      1  C   UNL     1      10.391  -1.128  26.865  1.00  0.00    -0.031 C 
ATOM      2  C   UNL     1      11.084  -0.659  25.816  1.00  0.00    -0.031 C 
ENDROOT
BRANCH   1   3
ATOM      3  C   UNL     1      10.602  -0.584  28.251  1.00  0.00     0.027 C 
BRANCH   3   4
ATOM      4  C   UNL     1      12.097  -0.547  28.606  1.00  0.00     0.004 C 
BRANCH   4   5
ATOM      5  C   UNL     1      12.646  -1.932  28.984  1.00  0.00     0.000 C 
BRANCH   5   6
ATOM      6  C   UNL     1      11.846  -2.598  30.117  1.00  0.00     0.000 C 
BRANCH   6   7
ATOM      7  C   UNL     1      12.586  -3.793  30.738  1.00  0.00     0.000 C 
BRANCH   7   8
ATOM      8  C   UNL     1      11.670  -5.012  30.947  1.00  0.00     0.006 C 
BRANCH   8   9
ATOM      9  C   UNL     1      10.797  -4.874  32.200  1.00  0.00     0.053 C 
BRANCH   9  10
ATOM     10  C   UNL     1      11.597  -4.456  33.397  1.00  0.00     0.041 C 
ATOM     11  O   UNL     1      11.351  -3.363  33.973  1.00  0.00    -0.550 OA
ATOM     12  O   UNL     1      12.593  -5.286  33.894  1.00  0.00    -0.550 OA
ENDBRANCH   9  10
ENDBRANCH   8   9
ENDBRANCH   7   8
ENDBRANCH   6   7
ENDBRANCH   5   6
ENDBRANCH   4   5
ENDBRANCH   3   4
ENDBRANCH   1   3
BRANCH   2  13
ATOM     13  C   UNL     1      10.907  -1.224  24.432  1.00  0.00     0.027 C 
BRANCH  13  14
ATOM     14  C   UNL     1      10.203  -2.588  24.468  1.00  0.00     0.004 C 
BRANCH  14  15
ATOM     15  C   UNL     1      11.045  -3.754  23.913  1.00  0.00     0.000 C 
BRANCH  15  16
ATOM     16  C   UNL     1      11.310  -4.911  24.900  1.00  0.00     0.000 C 
BRANCH  16  17
ATOM     17  C   UNL     1      11.773  -4.479  26.305  1.00  0.00    -0.000 C 
BRANCH  17  18
ATOM     18  C   UNL     1      10.868  -4.994  27.448  1.00  0.00    -0.000 C 
BRANCH  18  19
ATOM     19  C   UNL     1       9.411  -4.511  27.339  1.00  0.00    -0.003 C 
ATOM     20  C   UNL     1       8.890  -3.898  28.638  1.00  0.00     0.004 C 
ENDBRANCH  18  19
ENDBRANCH  17  18
ENDBRANCH  16  17
ENDBRANCH  15  16
ENDBRANCH  14  15
ENDBRANCH  13  14
ENDBRANCH   2  13
TORSDOF 15
ENDMDL
MODEL 2
REMARK VINA RESULT:    -4.121      3.185      5.706
REMARK INTER + INTRA:         -10.391
REMARK INTER:                  -7.635
REMARK INTRA:                  -2.756
REMARK UNBOUND:                -2.657
REMARK SMILES CCCCCCCCC=CCCCCCCCC(=O)[O-]
REMARK SMILES IDX 10 1 9 2 11 3 12 4 13 5 14 6 15 7 16 8 17 9 18 10 19 11
REMARK SMILES IDX 20 12 8 13 7 14 6 15 5 16 4 17 3 18 2 19 1 20
REMARK H PARENT
REMARK Flexibility Score: inf
ROOT
ATOM      1  C   UNL     1       8.507  -2.621  28.875  1.00  0.00    -0.031 C 
ATOM      2  C   UNL     1       9.401  -3.030  27.961  1.00  0.00    -0.031 C 
ENDROOT
BRANCH   1   3
ATOM      3  C   UNL     1       8.240  -1.160  29.112  1.00  0.00     0.027 C 
BRANCH   3   4
ATOM      4  C   UNL     1       8.964  -0.293  28.070  1.00  0.00     0.004 C 
BRANCH   4   5
ATOM      5  C   UNL     1       8.090   0.861  27.555  1.00  0.00     0.000 C 
BRANCH   5   6
ATOM      6  C   UNL     1       8.827   2.212  27.563  1.00  0.00     0.000 C 
BRANCH   6   7
ATOM      7  C   UNL     1       8.948   2.810  28.973  1.00  0.00     0.000 C 
BRANCH   7   8
ATOM      8  C   UNL     1      10.388   2.762  29.514  1.00  0.00     0.006 C 
BRANCH   8   9
ATOM      9  C   UNL     1      10.451   2.226  30.950  1.00  0.00     0.053 C 
BRANCH   9  10
ATOM     10  C   UNL     1      11.769   2.520  31.599  1.00  0.00     0.041 C 
ATOM     11  O   UNL     1      11.812   3.155  32.686  1.00  0.00    -0.550 OA
ATOM     12  O   UNL     1      12.948   2.066  31.021  1.00  0.00    -0.550 OA
ENDBRANCH   9  10
ENDBRANCH   8   9
ENDBRANCH   7   8
ENDBRANCH   6   7
ENDBRANCH   5   6
ENDBRANCH   4   5
ENDBRANCH   3   4
ENDBRANCH   1   3
BRANCH   2  13
ATOM     13  C   UNL     1       9.702  -4.489  27.743  1.00  0.00     0.027 C 
BRANCH  13  14
ATOM     14  C   UNL     1      11.143  -4.831  28.149  1.00  0.00     0.004 C 
BRANCH  14  15
ATOM     15  C   UNL     1      11.376  -4.902  29.671  1.00  0.00     0.000 C 
BRANCH  15  16
ATOM     16  C   UNL     1      12.310  -3.819  30.252  1.00  0.00     0.000 C 
BRANCH  16  17
ATOM     17  C   UNL     1      11.595  -2.641  30.944  1.00  0.00    -0.000 C 
BRANCH  17  18
ATOM     18  C   UNL     1      11.866  -1.270  30.284  1.00  0.00    -0.000 C 
BRANCH  18  19
ATOM     19  C   UNL     1      12.625  -1.372  28.950  1.00  0.00    -0.003 C 
ATOM     20  C   UNL     1      12.603  -0.069  28.152  1.00  0.00     0.004 C 
ENDBRANCH  18  19
ENDBRANCH  17  18
ENDBRANCH  16  17
ENDBRANCH  15  16
ENDBRANCH  14  15
ENDBRANCH  13  14
ENDBRANCH   2  13
TORSDOF 15
ENDMDL
MODEL 3
REMARK VINA RESULT:    -4.039      2.717      5.118
REMARK INTER + INTRA:         -10.237
REMARK INTER:                  -7.892
REMARK INTRA:                  -2.345
REMARK UNBOUND:                -2.657
REMARK SMILES CCCCCCCCC=CCCCCCCCC(=O)[O-]
REMARK SMILES IDX 10 1 9 2 11 3 12 4 13 5 14 6 15 7 16 8 17 9 18 10 19 11
REMARK SMILES IDX 20 12 8 13 7 14 6 15 5 16 4 17 3 18 2 19 1 20
REMARK H PARENT
REMARK Flexibility Score: inf
ROOT
ATOM      1  C   UNL     1      11.847  -4.819  30.140  1.00  0.00    -0.031 C 
ATOM      2  C   UNL     1      11.121  -5.146  29.060  1.00  0.00    -0.031 C 
ENDROOT
BRANCH   1   3
ATOM      3  C   UNL     1      11.788  -5.635  31.402  1.00  0.00     0.027 C 
BRANCH   3   4
ATOM      4  C   UNL     1      12.980  -5.317  32.318  1.00  0.00     0.004 C 
BRANCH   4   5
ATOM      5  C   UNL     1      12.544  -4.926  33.739  1.00  0.00     0.000 C 
BRANCH   5   6
ATOM      6  C   UNL     1      11.133  -4.313  33.778  1.00  0.00     0.000 C 
BRANCH   6   7
ATOM      7  C   UNL     1      11.140  -2.797  33.527  1.00  0.00     0.000 C 
BRANCH   7   8
ATOM      8  C   UNL     1      10.596  -1.997  34.723  1.00  0.00     0.006 C 
BRANCH   8   9
ATOM      9  C   UNL     1      10.386  -0.516  34.383  1.00  0.00     0.053 C 
BRANCH   9  10
ATOM     10  C   UNL     1       8.942  -0.122  34.466  1.00  0.00     0.041 C 
ATOM     11  O   UNL     1       8.574   0.766  35.280  1.00  0.00    -0.550 OA
ATOM     12  O   UNL     1       8.009  -0.714  33.625  1.00  0.00    -0.550 OA
ENDBRANCH   9  10
ENDBRANCH   8   9
ENDBRANCH   7   8
ENDBRANCH   6   7
ENDBRANCH   5   6
ENDBRANCH   4   5
ENDBRANCH   3   4
ENDBRANCH   1   3
BRANCH   2  13
ATOM     13  C   UNL     1      11.146  -4.315  27.805  1.00  0.00     0.027 C 
BRANCH  13  14
ATOM     14  C   UNL     1       9.726  -3.970  27.332  1.00  0.00     0.004 C 
BRANCH  14  15
ATOM     15  C   UNL     1       8.711  -3.748  28.471  1.00  0.00     0.000 C 
BRANCH  15  16
ATOM     16  C   UNL     1       8.642  -2.311  29.030  1.00  0.00     0.000 C 
BRANCH  16  17
ATOM     17  C   UNL     1       9.264  -2.121  30.428  1.00  0.00    -0.000 C 
BRANCH  17  18
ATOM     18  C   UNL     1       9.939  -0.745  30.630  1.00  0.00    -0.000 C 
BRANCH  18  19
ATOM     19  C   UNL     1      10.960  -0.396  29.534  1.00  0.00    -0.003 C 
ATOM     20  C   UNL     1      12.218  -1.260  29.597  1.00  0.00     0.004 C 
ENDBRANCH  18  19
ENDBRANCH  17  18
ENDBRANCH  16  17
ENDBRANCH  15  16
ENDBRANCH  14  15
ENDBRANCH  13  14
ENDBRANCH   2  13
TORSDOF 15
ENDMDL
MODEL 4
REMARK VINA RESULT:    -4.031      2.553      4.979
REMARK INTER + INTRA:         -10.223
REMARK INTER:                  -7.216
REMARK INTRA:                  -3.007
REMARK UNBOUND:                -2.657
REMARK SMILES CCCCCCCCC=CCCCCCCCC(=O)[O-]
REMARK SMILES IDX 10 1 9 2 11 3 12 4 13 5 14 6 15 7 16 8 17 9 18 10 19 11
REMARK SMILES IDX 20 12 8 13 7 14 6 15 5 16 4 17 3 18 2 19 1 20
REMARK H PARENT
REMARK Flexibility Score: inf
ROOT
ATOM      1  C   UNL     1      10.366  -4.513  28.986  1.00  0.00    -0.031 C 
ATOM      2  C   UNL     1       9.370  -4.146  28.166  1.00  0.00    -0.031 C 
ENDROOT
BRANCH   1   3
ATOM      3  C   UNL     1      10.399  -4.078  30.424  1.00  0.00     0.027 C 
BRANCH   3   4
ATOM      4  C   UNL     1      11.246  -2.808  30.596  1.00  0.00     0.004 C 
BRANCH   4   5
ATOM      5  C   UNL     1      12.461  -2.779  29.655  1.00  0.00     0.000 C 
BRANCH   5   6
ATOM      6  C   UNL     1      12.612  -1.433  28.923  1.00  0.00     0.000 C 
BRANCH   6   7
ATOM      7  C   UNL     1      11.962  -1.443  27.530  1.00  0.00     0.000 C 
BRANCH   7   8
ATOM      8  C   UNL     1      11.050  -0.227  27.295  1.00  0.00     0.006 C 
BRANCH   8   9
ATOM      9  C   UNL     1       9.564  -0.605  27.312  1.00  0.00     0.053 C 
BRANCH   9  10
ATOM     10  C   UNL     1       8.967  -0.468  28.680  1.00  0.00     0.041 C 
ATOM     11  O   UNL     1       8.003  -1.202  29.026  1.00  0.00    -0.550 OA
ATOM     12  O   UNL     1       9.494   0.446  29.582  1.00  0.00    -0.550 OA
ENDBRANCH   9  10
ENDBRANCH   8   9
ENDBRANCH   7   8
ENDBRANCH   6   7
ENDBRANCH   5   6
ENDBRANCH   4   5
ENDBRANCH   3   4
ENDBRANCH   1   3
BRANCH   2  13
ATOM     13  C   UNL     1       9.348  -4.546  26.714  1.00  0.00     0.027 C 
BRANCH  13  14
ATOM     14  C   UNL     1      10.769  -4.655  26.141  1.00  0.00     0.004 C 
BRANCH  14  15
ATOM     15  C   UNL     1      10.908  -4.162  24.686  1.00  0.00     0.000 C 
BRANCH  15  16
ATOM     16  C   UNL     1      10.104  -2.893  24.334  1.00  0.00     0.000 C 
BRANCH  16  17
ATOM     17  C   UNL     1      10.952  -1.677  23.911  1.00  0.00    -0.000 C 
BRANCH  17  18
ATOM     18  C   UNL     1      10.115  -0.464  23.443  1.00  0.00    -0.000 C 
BRANCH  18  19
ATOM     19  C   UNL     1      10.778   0.891  23.746  1.00  0.00    -0.003 C 
ATOM     20  C   UNL     1      12.302   0.802  23.824  1.00  0.00     0.004 C 
ENDBRANCH  18  19
ENDBRANCH  17  18
ENDBRANCH  16  17
ENDBRANCH  15  16
ENDBRANCH  14  15
ENDBRANCH  13  14
ENDBRANCH   2  13
TORSDOF 15
ENDMDL
MODEL 5
REMARK VINA RESULT:    -4.017      3.358      6.806
REMARK INTER + INTRA:         -10.197
REMARK INTER:                  -7.764
REMARK INTRA:                  -2.433
REMARK UNBOUND:                -2.657
REMARK SMILES CCCCCCCCC=CCCCCCCCC(=O)[O-]
REMARK SMILES IDX 10 1 9 2 11 3 12 4 13 5 14 6 15 7 16 8 17 9 18 10 19 11
REMARK SMILES IDX 20 12 8 13 7 14 6 15 5 16 4 17 3 18 2 19 1 20
REMARK H PARENT
REMARK Flexibility Score: inf
ROOT
ATOM      1  C   UNL     1      11.771  -4.390  29.574  1.00  0.00    -0.031 C 
ATOM      2  C   UNL     1      11.375  -5.561  30.097  1.00  0.00    -0.031 C 
ENDROOT
BRANCH   1   3
ATOM      3  C   UNL     1      11.342  -3.961  28.199  1.00  0.00     0.027 C 
BRANCH   3   4
ATOM      4  C   UNL     1       9.955  -4.525  27.854  1.00  0.00     0.004 C 
BRANCH   4   5
ATOM      5  C   UNL     1       8.813  -3.617  28.337  1.00  0.00     0.000 C 
BRANCH   5   6
ATOM      6  C   UNL     1       9.236  -2.142  28.450  1.00  0.00     0.000 C 
BRANCH   6   7
ATOM      7  C   UNL     1       8.130  -1.254  29.043  1.00  0.00     0.000 C 
BRANCH   7   8
ATOM      8  C   UNL     1       8.559   0.218  29.171  1.00  0.00     0.006 C 
BRANCH   8   9
ATOM      9  C   UNL     1       9.785   0.543  28.309  1.00  0.00     0.053 C 
BRANCH   9  10
ATOM     10  C   UNL     1      10.608   1.647  28.899  1.00  0.00     0.041 C 
ATOM     11  O   UNL     1      11.843   1.487  29.085  1.00  0.00    -0.550 OA
ATOM     12  O   UNL     1      10.017   2.864  29.216  1.00  0.00    -0.550 OA
ENDBRANCH   9  10
ENDBRANCH   8   9
ENDBRANCH   7   8
ENDBRANCH   6   7
ENDBRANCH   5   6
ENDBRANCH   4   5
ENDBRANCH   3   4
ENDBRANCH   1   3
BRANCH   2  13
ATOM     13  C   UNL     1      11.830  -6.016  31.459  1.00  0.00     0.027 C 
BRANCH  13  14
ATOM     14  C   UNL     1      12.816  -5.017  32.084  1.00  0.00     0.004 C 
BRANCH  14  15
ATOM     15  C   UNL     1      12.567  -4.727  33.577  1.00  0.00     0.000 C 
BRANCH  15  16
ATOM     16  C   UNL     1      11.177  -4.149  33.920  1.00  0.00     0.000 C 
BRANCH  16  17
ATOM     17  C   UNL     1      11.166  -2.658  34.311  1.00  0.00    -0.000 C 
BRANCH  17  18
ATOM     18  C   UNL     1      10.150  -1.810  33.512  1.00  0.00    -0.000 C 
BRANCH  18  19
ATOM     19  C   UNL     1      10.257  -1.999  31.990  1.00  0.00    -0.003 C 
ATOM     20  C   UNL     1      11.466  -1.284  31.386  1.00  0.00     0.004 C 
ENDBRANCH  18  19
ENDBRANCH  17  18
ENDBRANCH  16  17
ENDBRANCH  15  16
ENDBRANCH  14  15
ENDBRANCH  13  14
ENDBRANCH   2  13
TORSDOF 15
ENDMDL
MODEL 6
REMARK VINA RESULT:    -3.992      3.411      5.135
REMARK INTER + INTRA:         -10.149
REMARK INTER:                  -7.142
REMARK INTRA:                  -3.007
REMARK UNBOUND:                -2.657
REMARK SMILES CCCCCCCCC=CCCCCCCCC(=O)[O-]
REMARK SMILES IDX 10 1 9 2 11 3 12 4 13 5 14 6 15 7 16 8 17 9 18 10 19 11
REMARK SMILES IDX 20 12 8 13 7 14 6 15 5 16 4 17 3 18 2 19 1 20
REMARK H PARENT
REMARK Flexibility Score: inf
ROOT
ATOM      1  C   UNL     1      10.101  -1.449  27.170  1.00  0.00    -0.031 C 
ATOM      2  C   UNL     1      10.911  -1.643  26.117  1.00  0.00    -0.031 C 
ENDROOT
BRANCH   1   3
ATOM      3  C   UNL     1      10.637  -1.403  28.574  1.00  0.00     0.027 C 
BRANCH   3   4
ATOM      4  C   UNL     1      12.150  -1.674  28.593  1.00  0.00     0.004 C 
BRANCH   4   5
ATOM      5  C   UNL     1      12.540  -2.768  29.600  1.00  0.00     0.000 C 
BRANCH   5   6
ATOM      6  C   UNL     1      11.361  -3.690  29.959  1.00  0.00     0.000 C 
BRANCH   6   7
ATOM      7  C   UNL     1      11.397  -5.020  29.191  1.00  0.00     0.000 C 
BRANCH   7   8
ATOM      8  C   UNL     1      10.420  -5.044  28.002  1.00  0.00     0.006 C 
BRANCH   8   9
ATOM      9  C   UNL     1      11.114  -5.424  26.688  1.00  0.00     0.053 C 
BRANCH   9  10
ATOM     10  C   UNL     1      10.185  -5.328  25.516  1.00  0.00     0.041 C 
ATOM     11  O   UNL     1       8.942  -5.234  25.700  1.00  0.00    -0.550 OA
ATOM     12  O   UNL     1      10.692  -5.311  24.224  1.00  0.00    -0.550 OA
ENDBRANCH   9  10
ENDBRANCH   8   9
ENDBRANCH   7   8
ENDBRANCH   6   7
ENDBRANCH   5   6
ENDBRANCH   4   5
ENDBRANCH   3   4
ENDBRANCH   1   3
BRANCH   2  13
ATOM     13  C   UNL     1      10.378  -1.727  24.712  1.00  0.00     0.027 C 
BRANCH  13  14
ATOM     14  C   UNL     1      10.434  -0.363  24.007  1.00  0.00     0.004 C 
BRANCH  14  15
ATOM     15  C   UNL     1      11.860   0.169  23.761  1.00  0.00     0.000 C 
BRANCH  15  16
ATOM     16  C   UNL     1      12.189   1.523  24.424  1.00  0.00     0.000 C 
BRANCH  16  17
ATOM     17  C   UNL     1      13.024   1.434  25.717  1.00  0.00    -0.000 C 
BRANCH  17  18
ATOM     18  C   UNL     1      12.220   1.734  27.003  1.00  0.00    -0.000 C 
BRANCH  18  19
ATOM     19  C   UNL     1      10.792   2.237  26.729  1.00  0.00    -0.003 C 
ATOM     20  C   UNL     1       9.908   2.223  27.975  1.00  0.00     0.004 C 
ENDBRANCH  18  19
ENDBRANCH  17  18
ENDBRANCH  16  17
ENDBRANCH  15  16
ENDBRANCH  14  15
ENDBRANCH  13  14
ENDBRANCH   2  13
TORSDOF 15
ENDMDL
MODEL 7
REMARK VINA RESULT:    -3.973      4.073      5.829
REMARK INTER + INTRA:         -10.113
REMARK INTER:                  -7.080
REMARK INTRA:                  -3.034
REMARK UNBOUND:                -2.657
REMARK SMILES CCCCCCCCC=CCCCCCCCC(=O)[O-]
REMARK SMILES IDX 10 1 9 2 11 3 12 4 13 5 14 6 15 7 16 8 17 9 18 10 19 11
REMARK SMILES IDX 20 12 8 13 7 14 6 15 5 16 4 17 3 18 2 19 1 20
REMARK H PARENT
REMARK Flexibility Score: inf
ROOT
ATOM      1  C   UNL     1      13.432   1.699  24.795  1.00  0.00    -0.031 C 
ATOM      2  C   UNL     1      12.873   0.751  24.027  1.00  0.00    -0.031 C 
ENDROOT
BRANCH   1   3
ATOM      3  C   UNL     1      14.745   1.470  25.491  1.00  0.00     0.027 C 
BRANCH   3   4
ATOM      4  C   UNL     1      14.984   2.531  26.577  1.00  0.00     0.004 C 
BRANCH   4   5
ATOM      5  C   UNL     1      15.456   1.919  27.905  1.00  0.00     0.000 C 
BRANCH   5   6
ATOM      6  C   UNL     1      14.749   2.535  29.126  1.00  0.00     0.000 C 
BRANCH   6   7
ATOM      7  C   UNL     1      13.661   3.545  28.731  1.00  0.00     0.000 C 
BRANCH   7   8
ATOM      8  C   UNL     1      13.064   4.277  29.945  1.00  0.00     0.006 C 
BRANCH   8   9
ATOM      9  C   UNL     1      11.775   3.615  30.447  1.00  0.00     0.053 C 
BRANCH   9  10
ATOM     10  C   UNL     1      12.036   2.671  31.581  1.00  0.00     0.041 C 
ATOM     11  O   UNL     1      12.152   1.436  31.363  1.00  0.00    -0.550 OA
ATOM     12  O   UNL     1      12.180   3.157  32.874  1.00  0.00    -0.550 OA
ENDBRANCH   9  10
ENDBRANCH   8   9
ENDBRANCH   7   8
ENDBRANCH   6   7
ENDBRANCH   5   6
ENDBRANCH   4   5
ENDBRANCH   3   4
ENDBRANCH   1   3
BRANCH   2  13
ATOM     13  C   UNL     1      11.541   0.958  23.356  1.00  0.00     0.027 C 
BRANCH  13  14
ATOM     14  C   UNL     1      10.406   0.284  24.142  1.00  0.00     0.004 C 
BRANCH  14  15
ATOM     15  C   UNL     1      10.773  -1.088  24.741  1.00  0.00     0.000 C 
BRANCH  15  16
ATOM     16  C   UNL     1      10.597  -1.215  26.269  1.00  0.00     0.000 C 
BRANCH  16  17
ATOM     17  C   UNL     1      11.889  -1.048  27.093  1.00  0.00    -0.000 C 
BRANCH  17  18
ATOM     18  C   UNL     1      11.980   0.300  27.846  1.00  0.00    -0.000 C 
BRANCH  18  19
ATOM     19  C   UNL     1      10.635   1.039  27.943  1.00  0.00    -0.003 C 
ATOM     20  C   UNL     1      10.620   2.351  27.160  1.00  0.00     0.004 C 
ENDBRANCH  18  19
ENDBRANCH  17  18
ENDBRANCH  16  17
ENDBRANCH  15  16
ENDBRANCH  14  15
ENDBRANCH  13  14
ENDBRANCH   2  13
TORSDOF 15
ENDMDL
MODEL 8
REMARK VINA RESULT:    -3.954      4.029      6.225
REMARK INTER + INTRA:         -10.078
REMARK INTER:                  -7.728
REMARK INTRA:                  -2.350
REMARK UNBOUND:                -2.657
REMARK SMILES CCCCCCCCC=CCCCCCCCC(=O)[O-]
REMARK SMILES IDX 10 1 9 2 11 3 12 4 13 5 14 6 15 7 16 8 17 9 18 10 19 11
REMARK SMILES IDX 20 12 8 13 7 14 6 15 5 16 4 17 3 18 2 19 1 20
REMARK H PARENT
REMARK Flexibility Score: inf
ROOT
ATOM      1  C   UNL     1      11.836  -1.061  30.339  1.00  0.00    -0.031 C 
ATOM      2  C   UNL     1      11.311  -1.795  31.332  1.00  0.00    -0.031 C 
ENDROOT
BRANCH   1   3
ATOM      3  C   UNL     1      11.407   0.360  30.101  1.00  0.00     0.027 C 
BRANCH   3   4
ATOM      4  C   UNL     1      10.827   0.981  31.382  1.00  0.00     0.004 C 
BRANCH   4   5
ATOM      5  C   UNL     1      11.445   2.351  31.703  1.00  0.00     0.000 C 
BRANCH   5   6
ATOM      6  C   UNL     1      11.298   3.353  30.545  1.00  0.00     0.000 C 
BRANCH   6   7
ATOM      7  C   UNL     1      12.602   4.112  30.252  1.00  0.00     0.000 C 
BRANCH   7   8
ATOM      8  C   UNL     1      13.427   3.458  29.130  1.00  0.00     0.006 C 
BRANCH   8   9
ATOM      9  C   UNL     1      14.583   2.611  29.677  1.00  0.00     0.053 C 
BRANCH   9  10
ATOM     10  C   UNL     1      15.507   2.155  28.589  1.00  0.00     0.041 C 
ATOM     11  O   UNL     1      15.064   1.474  27.626  1.00  0.00    -0.550 OA
ATOM     12  O   UNL     1      16.850   2.508  28.621  1.00  0.00    -0.550 OA
ENDBRANCH   9  10
ENDBRANCH   8   9
ENDBRANCH   7   8
ENDBRANCH   6   7
ENDBRANCH   5   6
ENDBRANCH   4   5
ENDBRANCH   3   4
ENDBRANCH   1   3
BRANCH   2  13
ATOM     13  C   UNL     1      11.709  -3.230  31.555  1.00  0.00     0.027 C 
BRANCH  13  14
ATOM     14  C   UNL     1      12.280  -3.859  30.275  1.00  0.00     0.004 C 
BRANCH  14  15
ATOM     15  C   UNL     1      11.527  -5.115  29.792  1.00  0.00     0.000 C 
BRANCH  15  16
ATOM     16  C   UNL     1      10.696  -4.938  28.504  1.00  0.00     0.000 C 
BRANCH  16  17
ATOM     17  C   UNL     1      11.077  -3.718  27.641  1.00  0.00    -0.000 C 
BRANCH  17  18
ATOM     18  C   UNL     1       9.964  -2.649  27.544  1.00  0.00    -0.000 C 
BRANCH  18  19
ATOM     19  C   UNL     1       8.866  -2.809  28.609  1.00  0.00    -0.003 C 
ATOM     20  C   UNL     1       8.262  -1.476  29.046  1.00  0.00     0.004 C 
ENDBRANCH  18  19
ENDBRANCH  17  18
ENDBRANCH  16  17
ENDBRANCH  15  16
ENDBRANCH  14  15
ENDBRANCH  13  14
ENDBRANCH   2  13
TORSDOF 15
ENDMDL
MODEL 9
REMARK VINA RESULT:    -3.943      3.227      5.521
REMARK INTER + INTRA:         -10.057
REMARK INTER:                  -6.858
REMARK INTRA:                  -3.199
REMARK UNBOUND:                -2.657
REMARK SMILES CCCCCCCCC=CCCCCCCCC(=O)[O-]
REMARK SMILES IDX 10 1 9 2 11 3 12 4 13 5 14 6 15 7 16 8 17 9 18 10 19 11
REMARK SMILES IDX 20 12 8 13 7 14 6 15 5 16 4 17 3 18 2 19 1 20
REMARK H PARENT
REMARK Flexibility Score: inf
ROOT
ATOM      1  C   UNL     1      11.823  -0.892  27.434  1.00  0.00    -0.031 C 
ATOM      2  C   UNL     1      11.654  -2.152  27.004  1.00  0.00    -0.031 C 
ENDROOT
BRANCH   1   3
ATOM      3  C   UNL     1      11.275   0.279  26.666  1.00  0.00     0.027 C 
BRANCH   3   4
ATOM      4  C   UNL     1       9.799   0.055  26.301  1.00  0.00     0.004 C 
BRANCH   4   5
ATOM      5  C   UNL     1       8.854   0.997  27.064  1.00  0.00     0.000 C 
BRANCH   5   6
ATOM      6  C   UNL     1       9.555   2.281  27.541  1.00  0.00     0.000 C 
BRANCH   6   7
ATOM      7  C   UNL     1       8.896   2.885  28.790  1.00  0.00     0.000 C 
BRANCH   7   8
ATOM      8  C   UNL     1       9.433   2.275  30.096  1.00  0.00     0.006 C 
BRANCH   8   9
ATOM      9  C   UNL     1      10.927   1.939  30.008  1.00  0.00     0.053 C 
BRANCH   9  10
ATOM     10  C   UNL     1      11.764   2.896  30.800  1.00  0.00     0.041 C 
ATOM     11  O   UNL     1      12.752   2.478  31.460  1.00  0.00    -0.550 OA
ATOM     12  O   UNL     1      11.472   4.254  30.786  1.00  0.00    -0.550 OA
ENDBRANCH   9  10
ENDBRANCH   8   9
ENDBRANCH   7   8
ENDBRANCH   6   7
ENDBRANCH   5   6
ENDBRANCH   4   5
ENDBRANCH   3   4
ENDBRANCH   1   3
BRANCH   2  13
ATOM     13  C   UNL     1      12.231  -3.327  27.748  1.00  0.00     0.027 C 
BRANCH  13  14
ATOM     14  C   UNL     1      11.199  -4.453  27.906  1.00  0.00     0.004 C 
BRANCH  14  15
ATOM     15  C   UNL     1       9.754  -4.047  27.550  1.00  0.00     0.000 C 
BRANCH  15  16
ATOM     16  C   UNL     1       8.837  -3.733  28.751  1.00  0.00     0.000 C 
BRANCH  16  17
ATOM     17  C   UNL     1       8.408  -2.258  28.879  1.00  0.00    -0.000 C 
BRANCH  17  18
ATOM     18  C   UNL     1       9.245  -1.449  29.897  1.00  0.00    -0.000 C 
BRANCH  18  19
ATOM     19  C   UNL     1       9.985  -2.329  30.918  1.00  0.00    -0.003 C 
ATOM     20  C   UNL     1      11.456  -1.949  31.074  1.00  0.00     0.004 C 
ENDBRANCH  18  19
ENDBRANCH  17  18
ENDBRANCH  16  17
ENDBRANCH  15  16
ENDBRANCH  14  15
ENDBRANCH  13  14
ENDBRANCH   2  13
TORSDOF 15
ENDMDL
