MODEL 1
REMARK VINA RESULT:    -8.506      0.000      0.000
REMARK INTER + INTRA:          -9.926
REMARK INTER:                 -10.247
REMARK INTRA:                   0.321
REMARK UNBOUND:                 0.321
REMARK SMILES O=c1c(O)c(-c2ccc(O)c(O)c2)oc2cc(O)cc(O)c12
REMARK SMILES IDX 5 1 3 2 2 3 1 4 22 5 20 6 19 7 17 8 16 9 15 10 14 11 6 12
REMARK SMILES IDX 7 13 8 14 9 15 13 16 11 17 10 18 12 20 4 22 21 24 18 26
REMARK H PARENT 10 19 12 21 4 23 21 25 18 27
REMARK Flexibility Score: inf
ROOT
ATOM      1  C   UNL     1      17.736  22.637  40.226  1.00  0.00     0.180 A 
ATOM      2  C   UNL     1      17.426  23.696  39.351  1.00  0.00     0.208 A 
ATOM      3  C   UNL     1      16.277  24.464  39.598  1.00  0.00     0.238 A 
ATOM      4  O   UNL     1      15.983  25.409  38.815  1.00  0.00    -0.285 OA
ATOM      5  C   UNL     1      15.474  24.176  40.719  1.00  0.00     0.111 A 
ATOM      6  C   UNL     1      14.302  24.903  41.041  1.00  0.00     0.134 A 
ATOM      7  C   UNL     1      13.560  24.560  42.180  1.00  0.00     0.093 A 
ATOM      8  C   UNL     1      13.965  23.506  43.003  1.00  0.00     0.123 A 
ATOM      9  C   UNL     1      15.120  22.783  42.691  1.00  0.00     0.094 A 
ATOM     10  C   UNL     1      15.872  23.109  41.558  1.00  0.00     0.146 A 
ATOM     11  O   UNL     1      16.962  22.403  41.282  1.00  0.00    -0.452 OA
ENDROOT
BRANCH   1  12
ATOM     12  C   UNL     1      18.919  21.770  40.021  1.00  0.00     0.025 A 
ATOM     13  C   UNL     1      18.885  20.439  40.470  1.00  0.00     0.016 A 
ATOM     14  C   UNL     1      19.982  19.596  40.269  1.00  0.00     0.051 A 
ATOM     15  C   UNL     1      21.121  20.066  39.604  1.00  0.00     0.157 A 
ATOM     16  C   UNL     1      20.057  22.230  39.336  1.00  0.00     0.062 A 
ATOM     17  C   UNL     1      21.156  21.389  39.131  1.00  0.00     0.158 A 
BRANCH  15  18
ATOM     18  O   UNL     1      22.215  19.224  39.408  1.00  0.00    -0.504 OA
ATOM     19  H   UNL     1      23.088  19.569  39.025  1.00  0.00     0.293 HD
ENDBRANCH  15  18
BRANCH  17  20
ATOM     20  O   UNL     1      22.270  21.882  38.452  1.00  0.00    -0.504 OA
ATOM     21  H   UNL     1      22.345  22.853  38.174  1.00  0.00     0.293 HD
ENDBRANCH  17  20
ENDBRANCH   1  12
BRANCH   2  22
ATOM     22  O   UNL     1      18.266  23.993  38.276  1.00  0.00    -0.502 OA
ATOM     23  H   UNL     1      19.261  23.800  38.295  1.00  0.00     0.293 HD
ENDBRANCH   2  22
BRANCH   6  24
ATOM     24  O   UNL     1      13.872  25.962  40.240  1.00  0.00    -0.507 OA
ATOM     25  H   UNL     1      14.196  26.075  39.287  1.00  0.00     0.293 HD
ENDBRANCH   6  24
BRANCH   8  26
ATOM     26  O   UNL     1      13.210  23.187  44.130  1.00  0.00    -0.508 OA
ATOM     27  H   UNL     1      13.412  22.364  44.687  1.00  0.00     0.293 HD
ENDBRANCH   8  26
TORSDOF 6
ENDMDL
MODEL 2
REMARK VINA RESULT:    -8.123      1.791      2.995
REMARK INTER + INTRA:          -9.464
REMARK INTER:                  -9.428
REMARK INTRA:                  -0.036
REMARK UNBOUND:                 0.321
REMARK SMILES O=c1c(O)c(-c2ccc(O)c(O)c2)oc2cc(O)cc(O)c12
REMARK SMILES IDX 5 1 3 2 2 3 1 4 22 5 20 6 19 7 17 8 16 9 15 10 14 11 6 12
REMARK SMILES IDX 7 13 8 14 9 15 13 16 11 17 10 18 12 20 4 22 21 24 18 26
REMARK H PARENT 10 19 12 21 4 23 21 25 18 27
REMARK Flexibility Score: inf
ROOT
ATOM      1  C   UNL     1      15.729  23.345  41.006  1.00  0.00     0.180 A 
ATOM      2  C   UNL     1      15.072  24.516  40.582  1.00  0.00     0.208 A 
ATOM      3  C   UNL     1      14.055  25.052  41.388  1.00  0.00     0.238 A 
ATOM      4  O   UNL     1      13.452  26.095  41.013  1.00  0.00    -0.285 OA
ATOM      5  C   UNL     1      13.726  24.423  42.606  1.00  0.00     0.111 A 
ATOM      6  C   UNL     1      12.717  24.901  43.477  1.00  0.00     0.134 A 
ATOM      7  C   UNL     1      12.456  24.223  44.676  1.00  0.00     0.093 A 
ATOM      8  C   UNL     1      13.181  23.081  45.023  1.00  0.00     0.123 A 
ATOM      9  C   UNL     1      14.179  22.604  44.167  1.00  0.00     0.094 A 
ATOM     10  C   UNL     1      14.453  23.265  42.966  1.00  0.00     0.146 A 
ATOM     11  O   UNL     1      15.402  22.787  42.168  1.00  0.00    -0.452 OA
ENDROOT
BRANCH   1  12
ATOM     12  C   UNL     1      16.798  22.709  40.203  1.00  0.00     0.025 A 
ATOM     13  C   UNL     1      17.928  23.460  39.839  1.00  0.00     0.016 A 
ATOM     14  C   UNL     1      18.959  22.875  39.100  1.00  0.00     0.051 A 
ATOM     15  C   UNL     1      18.883  21.527  38.726  1.00  0.00     0.157 A 
ATOM     16  C   UNL     1      16.736  21.351  39.843  1.00  0.00     0.062 A 
ATOM     17  C   UNL     1      17.768  20.761  39.105  1.00  0.00     0.158 A 
BRANCH  15  18
ATOM     18  O   UNL     1      19.912  20.947  37.985  1.00  0.00    -0.504 OA
ATOM     19  H   UNL     1      20.201  19.988  38.140  1.00  0.00     0.293 HD
ENDBRANCH  15  18
BRANCH  17  20
ATOM     20  O   UNL     1      17.670  19.413  38.761  1.00  0.00    -0.504 OA
ATOM     21  H   UNL     1      17.368  19.112  37.842  1.00  0.00     0.293 HD
ENDBRANCH  17  20
ENDBRANCH   1  12
BRANCH   2  22
ATOM     22  O   UNL     1      15.451  25.148  39.395  1.00  0.00    -0.502 OA
ATOM     23  H   UNL     1      16.289  24.891  38.888  1.00  0.00     0.293 HD
ENDBRANCH   2  22
BRANCH   6  24
ATOM     24  O   UNL     1      11.975  26.039  43.160  1.00  0.00    -0.507 OA
ATOM     25  H   UNL     1      10.979  26.093  43.337  1.00  0.00     0.293 HD
ENDBRANCH   6  24
BRANCH   8  26
ATOM     26  O   UNL     1      12.902  22.428  46.221  1.00  0.00    -0.508 OA
ATOM     27  H   UNL     1      12.155  22.739  46.833  1.00  0.00     0.293 HD
ENDBRANCH   8  26
TORSDOF 6
ENDMDL
MODEL 3
REMARK VINA RESULT:    -8.010      1.113      6.742
REMARK INTER + INTRA:          -9.328
REMARK INTER:                  -9.757
REMARK INTRA:                   0.429
REMARK UNBOUND:                 0.321
REMARK SMILES O=c1c(O)c(-c2ccc(O)c(O)c2)oc2cc(O)cc(O)c12
REMARK SMILES IDX 5 1 3 2 2 3 1 4 22 5 20 6 19 7 17 8 16 9 15 10 14 11 6 12
REMARK SMILES IDX 7 13 8 14 9 15 13 16 11 17 10 18 12 20 4 22 21 24 18 26
REMARK H PARENT 10 19 12 21 4 23 21 25 18 27
REMARK Flexibility Score: inf
ROOT
ATOM      1  C   UNL     1      16.346  23.224  40.887  1.00  0.00     0.180 A 
ATOM      2  C   UNL     1      16.762  24.085  39.853  1.00  0.00     0.208 A 
ATOM      3  C   UNL     1      17.903  23.748  39.109  1.00  0.00     0.238 A 
ATOM      4  O   UNL     1      18.291  24.517  38.187  1.00  0.00    -0.285 OA
ATOM      5  C   UNL     1      18.594  22.554  39.395  1.00  0.00     0.111 A 
ATOM      6  C   UNL     1      19.751  22.139  38.689  1.00  0.00     0.134 A 
ATOM      7  C   UNL     1      20.377  20.932  39.029  1.00  0.00     0.093 A 
ATOM      8  C   UNL     1      19.873  20.131  40.056  1.00  0.00     0.123 A 
ATOM      9  C   UNL     1      18.732  20.535  40.757  1.00  0.00     0.094 A 
ATOM     10  C   UNL     1      18.094  21.736  40.434  1.00  0.00     0.146 A 
ATOM     11  O   UNL     1      17.015  22.098  41.119  1.00  0.00    -0.452 OA
ENDROOT
BRANCH   1  12
ATOM     12  C   UNL     1      15.164  23.520  41.729  1.00  0.00     0.025 A 
ATOM     13  C   UNL     1      14.170  24.385  41.243  1.00  0.00     0.016 A 
ATOM     14  C   UNL     1      13.036  24.662  42.011  1.00  0.00     0.051 A 
ATOM     15  C   UNL     1      12.872  24.067  43.268  1.00  0.00     0.157 A 
ATOM     16  C   UNL     1      14.985  22.909  42.982  1.00  0.00     0.062 A 
ATOM     17  C   UNL     1      13.849  23.182  43.753  1.00  0.00     0.158 A 
BRANCH  15  18
ATOM     18  O   UNL     1      11.740  24.348  44.034  1.00  0.00    -0.504 OA
ATOM     19  H   UNL     1      11.815  24.668  44.992  1.00  0.00     0.293 HD
ENDBRANCH  15  18
BRANCH  17  20
ATOM     20  O   UNL     1      13.707  22.562  44.995  1.00  0.00    -0.504 OA
ATOM     21  H   UNL     1      14.500  22.193  45.506  1.00  0.00     0.293 HD
ENDBRANCH  17  20
ENDBRANCH   1  12
BRANCH   2  22
ATOM     22  O   UNL     1      16.030  25.237  39.557  1.00  0.00    -0.502 OA
ATOM     23  H   UNL     1      15.285  25.576  40.155  1.00  0.00     0.293 HD
ENDBRANCH   2  22
BRANCH   6  24
ATOM     24  O   UNL     1      20.279  22.916  37.658  1.00  0.00    -0.507 OA
ATOM     25  H   UNL     1      20.895  22.523  36.956  1.00  0.00     0.293 HD
ENDBRANCH   6  24
BRANCH   8  26
ATOM     26  O   UNL     1      20.513  18.935  40.372  1.00  0.00    -0.508 OA
ATOM     27  H   UNL     1      21.519  18.887  40.489  1.00  0.00     0.293 HD
ENDBRANCH   8  26
TORSDOF 6
ENDMDL
MODEL 4
REMARK VINA RESULT:    -7.624      2.373      7.494
REMARK INTER + INTRA:          -8.863
REMARK INTER:                  -8.693
REMARK INTRA:                  -0.170
REMARK UNBOUND:                 0.321
REMARK SMILES O=c1c(O)c(-c2ccc(O)c(O)c2)oc2cc(O)cc(O)c12
REMARK SMILES IDX 5 1 3 2 2 3 1 4 22 5 20 6 19 7 17 8 16 9 15 10 14 11 6 12
REMARK SMILES IDX 7 13 8 14 9 15 13 16 11 17 10 18 12 20 4 22 21 24 18 26
REMARK H PARENT 10 19 12 21 4 23 21 25 18 27
REMARK Flexibility Score: inf
ROOT
ATOM      1  C   UNL     1      13.830  23.931  42.968  1.00  0.00     0.180 A 
ATOM      2  C   UNL     1      13.578  25.013  42.102  1.00  0.00     0.208 A 
ATOM      3  C   UNL     1      14.364  25.154  40.948  1.00  0.00     0.238 A 
ATOM      4  O   UNL     1      14.154  26.125  40.170  1.00  0.00    -0.285 OA
ATOM      5  C   UNL     1      15.369  24.206  40.668  1.00  0.00     0.111 A 
ATOM      6  C   UNL     1      16.202  24.274  39.525  1.00  0.00     0.134 A 
ATOM      7  C   UNL     1      17.175  23.286  39.314  1.00  0.00     0.093 A 
ATOM      8  C   UNL     1      17.332  22.235  40.219  1.00  0.00     0.123 A 
ATOM      9  C   UNL     1      16.513  22.163  41.351  1.00  0.00     0.094 A 
ATOM     10  C   UNL     1      15.538  23.138  41.580  1.00  0.00     0.146 A 
ATOM     11  O   UNL     1      14.778  23.049  42.665  1.00  0.00    -0.452 OA
ENDROOT
BRANCH   1  12
ATOM     12  C   UNL     1      13.058  23.726  44.214  1.00  0.00     0.025 A 
ATOM     13  C   UNL     1      12.326  22.539  44.385  1.00  0.00     0.016 A 
ATOM     14  C   UNL     1      11.607  22.314  45.562  1.00  0.00     0.051 A 
ATOM     15  C   UNL     1      11.621  23.265  46.591  1.00  0.00     0.157 A 
ATOM     16  C   UNL     1      13.086  24.667  45.258  1.00  0.00     0.062 A 
ATOM     17  C   UNL     1      12.369  24.444  46.439  1.00  0.00     0.158 A 
BRANCH  15  18
ATOM     18  O   UNL     1      10.900  23.039  47.763  1.00  0.00    -0.504 OA
ATOM     19  H   UNL     1      11.359  22.765  48.624  1.00  0.00     0.293 HD
ENDBRANCH  15  18
BRANCH  17  20
ATOM     20  O   UNL     1      12.414  25.403  47.451  1.00  0.00    -0.504 OA
ATOM     21  H   UNL     1      11.692  25.475  48.158  1.00  0.00     0.293 HD
ENDBRANCH  17  20
ENDBRANCH   1  12
BRANCH   2  22
ATOM     22  O   UNL     1      12.543  25.910  42.376  1.00  0.00    -0.502 OA
ATOM     23  H   UNL     1      11.798  25.696  43.029  1.00  0.00     0.293 HD
ENDBRANCH   2  22
BRANCH   6  24
ATOM     24  O   UNL     1      16.070  25.311  38.601  1.00  0.00    -0.507 OA
ATOM     25  H   UNL     1      16.757  26.053  38.530  1.00  0.00     0.293 HD
ENDBRANCH   6  24
BRANCH   8  26
ATOM     26  O   UNL     1      18.305  21.266  39.984  1.00  0.00    -0.508 OA
ATOM     27  H   UNL     1      18.494  20.921  39.049  1.00  0.00     0.293 HD
ENDBRANCH   8  26
TORSDOF 6
ENDMDL
MODEL 5
REMARK VINA RESULT:    -7.617      1.551      6.987
REMARK INTER + INTRA:          -8.855
REMARK INTER:                  -9.377
REMARK INTRA:                   0.521
REMARK UNBOUND:                 0.321
REMARK SMILES O=c1c(O)c(-c2ccc(O)c(O)c2)oc2cc(O)cc(O)c12
REMARK SMILES IDX 5 1 3 2 2 3 1 4 22 5 20 6 19 7 17 8 16 9 15 10 14 11 6 12
REMARK SMILES IDX 7 13 8 14 9 15 13 16 11 17 10 18 12 20 4 22 21 24 18 26
REMARK H PARENT 10 19 12 21 4 23 21 25 18 27
REMARK Flexibility Score: inf
ROOT
ATOM      1  C   UNL     1      15.026  23.626  41.736  1.00  0.00     0.180 A 
ATOM      2  C   UNL     1      15.137  24.579  40.706  1.00  0.00     0.208 A 
ATOM      3  C   UNL     1      16.180  24.451  39.775  1.00  0.00     0.238 A 
ATOM      4  O   UNL     1      16.296  25.305  38.853  1.00  0.00    -0.285 OA
ATOM      5  C   UNL     1      17.076  23.368  39.877  1.00  0.00     0.111 A 
ATOM      6  C   UNL     1      18.151  23.164  38.977  1.00  0.00     0.134 A 
ATOM      7  C   UNL     1      18.994  22.056  39.141  1.00  0.00     0.093 A 
ATOM      8  C   UNL     1      18.786  21.149  40.183  1.00  0.00     0.123 A 
ATOM      9  C   UNL     1      17.727  21.345  41.074  1.00  0.00     0.094 A 
ATOM     10  C   UNL     1      16.876  22.445  40.929  1.00  0.00     0.146 A 
ATOM     11  O   UNL     1      15.881  22.610  41.793  1.00  0.00    -0.452 OA
ENDROOT
BRANCH   1  12
ATOM     12  C   UNL     1      13.965  23.705  42.767  1.00  0.00     0.025 A 
ATOM     13  C   UNL     1      12.903  24.608  42.598  1.00  0.00     0.016 A 
ATOM     14  C   UNL     1      11.880  24.683  43.547  1.00  0.00     0.051 A 
ATOM     15  C   UNL     1      11.896  23.848  44.671  1.00  0.00     0.157 A 
ATOM     16  C   UNL     1      13.966  22.854  43.886  1.00  0.00     0.062 A 
ATOM     17  C   UNL     1      12.942  22.925  44.838  1.00  0.00     0.158 A 
BRANCH  15  18
ATOM     18  O   UNL     1      10.876  23.928  45.618  1.00  0.00    -0.504 OA
ATOM     19  H   UNL     1      11.007  24.411  46.499  1.00  0.00     0.293 HD
ENDBRANCH  15  18
BRANCH  17  20
ATOM     20  O   UNL     1      12.978  22.069  45.939  1.00  0.00    -0.504 OA
ATOM     21  H   UNL     1      12.304  22.131  46.691  1.00  0.00     0.293 HD
ENDBRANCH  17  20
ENDBRANCH   1  12
BRANCH   2  22
ATOM     22  O   UNL     1      14.206  25.615  40.597  1.00  0.00    -0.502 OA
ATOM     23  H   UNL     1      13.708  25.983  41.400  1.00  0.00     0.293 HD
ENDBRANCH   2  22
BRANCH   6  24
ATOM     24  O   UNL     1      18.386  24.051  37.926  1.00  0.00    -0.507 OA
ATOM     25  H   UNL     1      19.274  24.527  37.818  1.00  0.00     0.293 HD
ENDBRANCH   6  24
BRANCH   8  26
ATOM     26  O   UNL     1      19.638  20.056  40.321  1.00  0.00    -0.508 OA
ATOM     27  H   UNL     1      20.633  20.133  40.141  1.00  0.00     0.293 HD
ENDBRANCH   8  26
TORSDOF 6
ENDMDL
MODEL 6
REMARK VINA RESULT:    -7.122      1.645      7.164
REMARK INTER + INTRA:          -8.259
REMARK INTER:                  -8.081
REMARK INTRA:                  -0.178
REMARK UNBOUND:                 0.321
REMARK SMILES O=c1c(O)c(-c2ccc(O)c(O)c2)oc2cc(O)cc(O)c12
REMARK SMILES IDX 5 1 3 2 2 3 1 4 22 5 20 6 19 7 17 8 16 9 15 10 14 11 6 12
REMARK SMILES IDX 7 13 8 14 9 15 13 16 11 17 10 18 12 20 4 22 21 24 18 26
REMARK H PARENT 10 19 12 21 4 23 21 25 18 27
REMARK Flexibility Score: inf
ROOT
ATOM      1  C   UNL     1      17.031  22.395  40.941  1.00  0.00     0.180 A 
ATOM      2  C   UNL     1      17.130  21.015  40.677  1.00  0.00     0.208 A 
ATOM      3  C   UNL     1      18.314  20.516  40.113  1.00  0.00     0.238 A 
ATOM      4  O   UNL     1      18.410  19.283  39.863  1.00  0.00    -0.285 OA
ATOM      5  C   UNL     1      19.382  21.395  39.842  1.00  0.00     0.111 A 
ATOM      6  C   UNL     1      20.610  20.972  39.278  1.00  0.00     0.134 A 
ATOM      7  C   UNL     1      21.628  21.908  39.046  1.00  0.00     0.093 A 
ATOM      8  C   UNL     1      21.444  23.256  39.366  1.00  0.00     0.123 A 
ATOM      9  C   UNL     1      20.233  23.680  39.923  1.00  0.00     0.094 A 
ATOM     10  C   UNL     1      19.206  22.762  40.160  1.00  0.00     0.146 A 
ATOM     11  O   UNL     1      18.064  23.193  40.685  1.00  0.00    -0.452 OA
ENDROOT
BRANCH   1  12
ATOM     12  C   UNL     1      15.808  23.000  41.516  1.00  0.00     0.025 A 
ATOM     13  C   UNL     1      15.024  23.856  40.726  1.00  0.00     0.016 A 
ATOM     14  C   UNL     1      13.854  24.421  41.241  1.00  0.00     0.051 A 
ATOM     15  C   UNL     1      13.444  24.128  42.548  1.00  0.00     0.157 A 
ATOM     16  C   UNL     1      15.381  22.692  42.820  1.00  0.00     0.062 A 
ATOM     17  C   UNL     1      14.210  23.254  43.339  1.00  0.00     0.158 A 
BRANCH  15  18
ATOM     18  O   UNL     1      12.278  24.696  43.060  1.00  0.00    -0.504 OA
ATOM     19  H   UNL     1      12.229  25.037  44.013  1.00  0.00     0.293 HD
ENDBRANCH  15  18
BRANCH  17  20
ATOM     20  O   UNL     1      13.820  22.931  44.638  1.00  0.00    -0.504 OA
ATOM     21  H   UNL     1      14.110  23.479  45.439  1.00  0.00     0.293 HD
ENDBRANCH  17  20
ENDBRANCH   1  12
BRANCH   2  22
ATOM     22  O   UNL     1      16.076  20.157  41.002  1.00  0.00    -0.502 OA
ATOM     23  H   UNL     1      15.398  20.380  41.721  1.00  0.00     0.293 HD
ENDBRANCH   2  22
BRANCH   6  24
ATOM     24  O   UNL     1      20.825  19.634  38.948  1.00  0.00    -0.507 OA
ATOM     25  H   UNL     1      20.656  19.281  38.013  1.00  0.00     0.293 HD
ENDBRANCH   6  24
BRANCH   8  26
ATOM     26  O   UNL     1      22.473  24.164  39.128  1.00  0.00    -0.508 OA
ATOM     27  H   UNL     1      22.633  24.553  38.205  1.00  0.00     0.293 HD
ENDBRANCH   8  26
TORSDOF 6
ENDMDL
MODEL 7
REMARK VINA RESULT:    -6.299      1.890      6.979
REMARK INTER + INTRA:          -7.268
REMARK INTER:                  -7.483
REMARK INTRA:                   0.215
REMARK UNBOUND:                 0.321
REMARK SMILES O=c1c(O)c(-c2ccc(O)c(O)c2)oc2cc(O)cc(O)c12
REMARK SMILES IDX 5 1 3 2 2 3 1 4 22 5 20 6 19 7 17 8 16 9 15 10 14 11 6 12
REMARK SMILES IDX 7 13 8 14 9 15 13 16 11 17 10 18 12 20 4 22 21 24 18 26
REMARK H PARENT 10 19 12 21 4 23 21 25 18 27
REMARK Flexibility Score: inf
ROOT
ATOM      1  C   UNL     1      16.516  23.122  40.692  1.00  0.00     0.180 A 
ATOM      2  C   UNL     1      17.122  21.854  40.604  1.00  0.00     0.208 A 
ATOM      3  C   UNL     1      18.186  21.672  39.707  1.00  0.00     0.238 A 
ATOM      4  O   UNL     1      18.729  20.538  39.612  1.00  0.00    -0.285 OA
ATOM      5  C   UNL     1      18.637  22.759  38.932  1.00  0.00     0.111 A 
ATOM      6  C   UNL     1      19.705  22.661  38.006  1.00  0.00     0.134 A 
ATOM      7  C   UNL     1      20.101  23.792  37.278  1.00  0.00     0.093 A 
ATOM      8  C   UNL     1      19.453  25.017  37.455  1.00  0.00     0.123 A 
ATOM      9  C   UNL     1      18.397  25.120  38.366  1.00  0.00     0.094 A 
ATOM     10  C   UNL     1      17.987  24.004  39.101  1.00  0.00     0.146 A 
ATOM     11  O   UNL     1      16.978  24.128  39.955  1.00  0.00    -0.452 OA
ENDROOT
BRANCH   1  12
ATOM     12  C   UNL     1      15.377  23.388  41.600  1.00  0.00     0.025 A 
ATOM     13  C   UNL     1      14.345  24.244  41.181  1.00  0.00     0.016 A 
ATOM     14  C   UNL     1      13.250  24.492  42.013  1.00  0.00     0.051 A 
ATOM     15  C   UNL     1      13.163  23.878  43.268  1.00  0.00     0.157 A 
ATOM     16  C   UNL     1      15.274  22.757  42.852  1.00  0.00     0.062 A 
ATOM     17  C   UNL     1      14.178  23.002  43.687  1.00  0.00     0.158 A 
BRANCH  15  18
ATOM     18  O   UNL     1      12.070  24.130  44.097  1.00  0.00    -0.504 OA
ATOM     19  H   UNL     1      11.597  25.026  44.094  1.00  0.00     0.293 HD
ENDBRANCH  15  18
BRANCH  17  20
ATOM     20  O   UNL     1      14.112  22.363  44.925  1.00  0.00    -0.504 OA
ATOM     21  H   UNL     1      13.976  22.874  45.789  1.00  0.00     0.293 HD
ENDBRANCH  17  20
ENDBRANCH   1  12
BRANCH   2  22
ATOM     22  O   UNL     1      16.688  20.807  41.420  1.00  0.00    -0.502 OA
ATOM     23  H   UNL     1      15.706  20.606  41.570  1.00  0.00     0.293 HD
ENDBRANCH   2  22
BRANCH   6  24
ATOM     24  O   UNL     1      20.374  21.452  37.808  1.00  0.00    -0.507 OA
ATOM     25  H   UNL     1      21.103  21.137  38.436  1.00  0.00     0.293 HD
ENDBRANCH   6  24
BRANCH   8  26
ATOM     26  O   UNL     1      19.868  26.125  36.720  1.00  0.00    -0.508 OA
ATOM     27  H   UNL     1      19.822  26.136  35.707  1.00  0.00     0.293 HD
ENDBRANCH   8  26
TORSDOF 6
ENDMDL
