MODEL 1
REMARK VINA RESULT:    -3.958      0.000      0.000
REMARK INTER + INTRA:          -4.374
REMARK INTER:                  -4.883
REMARK INTRA:                   0.509
REMARK UNBOUND:                 0.509
REMARK SMILES C=C1[C@H]2CC[C@@H]3[C@@H]2C(C)(C)CCC[C@]13C
REMARK SMILES IDX 14 1 6 2 7 3 3 4 2 5 1 6 4 7 5 8 15 9 8 10 9 11 10 12 11 13
REMARK SMILES IDX 13 15 12 16
REMARK H PARENT
REMARK Flexibility Score: 80.00
ROOT
ATOM      1  C   UNL     1       9.809  20.588  25.423  1.00  0.00    -0.008 C 
ATOM      2  C   UNL     1       8.464  20.927  24.798  1.00  0.00     0.003 C 
ATOM      3  C   UNL     1       7.923  19.498  24.602  1.00  0.00     0.006 C 
ATOM      4  C   UNL     1       7.852  19.200  26.090  1.00  0.00     0.019 C 
ATOM      5  C   UNL     1       9.327  19.525  26.422  1.00  0.00    -0.068 C 
ATOM      6  C   UNL     1      10.062  18.925  27.363  1.00  0.00     0.009 C 
ATOM      7  C   UNL     1       7.000  20.338  26.638  1.00  0.00     0.008 C 
ATOM      8  C   UNL     1       7.426  21.529  25.776  1.00  0.00     0.005 C 
ATOM      9  C   UNL     1      10.457  21.781  26.158  1.00  0.00     0.016 C 
ENDROOT
BRANCH   3  10
ATOM     10  C   UNL     1       7.542  19.261  23.124  1.00  0.00    -0.032 C 
ATOM     11  C   UNL     1       7.065  17.801  22.881  1.00  0.00     0.011 C 
ATOM     12  C   UNL     1       6.393  20.198  22.690  1.00  0.00     0.011 C 
BRANCH  10  13
ATOM     13  C   UNL     1       8.867  19.562  22.285  1.00  0.00     0.007 CG0
ATOM     14  G   UNL     1      10.254  19.244  22.994  1.00  0.00     0.000 G0
ENDBRANCH  10  13
ENDBRANCH   3  10
BRANCH   1  15
ATOM     15  C   UNL     1      10.763  20.109  24.235  1.00  0.00     0.011 C 
BRANCH  15  16
ATOM     16  C   UNL     1      10.255  19.249  22.988  1.00  0.00     0.001 CG0
ATOM     17  G   UNL     1       8.860  19.560  22.290  1.00  0.00     0.000 G0
ENDBRANCH  15  16
ENDBRANCH   1  15
TORSDOF 0
ENDMDL
MODEL 2
REMARK VINA RESULT:    -3.707      2.173      3.526
REMARK INTER + INTRA:          -4.065
REMARK INTER:                  -4.566
REMARK INTRA:                   0.501
REMARK UNBOUND:                 0.509
REMARK SMILES C=C1[C@H]2CC[C@@H]3[C@@H]2C(C)(C)CCC[C@]13C
REMARK SMILES IDX 14 1 6 2 7 3 3 4 2 5 1 6 4 7 5 8 15 9 8 10 9 11 10 12 11 13
REMARK SMILES IDX 13 15 12 16
REMARK H PARENT
REMARK Flexibility Score: 80.00
ROOT
ATOM      1  C   UNL     1       7.758  19.401  23.547  1.00  0.00    -0.008 C 
ATOM      2  C   UNL     1       7.181  20.631  22.864  1.00  0.00     0.003 C 
ATOM      3  C   UNL     1       5.826  20.699  23.594  1.00  0.00     0.006 C 
ATOM      4  C   UNL     1       6.445  20.983  24.951  1.00  0.00     0.019 C 
ATOM      5  C   UNL     1       7.387  19.758  24.995  1.00  0.00    -0.068 C 
ATOM      6  C   UNL     1       7.744  19.091  26.096  1.00  0.00     0.009 C 
ATOM      7  C   UNL     1       7.308  22.213  24.695  1.00  0.00     0.008 C 
ATOM      8  C   UNL     1       7.834  21.972  23.279  1.00  0.00     0.005 C 
ATOM      9  C   UNL     1       9.288  19.276  23.385  1.00  0.00     0.016 C 
ENDROOT
BRANCH   3  10
ATOM     10  C   UNL     1       4.662  20.690  22.578  1.00  0.00    -0.032 C 
ATOM     11  C   UNL     1       3.280  20.704  23.289  1.00  0.00     0.011 C 
ATOM     12  C   UNL     1       4.718  21.931  21.660  1.00  0.00     0.011 C 
BRANCH  10  13
ATOM     13  C   UNL     1       4.841  19.349  21.729  1.00  0.00     0.007 CG0
ATOM     14  G   UNL     1       5.502  18.110  22.476  1.00  0.00     0.000 G0
ENDBRANCH  10  13
ENDBRANCH   3  10
BRANCH   1  15
ATOM     15  C   UNL     1       7.045  18.131  22.891  1.00  0.00     0.011 C 
BRANCH  15  16
ATOM     16  C   UNL     1       5.508  18.109  22.458  1.00  0.00     0.001 CG0
ATOM     17  G   UNL     1       4.844  19.354  21.724  1.00  0.00     0.000 G0
ENDBRANCH  15  16
ENDBRANCH   1  15
TORSDOF 0
ENDMDL
MODEL 3
REMARK VINA RESULT:    -3.643     12.990     14.560
REMARK INTER + INTRA:          -3.985
REMARK INTER:                  -4.511
REMARK INTRA:                   0.525
REMARK UNBOUND:                 0.509
REMARK SMILES C=C1[C@H]2CC[C@@H]3[C@@H]2C(C)(C)CCC[C@]13C
REMARK SMILES IDX 14 1 6 2 7 3 3 4 2 5 1 6 4 7 5 8 15 9 8 10 9 11 10 12 11 13
REMARK SMILES IDX 13 15 12 16
REMARK H PARENT
REMARK Flexibility Score: 80.00
ROOT
ATOM      1  C   UNL     1      14.006  16.320  36.499  1.00  0.00    -0.008 C 
ATOM      2  C   UNL     1      12.541  16.607  36.793  1.00  0.00     0.003 C 
ATOM      3  C   UNL     1      12.523  16.257  38.293  1.00  0.00     0.006 C 
ATOM      4  C   UNL     1      13.460  17.386  38.682  1.00  0.00     0.019 C 
ATOM      5  C   UNL     1      14.617  17.016  37.725  1.00  0.00    -0.068 C 
ATOM      6  C   UNL     1      15.917  17.205  37.969  1.00  0.00     0.009 C 
ATOM      7  C   UNL     1      12.776  18.624  38.114  1.00  0.00     0.008 C 
ATOM      8  C   UNL     1      12.163  18.108  36.811  1.00  0.00     0.005 C 
ATOM      9  C   UNL     1      14.503  16.971  35.191  1.00  0.00     0.016 C 
ENDROOT
BRANCH   3  10
ATOM     10  C   UNL     1      11.447  15.187  38.587  1.00  0.00    -0.032 C 
ATOM     11  C   UNL     1      11.500  14.711  40.066  1.00  0.00     0.011 C 
ATOM     12  C   UNL     1      10.028  15.744  38.335  1.00  0.00     0.011 C 
BRANCH  10  13
ATOM     13  C   UNL     1      11.764  13.974  37.597  1.00  0.00     0.007 CG0
ATOM     14  G   UNL     1      13.295  13.700  37.267  1.00  0.00     0.000 G0
ENDBRANCH  10  13
ENDBRANCH   3  10
BRANCH   1  15
ATOM     15  C   UNL     1      14.155  14.733  36.399  1.00  0.00     0.011 C 
BRANCH  15  16
ATOM     16  C   UNL     1      13.293  13.709  37.271  1.00  0.00     0.001 CG0
ATOM     17  G   UNL     1      11.761  13.990  37.590  1.00  0.00     0.000 G0
ENDBRANCH  15  16
ENDBRANCH   1  15
TORSDOF 0
ENDMDL
MODEL 4
REMARK VINA RESULT:    -3.577      1.804      4.333
REMARK INTER + INTRA:          -3.905
REMARK INTER:                  -4.417
REMARK INTRA:                   0.512
REMARK UNBOUND:                 0.509
REMARK SMILES C=C1[C@H]2CC[C@@H]3[C@@H]2C(C)(C)CCC[C@]13C
REMARK SMILES IDX 14 1 6 2 7 3 3 4 2 5 1 6 4 7 5 8 15 9 8 10 9 11 10 12 11 13
REMARK SMILES IDX 13 15 12 16
REMARK H PARENT
REMARK Flexibility Score: 80.00
ROOT
ATOM      1  C   UNL     1       7.698  20.168  23.877  1.00  0.00    -0.008 C 
ATOM      2  C   UNL     1       8.920  20.995  24.247  1.00  0.00     0.003 C 
ATOM      3  C   UNL     1       9.869  19.852  24.656  1.00  0.00     0.006 C 
ATOM      4  C   UNL     1       9.931  19.254  23.261  1.00  0.00     0.019 C 
ATOM      5  C   UNL     1       8.408  19.078  23.059  1.00  0.00    -0.068 C 
ATOM      6  C   UNL     1       7.825  18.102  22.357  1.00  0.00     0.009 C 
ATOM      7  C   UNL     1      10.374  20.426  22.394  1.00  0.00     0.008 C 
ATOM      8  C   UNL     1       9.670  21.619  23.046  1.00  0.00     0.005 C 
ATOM      9  C   UNL     1       6.682  20.938  23.006  1.00  0.00     0.016 C 
ENDROOT
BRANCH   3  10
ATOM     10  C   UNL     1      10.395  20.072  26.091  1.00  0.00    -0.032 C 
ATOM     11  C   UNL     1      11.291  18.891  26.561  1.00  0.00     0.011 C 
ATOM     12  C   UNL     1      11.246  21.358  26.180  1.00  0.00     0.011 C 
BRANCH  10  13
ATOM     13  C   UNL     1       9.095  20.188  27.013  1.00  0.00     0.007 CG0
ATOM     14  G   UNL     1       7.825  19.339  26.572  1.00  0.00     0.000 G0
ENDBRANCH  10  13
ENDBRANCH   3  10
BRANCH   1  15
ATOM     15  C   UNL     1       7.004  19.729  25.248  1.00  0.00     0.011 C 
BRANCH  15  16
ATOM     16  C   UNL     1       7.820  19.347  26.567  1.00  0.00     0.001 CG0
ATOM     17  G   UNL     1       9.099  20.181  27.012  1.00  0.00     0.000 G0
ENDBRANCH  15  16
ENDBRANCH   1  15
TORSDOF 0
ENDMDL
MODEL 5
REMARK VINA RESULT:    -3.542      1.640      2.605
REMARK INTER + INTRA:          -3.861
REMARK INTER:                  -4.368
REMARK INTRA:                   0.507
REMARK UNBOUND:                 0.509
REMARK SMILES C=C1[C@H]2CC[C@@H]3[C@@H]2C(C)(C)CCC[C@]13C
REMARK SMILES IDX 14 1 6 2 7 3 3 4 2 5 1 6 4 7 5 8 15 9 8 10 9 11 10 12 11 13
REMARK SMILES IDX 13 15 12 16
REMARK H PARENT
REMARK Flexibility Score: 80.00
ROOT
ATOM      1  C   UNL     1      11.063  21.510  25.476  1.00  0.00    -0.008 C 
ATOM      2  C   UNL     1       9.794  20.729  25.784  1.00  0.00     0.003 C 
ATOM      3  C   UNL     1       9.892  19.663  24.677  1.00  0.00     0.006 C 
ATOM      4  C   UNL     1      11.154  19.032  25.239  1.00  0.00     0.019 C 
ATOM      5  C   UNL     1      12.012  20.318  25.276  1.00  0.00    -0.068 C 
ATOM      6  C   UNL     1      13.335  20.376  25.088  1.00  0.00     0.009 C 
ATOM      7  C   UNL     1      10.772  18.698  26.676  1.00  0.00     0.008 C 
ATOM      8  C   UNL     1       9.859  19.863  27.066  1.00  0.00     0.005 C 
ATOM      9  C   UNL     1      11.532  22.398  26.648  1.00  0.00     0.016 C 
ENDROOT
BRANCH   3  10
ATOM     10  C   UNL     1       8.613  19.662  23.810  1.00  0.00    -0.032 C 
ATOM     11  C   UNL     1       8.711  18.640  22.643  1.00  0.00     0.011 C 
ATOM     12  C   UNL     1       7.374  19.283  24.651  1.00  0.00     0.011 C 
BRANCH  10  13
ATOM     13  C   UNL     1       8.478  21.149  23.241  1.00  0.00     0.007 CG0
ATOM     14  G   UNL     1       9.830  21.950  23.000  1.00  0.00     0.000 G0
ENDBRANCH  10  13
ENDBRANCH   3  10
BRANCH   1  15
ATOM     15  C   UNL     1      10.745  22.424  24.205  1.00  0.00     0.011 C 
BRANCH  15  16
ATOM     16  C   UNL     1       9.826  21.952  22.987  1.00  0.00     0.001 CG0
ATOM     17  G   UNL     1       8.477  21.149  23.239  1.00  0.00     0.000 G0
ENDBRANCH  15  16
ENDBRANCH   1  15
TORSDOF 0
ENDMDL
MODEL 6
REMARK VINA RESULT:    -3.512      1.080      3.669
REMARK INTER + INTRA:          -3.824
REMARK INTER:                  -4.333
REMARK INTRA:                   0.509
REMARK UNBOUND:                 0.509
REMARK SMILES C=C1[C@H]2CC[C@@H]3[C@@H]2C(C)(C)CCC[C@]13C
REMARK SMILES IDX 14 1 6 2 7 3 3 4 2 5 1 6 4 7 5 8 15 9 8 10 9 11 10 12 11 13
REMARK SMILES IDX 13 15 12 16
REMARK H PARENT
REMARK Flexibility Score: 80.00
ROOT
ATOM      1  C   UNL     1       8.007  19.778  23.705  1.00  0.00    -0.008 C 
ATOM      2  C   UNL     1       8.461  19.239  25.054  1.00  0.00     0.003 C 
ATOM      3  C   UNL     1       9.375  20.402  25.483  1.00  0.00     0.006 C 
ATOM      4  C   UNL     1       8.241  21.408  25.573  1.00  0.00     0.019 C 
ATOM      5  C   UNL     1       7.701  21.221  24.136  1.00  0.00    -0.068 C 
ATOM      6  C   UNL     1       7.141  22.175  23.386  1.00  0.00     0.009 C 
ATOM      7  C   UNL     1       7.253  20.740  26.522  1.00  0.00     0.008 C 
ATOM      8  C   UNL     1       7.379  19.259  26.160  1.00  0.00     0.005 C 
ATOM      9  C   UNL     1       6.738  19.083  23.168  1.00  0.00     0.016 C 
ENDROOT
BRANCH   3  10
ATOM     10  C   UNL     1      10.796  19.886  25.803  1.00  0.00    -0.032 C 
ATOM     11  C   UNL     1      11.759  21.049  26.171  1.00  0.00     0.011 C 
ATOM     12  C   UNL     1      10.774  18.911  27.001  1.00  0.00     0.011 C 
BRANCH  10  13
ATOM     13  C   UNL     1      11.293  19.145  24.479  1.00  0.00     0.007 CG0
ATOM     14  G   UNL     1      10.756  19.713  23.094  1.00  0.00     0.000 G0
ENDBRANCH  10  13
ENDBRANCH   3  10
BRANCH   1  15
ATOM     15  C   UNL     1       9.216  19.550  22.686  1.00  0.00     0.011 C 
BRANCH  15  16
ATOM     16  C   UNL     1      10.753  19.700  23.093  1.00  0.00     0.001 CG0
ATOM     17  G   UNL     1      11.292  19.144  24.482  1.00  0.00     0.000 G0
ENDBRANCH  15  16
ENDBRANCH   1  15
TORSDOF 0
ENDMDL
MODEL 7
REMARK VINA RESULT:    -3.510      1.951      3.199
REMARK INTER + INTRA:          -3.822
REMARK INTER:                  -4.341
REMARK INTRA:                   0.519
REMARK UNBOUND:                 0.509
REMARK SMILES C=C1[C@H]2CC[C@@H]3[C@@H]2C(C)(C)CCC[C@]13C
REMARK SMILES IDX 14 1 6 2 7 3 3 4 2 5 1 6 4 7 5 8 15 9 8 10 9 11 10 12 11 13
REMARK SMILES IDX 13 15 12 16
REMARK H PARENT
REMARK Flexibility Score: 80.00
ROOT
ATOM      1  C   UNL     1      10.945  21.320  27.171  1.00  0.00    -0.008 C 
ATOM      2  C   UNL     1       9.918  20.663  26.261  1.00  0.00     0.003 C 
ATOM      3  C   UNL     1      10.835  19.645  25.558  1.00  0.00     0.006 C 
ATOM      4  C   UNL     1      11.125  18.860  26.825  1.00  0.00     0.019 C 
ATOM      5  C   UNL     1      11.643  20.046  27.672  1.00  0.00    -0.068 C 
ATOM      6  C   UNL     1      12.587  19.973  28.616  1.00  0.00     0.009 C 
ATOM      7  C   UNL     1       9.737  18.502  27.343  1.00  0.00     0.008 C 
ATOM      8  C   UNL     1       8.909  19.737  26.983  1.00  0.00     0.005 C 
ATOM      9  C   UNL     1      10.312  22.098  28.343  1.00  0.00     0.016 C 
ENDROOT
BRANCH   3  10
ATOM     10  C   UNL     1      10.762  19.818  24.024  1.00  0.00    -0.032 C 
ATOM     11  C   UNL     1      11.758  18.876  23.292  1.00  0.00     0.011 C 
ATOM     12  C   UNL     1       9.348  19.492  23.496  1.00  0.00     0.011 C 
BRANCH  10  13
ATOM     13  C   UNL     1      11.133  21.347  23.746  1.00  0.00     0.007 CG0
ATOM     14  G   UNL     1      12.174  22.025  24.739  1.00  0.00     0.000 G0
ENDBRANCH  10  13
ENDBRANCH   3  10
BRANCH   1  15
ATOM     15  C   UNL     1      11.796  22.320  26.261  1.00  0.00     0.011 C 
BRANCH  15  16
ATOM     16  C   UNL     1      12.174  22.021  24.738  1.00  0.00     0.001 CG0
ATOM     17  G   UNL     1      11.128  21.345  23.750  1.00  0.00     0.000 G0
ENDBRANCH  15  16
ENDBRANCH   1  15
TORSDOF 0
ENDMDL
MODEL 8
REMARK VINA RESULT:    -3.444      2.186      4.750
REMARK INTER + INTRA:          -3.740
REMARK INTER:                  -4.265
REMARK INTRA:                   0.525
REMARK UNBOUND:                 0.509
REMARK SMILES C=C1[C@H]2CC[C@@H]3[C@@H]2C(C)(C)CCC[C@]13C
REMARK SMILES IDX 14 1 6 2 7 3 3 4 2 5 1 6 4 7 5 8 15 9 8 10 9 11 10 12 11 13
REMARK SMILES IDX 13 15 12 16
REMARK H PARENT
REMARK Flexibility Score: 80.00
ROOT
ATOM      1  C   UNL     1      10.028  21.167  23.764  1.00  0.00    -0.008 C 
ATOM      2  C   UNL     1      11.392  21.017  24.420  1.00  0.00     0.003 C 
ATOM      3  C   UNL     1      11.174  19.663  25.121  1.00  0.00     0.006 C 
ATOM      4  C   UNL     1      11.028  18.887  23.824  1.00  0.00     0.019 C 
ATOM      5  C   UNL     1       9.887  19.737  23.219  1.00  0.00    -0.068 C 
ATOM      6  C   UNL     1       8.914  19.280  22.425  1.00  0.00     0.009 C 
ATOM      7  C   UNL     1      12.304  19.228  23.063  1.00  0.00     0.008 C 
ATOM      8  C   UNL     1      12.550  20.689  23.446  1.00  0.00     0.005 C 
ATOM      9  C   UNL     1      10.015  22.199  22.616  1.00  0.00     0.016 C 
ENDROOT
BRANCH   3  10
ATOM     10  C   UNL     1      11.453  19.785  26.636  1.00  0.00    -0.032 C 
ATOM     11  C   UNL     1      11.127  18.465  27.388  1.00  0.00     0.011 C 
ATOM     12  C   UNL     1      12.939  20.111  26.902  1.00  0.00     0.011 C 
BRANCH  10  13
ATOM     13  C   UNL     1      10.512  20.969  27.152  1.00  0.00     0.007 CG0
ATOM     14  G   UNL     1       9.106  21.135  26.428  1.00  0.00     0.000 G0
ENDBRANCH  10  13
ENDBRANCH   3  10
BRANCH   1  15
ATOM     15  C   UNL     1       9.012  21.626  24.908  1.00  0.00     0.011 C 
BRANCH  15  16
ATOM     16  C   UNL     1       9.108  21.129  26.424  1.00  0.00     0.001 CG0
ATOM     17  G   UNL     1      10.515  20.974  27.149  1.00  0.00     0.000 G0
ENDBRANCH  15  16
ENDBRANCH   1  15
TORSDOF 0
ENDMDL
MODEL 9
REMARK VINA RESULT:    -3.411      1.760      3.733
REMARK INTER + INTRA:          -3.699
REMARK INTER:                  -4.209
REMARK INTRA:                   0.509
REMARK UNBOUND:                 0.509
REMARK SMILES C=C1[C@H]2CC[C@@H]3[C@@H]2C(C)(C)CCC[C@]13C
REMARK SMILES IDX 14 1 6 2 7 3 3 4 2 5 1 6 4 7 5 8 15 9 8 10 9 11 10 12 11 13
REMARK SMILES IDX 13 15 12 16
REMARK H PARENT
REMARK Flexibility Score: 80.00
ROOT
ATOM      1  C   UNL     1       8.166  21.782  24.249  1.00  0.00    -0.008 C 
ATOM      2  C   UNL     1       9.021  20.692  23.618  1.00  0.00     0.003 C 
ATOM      3  C   UNL     1       9.296  19.845  24.874  1.00  0.00     0.006 C 
ATOM      4  C   UNL     1       7.842  19.452  25.065  1.00  0.00     0.019 C 
ATOM      5  C   UNL     1       7.258  20.883  25.103  1.00  0.00    -0.068 C 
ATOM      6  C   UNL     1       6.198  21.272  25.817  1.00  0.00     0.009 C 
ATOM      7  C   UNL     1       7.462  18.840  23.722  1.00  0.00     0.008 C 
ATOM      8  C   UNL     1       8.246  19.695  22.723  1.00  0.00     0.005 C 
ATOM      9  C   UNL     1       7.340  22.581  23.219  1.00  0.00     0.016 C 
ENDROOT
BRANCH   3  10
ATOM     10  C   UNL     1      10.816  19.669  25.087  1.00  0.00    -0.032 C 
ATOM     11  C   UNL     1      11.126  18.878  26.388  1.00  0.00     0.011 C 
ATOM     12  C   UNL     1      11.454  18.891  23.914  1.00  0.00     0.011 C 
BRANCH  10  13
ATOM     13  C   UNL     1      11.412  21.148  25.176  1.00  0.00     0.007 CG0
ATOM     14  G   UNL     1      10.462  22.269  25.785  1.00  0.00     0.000 G0
ENDBRANCH  10  13
ENDBRANCH   3  10
BRANCH   1  15
ATOM     15  C   UNL     1       9.164  22.767  25.014  1.00  0.00     0.011 C 
BRANCH  15  16
ATOM     16  C   UNL     1      10.473  22.271  25.786  1.00  0.00     0.001 CG0
ATOM     17  G   UNL     1      11.417  21.153  25.166  1.00  0.00     0.000 G0
ENDBRANCH  15  16
ENDBRANCH   1  15
TORSDOF 0
ENDMDL
