MODEL 1
REMARK VINA RESULT:    -3.531      0.000      0.000
REMARK INTER + INTRA:          -4.595
REMARK INTER:                  -4.461
REMARK INTRA:                  -0.135
REMARK UNBOUND:                -0.135
REMARK SMILES CSCC[C@H]([NH3+])C(=O)[O-]
REMARK SMILES IDX 4 1 5 2 6 3 7 7 8 8 9 9 3 10 2 11 1 12
REMARK H PARENT 6 4 6 5 6 6
REMARK Flexibility Score: inf
ROOT
ATOM      1  C   UNL     1       6.798  -2.578  -8.927  1.00  0.00     0.082 C 
ENDROOT
BRANCH   1   2
ATOM      2  C   UNL     1       5.908  -2.555  -7.665  1.00  0.00     0.228 C 
BRANCH   2   3
ATOM      3  N   UNL     1       6.569  -3.199  -6.521  1.00  0.00    -0.350 N 
ATOM      4  H   UNL     1       7.195  -3.968  -6.853  1.00  0.00     0.345 HD
ATOM      5  H   UNL     1       5.864  -3.588  -5.854  1.00  0.00     0.345 HD
ATOM      6  H   UNL     1       7.167  -2.502  -6.018  1.00  0.00     0.345 HD
ENDBRANCH   2   3
BRANCH   2   7
ATOM      7  C   UNL     1       4.602  -3.245  -7.958  1.00  0.00     0.099 C 
ATOM      8  O   UNL     1       4.560  -4.498  -8.074  1.00  0.00    -0.544 OA
ATOM      9  O   UNL     1       3.432  -2.506  -8.082  1.00  0.00    -0.544 OA
ENDBRANCH   2   7
ENDBRANCH   1   2
BRANCH   1  10
ATOM     10  C   UNL     1       7.404  -1.209  -9.247  1.00  0.00     0.076 C 
BRANCH  10  11
ATOM     11  S   UNL     1       9.143  -1.160  -8.693  1.00  0.00    -0.165 SA
ATOM     12  C   UNL     1       8.802  -0.148  -7.219  1.00  0.00     0.085 C 
ENDBRANCH  10  11
ENDBRANCH   1  10
TORSDOF 5
ENDMDL
MODEL 2
REMARK VINA RESULT:    -3.513      0.175      1.092
REMARK INTER + INTRA:          -4.573
REMARK INTER:                  -4.435
REMARK INTRA:                  -0.137
REMARK UNBOUND:                -0.135
REMARK SMILES CSCC[C@H]([NH3+])C(=O)[O-]
REMARK SMILES IDX 4 1 5 2 6 3 7 7 8 8 9 9 3 10 2 11 1 12
REMARK H PARENT 6 4 6 5 6 6
REMARK Flexibility Score: inf
ROOT
ATOM      1  C   UNL     1       6.854  -2.448  -9.054  1.00  0.00     0.082 C 
ENDROOT
BRANCH   1   2
ATOM      2  C   UNL     1       6.040  -2.480  -7.742  1.00  0.00     0.228 C 
BRANCH   2   3
ATOM      3  N   UNL     1       6.769  -3.168  -6.667  1.00  0.00    -0.350 N 
ATOM      4  H   UNL     1       6.635  -2.663  -5.761  1.00  0.00     0.345 HD
ATOM      5  H   UNL     1       7.790  -3.223  -6.886  1.00  0.00     0.345 HD
ATOM      6  H   UNL     1       6.392  -4.136  -6.545  1.00  0.00     0.345 HD
ENDBRANCH   2   3
BRANCH   2   7
ATOM      7  C   UNL     1       4.720  -3.162  -7.987  1.00  0.00     0.099 C 
ATOM      8  O   UNL     1       3.664  -2.482  -8.080  1.00  0.00    -0.544 OA
ATOM      9  O   UNL     1       4.662  -4.542  -8.132  1.00  0.00    -0.544 OA
ENDBRANCH   2   7
ENDBRANCH   1   2
BRANCH   1  10
ATOM     10  C   UNL     1       7.492  -1.081  -9.320  1.00  0.00     0.076 C 
BRANCH  10  11
ATOM     11  S   UNL     1       9.215  -1.078  -8.718  1.00  0.00    -0.165 SA
ATOM     12  C   UNL     1       8.860  -0.058  -7.253  1.00  0.00     0.085 C 
ENDBRANCH  10  11
ENDBRANCH   1  10
TORSDOF 5
ENDMDL
MODEL 3
REMARK VINA RESULT:    -3.485      1.873      2.590
REMARK INTER + INTRA:          -4.537
REMARK INTER:                  -4.287
REMARK INTRA:                  -0.250
REMARK UNBOUND:                -0.135
REMARK SMILES CSCC[C@H]([NH3+])C(=O)[O-]
REMARK SMILES IDX 4 1 5 2 6 3 7 7 8 8 9 9 3 10 2 11 1 12
REMARK H PARENT 6 4 6 5 6 6
REMARK Flexibility Score: inf
ROOT
ATOM      1  C   UNL     1       6.722  -2.380  -8.875  1.00  0.00     0.082 C 
ENDROOT
BRANCH   1   2
ATOM      2  C   UNL     1       5.863  -2.512  -7.599  1.00  0.00     0.228 C 
BRANCH   2   3
ATOM      3  N   UNL     1       6.570  -3.246  -6.540  1.00  0.00    -0.350 N 
ATOM      4  H   UNL     1       7.361  -3.794  -6.949  1.00  0.00     0.345 HD
ATOM      5  H   UNL     1       5.920  -3.894  -6.039  1.00  0.00     0.345 HD
ATOM      6  H   UNL     1       6.978  -2.572  -5.852  1.00  0.00     0.345 HD
ENDBRANCH   2   3
BRANCH   2   7
ATOM      7  C   UNL     1       4.571  -3.209  -7.933  1.00  0.00     0.099 C 
ATOM      8  O   UNL     1       4.544  -4.461  -8.066  1.00  0.00    -0.544 OA
ATOM      9  O   UNL     1       3.398  -2.479  -8.076  1.00  0.00    -0.544 OA
ENDBRANCH   2   7
ENDBRANCH   1   2
BRANCH   1  10
ATOM     10  C   UNL     1       7.902  -3.356  -8.896  1.00  0.00     0.076 C 
BRANCH  10  11
ATOM     11  S   UNL     1       7.541  -4.735 -10.035  1.00  0.00    -0.165 SA
ATOM     12  C   UNL     1       7.617  -6.018  -8.746  1.00  0.00     0.085 C 
ENDBRANCH  10  11
ENDBRANCH   1  10
TORSDOF 5
ENDMDL
MODEL 4
REMARK VINA RESULT:    -3.451      1.397      2.161
REMARK INTER + INTRA:          -4.494
REMARK INTER:                  -4.444
REMARK INTRA:                  -0.051
REMARK UNBOUND:                -0.135
REMARK SMILES CSCC[C@H]([NH3+])C(=O)[O-]
REMARK SMILES IDX 4 1 5 2 6 3 7 7 8 8 9 9 3 10 2 11 1 12
REMARK H PARENT 6 4 6 5 6 6
REMARK Flexibility Score: inf
ROOT
ATOM      1  C   UNL     1       6.861  -2.740  -8.958  1.00  0.00     0.082 C 
ENDROOT
BRANCH   1   2
ATOM      2  C   UNL     1       5.979  -2.577  -7.700  1.00  0.00     0.228 C 
BRANCH   2   3
ATOM      3  N   UNL     1       6.612  -3.165  -6.511  1.00  0.00    -0.350 N 
ATOM      4  H   UNL     1       6.050  -3.977  -6.168  1.00  0.00     0.345 HD
ATOM      5  H   UNL     1       6.700  -2.455  -5.747  1.00  0.00     0.345 HD
ATOM      6  H   UNL     1       7.565  -3.523  -6.756  1.00  0.00     0.345 HD
ENDBRANCH   2   3
BRANCH   2   7
ATOM      7  C   UNL     1       4.639  -3.221  -7.940  1.00  0.00     0.099 C 
ATOM      8  O   UNL     1       3.610  -2.508  -8.080  1.00  0.00    -0.544 OA
ATOM      9  O   UNL     1       4.532  -4.603  -8.029  1.00  0.00    -0.544 OA
ENDBRANCH   2   7
ENDBRANCH   1   2
BRANCH   1  10
ATOM     10  C   UNL     1       7.276  -1.398  -9.566  1.00  0.00     0.076 C 
BRANCH  10  11
ATOM     11  S   UNL     1       8.002  -1.667 -11.218  1.00  0.00    -0.165 SA
ATOM     12  C   UNL     1       7.483  -0.052 -11.875  1.00  0.00     0.085 C 
ENDBRANCH  10  11
ENDBRANCH   1  10
TORSDOF 5
ENDMDL
MODEL 5
REMARK VINA RESULT:    -3.275      1.708      1.858
REMARK INTER + INTRA:          -4.271
REMARK INTER:                  -4.153
REMARK INTRA:                  -0.118
REMARK UNBOUND:                -0.135
REMARK SMILES CSCC[C@H]([NH3+])C(=O)[O-]
REMARK SMILES IDX 4 1 5 2 6 3 7 7 8 8 9 9 3 10 2 11 1 12
REMARK H PARENT 6 4 6 5 6 6
REMARK Flexibility Score: inf
ROOT
ATOM      1  C   UNL     1       7.052  -3.093  -6.816  1.00  0.00     0.082 C 
ENDROOT
BRANCH   1   2
ATOM      2  C   UNL     1       6.143  -2.942  -8.056  1.00  0.00     0.228 C 
BRANCH   2   3
ATOM      3  N   UNL     1       6.352  -1.653  -8.730  1.00  0.00    -0.350 N 
ATOM      4  H   UNL     1       5.501  -1.393  -9.280  1.00  0.00     0.345 HD
ATOM      5  H   UNL     1       7.179  -1.697  -9.369  1.00  0.00     0.345 HD
ATOM      6  H   UNL     1       6.508  -0.901  -8.019  1.00  0.00     0.345 HD
ENDBRANCH   2   3
BRANCH   2   7
ATOM      7  C   UNL     1       4.702  -3.078  -7.641  1.00  0.00     0.099 C 
ATOM      8  O   UNL     1       4.366  -3.950  -6.796  1.00  0.00    -0.544 OA
ATOM      9  O   UNL     1       3.738  -2.229  -8.170  1.00  0.00    -0.544 OA
ENDBRANCH   2   7
ENDBRANCH   1   2
BRANCH   1  10
ATOM     10  C   UNL     1       8.538  -2.935  -7.151  1.00  0.00     0.076 C 
BRANCH  10  11
ATOM     11  S   UNL     1       9.234  -1.528  -6.220  1.00  0.00    -0.165 SA
ATOM     12  C   UNL     1       9.771  -0.618  -7.702  1.00  0.00     0.085 C 
ENDBRANCH  10  11
ENDBRANCH   1  10
TORSDOF 5
ENDMDL
MODEL 6
REMARK VINA RESULT:    -3.185      2.837      3.315
REMARK INTER + INTRA:          -4.158
REMARK INTER:                  -3.991
REMARK INTRA:                  -0.168
REMARK UNBOUND:                -0.135
REMARK SMILES CSCC[C@H]([NH3+])C(=O)[O-]
REMARK SMILES IDX 4 1 5 2 6 3 7 7 8 8 9 9 3 10 2 11 1 12
REMARK H PARENT 6 4 6 5 6 6
REMARK Flexibility Score: inf
ROOT
ATOM      1  C   UNL     1       6.519  -4.810  -9.504  1.00  0.00     0.082 C 
ENDROOT
BRANCH   1   2
ATOM      2  C   UNL     1       5.976  -4.263  -8.165  1.00  0.00     0.228 C 
BRANCH   2   3
ATOM      3  N   UNL     1       4.858  -5.073  -7.660  1.00  0.00    -0.350 N 
ATOM      4  H   UNL     1       5.003  -6.079  -7.907  1.00  0.00     0.345 HD
ATOM      5  H   UNL     1       3.949  -4.744  -8.061  1.00  0.00     0.345 HD
ATOM      6  H   UNL     1       4.815  -5.008  -6.617  1.00  0.00     0.345 HD
ENDBRANCH   2   3
BRANCH   2   7
ATOM      7  C   UNL     1       5.534  -2.835  -8.349  1.00  0.00     0.099 C 
ATOM      8  O   UNL     1       6.309  -1.996  -8.880  1.00  0.00    -0.544 OA
ATOM      9  O   UNL     1       4.262  -2.439  -7.954  1.00  0.00    -0.544 OA
ENDBRANCH   2   7
ENDBRANCH   1   2
BRANCH   1  10
ATOM     10  C   UNL     1       7.991  -5.222  -9.418  1.00  0.00     0.076 C 
BRANCH  10  11
ATOM     11  S   UNL     1       8.665  -4.770  -7.784  1.00  0.00    -0.165 SA
ATOM     12  C   UNL     1       9.088  -6.477  -7.318  1.00  0.00     0.085 C 
ENDBRANCH  10  11
ENDBRANCH   1  10
TORSDOF 5
ENDMDL
MODEL 7
REMARK VINA RESULT:    -3.153     14.039     14.657
REMARK INTER + INTRA:          -4.117
REMARK INTER:                  -3.904
REMARK INTRA:                  -0.213
REMARK UNBOUND:                -0.135
REMARK SMILES CSCC[C@H]([NH3+])C(=O)[O-]
REMARK SMILES IDX 4 1 5 2 6 3 7 7 8 8 9 9 3 10 2 11 1 12
REMARK H PARENT 6 4 6 5 6 6
REMARK Flexibility Score: inf
ROOT
ATOM      1  C   UNL     1       2.776  -2.428   6.036  1.00  0.00     0.082 C 
ENDROOT
BRANCH   1   2
ATOM      2  C   UNL     1       4.069  -2.167   5.232  1.00  0.00     0.228 C 
BRANCH   2   3
ATOM      3  N   UNL     1       3.810  -1.354   4.035  1.00  0.00    -0.350 N 
ATOM      4  H   UNL     1       3.330  -1.930   3.306  1.00  0.00     0.345 HD
ATOM      5  H   UNL     1       4.703  -0.973   3.644  1.00  0.00     0.345 HD
ATOM      6  H   UNL     1       3.175  -0.559   4.275  1.00  0.00     0.345 HD
ENDBRANCH   2   3
BRANCH   2   7
ATOM      7  C   UNL     1       4.689  -3.481   4.838  1.00  0.00     0.099 C 
ATOM      8  O   UNL     1       3.958  -4.466   4.554  1.00  0.00    -0.544 OA
ATOM      9  O   UNL     1       6.070  -3.609   4.763  1.00  0.00    -0.544 OA
ENDBRANCH   2   7
ENDBRANCH   1   2
BRANCH   1  10
ATOM     10  C   UNL     1       3.051  -2.757   7.506  1.00  0.00     0.076 C 
BRANCH  10  11
ATOM     11  S   UNL     1       2.423  -4.426   7.892  1.00  0.00    -0.165 SA
ATOM     12  C   UNL     1       1.054  -4.352   6.696  1.00  0.00     0.085 C 
ENDBRANCH  10  11
ENDBRANCH   1  10
TORSDOF 5
ENDMDL
MODEL 8
REMARK VINA RESULT:    -3.123     13.917     14.613
REMARK INTER + INTRA:          -4.079
REMARK INTER:                  -3.945
REMARK INTRA:                  -0.134
REMARK UNBOUND:                -0.135
REMARK SMILES CSCC[C@H]([NH3+])C(=O)[O-]
REMARK SMILES IDX 4 1 5 2 6 3 7 7 8 8 9 9 3 10 2 11 1 12
REMARK H PARENT 6 4 6 5 6 6
REMARK Flexibility Score: inf
ROOT
ATOM      1  C   UNL     1       4.189  -4.621   5.940  1.00  0.00     0.082 C 
ENDROOT
BRANCH   1   2
ATOM      2  C   UNL     1       4.453  -3.595   4.816  1.00  0.00     0.228 C 
BRANCH   2   3
ATOM      3  N   UNL     1       5.888  -3.318   4.658  1.00  0.00    -0.350 N 
ATOM      4  H   UNL     1       6.353  -3.281   5.594  1.00  0.00     0.345 HD
ATOM      5  H   UNL     1       6.039  -2.412   4.158  1.00  0.00     0.345 HD
ATOM      6  H   UNL     1       6.340  -4.089   4.113  1.00  0.00     0.345 HD
ENDBRANCH   2   3
BRANCH   2   7
ATOM      7  C   UNL     1       3.714  -2.319   5.118  1.00  0.00     0.099 C 
ATOM      8  O   UNL     1       3.511  -1.972   6.312  1.00  0.00    -0.544 OA
ATOM      9  O   UNL     1       3.269  -1.505   4.084  1.00  0.00    -0.544 OA
ENDBRANCH   2   7
ENDBRANCH   1   2
BRANCH   1  10
ATOM     10  C   UNL     1       2.947  -5.478   5.678  1.00  0.00     0.076 C 
BRANCH  10  11
ATOM     11  S   UNL     1       1.764  -5.286   7.055  1.00  0.00    -0.165 SA
ATOM     12  C   UNL     1       0.453  -6.270   6.264  1.00  0.00     0.085 C 
ENDBRANCH  10  11
ENDBRANCH   1  10
TORSDOF 5
ENDMDL
MODEL 9
REMARK VINA RESULT:    -3.104     13.531     14.038
REMARK INTER + INTRA:          -4.055
REMARK INTER:                  -3.911
REMARK INTRA:                  -0.144
REMARK UNBOUND:                -0.135
REMARK SMILES CSCC[C@H]([NH3+])C(=O)[O-]
REMARK SMILES IDX 4 1 5 2 6 3 7 7 8 8 9 9 3 10 2 11 1 12
REMARK H PARENT 6 4 6 5 6 6
REMARK Flexibility Score: inf
ROOT
ATOM      1  C   UNL     1       3.684  -4.638   5.516  1.00  0.00     0.082 C 
ENDROOT
BRANCH   1   2
ATOM      2  C   UNL     1       4.159  -3.588   4.487  1.00  0.00     0.228 C 
BRANCH   2   3
ATOM      3  N   UNL     1       5.577  -3.247   4.674  1.00  0.00    -0.350 N 
ATOM      4  H   UNL     1       5.936  -3.672   5.559  1.00  0.00     0.345 HD
ATOM      5  H   UNL     1       5.708  -2.210   4.708  1.00  0.00     0.345 HD
ATOM      6  H   UNL     1       6.143  -3.638   3.885  1.00  0.00     0.345 HD
ENDBRANCH   2   3
BRANCH   2   7
ATOM      7  C   UNL     1       3.312  -2.350   4.606  1.00  0.00     0.099 C 
ATOM      8  O   UNL     1       2.650  -2.134   5.656  1.00  0.00    -0.544 OA
ATOM      9  O   UNL     1       3.272  -1.426   3.569  1.00  0.00    -0.544 OA
ENDBRANCH   2   7
ENDBRANCH   1   2
BRANCH   1  10
ATOM     10  C   UNL     1       4.689  -4.848   6.652  1.00  0.00     0.076 C 
BRANCH  10  11
ATOM     11  S   UNL     1       5.242  -6.587   6.673  1.00  0.00    -0.165 SA
ATOM     12  C   UNL     1       6.987  -6.194   6.339  1.00  0.00     0.085 C 
ENDBRANCH  10  11
ENDBRANCH   1  10
TORSDOF 5
ENDMDL
