MODEL 1
REMARK VINA RESULT:    -2.620      0.000      0.000
REMARK INTER + INTRA:          -3.539
REMARK INTER:                  -3.233
REMARK INTRA:                  -0.306
REMARK UNBOUND:                -0.306
REMARK SMILES CCCCC(=O)CC
REMARK SMILES IDX 4 1 3 2 2 3 1 4 5 5 6 6 7 7 8 8
REMARK H PARENT
REMARK Flexibility Score: inf
ROOT
ATOM      1  C   UNL     1      -7.958  21.894  13.207  1.00  0.00     0.075 C 
ENDROOT
BRANCH   1   2
ATOM      2  C   UNL     1      -8.736  20.618  13.560  1.00  0.00     0.008 C 
BRANCH   2   3
ATOM      3  C   UNL     1      -9.694  20.191  12.439  1.00  0.00    -0.003 C 
ATOM      4  C   UNL     1     -10.376  21.400  11.806  1.00  0.00     0.004 C 
ENDBRANCH   2   3
ENDBRANCH   1   2
BRANCH   1   5
ATOM      5  C   UNL     1      -6.750  21.614  12.348  1.00  0.00     0.132 C 
ATOM      6  O   UNL     1      -6.144  20.561  12.487  1.00  0.00    -0.300 OA
BRANCH   5   7
ATOM      7  C   UNL     1      -6.307  22.584  11.283  1.00  0.00     0.072 C 
ATOM      8  C   UNL     1      -6.793  22.152   9.904  1.00  0.00     0.012 C 
ENDBRANCH   5   7
ENDBRANCH   1   5
TORSDOF 4
ENDMDL
MODEL 2
REMARK VINA RESULT:    -2.586      1.158      1.626
REMARK INTER + INTRA:          -3.497
REMARK INTER:                  -3.316
REMARK INTRA:                  -0.180
REMARK UNBOUND:                -0.306
REMARK SMILES CCCCC(=O)CC
REMARK SMILES IDX 4 1 3 2 2 3 1 4 5 5 6 6 7 7 8 8
REMARK H PARENT
REMARK Flexibility Score: inf
ROOT
ATOM      1  C   UNL     1      -6.713  21.303  12.437  1.00  0.00     0.075 C 
ENDROOT
BRANCH   1   2
ATOM      2  C   UNL     1      -8.089  21.584  13.059  1.00  0.00     0.008 C 
BRANCH   2   3
ATOM      3  C   UNL     1      -8.850  20.295  13.398  1.00  0.00    -0.003 C 
ATOM      4  C   UNL     1      -9.978  20.043  12.401  1.00  0.00     0.004 C 
ENDBRANCH   2   3
ENDBRANCH   1   2
BRANCH   1   5
ATOM      5  C   UNL     1      -6.441  22.161  11.227  1.00  0.00     0.132 C 
ATOM      6  O   UNL     1      -5.381  22.764  11.142  1.00  0.00    -0.300 OA
BRANCH   5   7
ATOM      7  C   UNL     1      -7.430  22.245  10.092  1.00  0.00     0.072 C 
ATOM      8  C   UNL     1      -6.721  22.275   8.742  1.00  0.00     0.012 C 
ENDBRANCH   5   7
ENDBRANCH   1   5
TORSDOF 4
ENDMDL
MODEL 3
REMARK VINA RESULT:    -2.534      0.978      1.591
REMARK INTER + INTRA:          -3.433
REMARK INTER:                  -3.288
REMARK INTRA:                  -0.145
REMARK UNBOUND:                -0.306
REMARK SMILES CCCCC(=O)CC
REMARK SMILES IDX 4 1 3 2 2 3 1 4 5 5 6 6 7 7 8 8
REMARK H PARENT
REMARK Flexibility Score: inf
ROOT
ATOM      1  C   UNL     1      -8.331  21.576  12.355  1.00  0.00     0.075 C 
ENDROOT
BRANCH   1   2
ATOM      2  C   UNL     1      -8.720  20.428  13.298  1.00  0.00     0.008 C 
BRANCH   2   3
ATOM      3  C   UNL     1      -9.498  20.920  14.526  1.00  0.00    -0.003 C 
ATOM      4  C   UNL     1      -8.850  22.163  15.128  1.00  0.00     0.004 C 
ENDBRANCH   2   3
ENDBRANCH   1   2
BRANCH   1   5
ATOM      5  C   UNL     1      -6.859  21.577  12.024  1.00  0.00     0.132 C 
ATOM      6  O   UNL     1      -6.127  20.743  12.536  1.00  0.00    -0.300 OA
BRANCH   5   7
ATOM      7  C   UNL     1      -6.284  22.552  11.029  1.00  0.00     0.072 C 
ATOM      8  C   UNL     1      -6.737  22.228   9.610  1.00  0.00     0.012 C 
ENDBRANCH   5   7
ENDBRANCH   1   5
TORSDOF 4
ENDMDL
MODEL 4
REMARK VINA RESULT:    -2.515      1.120      4.027
REMARK INTER + INTRA:          -3.409
REMARK INTER:                  -3.251
REMARK INTRA:                  -0.159
REMARK UNBOUND:                -0.306
REMARK SMILES CCCCC(=O)CC
REMARK SMILES IDX 4 1 3 2 2 3 1 4 5 5 6 6 7 7 8 8
REMARK H PARENT
REMARK Flexibility Score: inf
ROOT
ATOM      1  C   UNL     1      -7.401  22.501  11.335  1.00  0.00     0.075 C 
ENDROOT
BRANCH   1   2
ATOM      2  C   UNL     1      -6.490  22.203  10.136  1.00  0.00     0.008 C 
BRANCH   2   3
ATOM      3  C   UNL     1      -5.572  23.384   9.792  1.00  0.00    -0.003 C 
ATOM      4  C   UNL     1      -4.544  23.623  10.895  1.00  0.00     0.004 C 
ENDBRANCH   2   3
ENDBRANCH   1   2
BRANCH   1   5
ATOM      5  C   UNL     1      -7.247  21.490  12.443  1.00  0.00     0.132 C 
ATOM      6  O   UNL     1      -6.239  20.799  12.492  1.00  0.00    -0.300 OA
BRANCH   5   7
ATOM      7  C   UNL     1      -8.288  21.351  13.524  1.00  0.00     0.072 C 
ATOM      8  C   UNL     1      -9.107  20.077  13.344  1.00  0.00     0.012 C 
ENDBRANCH   5   7
ENDBRANCH   1   5
TORSDOF 4
ENDMDL
MODEL 5
REMARK VINA RESULT:    -2.481      1.563      3.460
REMARK INTER + INTRA:          -3.367
REMARK INTER:                  -3.062
REMARK INTRA:                  -0.305
REMARK UNBOUND:                -0.306
REMARK SMILES CCCCC(=O)CC
REMARK SMILES IDX 4 1 3 2 2 3 1 4 5 5 6 6 7 7 8 8
REMARK H PARENT
REMARK Flexibility Score: inf
ROOT
ATOM      1  C   UNL     1      -7.960  22.103  13.153  1.00  0.00     0.075 C 
ENDROOT
BRANCH   1   2
ATOM      2  C   UNL     1      -6.798  21.438  12.401  1.00  0.00     0.008 C 
BRANCH   2   3
ATOM      3  C   UNL     1      -6.517  22.110  11.050  1.00  0.00    -0.003 C 
ATOM      4  C   UNL     1      -7.785  22.199  10.204  1.00  0.00     0.004 C 
ENDBRANCH   2   3
ENDBRANCH   1   2
BRANCH   1   5
ATOM      5  C   UNL     1      -8.751  21.118  13.979  1.00  0.00     0.132 C 
ATOM      6  O   UNL     1      -8.959  21.354  15.160  1.00  0.00    -0.300 OA
BRANCH   5   7
ATOM      7  C   UNL     1      -9.337  19.875  13.361  1.00  0.00     0.072 C 
ATOM      8  C   UNL     1     -10.246  20.217  12.185  1.00  0.00     0.012 C 
ENDBRANCH   5   7
ENDBRANCH   1   5
TORSDOF 4
ENDMDL
MODEL 6
REMARK VINA RESULT:    -2.426      1.729      3.258
REMARK INTER + INTRA:          -3.299
REMARK INTER:                  -2.903
REMARK INTRA:                  -0.396
REMARK UNBOUND:                -0.306
REMARK SMILES CCCCC(=O)CC
REMARK SMILES IDX 4 1 3 2 2 3 1 4 5 5 6 6 7 7 8 8
REMARK H PARENT
REMARK Flexibility Score: inf
ROOT
ATOM      1  C   UNL     1      -7.160  23.111  12.660  1.00  0.00     0.075 C 
ENDROOT
BRANCH   1   2
ATOM      2  C   UNL     1      -8.171  23.756  13.620  1.00  0.00     0.008 C 
BRANCH   2   3
ATOM      3  C   UNL     1      -7.914  23.369  15.083  1.00  0.00    -0.003 C 
ATOM      4  C   UNL     1      -9.213  22.993  15.790  1.00  0.00     0.004 C 
ENDBRANCH   2   3
ENDBRANCH   1   2
BRANCH   1   5
ATOM      5  C   UNL     1      -7.387  21.630  12.493  1.00  0.00     0.132 C 
ATOM      6  O   UNL     1      -6.432  20.867  12.525  1.00  0.00    -0.300 OA
BRANCH   5   7
ATOM      7  C   UNL     1      -8.776  21.065  12.342  1.00  0.00     0.072 C 
ATOM      8  C   UNL     1      -9.089  20.061  13.446  1.00  0.00     0.012 C 
ENDBRANCH   5   7
ENDBRANCH   1   5
TORSDOF 4
ENDMDL
MODEL 7
REMARK VINA RESULT:    -2.417      2.676      3.943
REMARK INTER + INTRA:          -3.288
REMARK INTER:                  -3.096
REMARK INTRA:                  -0.192
REMARK UNBOUND:                -0.306
REMARK SMILES CCCCC(=O)CC
REMARK SMILES IDX 4 1 3 2 2 3 1 4 5 5 6 6 7 7 8 8
REMARK H PARENT
REMARK Flexibility Score: inf
ROOT
ATOM      1  C   UNL     1      -5.770  23.687   9.895  1.00  0.00     0.075 C 
ENDROOT
BRANCH   1   2
ATOM      2  C   UNL     1      -6.399  22.290   9.991  1.00  0.00     0.008 C 
BRANCH   2   3
ATOM      3  C   UNL     1      -7.418  22.186  11.133  1.00  0.00    -0.003 C 
ATOM      4  C   UNL     1      -6.822  21.466  12.340  1.00  0.00     0.004 C 
ENDBRANCH   2   3
ENDBRANCH   1   2
BRANCH   1   5
ATOM      5  C   UNL     1      -4.310  23.691  10.275  1.00  0.00     0.132 C 
ATOM      6  O   UNL     1      -3.969  23.236  11.358  1.00  0.00    -0.300 OA
BRANCH   5   7
ATOM      7  C   UNL     1      -3.256  24.194   9.323  1.00  0.00     0.072 C 
ATOM      8  C   UNL     1      -3.554  23.766   7.890  1.00  0.00     0.012 C 
ENDBRANCH   5   7
ENDBRANCH   1   5
TORSDOF 4
ENDMDL
MODEL 8
REMARK VINA RESULT:    -2.402      3.771      5.035
REMARK INTER + INTRA:          -3.270
REMARK INTER:                  -2.930
REMARK INTRA:                  -0.340
REMARK UNBOUND:                -0.306
REMARK SMILES CCCCC(=O)CC
REMARK SMILES IDX 4 1 3 2 2 3 1 4 5 5 6 6 7 7 8 8
REMARK H PARENT
REMARK Flexibility Score: inf
ROOT
ATOM      1  C   UNL     1      -3.752  23.680  11.092  1.00  0.00     0.075 C 
ENDROOT
BRANCH   1   2
ATOM      2  C   UNL     1      -5.267  23.925  11.046  1.00  0.00     0.008 C 
BRANCH   2   3
ATOM      3  C   UNL     1      -6.069  22.617  10.982  1.00  0.00    -0.003 C 
ATOM      4  C   UNL     1      -6.581  22.354   9.569  1.00  0.00     0.004 C 
ENDBRANCH   2   3
ENDBRANCH   1   2
BRANCH   1   5
ATOM      5  C   UNL     1      -2.996  24.554  10.123  1.00  0.00     0.132 C 
ATOM      6  O   UNL     1      -1.884  24.963  10.423  1.00  0.00    -0.300 OA
BRANCH   5   7
ATOM      7  C   UNL     1      -3.563  24.888   8.767  1.00  0.00     0.072 C 
ATOM      8  C   UNL     1      -3.438  23.708   7.809  1.00  0.00     0.012 C 
ENDBRANCH   5   7
ENDBRANCH   1   5
TORSDOF 4
ENDMDL
MODEL 9
REMARK VINA RESULT:    -2.380      2.243      3.971
REMARK INTER + INTRA:          -3.242
REMARK INTER:                  -2.923
REMARK INTRA:                  -0.319
REMARK UNBOUND:                -0.306
REMARK SMILES CCCCC(=O)CC
REMARK SMILES IDX 4 1 3 2 2 3 1 4 5 5 6 6 7 7 8 8
REMARK H PARENT
REMARK Flexibility Score: inf
ROOT
ATOM      1  C   UNL     1      -8.689  20.527  13.604  1.00  0.00     0.075 C 
ENDROOT
BRANCH   1   2
ATOM      2  C   UNL     1      -8.204  21.331  12.389  1.00  0.00     0.008 C 
BRANCH   2   3
ATOM      3  C   UNL     1      -6.673  21.425  12.325  1.00  0.00    -0.003 C 
ATOM      4  C   UNL     1      -6.227  22.758  11.733  1.00  0.00     0.004 C 
ENDBRANCH   2   3
ENDBRANCH   1   2
BRANCH   1   5
ATOM      5  C   UNL     1      -9.375  21.393  14.632  1.00  0.00     0.132 C 
ATOM      6  O   UNL     1     -10.081  20.871  15.483  1.00  0.00    -0.300 OA
BRANCH   5   7
ATOM      7  C   UNL     1      -9.164  22.885  14.662  1.00  0.00     0.072 C 
ATOM      8  C   UNL     1      -8.029  23.264  15.607  1.00  0.00     0.012 C 
ENDBRANCH   5   7
ENDBRANCH   1   5
TORSDOF 4
ENDMDL
