MODEL 1
REMARK VINA RESULT:    -3.619      0.000      0.000
REMARK INTER + INTRA:          -9.100
REMARK INTER:                  -6.792
REMARK INTRA:                  -2.308
REMARK UNBOUND:                -2.308
REMARK SMILES CCCCCCCCC=CCCCCCCCC(=O)[O-]
REMARK SMILES IDX 10 1 9 2 11 3 12 4 13 5 14 6 15 7 16 8 17 9 18 10 19 11
REMARK SMILES IDX 20 12 8 13 7 14 6 15 5 16 4 17 3 18 2 19 1 20
REMARK H PARENT
REMARK Flexibility Score: inf
ROOT
ATOM      1  C   UNL     1     143.001 137.823 141.980  1.00  0.00    -0.031 C 
ATOM      2  C   UNL     1     141.919 138.080 142.739  1.00  0.00    -0.031 C 
ENDROOT
BRANCH   1   3
ATOM      3  C   UNL     1     142.978 137.651 140.481  1.00  0.00     0.027 C 
BRANCH   3   4
ATOM      4  C   UNL     1     142.932 136.171 140.071  1.00  0.00     0.004 C 
BRANCH   4   5
ATOM      5  C   UNL     1     141.536 135.750 139.580  1.00  0.00     0.000 C 
BRANCH   5   6
ATOM      6  C   UNL     1     141.069 134.422 140.198  1.00  0.00     0.000 C 
BRANCH   6   7
ATOM      7  C   UNL     1     139.886 134.602 141.162  1.00  0.00     0.000 C 
BRANCH   7   8
ATOM      8  C   UNL     1     138.608 134.975 140.400  1.00  0.00     0.006 C 
BRANCH   8   9
ATOM      9  C   UNL     1     138.162 133.830 139.487  1.00  0.00     0.053 C 
BRANCH   9  10
ATOM     10  C   UNL     1     136.755 133.426 139.801  1.00  0.00     0.041 C 
ATOM     11  O   UNL     1     135.837 133.625 138.963  1.00  0.00    -0.550 OA
ATOM     12  O   UNL     1     136.450 132.870 141.038  1.00  0.00    -0.550 OA
ENDBRANCH   9  10
ENDBRANCH   8   9
ENDBRANCH   7   8
ENDBRANCH   6   7
ENDBRANCH   5   6
ENDBRANCH   4   5
ENDBRANCH   3   4
ENDBRANCH   1   3
BRANCH   2  13
ATOM     13  C   UNL     1     140.505 138.141 142.222  1.00  0.00     0.027 C 
BRANCH  13  14
ATOM     14  C   UNL     1     139.535 137.494 143.222  1.00  0.00     0.004 C 
BRANCH  14  15
ATOM     15  C   UNL     1     138.062 137.736 142.857  1.00  0.00     0.000 C 
BRANCH  15  16
ATOM     16  C   UNL     1     137.162 137.883 144.096  1.00  0.00     0.000 C 
BRANCH  16  17
ATOM     17  C   UNL     1     136.165 136.711 144.235  1.00  0.00    -0.000 C 
BRANCH  17  18
ATOM     18  C   UNL     1     136.161 135.761 143.025  1.00  0.00    -0.000 C 
BRANCH  18  19
ATOM     19  C   UNL     1     134.835 135.780 142.254  1.00  0.00    -0.003 C 
ATOM     20  C   UNL     1     134.914 136.712 141.048  1.00  0.00     0.004 C 
ENDBRANCH  18  19
ENDBRANCH  17  18
ENDBRANCH  16  17
ENDBRANCH  15  16
ENDBRANCH  14  15
ENDBRANCH  13  14
ENDBRANCH   2  13
TORSDOF 15
ENDMDL
MODEL 2
REMARK VINA RESULT:    -3.576      1.453      4.896
REMARK INTER + INTRA:          -9.020
REMARK INTER:                  -6.489
REMARK INTRA:                  -2.531
REMARK UNBOUND:                -2.308
REMARK SMILES CCCCCCCCC=CCCCCCCCC(=O)[O-]
REMARK SMILES IDX 10 1 9 2 11 3 12 4 13 5 14 6 15 7 16 8 17 9 18 10 19 11
REMARK SMILES IDX 20 12 8 13 7 14 6 15 5 16 4 17 3 18 2 19 1 20
REMARK H PARENT
REMARK Flexibility Score: inf
ROOT
ATOM      1  C   UNL     1     139.806 137.529 142.857  1.00  0.00    -0.031 C 
ATOM      2  C   UNL     1     140.695 138.326 142.237  1.00  0.00    -0.031 C 
ENDROOT
BRANCH   1   3
ATOM      3  C   UNL     1     140.170 136.388 143.776  1.00  0.00     0.027 C 
BRANCH   3   4
ATOM      4  C   UNL     1     139.044 136.067 144.771  1.00  0.00     0.004 C 
BRANCH   4   5
ATOM      5  C   UNL     1     137.987 137.183 144.829  1.00  0.00     0.000 C 
BRANCH   5   6
ATOM      6  C   UNL     1     136.551 136.640 144.743  1.00  0.00     0.000 C 
BRANCH   6   7
ATOM      7  C   UNL     1     136.481 135.253 144.084  1.00  0.00     0.000 C 
BRANCH   7   8
ATOM      8  C   UNL     1     135.469 135.243 142.932  1.00  0.00     0.006 C 
BRANCH   8   9
ATOM      9  C   UNL     1     135.404 136.610 142.248  1.00  0.00     0.053 C 
BRANCH   9  10
ATOM     10  C   UNL     1     134.730 136.500 140.915  1.00  0.00     0.041 C 
ATOM     11  O   UNL     1     134.211 137.516 140.384  1.00  0.00    -0.550 OA
ATOM     12  O   UNL     1     134.636 135.267 140.283  1.00  0.00    -0.550 OA
ENDBRANCH   9  10
ENDBRANCH   8   9
ENDBRANCH   7   8
ENDBRANCH   6   7
ENDBRANCH   5   6
ENDBRANCH   4   5
ENDBRANCH   3   4
ENDBRANCH   1   3
BRANCH   2  13
ATOM     13  C   UNL     1     142.191 138.145 142.288  1.00  0.00     0.027 C 
BRANCH  13  14
ATOM     14  C   UNL     1     142.745 137.829 140.891  1.00  0.00     0.004 C 
BRANCH  14  15
ATOM     15  C   UNL     1     142.729 136.326 140.576  1.00  0.00     0.000 C 
BRANCH  15  16
ATOM     16  C   UNL     1     142.173 136.020 139.174  1.00  0.00     0.000 C 
BRANCH  16  17
ATOM     17  C   UNL     1     141.128 134.884 139.195  1.00  0.00    -0.000 C 
BRANCH  17  18
ATOM     18  C   UNL     1     140.587 134.572 140.602  1.00  0.00    -0.000 C 
BRANCH  18  19
ATOM     19  C   UNL     1     139.076 134.304 140.616  1.00  0.00    -0.003 C 
ATOM     20  C   UNL     1     138.290 135.575 140.307  1.00  0.00     0.004 C 
ENDBRANCH  18  19
ENDBRANCH  17  18
ENDBRANCH  16  17
ENDBRANCH  15  16
ENDBRANCH  14  15
ENDBRANCH  13  14
ENDBRANCH   2  13
TORSDOF 15
ENDMDL
MODEL 3
REMARK VINA RESULT:    -3.495      1.341      4.554
REMARK INTER + INTRA:          -8.868
REMARK INTER:                  -6.032
REMARK INTRA:                  -2.836
REMARK UNBOUND:                -2.308
REMARK SMILES CCCCCCCCC=CCCCCCCCC(=O)[O-]
REMARK SMILES IDX 10 1 9 2 11 3 12 4 13 5 14 6 15 7 16 8 17 9 18 10 19 11
REMARK SMILES IDX 20 12 8 13 7 14 6 15 5 16 4 17 3 18 2 19 1 20
REMARK H PARENT
REMARK Flexibility Score: inf
ROOT
ATOM      1  C   UNL     1     139.546 137.821 142.363  1.00  0.00    -0.031 C 
ATOM      2  C   UNL     1     140.768 138.232 141.974  1.00  0.00    -0.031 C 
ENDROOT
BRANCH   1   3
ATOM      3  C   UNL     1     139.195 137.379 143.763  1.00  0.00     0.027 C 
BRANCH   3   4
ATOM      4  C   UNL     1     137.720 137.647 144.100  1.00  0.00     0.004 C 
BRANCH   4   5
ATOM      5  C   UNL     1     136.791 137.344 142.912  1.00  0.00     0.000 C 
BRANCH   5   6
ATOM      6  C   UNL     1     136.056 136.002 143.065  1.00  0.00     0.000 C 
BRANCH   6   7
ATOM      7  C   UNL     1     136.851 134.823 142.482  1.00  0.00     0.000 C 
BRANCH   7   8
ATOM      8  C   UNL     1     137.171 135.056 141.000  1.00  0.00     0.006 C 
BRANCH   8   9
ATOM      9  C   UNL     1     136.195 134.291 140.102  1.00  0.00     0.053 C 
BRANCH   9  10
ATOM     10  C   UNL     1     136.940 133.462 139.103  1.00  0.00     0.041 C 
ATOM     11  O   UNL     1     136.640 133.522 137.881  1.00  0.00    -0.550 OA
ATOM     12  O   UNL     1     137.935 132.589 139.525  1.00  0.00    -0.550 OA
ENDBRANCH   9  10
ENDBRANCH   8   9
ENDBRANCH   7   8
ENDBRANCH   6   7
ENDBRANCH   5   6
ENDBRANCH   4   5
ENDBRANCH   3   4
ENDBRANCH   1   3
BRANCH   2  13
ATOM     13  C   UNL     1     141.994 138.226 142.850  1.00  0.00     0.027 C 
BRANCH  13  14
ATOM     14  C   UNL     1     142.831 136.963 142.600  1.00  0.00     0.004 C 
BRANCH  14  15
ATOM     15  C   UNL     1     142.519 135.839 143.600  1.00  0.00     0.000 C 
BRANCH  15  16
ATOM     16  C   UNL     1     142.295 134.480 142.915  1.00  0.00     0.000 C 
BRANCH  16  17
ATOM     17  C   UNL     1     140.907 134.386 142.246  1.00  0.00    -0.000 C 
BRANCH  17  18
ATOM     18  C   UNL     1     140.970 134.071 140.741  1.00  0.00    -0.000 C 
BRANCH  18  19
ATOM     19  C   UNL     1     140.644 135.286 139.862  1.00  0.00    -0.003 C 
ATOM     20  C   UNL     1     141.908 135.864 139.233  1.00  0.00     0.004 C 
ENDBRANCH  18  19
ENDBRANCH  17  18
ENDBRANCH  16  17
ENDBRANCH  15  16
ENDBRANCH  14  15
ENDBRANCH  13  14
ENDBRANCH   2  13
TORSDOF 15
ENDMDL
MODEL 4
REMARK VINA RESULT:    -3.491      3.032      5.031
REMARK INTER + INTRA:          -8.861
REMARK INTER:                  -6.062
REMARK INTRA:                  -2.798
REMARK UNBOUND:                -2.308
REMARK SMILES CCCCCCCCC=CCCCCCCCC(=O)[O-]
REMARK SMILES IDX 10 1 9 2 11 3 12 4 13 5 14 6 15 7 16 8 17 9 18 10 19 11
REMARK SMILES IDX 20 12 8 13 7 14 6 15 5 16 4 17 3 18 2 19 1 20
REMARK H PARENT
REMARK Flexibility Score: inf
ROOT
ATOM      1  C   UNL     1     139.392 137.446 143.665  1.00  0.00    -0.031 C 
ATOM      2  C   UNL     1     138.169 137.461 144.227  1.00  0.00    -0.031 C 
ENDROOT
BRANCH   1   3
ATOM      3  C   UNL     1     139.698 137.911 142.262  1.00  0.00     0.027 C 
BRANCH   3   4
ATOM      4  C   UNL     1     141.164 138.343 142.103  1.00  0.00     0.004 C 
BRANCH   4   5
ATOM      5  C   UNL     1     142.125 137.418 142.868  1.00  0.00     0.000 C 
BRANCH   5   6
ATOM      6  C   UNL     1     142.872 136.446 141.939  1.00  0.00     0.000 C 
BRANCH   6   7
ATOM      7  C   UNL     1     143.020 135.043 142.548  1.00  0.00     0.000 C 
BRANCH   7   8
ATOM      8  C   UNL     1     142.859 135.086 144.073  1.00  0.00     0.006 C 
BRANCH   8   9
ATOM      9  C   UNL     1     142.023 133.903 144.568  1.00  0.00     0.053 C 
BRANCH   9  10
ATOM     10  C   UNL     1     141.411 134.213 145.899  1.00  0.00     0.041 C 
ATOM     11  O   UNL     1     141.945 133.787 146.956  1.00  0.00    -0.550 OA
ATOM     12  O   UNL     1     140.225 134.933 145.969  1.00  0.00    -0.550 OA
ENDBRANCH   9  10
ENDBRANCH   8   9
ENDBRANCH   7   8
ENDBRANCH   6   7
ENDBRANCH   5   6
ENDBRANCH   4   5
ENDBRANCH   3   4
ENDBRANCH   1   3
BRANCH   2  13
ATOM     13  C   UNL     1     136.902 137.855 143.513  1.00  0.00     0.027 C 
BRANCH  13  14
ATOM     14  C   UNL     1     136.092 136.609 143.124  1.00  0.00     0.004 C 
BRANCH  14  15
ATOM     15  C   UNL     1     135.653 136.627 141.651  1.00  0.00     0.000 C 
BRANCH  15  16
ATOM     16  C   UNL     1     136.204 135.431 140.855  1.00  0.00     0.000 C 
BRANCH  16  17
ATOM     17  C   UNL     1     137.670 135.645 140.420  1.00  0.00    -0.000 C 
BRANCH  17  18
ATOM     18  C   UNL     1     138.523 134.366 140.483  1.00  0.00    -0.000 C 
BRANCH  18  19
ATOM     19  C   UNL     1     139.464 134.335 141.695  1.00  0.00    -0.003 C 
ATOM     20  C   UNL     1     138.735 133.851 142.945  1.00  0.00     0.004 C 
ENDBRANCH  18  19
ENDBRANCH  17  18
ENDBRANCH  16  17
ENDBRANCH  15  16
ENDBRANCH  14  15
ENDBRANCH  13  14
ENDBRANCH   2  13
TORSDOF 15
ENDMDL
MODEL 5
REMARK VINA RESULT:    -3.465      2.087      5.246
REMARK INTER + INTRA:          -8.811
REMARK INTER:                  -6.091
REMARK INTRA:                  -2.720
REMARK UNBOUND:                -2.308
REMARK SMILES CCCCCCCCC=CCCCCCCCC(=O)[O-]
REMARK SMILES IDX 10 1 9 2 11 3 12 4 13 5 14 6 15 7 16 8 17 9 18 10 19 11
REMARK SMILES IDX 20 12 8 13 7 14 6 15 5 16 4 17 3 18 2 19 1 20
REMARK H PARENT
REMARK Flexibility Score: inf
ROOT
ATOM      1  C   UNL     1     138.177 137.509 144.283  1.00  0.00    -0.031 C 
ATOM      2  C   UNL     1     139.402 137.335 143.755  1.00  0.00    -0.031 C 
ENDROOT
BRANCH   1   3
ATOM      3  C   UNL     1     136.942 137.861 143.490  1.00  0.00     0.027 C 
BRANCH   3   4
ATOM      4  C   UNL     1     136.135 136.615 143.093  1.00  0.00     0.004 C 
BRANCH   4   5
ATOM      5  C   UNL     1     135.570 136.722 141.666  1.00  0.00     0.000 C 
BRANCH   5   6
ATOM      6  C   UNL     1     136.016 135.559 140.766  1.00  0.00     0.000 C 
BRANCH   6   7
ATOM      7  C   UNL     1     137.535 135.541 140.532  1.00  0.00     0.000 C 
BRANCH   7   8
ATOM      8  C   UNL     1     138.112 134.141 140.777  1.00  0.00     0.006 C 
BRANCH   8   9
ATOM      9  C   UNL     1     138.744 134.045 142.167  1.00  0.00     0.053 C 
BRANCH   9  10
ATOM     10  C   UNL     1     137.799 133.398 143.131  1.00  0.00     0.041 C 
ATOM     11  O   UNL     1     136.944 132.570 142.720  1.00  0.00    -0.550 OA
ATOM     12  O   UNL     1     137.832 133.743 144.477  1.00  0.00    -0.550 OA
ENDBRANCH   9  10
ENDBRANCH   8   9
ENDBRANCH   7   8
ENDBRANCH   6   7
ENDBRANCH   5   6
ENDBRANCH   4   5
ENDBRANCH   3   4
ENDBRANCH   1   3
BRANCH   2  13
ATOM     13  C   UNL     1     139.751 137.557 142.305  1.00  0.00     0.027 C 
BRANCH  13  14
ATOM     14  C   UNL     1     140.988 138.458 142.179  1.00  0.00     0.004 C 
BRANCH  14  15
ATOM     15  C   UNL     1     142.277 137.660 141.928  1.00  0.00     0.000 C 
BRANCH  15  16
ATOM     16  C   UNL     1     142.001 136.227 141.439  1.00  0.00     0.000 C 
BRANCH  16  17
ATOM     17  C   UNL     1     142.727 135.168 142.295  1.00  0.00    -0.000 C 
BRANCH  17  18
ATOM     18  C   UNL     1     143.123 135.674 143.693  1.00  0.00    -0.000 C 
BRANCH  18  19
ATOM     19  C   UNL     1     142.775 134.680 144.809  1.00  0.00    -0.003 C 
ATOM     20  C   UNL     1     141.271 134.427 144.871  1.00  0.00     0.004 C 
ENDBRANCH  18  19
ENDBRANCH  17  18
ENDBRANCH  16  17
ENDBRANCH  15  16
ENDBRANCH  14  15
ENDBRANCH  13  14
ENDBRANCH   2  13
TORSDOF 15
ENDMDL
MODEL 6
REMARK VINA RESULT:    -3.446      1.422      2.246
REMARK INTER + INTRA:          -8.776
REMARK INTER:                  -6.258
REMARK INTRA:                  -2.518
REMARK UNBOUND:                -2.308
REMARK SMILES CCCCCCCCC=CCCCCCCCC(=O)[O-]
REMARK SMILES IDX 10 1 9 2 11 3 12 4 13 5 14 6 15 7 16 8 17 9 18 10 19 11
REMARK SMILES IDX 20 12 8 13 7 14 6 15 5 16 4 17 3 18 2 19 1 20
REMARK H PARENT
REMARK Flexibility Score: inf
ROOT
ATOM      1  C   UNL     1     140.611 138.114 142.053  1.00  0.00    -0.031 C 
ATOM      2  C   UNL     1     139.316 137.902 142.350  1.00  0.00    -0.031 C 
ENDROOT
BRANCH   1   3
ATOM      3  C   UNL     1     141.761 137.866 142.999  1.00  0.00     0.027 C 
BRANCH   3   4
ATOM      4  C   UNL     1     142.423 136.501 142.758  1.00  0.00     0.004 C 
BRANCH   4   5
ATOM      5  C   UNL     1     142.086 135.491 143.869  1.00  0.00     0.000 C 
BRANCH   5   6
ATOM      6  C   UNL     1     140.881 134.604 143.515  1.00  0.00     0.000 C 
BRANCH   6   7
ATOM      7  C   UNL     1     140.753 134.357 142.004  1.00  0.00     0.000 C 
BRANCH   7   8
ATOM      8  C   UNL     1     139.280 134.319 141.576  1.00  0.00     0.006 C 
BRANCH   8   9
ATOM      9  C   UNL     1     139.131 133.712 140.179  1.00  0.00     0.053 C 
BRANCH   9  10
ATOM     10  C   UNL     1     137.734 133.218 139.967  1.00  0.00     0.041 C 
ATOM     11  O   UNL     1     137.031 133.689 139.036  1.00  0.00    -0.550 OA
ATOM     12  O   UNL     1     137.193 132.270 140.827  1.00  0.00    -0.550 OA
ENDBRANCH   9  10
ENDBRANCH   8   9
ENDBRANCH   7   8
ENDBRANCH   6   7
ENDBRANCH   5   6
ENDBRANCH   4   5
ENDBRANCH   3   4
ENDBRANCH   1   3
BRANCH   2  13
ATOM     13  C   UNL     1     138.805 137.474 143.702  1.00  0.00     0.027 C 
BRANCH  13  14
ATOM     14  C   UNL     1     137.353 137.933 143.901  1.00  0.00     0.004 C 
BRANCH  14  15
ATOM     15  C   UNL     1     136.475 136.851 144.549  1.00  0.00     0.000 C 
BRANCH  15  16
ATOM     16  C   UNL     1     136.527 135.513 143.790  1.00  0.00     0.000 C 
BRANCH  16  17
ATOM     17  C   UNL     1     135.136 135.078 143.281  1.00  0.00    -0.000 C 
BRANCH  17  18
ATOM     18  C   UNL     1     135.046 134.975 141.749  1.00  0.00    -0.000 C 
BRANCH  18  19
ATOM     19  C   UNL     1     135.570 136.227 141.034  1.00  0.00    -0.003 C 
ATOM     20  C   UNL     1     134.426 137.164 140.657  1.00  0.00     0.004 C 
ENDBRANCH  18  19
ENDBRANCH  17  18
ENDBRANCH  16  17
ENDBRANCH  15  16
ENDBRANCH  14  15
ENDBRANCH  13  14
ENDBRANCH   2  13
TORSDOF 15
ENDMDL
MODEL 7
REMARK VINA RESULT:    -3.440      1.525      4.558
REMARK INTER + INTRA:          -8.763
REMARK INTER:                  -5.937
REMARK INTRA:                  -2.826
REMARK UNBOUND:                -2.308
REMARK SMILES CCCCCCCCC=CCCCCCCCC(=O)[O-]
REMARK SMILES IDX 10 1 9 2 11 3 12 4 13 5 14 6 15 7 16 8 17 9 18 10 19 11
REMARK SMILES IDX 20 12 8 13 7 14 6 15 5 16 4 17 3 18 2 19 1 20
REMARK H PARENT
REMARK Flexibility Score: inf
ROOT
ATOM      1  C   UNL     1     140.951 138.319 141.966  1.00  0.00    -0.031 C 
ATOM      2  C   UNL     1     142.142 137.866 141.530  1.00  0.00    -0.031 C 
ENDROOT
BRANCH   1   3
ATOM      3  C   UNL     1     140.141 137.682 143.069  1.00  0.00     0.027 C 
BRANCH   3   4
ATOM      4  C   UNL     1     138.636 137.698 142.763  1.00  0.00     0.004 C 
BRANCH   4   5
ATOM      5  C   UNL     1     137.785 137.576 144.039  1.00  0.00     0.000 C 
BRANCH   5   6
ATOM      6  C   UNL     1     136.421 136.916 143.778  1.00  0.00     0.000 C 
BRANCH   6   7
ATOM      7  C   UNL     1     136.090 136.816 142.280  1.00  0.00     0.000 C 
BRANCH   7   8
ATOM      8  C   UNL     1     134.848 135.945 142.050  1.00  0.00     0.006 C 
BRANCH   8   9
ATOM      9  C   UNL     1     135.244 134.506 141.709  1.00  0.00     0.053 C 
BRANCH   9  10
ATOM     10  C   UNL     1     134.702 133.556 142.731  1.00  0.00     0.041 C 
ATOM     11  O   UNL     1     134.487 132.354 142.426  1.00  0.00    -0.550 OA
ATOM     12  O   UNL     1     134.390 134.009 144.007  1.00  0.00    -0.550 OA
ENDBRANCH   9  10
ENDBRANCH   8   9
ENDBRANCH   7   8
ENDBRANCH   6   7
ENDBRANCH   5   6
ENDBRANCH   4   5
ENDBRANCH   3   4
ENDBRANCH   1   3
BRANCH   2  13
ATOM     13  C   UNL     1     142.805 136.601 142.011  1.00  0.00     0.027 C 
BRANCH  13  14
ATOM     14  C   UNL     1     142.748 135.514 140.927  1.00  0.00     0.004 C 
BRANCH  14  15
ATOM     15  C   UNL     1     141.897 135.932 139.718  1.00  0.00     0.000 C 
BRANCH  15  16
ATOM     16  C   UNL     1     140.748 134.948 139.434  1.00  0.00     0.000 C 
BRANCH  16  17
ATOM     17  C   UNL     1     139.415 135.410 140.061  1.00  0.00    -0.000 C 
BRANCH  17  18
ATOM     18  C   UNL     1     138.762 134.352 140.968  1.00  0.00    -0.000 C 
BRANCH  18  19
ATOM     19  C   UNL     1     139.579 134.065 142.235  1.00  0.00    -0.003 C 
ATOM     20  C   UNL     1     138.674 133.964 143.460  1.00  0.00     0.004 C 
ENDBRANCH  18  19
ENDBRANCH  17  18
ENDBRANCH  16  17
ENDBRANCH  15  16
ENDBRANCH  14  15
ENDBRANCH  13  14
ENDBRANCH   2  13
TORSDOF 15
ENDMDL
MODEL 8
REMARK VINA RESULT:    -3.438      2.544      5.326
REMARK INTER + INTRA:          -8.760
REMARK INTER:                  -6.138
REMARK INTRA:                  -2.622
REMARK UNBOUND:                -2.308
REMARK SMILES CCCCCCCCC=CCCCCCCCC(=O)[O-]
REMARK SMILES IDX 10 1 9 2 11 3 12 4 13 5 14 6 15 7 16 8 17 9 18 10 19 11
REMARK SMILES IDX 20 12 8 13 7 14 6 15 5 16 4 17 3 18 2 19 1 20
REMARK H PARENT
REMARK Flexibility Score: inf
ROOT
ATOM      1  C   UNL     1     139.608 137.984 142.470  1.00  0.00    -0.031 C 
ATOM      2  C   UNL     1     140.841 138.280 142.018  1.00  0.00    -0.031 C 
ENDROOT
BRANCH   1   3
ATOM      3  C   UNL     1     139.296 137.528 143.875  1.00  0.00     0.027 C 
BRANCH   3   4
ATOM      4  C   UNL     1     137.791 137.590 144.181  1.00  0.00     0.004 C 
BRANCH   4   5
ATOM      5  C   UNL     1     136.974 138.067 142.969  1.00  0.00     0.000 C 
BRANCH   5   6
ATOM      6  C   UNL     1     136.131 136.942 142.345  1.00  0.00     0.000 C 
BRANCH   6   7
ATOM      7  C   UNL     1     136.202 135.635 143.151  1.00  0.00     0.000 C 
BRANCH   7   8
ATOM      8  C   UNL     1     134.815 135.232 143.667  1.00  0.00     0.006 C 
BRANCH   8   9
ATOM      9  C   UNL     1     134.505 135.919 144.999  1.00  0.00     0.053 C 
BRANCH   9  10
ATOM     10  C   UNL     1     135.173 135.198 146.129  1.00  0.00     0.041 C 
ATOM     11  O   UNL     1     134.787 134.047 146.461  1.00  0.00    -0.550 OA
ATOM     12  O   UNL     1     136.190 135.817 146.845  1.00  0.00    -0.550 OA
ENDBRANCH   9  10
ENDBRANCH   8   9
ENDBRANCH   7   8
ENDBRANCH   6   7
ENDBRANCH   5   6
ENDBRANCH   4   5
ENDBRANCH   3   4
ENDBRANCH   1   3
BRANCH   2  13
ATOM     13  C   UNL     1     142.110 138.113 142.814  1.00  0.00     0.027 C 
BRANCH  13  14
ATOM     14  C   UNL     1     142.783 136.774 142.481  1.00  0.00     0.004 C 
BRANCH  14  15
ATOM     15  C   UNL     1     142.629 135.739 143.606  1.00  0.00     0.000 C 
BRANCH  15  16
ATOM     16  C   UNL     1     142.087 134.390 143.101  1.00  0.00     0.000 C 
BRANCH  16  17
ATOM     17  C   UNL     1     140.554 134.408 142.919  1.00  0.00    -0.000 C 
BRANCH  17  18
ATOM     18  C   UNL     1     140.090 133.865 141.557  1.00  0.00    -0.000 C 
BRANCH  18  19
ATOM     19  C   UNL     1     140.061 134.941 140.463  1.00  0.00    -0.003 C 
ATOM     20  C   UNL     1     138.627 135.293 140.076  1.00  0.00     0.004 C 
ENDBRANCH  18  19
ENDBRANCH  17  18
ENDBRANCH  16  17
ENDBRANCH  15  16
ENDBRANCH  14  15
ENDBRANCH  13  14
ENDBRANCH   2  13
TORSDOF 15
ENDMDL
MODEL 9
REMARK VINA RESULT:    -3.319      2.362      3.786
REMARK INTER + INTRA:          -8.536
REMARK INTER:                  -5.115
REMARK INTRA:                  -3.422
REMARK UNBOUND:                -2.308
REMARK SMILES CCCCCCCCC=CCCCCCCCC(=O)[O-]
REMARK SMILES IDX 10 1 9 2 11 3 12 4 13 5 14 6 15 7 16 8 17 9 18 10 19 11
REMARK SMILES IDX 20 12 8 13 7 14 6 15 5 16 4 17 3 18 2 19 1 20
REMARK H PARENT
REMARK Flexibility Score: inf
ROOT
ATOM      1  C   UNL     1     139.285 137.362 143.750  1.00  0.00    -0.031 C 
ATOM      2  C   UNL     1     138.210 137.440 144.557  1.00  0.00    -0.031 C 
ENDROOT
BRANCH   1   3
ATOM      3  C   UNL     1     139.243 137.517 142.249  1.00  0.00     0.027 C 
BRANCH   3   4
ATOM      4  C   UNL     1     139.123 136.164 141.531  1.00  0.00     0.004 C 
BRANCH   4   5
ATOM      5  C   UNL     1     139.829 135.036 142.303  1.00  0.00     0.000 C 
BRANCH   5   6
ATOM      6  C   UNL     1     138.950 133.783 142.451  1.00  0.00     0.000 C 
BRANCH   6   7
ATOM      7  C   UNL     1     138.368 133.633 143.865  1.00  0.00     0.000 C 
BRANCH   7   8
ATOM      8  C   UNL     1     137.141 132.713 143.859  1.00  0.00     0.006 C 
BRANCH   8   9
ATOM      9  C   UNL     1     137.255 131.654 142.760  1.00  0.00     0.053 C 
BRANCH   9  10
ATOM     10  C   UNL     1     135.931 130.998 142.521  1.00  0.00     0.041 C 
ATOM     11  O   UNL     1     134.865 131.601 142.814  1.00  0.00    -0.550 OA
ATOM     12  O   UNL     1     135.875 129.705 142.018  1.00  0.00    -0.550 OA
ENDBRANCH   9  10
ENDBRANCH   8   9
ENDBRANCH   7   8
ENDBRANCH   6   7
ENDBRANCH   5   6
ENDBRANCH   4   5
ENDBRANCH   3   4
ENDBRANCH   1   3
BRANCH   2  13
ATOM     13  C   UNL     1     136.789 137.599 144.081  1.00  0.00     0.027 C 
BRANCH  13  14
ATOM     14  C   UNL     1     135.987 136.315 144.336  1.00  0.00     0.004 C 
BRANCH  14  15
ATOM     15  C   UNL     1     135.150 135.890 143.120  1.00  0.00     0.000 C 
BRANCH  15  16
ATOM     16  C   UNL     1     135.410 136.770 141.885  1.00  0.00     0.000 C 
BRANCH  16  17
ATOM     17  C   UNL     1     135.633 135.933 140.607  1.00  0.00    -0.000 C 
BRANCH  17  18
ATOM     18  C   UNL     1     135.635 134.415 140.860  1.00  0.00    -0.000 C 
BRANCH  18  19
ATOM     19  C   UNL     1     135.939 133.599 139.596  1.00  0.00    -0.003 C 
ATOM     20  C   UNL     1     137.406 133.728 139.198  1.00  0.00     0.004 C 
ENDBRANCH  18  19
ENDBRANCH  17  18
ENDBRANCH  16  17
ENDBRANCH  15  16
ENDBRANCH  14  15
ENDBRANCH  13  14
ENDBRANCH   2  13
TORSDOF 15
ENDMDL
