MODEL 1
REMARK VINA RESULT:    -4.230      0.000      0.000
REMARK INTER + INTRA:          -9.916
REMARK INTER:                  -7.693
REMARK INTRA:                  -2.223
REMARK UNBOUND:                -2.223
REMARK SMILES CCCCCCCCCCCCCCCC(=O)[O-]
REMARK SMILES IDX 9 1 10 2 11 3 12 4 13 5 14 6 15 7 16 8 17 9 18 10 8 11 7 12
REMARK SMILES IDX 6 13 5 14 4 15 3 16 2 17 1 18
REMARK H PARENT
REMARK Flexibility Score: inf
ROOT
ATOM      1  C   UNL     1      19.359  32.912  43.891  1.00  0.00     0.000 C 
ENDROOT
BRANCH   1   2
ATOM      2  C   UNL     1      19.819  31.456  44.091  1.00  0.00     0.000 C 
BRANCH   2   3
ATOM      3  C   UNL     1      18.644  30.468  44.147  1.00  0.00     0.000 C 
BRANCH   3   4
ATOM      4  C   UNL     1      18.447  29.862  45.545  1.00  0.00     0.000 C 
BRANCH   4   5
ATOM      5  C   UNL     1      18.075  30.947  46.566  1.00  0.00     0.000 C 
BRANCH   5   6
ATOM      6  C   UNL     1      18.328  30.510  48.021  1.00  0.00     0.006 C 
BRANCH   6   7
ATOM      7  C   UNL     1      19.475  29.499  48.189  1.00  0.00     0.053 C 
BRANCH   7   8
ATOM      8  C   UNL     1      20.017  29.489  49.586  1.00  0.00     0.041 C 
ATOM      9  O   UNL     1      19.390  30.067  50.512  1.00  0.00    -0.550 OA
ATOM     10  O   UNL     1      21.230  28.870  49.857  1.00  0.00    -0.550 OA
ENDBRANCH   7   8
ENDBRANCH   6   7
ENDBRANCH   5   6
ENDBRANCH   4   5
ENDBRANCH   3   4
ENDBRANCH   2   3
ENDBRANCH   1   2
BRANCH   1  11
ATOM     11  C   UNL     1      20.478  33.928  44.167  1.00  0.00     0.000 C 
BRANCH  11  12
ATOM     12  C   UNL     1      19.995  35.127  44.998  1.00  0.00    -0.000 C 
BRANCH  12  13
ATOM     13  C   UNL     1      18.963  34.687  46.048  1.00  0.00    -0.000 C 
BRANCH  13  14
ATOM     14  C   UNL     1      19.359  35.096  47.476  1.00  0.00    -0.000 C 
BRANCH  14  15
ATOM     15  C   UNL     1      19.828  33.907  48.326  1.00  0.00    -0.000 C 
BRANCH  15  16
ATOM     16  C   UNL     1      21.360  33.797  48.316  1.00  0.00    -0.000 C 
BRANCH  16  17
ATOM     17  C   UNL     1      21.848  32.356  48.092  1.00  0.00    -0.003 C 
ATOM     18  C   UNL     1      22.422  32.137  46.694  1.00  0.00     0.004 C 
ENDBRANCH  16  17
ENDBRANCH  15  16
ENDBRANCH  14  15
ENDBRANCH  13  14
ENDBRANCH  12  13
ENDBRANCH  11  12
ENDBRANCH   1  11
TORSDOF 14
ENDMDL
MODEL 2
REMARK VINA RESULT:    -4.185      0.856      2.385
REMARK INTER + INTRA:          -9.833
REMARK INTER:                  -7.553
REMARK INTRA:                  -2.280
REMARK UNBOUND:                -2.223
REMARK SMILES CCCCCCCCCCCCCCCC(=O)[O-]
REMARK SMILES IDX 9 1 10 2 11 3 12 4 13 5 14 6 15 7 16 8 17 9 18 10 8 11 7 12
REMARK SMILES IDX 6 13 5 14 4 15 3 16 2 17 1 18
REMARK H PARENT
REMARK Flexibility Score: inf
ROOT
ATOM      1  C   UNL     1      20.411  33.453  44.428  1.00  0.00     0.000 C 
ENDROOT
BRANCH   1   2
ATOM      2  C   UNL     1      19.078  32.692  44.306  1.00  0.00     0.000 C 
BRANCH   2   3
ATOM      3  C   UNL     1      19.277  31.190  44.050  1.00  0.00     0.000 C 
BRANCH   3   4
ATOM      4  C   UNL     1      18.637  30.315  45.138  1.00  0.00     0.000 C 
BRANCH   4   5
ATOM      5  C   UNL     1      18.222  31.162  46.349  1.00  0.00     0.000 C 
BRANCH   5   6
ATOM      6  C   UNL     1      18.029  30.323  47.627  1.00  0.00     0.006 C 
BRANCH   6   7
ATOM      7  C   UNL     1      19.281  29.549  48.072  1.00  0.00     0.053 C 
BRANCH   7   8
ATOM      8  C   UNL     1      19.436  29.539  49.562  1.00  0.00     0.041 C 
ATOM      9  O   UNL     1      19.862  28.509  50.147  1.00  0.00    -0.550 OA
ATOM     10  O   UNL     1      19.079  30.656  50.306  1.00  0.00    -0.550 OA
ENDBRANCH   7   8
ENDBRANCH   6   7
ENDBRANCH   5   6
ENDBRANCH   4   5
ENDBRANCH   3   4
ENDBRANCH   2   3
ENDBRANCH   1   2
BRANCH   1  11
ATOM     11  C   UNL     1      21.621  32.512  44.542  1.00  0.00     0.000 C 
BRANCH  11  12
ATOM     12  C   UNL     1      22.337  32.633  45.895  1.00  0.00    -0.000 C 
BRANCH  12  13
ATOM     13  C   UNL     1      21.592  31.842  46.983  1.00  0.00    -0.000 C 
BRANCH  13  14
ATOM     14  C   UNL     1      21.636  32.536  48.354  1.00  0.00    -0.000 C 
BRANCH  14  15
ATOM     15  C   UNL     1      21.669  34.067  48.244  1.00  0.00    -0.000 C 
BRANCH  15  16
ATOM     16  C   UNL     1      20.347  34.680  48.729  1.00  0.00    -0.000 C 
BRANCH  16  17
ATOM     17  C   UNL     1      19.194  34.460  47.737  1.00  0.00    -0.003 C 
ATOM     18  C   UNL     1      18.973  35.658  46.815  1.00  0.00     0.004 C 
ENDBRANCH  16  17
ENDBRANCH  15  16
ENDBRANCH  14  15
ENDBRANCH  13  14
ENDBRANCH  12  13
ENDBRANCH  11  12
ENDBRANCH   1  11
TORSDOF 14
ENDMDL
MODEL 3
REMARK VINA RESULT:    -4.114     10.762     12.746
REMARK INTER + INTRA:          -9.705
REMARK INTER:                  -7.162
REMARK INTRA:                  -2.542
REMARK UNBOUND:                -2.223
REMARK SMILES CCCCCCCCCCCCCCCC(=O)[O-]
REMARK SMILES IDX 9 1 10 2 11 3 12 4 13 5 14 6 15 7 16 8 17 9 18 10 8 11 7 12
REMARK SMILES IDX 6 13 5 14 4 15 3 16 2 17 1 18
REMARK H PARENT
REMARK Flexibility Score: inf
ROOT
ATOM      1  C   UNL     1      28.352  37.029  46.197  1.00  0.00     0.000 C 
ENDROOT
BRANCH   1   2
ATOM      2  C   UNL     1      27.937  37.946  47.362  1.00  0.00     0.000 C 
BRANCH   2   3
ATOM      3  C   UNL     1      26.413  38.022  47.541  1.00  0.00     0.000 C 
BRANCH   3   4
ATOM      4  C   UNL     1      25.924  39.444  47.856  1.00  0.00     0.000 C 
BRANCH   4   5
ATOM      5  C   UNL     1      27.070  40.309  48.403  1.00  0.00     0.000 C 
BRANCH   5   6
ATOM      6  C   UNL     1      27.185  41.668  47.688  1.00  0.00     0.006 C 
BRANCH   6   7
ATOM      7  C   UNL     1      26.487  41.726  46.319  1.00  0.00     0.053 C 
BRANCH   7   8
ATOM      8  C   UNL     1      26.610  43.076  45.680  1.00  0.00     0.041 C 
ATOM      9  O   UNL     1      25.733  43.955  45.882  1.00  0.00    -0.550 OA
ATOM     10  O   UNL     1      27.678  43.350  44.835  1.00  0.00    -0.550 OA
ENDBRANCH   7   8
ENDBRANCH   6   7
ENDBRANCH   5   6
ENDBRANCH   4   5
ENDBRANCH   3   4
ENDBRANCH   2   3
ENDBRANCH   1   2
BRANCH   1  11
ATOM     11  C   UNL     1      29.150  37.771  45.114  1.00  0.00     0.000 C 
BRANCH  11  12
ATOM     12  C   UNL     1      28.462  39.066  44.658  1.00  0.00    -0.000 C 
BRANCH  12  13
ATOM     13  C   UNL     1      29.437  40.253  44.706  1.00  0.00    -0.000 C 
BRANCH  13  14
ATOM     14  C   UNL     1      30.582  40.038  45.708  1.00  0.00    -0.000 C 
BRANCH  14  15
ATOM     15  C   UNL     1      30.539  41.029  46.881  1.00  0.00    -0.000 C 
BRANCH  15  16
ATOM     16  C   UNL     1      30.791  40.310  48.215  1.00  0.00    -0.000 C 
BRANCH  16  17
ATOM     17  C   UNL     1      31.540  38.980  48.037  1.00  0.00    -0.003 C 
ATOM     18  C   UNL     1      32.788  38.884  48.913  1.00  0.00     0.004 C 
ENDBRANCH  16  17
ENDBRANCH  15  16
ENDBRANCH  14  15
ENDBRANCH  13  14
ENDBRANCH  12  13
ENDBRANCH  11  12
ENDBRANCH   1  11
TORSDOF 14
ENDMDL
MODEL 4
REMARK VINA RESULT:    -4.030      1.226      1.690
REMARK INTER + INTRA:          -9.552
REMARK INTER:                  -7.770
REMARK INTRA:                  -1.782
REMARK UNBOUND:                -2.223
REMARK SMILES CCCCCCCCCCCCCCCC(=O)[O-]
REMARK SMILES IDX 9 1 10 2 11 3 12 4 13 5 14 6 15 7 16 8 17 9 18 10 8 11 7 12
REMARK SMILES IDX 6 13 5 14 4 15 3 16 2 17 1 18
REMARK H PARENT
REMARK Flexibility Score: inf
ROOT
ATOM      1  C   UNL     1      21.016  33.317  44.760  1.00  0.00     0.000 C 
ENDROOT
BRANCH   1   2
ATOM      2  C   UNL     1      20.455  32.189  43.875  1.00  0.00     0.000 C 
BRANCH   2   3
ATOM      3  C   UNL     1      18.979  31.883  44.173  1.00  0.00     0.000 C 
BRANCH   3   4
ATOM      4  C   UNL     1      18.662  30.381  44.111  1.00  0.00     0.000 C 
BRANCH   4   5
ATOM      5  C   UNL     1      18.554  29.785  45.522  1.00  0.00     0.000 C 
BRANCH   5   6
ATOM      6  C   UNL     1      19.364  30.574  46.568  1.00  0.00     0.006 C 
BRANCH   6   7
ATOM      7  C   UNL     1      18.981  30.272  48.026  1.00  0.00     0.053 C 
BRANCH   7   8
ATOM      8  C   UNL     1      19.858  29.220  48.632  1.00  0.00     0.041 C 
ATOM      9  O   UNL     1      19.440  28.522  49.592  1.00  0.00    -0.550 OA
ATOM     10  O   UNL     1      21.150  29.034  48.157  1.00  0.00    -0.550 OA
ENDBRANCH   7   8
ENDBRANCH   6   7
ENDBRANCH   5   6
ENDBRANCH   4   5
ENDBRANCH   3   4
ENDBRANCH   2   3
ENDBRANCH   1   2
BRANCH   1  11
ATOM     11  C   UNL     1      20.288  34.653  44.546  1.00  0.00     0.000 C 
BRANCH  11  12
ATOM     12  C   UNL     1      19.485  35.092  45.779  1.00  0.00    -0.000 C 
BRANCH  12  13
ATOM     13  C   UNL     1      19.744  34.151  46.966  1.00  0.00    -0.000 C 
BRANCH  13  14
ATOM     14  C   UNL     1      19.965  34.909  48.285  1.00  0.00    -0.000 C 
BRANCH  14  15
ATOM     15  C   UNL     1      21.217  34.437  49.039  1.00  0.00    -0.000 C 
BRANCH  15  16
ATOM     16  C   UNL     1      21.680  33.065  48.528  1.00  0.00    -0.000 C 
BRANCH  16  17
ATOM     17  C   UNL     1      22.232  32.172  49.650  1.00  0.00    -0.003 C 
ATOM     18  C   UNL     1      21.209  31.909  50.753  1.00  0.00     0.004 C 
ENDBRANCH  16  17
ENDBRANCH  15  16
ENDBRANCH  14  15
ENDBRANCH  13  14
ENDBRANCH  12  13
ENDBRANCH  11  12
ENDBRANCH   1  11
TORSDOF 14
ENDMDL
MODEL 5
REMARK VINA RESULT:    -4.011      1.451      4.095
REMARK INTER + INTRA:          -9.518
REMARK INTER:                  -7.493
REMARK INTRA:                  -2.025
REMARK UNBOUND:                -2.223
REMARK SMILES CCCCCCCCCCCCCCCC(=O)[O-]
REMARK SMILES IDX 9 1 10 2 11 3 12 4 13 5 14 6 15 7 16 8 17 9 18 10 8 11 7 12
REMARK SMILES IDX 6 13 5 14 4 15 3 16 2 17 1 18
REMARK H PARENT
REMARK Flexibility Score: inf
ROOT
ATOM      1  C   UNL     1      20.686  32.122  44.336  1.00  0.00     0.000 C 
ENDROOT
BRANCH   1   2
ATOM      2  C   UNL     1      21.010  33.395  45.139  1.00  0.00     0.000 C 
BRANCH   2   3
ATOM      3  C   UNL     1      20.137  34.591  44.728  1.00  0.00     0.000 C 
BRANCH   3   4
ATOM      4  C   UNL     1      19.457  35.266  45.929  1.00  0.00     0.000 C 
BRANCH   4   5
ATOM      5  C   UNL     1      19.153  34.243  47.033  1.00  0.00     0.000 C 
BRANCH   5   6
ATOM      6  C   UNL     1      19.788  34.619  48.386  1.00  0.00     0.006 C 
BRANCH   6   7
ATOM      7  C   UNL     1      20.913  33.676  48.842  1.00  0.00     0.053 C 
BRANCH   7   8
ATOM      8  C   UNL     1      20.560  32.947  50.102  1.00  0.00     0.041 C 
ATOM      9  O   UNL     1      21.463  32.413  50.799  1.00  0.00    -0.550 OA
ATOM     10  O   UNL     1      19.231  32.829  50.489  1.00  0.00    -0.550 OA
ENDBRANCH   7   8
ENDBRANCH   6   7
ENDBRANCH   5   6
ENDBRANCH   4   5
ENDBRANCH   3   4
ENDBRANCH   2   3
ENDBRANCH   1   2
BRANCH   1  11
ATOM     11  C   UNL     1      19.179  31.942  44.097  1.00  0.00     0.000 C 
BRANCH  11  12
ATOM     12  C   UNL     1      18.778  30.469  43.935  1.00  0.00    -0.000 C 
BRANCH  12  13
ATOM     13  C   UNL     1      18.645  29.782  45.304  1.00  0.00    -0.000 C 
BRANCH  13  14
ATOM     14  C   UNL     1      18.082  30.719  46.384  1.00  0.00    -0.000 C 
BRANCH  14  15
ATOM     15  C   UNL     1      18.857  30.634  47.707  1.00  0.00    -0.000 C 
BRANCH  15  16
ATOM     16  C   UNL     1      19.929  29.536  47.643  1.00  0.00    -0.000 C 
BRANCH  16  17
ATOM     17  C   UNL     1      20.743  29.428  48.943  1.00  0.00    -0.003 C 
ATOM     18  C   UNL     1      20.139  28.440  49.939  1.00  0.00     0.004 C 
ENDBRANCH  16  17
ENDBRANCH  15  16
ENDBRANCH  14  15
ENDBRANCH  13  14
ENDBRANCH  12  13
ENDBRANCH  11  12
ENDBRANCH   1  11
TORSDOF 14
ENDMDL
MODEL 6
REMARK VINA RESULT:    -4.004      1.803      4.304
REMARK INTER + INTRA:          -9.504
REMARK INTER:                  -7.623
REMARK INTRA:                  -1.881
REMARK UNBOUND:                -2.223
REMARK SMILES CCCCCCCCCCCCCCCC(=O)[O-]
REMARK SMILES IDX 9 1 10 2 11 3 12 4 13 5 14 6 15 7 16 8 17 9 18 10 8 11 7 12
REMARK SMILES IDX 6 13 5 14 4 15 3 16 2 17 1 18
REMARK H PARENT
REMARK Flexibility Score: inf
ROOT
ATOM      1  C   UNL     1      19.553  35.111  45.733  1.00  0.00     0.000 C 
ENDROOT
BRANCH   1   2
ATOM      2  C   UNL     1      18.594  34.172  46.488  1.00  0.00     0.000 C 
BRANCH   2   3
ATOM      3  C   UNL     1      19.062  33.877  47.921  1.00  0.00     0.000 C 
BRANCH   3   4
ATOM      4  C   UNL     1      20.219  34.785  48.364  1.00  0.00     0.000 C 
BRANCH   4   5
ATOM      5  C   UNL     1      21.487  33.963  48.640  1.00  0.00     0.000 C 
BRANCH   5   6
ATOM      6  C   UNL     1      21.209  32.703  49.482  1.00  0.00     0.006 C 
BRANCH   6   7
ATOM      7  C   UNL     1      21.308  32.922  51.001  1.00  0.00     0.053 C 
BRANCH   7   8
ATOM      8  C   UNL     1      19.991  33.313  51.600  1.00  0.00     0.041 C 
ATOM      9  O   UNL     1      19.912  34.319  52.353  1.00  0.00    -0.550 OA
ATOM     10  O   UNL     1      18.859  32.547  51.352  1.00  0.00    -0.550 OA
ENDBRANCH   7   8
ENDBRANCH   6   7
ENDBRANCH   5   6
ENDBRANCH   4   5
ENDBRANCH   3   4
ENDBRANCH   2   3
ENDBRANCH   1   2
BRANCH   1  11
ATOM     11  C   UNL     1      20.335  34.391  44.624  1.00  0.00     0.000 C 
BRANCH  11  12
ATOM     12  C   UNL     1      19.481  33.356  43.877  1.00  0.00    -0.000 C 
BRANCH  12  13
ATOM     13  C   UNL     1      20.038  31.938  44.074  1.00  0.00    -0.000 C 
BRANCH  13  14
ATOM     14  C   UNL     1      18.964  30.851  43.914  1.00  0.00    -0.000 C 
BRANCH  14  15
ATOM     15  C   UNL     1      18.614  30.162  45.241  1.00  0.00    -0.000 C 
BRANCH  15  16
ATOM     16  C   UNL     1      19.528  30.655  46.372  1.00  0.00    -0.000 C 
BRANCH  16  17
ATOM     17  C   UNL     1      19.702  29.612  47.488  1.00  0.00    -0.003 C 
ATOM     18  C   UNL     1      18.943  29.979  48.762  1.00  0.00     0.004 C 
ENDBRANCH  16  17
ENDBRANCH  15  16
ENDBRANCH  14  15
ENDBRANCH  13  14
ENDBRANCH  12  13
ENDBRANCH  11  12
ENDBRANCH   1  11
TORSDOF 14
ENDMDL
MODEL 7
REMARK VINA RESULT:    -4.002      1.668      3.859
REMARK INTER + INTRA:          -9.500
REMARK INTER:                  -7.393
REMARK INTRA:                  -2.106
REMARK UNBOUND:                -2.223
REMARK SMILES CCCCCCCCCCCCCCCC(=O)[O-]
REMARK SMILES IDX 9 1 10 2 11 3 12 4 13 5 14 6 15 7 16 8 17 9 18 10 8 11 7 12
REMARK SMILES IDX 6 13 5 14 4 15 3 16 2 17 1 18
REMARK H PARENT
REMARK Flexibility Score: inf
ROOT
ATOM      1  C   UNL     1      17.976  31.157  46.279  1.00  0.00     0.000 C 
ENDROOT
BRANCH   1   2
ATOM      2  C   UNL     1      18.549  31.256  47.705  1.00  0.00     0.000 C 
BRANCH   2   3
ATOM      3  C   UNL     1      19.926  30.587  47.837  1.00  0.00     0.000 C 
BRANCH   3   4
ATOM      4  C   UNL     1      19.866  29.260  48.607  1.00  0.00     0.000 C 
BRANCH   4   5
ATOM      5  C   UNL     1      20.733  29.321  49.874  1.00  0.00     0.000 C 
BRANCH   5   6
ATOM      6  C   UNL     1      21.421  30.687  50.060  1.00  0.00     0.006 C 
BRANCH   6   7
ATOM      7  C   UNL     1      21.065  31.402  51.374  1.00  0.00     0.053 C 
BRANCH   7   8
ATOM      8  C   UNL     1      19.988  32.426  51.184  1.00  0.00     0.041 C 
ATOM      9  O   UNL     1      20.282  33.648  51.114  1.00  0.00    -0.550 OA
ATOM     10  O   UNL     1      18.658  32.032  51.118  1.00  0.00    -0.550 OA
ENDBRANCH   7   8
ENDBRANCH   6   7
ENDBRANCH   5   6
ENDBRANCH   4   5
ENDBRANCH   3   4
ENDBRANCH   2   3
ENDBRANCH   1   2
BRANCH   1  11
ATOM     11  C   UNL     1      18.833  30.272  45.359  1.00  0.00     0.000 C 
BRANCH  11  12
ATOM     12  C   UNL     1      18.877  30.792  43.914  1.00  0.00    -0.000 C 
BRANCH  12  13
ATOM     13  C   UNL     1      19.293  32.270  43.875  1.00  0.00    -0.000 C 
BRANCH  13  14
ATOM     14  C   UNL     1      20.769  32.481  44.249  1.00  0.00    -0.000 C 
BRANCH  14  15
ATOM     15  C   UNL     1      20.949  33.432  45.440  1.00  0.00    -0.000 C 
BRANCH  15  16
ATOM     16  C   UNL     1      20.049  34.668  45.296  1.00  0.00    -0.000 C 
BRANCH  16  17
ATOM     17  C   UNL     1      19.098  34.848  46.490  1.00  0.00    -0.003 C 
ATOM     18  C   UNL     1      19.824  34.817  47.834  1.00  0.00     0.004 C 
ENDBRANCH  16  17
ENDBRANCH  15  16
ENDBRANCH  14  15
ENDBRANCH  13  14
ENDBRANCH  12  13
ENDBRANCH  11  12
ENDBRANCH   1  11
TORSDOF 14
ENDMDL
MODEL 8
REMARK VINA RESULT:    -3.946      1.605      4.276
REMARK INTER + INTRA:          -9.398
REMARK INTER:                  -6.920
REMARK INTRA:                  -2.478
REMARK UNBOUND:                -2.223
REMARK SMILES CCCCCCCCCCCCCCCC(=O)[O-]
REMARK SMILES IDX 9 1 10 2 11 3 12 4 13 5 14 6 15 7 16 8 17 9 18 10 8 11 7 12
REMARK SMILES IDX 6 13 5 14 4 15 3 16 2 17 1 18
REMARK H PARENT
REMARK Flexibility Score: inf
ROOT
ATOM      1  C   UNL     1      20.126  34.027  44.455  1.00  0.00     0.000 C 
ENDROOT
BRANCH   1   2
ATOM      2  C   UNL     1      19.747  35.108  45.484  1.00  0.00     0.000 C 
BRANCH   2   3
ATOM      3  C   UNL     1      18.981  34.535  46.687  1.00  0.00     0.000 C 
BRANCH   3   4
ATOM      4  C   UNL     1      19.772  34.649  47.999  1.00  0.00     0.000 C 
BRANCH   4   5
ATOM      5  C   UNL     1      20.462  33.320  48.340  1.00  0.00     0.000 C 
BRANCH   5   6
ATOM      6  C   UNL     1      21.961  33.316  47.984  1.00  0.00     0.006 C 
BRANCH   6   7
ATOM      7  C   UNL     1      22.345  32.332  46.867  1.00  0.00     0.053 C 
BRANCH   7   8
ATOM      8  C   UNL     1      23.468  31.428  47.274  1.00  0.00     0.041 C 
ATOM      9  O   UNL     1      24.238  30.944  46.405  1.00  0.00    -0.550 OA
ATOM     10  O   UNL     1      23.642  31.095  48.612  1.00  0.00    -0.550 OA
ENDBRANCH   7   8
ENDBRANCH   6   7
ENDBRANCH   5   6
ENDBRANCH   4   5
ENDBRANCH   3   4
ENDBRANCH   2   3
ENDBRANCH   1   2
BRANCH   1  11
ATOM     11  C   UNL     1      19.074  32.912  44.355  1.00  0.00     0.000 C 
BRANCH  11  12
ATOM     12  C   UNL     1      19.703  31.516  44.229  1.00  0.00    -0.000 C 
BRANCH  12  13
ATOM     13  C   UNL     1      18.913  30.482  45.046  1.00  0.00    -0.000 C 
BRANCH  13  14
ATOM     14  C   UNL     1      18.187  31.106  46.249  1.00  0.00    -0.000 C 
BRANCH  14  15
ATOM     15  C   UNL     1      18.446  30.348  47.558  1.00  0.00    -0.000 C 
BRANCH  15  16
ATOM     16  C   UNL     1      19.818  29.658  47.529  1.00  0.00    -0.000 C 
BRANCH  16  17
ATOM     17  C   UNL     1      20.456  29.552  48.924  1.00  0.00    -0.003 C 
ATOM     18  C   UNL     1      19.693  28.609  49.852  1.00  0.00     0.004 C 
ENDBRANCH  16  17
ENDBRANCH  15  16
ENDBRANCH  14  15
ENDBRANCH  13  14
ENDBRANCH  12  13
ENDBRANCH  11  12
ENDBRANCH   1  11
TORSDOF 14
ENDMDL
