MODEL 1
REMARK VINA RESULT:    -4.818      0.000      0.000
REMARK INTER + INTRA:          -6.428
REMARK INTER:                  -6.226
REMARK INTRA:                  -0.202
REMARK UNBOUND:                -0.202
REMARK SMILES CCCCCCC(=O)[O-]
REMARK SMILES IDX 5 1 6 2 7 3 8 4 9 5 4 6 3 7 2 8 1 9
REMARK H PARENT
REMARK Flexibility Score: inf
ROOT
ATOM      1  C   UNL     1     -13.419   2.564  -9.535  1.00  0.00     0.006 C 
ENDROOT
BRANCH   1   2
ATOM      2  C   UNL     1     -12.115   3.366  -9.569  1.00  0.00     0.053 C 
BRANCH   2   3
ATOM      3  C   UNL     1     -11.803   3.916  -8.213  1.00  0.00     0.041 C 
ATOM      4  O   UNL     1     -10.619   3.912  -7.785  1.00  0.00    -0.550 OA
ATOM      5  O   UNL     1     -12.827   4.389  -7.402  1.00  0.00    -0.550 OA
ENDBRANCH   2   3
ENDBRANCH   1   2
BRANCH   1   6
ATOM      6  C   UNL     1     -13.192   1.125 -10.023  1.00  0.00     0.000 C 
BRANCH   6   7
ATOM      7  C   UNL     1     -11.710   0.720 -10.001  1.00  0.00    -0.000 C 
BRANCH   7   8
ATOM      8  C   UNL     1     -11.433  -0.550 -10.822  1.00  0.00    -0.003 C 
ATOM      9  C   UNL     1     -12.727  -1.299 -11.125  1.00  0.00     0.004 C 
ENDBRANCH   7   8
ENDBRANCH   6   7
ENDBRANCH   1   6
TORSDOF 5
ENDMDL
MODEL 2
REMARK VINA RESULT:    -4.736      0.805      1.626
REMARK INTER + INTRA:          -6.322
REMARK INTER:                  -6.164
REMARK INTRA:                  -0.159
REMARK UNBOUND:                -0.202
REMARK SMILES CCCCCCC(=O)[O-]
REMARK SMILES IDX 5 1 6 2 7 3 8 4 9 5 4 6 3 7 2 8 1 9
REMARK H PARENT
REMARK Flexibility Score: inf
ROOT
ATOM      1  C   UNL     1     -11.991   1.602  -9.447  1.00  0.00     0.006 C 
ENDROOT
BRANCH   1   2
ATOM      2  C   UNL     1     -12.378   3.082  -9.519  1.00  0.00     0.053 C 
BRANCH   2   3
ATOM      3  C   UNL     1     -11.866   3.817  -8.320  1.00  0.00     0.041 C 
ATOM      4  O   UNL     1     -12.656   4.476  -7.595  1.00  0.00    -0.550 OA
ATOM      5  O   UNL     1     -10.507   3.814  -8.032  1.00  0.00    -0.550 OA
ENDBRANCH   2   3
ENDBRANCH   1   2
BRANCH   1   6
ATOM      6  C   UNL     1     -13.067   0.721 -10.100  1.00  0.00     0.000 C 
BRANCH   6   7
ATOM      7  C   UNL     1     -12.475  -0.495 -10.829  1.00  0.00    -0.000 C 
BRANCH   7   8
ATOM      8  C   UNL     1     -10.940  -0.530 -10.770  1.00  0.00    -0.003 C 
ATOM      9  C   UNL     1     -10.452  -1.673  -9.884  1.00  0.00     0.004 C 
ENDBRANCH   7   8
ENDBRANCH   6   7
ENDBRANCH   1   6
TORSDOF 5
ENDMDL
MODEL 3
REMARK VINA RESULT:    -4.652      3.182      4.937
REMARK INTER + INTRA:          -6.213
REMARK INTER:                  -6.019
REMARK INTRA:                  -0.194
REMARK UNBOUND:                -0.202
REMARK SMILES CCCCCCC(=O)[O-]
REMARK SMILES IDX 5 1 6 2 7 3 8 4 9 5 4 6 3 7 2 8 1 9
REMARK H PARENT
REMARK Flexibility Score: inf
ROOT
ATOM      1  C   UNL     1     -11.454   0.728  -9.911  1.00  0.00     0.006 C 
ENDROOT
BRANCH   1   2
ATOM      2  C   UNL     1     -11.025  -0.461 -10.775  1.00  0.00     0.053 C 
BRANCH   2   3
ATOM      3  C   UNL     1     -11.002  -1.717  -9.963  1.00  0.00     0.041 C 
ATOM      4  O   UNL     1     -10.199  -1.836  -9.001  1.00  0.00    -0.550 OA
ATOM      5  O   UNL     1     -11.834  -2.778 -10.300  1.00  0.00    -0.550 OA
ENDBRANCH   2   3
ENDBRANCH   1   2
BRANCH   1   6
ATOM      6  C   UNL     1     -12.977   0.924  -9.965  1.00  0.00     0.000 C 
BRANCH   6   7
ATOM      7  C   UNL     1     -13.405   2.350  -9.584  1.00  0.00    -0.000 C 
BRANCH   7   8
ATOM      8  C   UNL     1     -12.209   3.260  -9.264  1.00  0.00    -0.003 C 
ATOM      9  C   UNL     1     -12.648   4.480  -8.459  1.00  0.00     0.004 C 
ENDBRANCH   7   8
ENDBRANCH   6   7
ENDBRANCH   1   6
TORSDOF 5
ENDMDL
MODEL 4
REMARK VINA RESULT:    -4.369      3.985      5.696
REMARK INTER + INTRA:          -5.848
REMARK INTER:                  -5.717
REMARK INTRA:                  -0.131
REMARK UNBOUND:                -0.202
REMARK SMILES CCCCCCC(=O)[O-]
REMARK SMILES IDX 5 1 6 2 7 3 8 4 9 5 4 6 3 7 2 8 1 9
REMARK H PARENT
REMARK Flexibility Score: inf
ROOT
ATOM      1  C   UNL     1     -10.347  -1.177  -9.825  1.00  0.00     0.006 C 
ENDROOT
BRANCH   1   2
ATOM      2  C   UNL     1     -10.693  -2.654  -9.614  1.00  0.00     0.053 C 
BRANCH   2   3
ATOM      3  C   UNL     1      -9.760  -3.275  -8.623  1.00  0.00     0.041 C 
ATOM      4  O   UNL     1     -10.199  -3.705  -7.524  1.00  0.00    -0.550 OA
ATOM      5  O   UNL     1      -8.399  -3.333  -8.892  1.00  0.00    -0.550 OA
ENDBRANCH   2   3
ENDBRANCH   1   2
BRANCH   1   6
ATOM      6  C   UNL     1     -11.306  -0.528 -10.835  1.00  0.00     0.000 C 
BRANCH   6   7
ATOM      7  C   UNL     1     -12.280   0.461 -10.176  1.00  0.00    -0.000 C 
BRANCH   7   8
ATOM      8  C   UNL     1     -11.563   1.514  -9.316  1.00  0.00    -0.003 C 
ATOM      9  C   UNL     1     -12.299   2.850  -9.358  1.00  0.00     0.004 C 
ENDBRANCH   7   8
ENDBRANCH   6   7
ENDBRANCH   1   6
TORSDOF 5
ENDMDL
MODEL 5
REMARK VINA RESULT:    -4.275      3.483      5.102
REMARK INTER + INTRA:          -5.727
REMARK INTER:                  -5.586
REMARK INTRA:                  -0.141
REMARK UNBOUND:                -0.202
REMARK SMILES CCCCCCC(=O)[O-]
REMARK SMILES IDX 5 1 6 2 7 3 8 4 9 5 4 6 3 7 2 8 1 9
REMARK H PARENT
REMARK Flexibility Score: inf
ROOT
ATOM      1  C   UNL     1     -10.951  -0.008  -9.983  1.00  0.00     0.006 C 
ENDROOT
BRANCH   1   2
ATOM      2  C   UNL     1     -11.138  -1.494 -10.303  1.00  0.00     0.053 C 
BRANCH   2   3
ATOM      3  C   UNL     1     -10.197  -2.327  -9.492  1.00  0.00     0.041 C 
ATOM      4  O   UNL     1      -9.909  -1.992  -8.313  1.00  0.00    -0.550 OA
ATOM      5  O   UNL     1      -9.599  -3.448 -10.055  1.00  0.00    -0.550 OA
ENDBRANCH   2   3
ENDBRANCH   1   2
BRANCH   1   6
ATOM      6  C   UNL     1     -12.296   0.734 -10.020  1.00  0.00     0.000 C 
BRANCH   6   7
ATOM      7  C   UNL     1     -12.196   2.167  -9.472  1.00  0.00    -0.000 C 
BRANCH   7   8
ATOM      8  C   UNL     1     -13.543   2.697  -8.957  1.00  0.00    -0.003 C 
ATOM      9  C   UNL     1     -14.699   1.835  -9.457  1.00  0.00     0.004 C 
ENDBRANCH   7   8
ENDBRANCH   6   7
ENDBRANCH   1   6
TORSDOF 5
ENDMDL
MODEL 6
REMARK VINA RESULT:    -4.261      3.632      5.159
REMARK INTER + INTRA:          -5.709
REMARK INTER:                  -5.524
REMARK INTRA:                  -0.185
REMARK UNBOUND:                -0.202
REMARK SMILES CCCCCCC(=O)[O-]
REMARK SMILES IDX 5 1 6 2 7 3 8 4 9 5 4 6 3 7 2 8 1 9
REMARK H PARENT
REMARK Flexibility Score: inf
ROOT
ATOM      1  C   UNL     1     -13.702   0.192 -10.315  1.00  0.00     0.006 C 
ENDROOT
BRANCH   1   2
ATOM      2  C   UNL     1     -12.486  -0.517 -10.918  1.00  0.00     0.053 C 
BRANCH   2   3
ATOM      3  C   UNL     1     -12.589  -1.996 -10.719  1.00  0.00     0.041 C 
ATOM      4  O   UNL     1     -13.609  -2.619 -11.115  1.00  0.00    -0.550 OA
ATOM      5  O   UNL     1     -11.580  -2.680 -10.052  1.00  0.00    -0.550 OA
ENDBRANCH   2   3
ENDBRANCH   1   2
BRANCH   1   6
ATOM      6  C   UNL     1     -13.342   1.617  -9.869  1.00  0.00     0.000 C 
BRANCH   6   7
ATOM      7  C   UNL     1     -11.894   1.733  -9.367  1.00  0.00    -0.000 C 
BRANCH   7   8
ATOM      8  C   UNL     1     -11.555   3.143  -8.861  1.00  0.00    -0.003 C 
ATOM      9  C   UNL     1     -12.817   3.988  -8.705  1.00  0.00     0.004 C 
ENDBRANCH   7   8
ENDBRANCH   6   7
ENDBRANCH   1   6
TORSDOF 5
ENDMDL
MODEL 7
REMARK VINA RESULT:    -4.085      2.120      2.915
REMARK INTER + INTRA:          -5.481
REMARK INTER:                  -5.339
REMARK INTRA:                  -0.143
REMARK UNBOUND:                -0.202
REMARK SMILES CCCCCCC(=O)[O-]
REMARK SMILES IDX 5 1 6 2 7 3 8 4 9 5 4 6 3 7 2 8 1 9
REMARK H PARENT
REMARK Flexibility Score: inf
ROOT
ATOM      1  C   UNL     1     -12.669   0.249 -10.300  1.00  0.00     0.006 C 
ENDROOT
BRANCH   1   2
ATOM      2  C   UNL     1     -12.116   1.512  -9.634  1.00  0.00     0.053 C 
BRANCH   2   3
ATOM      3  C   UNL     1     -13.212   2.500  -9.392  1.00  0.00     0.041 C 
ATOM      4  O   UNL     1     -14.300   2.407 -10.020  1.00  0.00    -0.550 OA
ATOM      5  O   UNL     1     -13.016   3.555  -8.510  1.00  0.00    -0.550 OA
ENDBRANCH   2   3
ENDBRANCH   1   2
BRANCH   1   6
ATOM      6  C   UNL     1     -11.535  -0.604 -10.888  1.00  0.00     0.000 C 
BRANCH   6   7
ATOM      7  C   UNL     1     -11.335  -1.927 -10.132  1.00  0.00    -0.000 C 
BRANCH   7   8
ATOM      8  C   UNL     1     -10.194  -1.854  -9.106  1.00  0.00    -0.003 C 
ATOM      9  C   UNL     1      -9.883  -3.235  -8.533  1.00  0.00     0.004 C 
ENDBRANCH   7   8
ENDBRANCH   6   7
ENDBRANCH   1   6
TORSDOF 5
ENDMDL
MODEL 8
REMARK VINA RESULT:    -3.824     15.588     16.669
REMARK INTER + INTRA:          -5.144
REMARK INTER:                  -4.757
REMARK INTRA:                  -0.387
REMARK UNBOUND:                -0.202
REMARK SMILES CCCCCCC(=O)[O-]
REMARK SMILES IDX 5 1 6 2 7 3 8 4 9 5 4 6 3 7 2 8 1 9
REMARK H PARENT
REMARK Flexibility Score: inf
ROOT
ATOM      1  C   UNL     1     -11.450   4.044   6.824  1.00  0.00     0.006 C 
ENDROOT
BRANCH   1   2
ATOM      2  C   UNL     1     -12.854   4.656   6.805  1.00  0.00     0.053 C 
BRANCH   2   3
ATOM      3  C   UNL     1     -12.947   5.722   5.759  1.00  0.00     0.041 C 
ATOM      4  O   UNL     1     -12.571   6.896   6.017  1.00  0.00    -0.550 OA
ATOM      5  O   UNL     1     -13.495   5.432   4.516  1.00  0.00    -0.550 OA
ENDBRANCH   2   3
ENDBRANCH   1   2
BRANCH   1   6
ATOM      6  C   UNL     1     -10.684   4.469   8.085  1.00  0.00     0.000 C 
BRANCH   6   7
ATOM      7  C   UNL     1      -9.814   5.716   7.859  1.00  0.00    -0.000 C 
BRANCH   7   8
ATOM      8  C   UNL     1      -9.169   5.741   6.465  1.00  0.00    -0.003 C 
ATOM      9  C   UNL     1      -9.155   7.156   5.892  1.00  0.00     0.004 C 
ENDBRANCH   7   8
ENDBRANCH   6   7
ENDBRANCH   1   6
TORSDOF 5
ENDMDL
MODEL 9
REMARK VINA RESULT:    -3.809     14.561     16.338
REMARK INTER + INTRA:          -5.124
REMARK INTER:                  -4.856
REMARK INTRA:                  -0.268
REMARK UNBOUND:                -0.202
REMARK SMILES CCCCCCC(=O)[O-]
REMARK SMILES IDX 5 1 6 2 7 3 8 4 9 5 4 6 3 7 2 8 1 9
REMARK H PARENT
REMARK Flexibility Score: inf
ROOT
ATOM      1  C   UNL     1     -11.737   6.254   5.895  1.00  0.00     0.006 C 
ENDROOT
BRANCH   1   2
ATOM      2  C   UNL     1     -12.958   5.340   5.761  1.00  0.00     0.053 C 
BRANCH   2   3
ATOM      3  C   UNL     1     -13.822   5.783   4.623  1.00  0.00     0.041 C 
ATOM      4  O   UNL     1     -14.968   6.257   4.844  1.00  0.00    -0.550 OA
ATOM      5  O   UNL     1     -13.383   5.627   3.314  1.00  0.00    -0.550 OA
ENDBRANCH   2   3
ENDBRANCH   1   2
BRANCH   1   6
ATOM      6  C   UNL     1     -10.434   5.446   5.805  1.00  0.00     0.000 C 
BRANCH   6   7
ATOM      7  C   UNL     1      -9.491   5.709   6.989  1.00  0.00    -0.000 C 
BRANCH   7   8
ATOM      8  C   UNL     1     -10.218   5.677   8.342  1.00  0.00    -0.003 C 
ATOM      9  C   UNL     1     -10.474   4.241   8.793  1.00  0.00     0.004 C 
ENDBRANCH   7   8
ENDBRANCH   6   7
ENDBRANCH   1   6
TORSDOF 5
ENDMDL
