MODEL 1
REMARK VINA RESULT:    -3.734      0.000      0.000
REMARK INTER + INTRA:          -5.532
REMARK INTER:                  -5.044
REMARK INTRA:                  -0.488
REMARK UNBOUND:                -0.488
REMARK SMILES CCCCCCCC(=O)[O-]
REMARK SMILES IDX 5 1 6 2 7 3 8 4 9 5 10 6 4 7 3 8 2 9 1 10
REMARK H PARENT
REMARK Flexibility Score: inf
ROOT
ATOM      1  C   UNL     1      57.388  11.372  88.568  1.00  0.00     0.000 C 
ENDROOT
BRANCH   1   2
ATOM      2  C   UNL     1      56.344  12.490  88.719  1.00  0.00     0.006 C 
BRANCH   2   3
ATOM      3  C   UNL     1      56.459  13.227  90.061  1.00  0.00     0.053 C 
BRANCH   3   4
ATOM      4  C   UNL     1      57.687  14.082  90.081  1.00  0.00     0.041 C 
ATOM      5  O   UNL     1      58.576  13.896  90.954  1.00  0.00    -0.550 OA
ATOM      6  O   UNL     1      57.827  15.120  89.167  1.00  0.00    -0.550 OA
ENDBRANCH   3   4
ENDBRANCH   2   3
ENDBRANCH   1   2
BRANCH   1   7
ATOM      7  C   UNL     1      57.203  10.247  89.601  1.00  0.00     0.000 C 
BRANCH   7   8
ATOM      8  C   UNL     1      58.531   9.787  90.230  1.00  0.00    -0.000 C 
BRANCH   8   9
ATOM      9  C   UNL     1      59.740  10.689  89.927  1.00  0.00    -0.003 C 
ATOM     10  C   UNL     1      60.820  10.628  91.008  1.00  0.00     0.004 C 
ENDBRANCH   8   9
ENDBRANCH   7   8
ENDBRANCH   1   7
TORSDOF 6
ENDMDL
MODEL 2
REMARK VINA RESULT:    -3.728      2.449      4.229
REMARK INTER + INTRA:          -5.524
REMARK INTER:                  -5.090
REMARK INTRA:                  -0.434
REMARK UNBOUND:                -0.488
REMARK SMILES CCCCCCCC(=O)[O-]
REMARK SMILES IDX 5 1 6 2 7 3 8 4 9 5 10 6 4 7 3 8 2 9 1 10
REMARK H PARENT
REMARK Flexibility Score: inf
ROOT
ATOM      1  C   UNL     1      56.887  12.002  89.550  1.00  0.00     0.000 C 
ENDROOT
BRANCH   1   2
ATOM      2  C   UNL     1      57.954  11.281  88.710  1.00  0.00     0.006 C 
BRANCH   2   3
ATOM      3  C   UNL     1      59.374  11.484  89.257  1.00  0.00     0.053 C 
BRANCH   3   4
ATOM      4  C   UNL     1      59.722  10.393  90.220  1.00  0.00     0.041 C 
ATOM      5  O   UNL     1      60.805  10.435  90.862  1.00  0.00    -0.550 OA
ATOM      6  O   UNL     1      58.873   9.303  90.373  1.00  0.00    -0.550 OA
ENDBRANCH   3   4
ENDBRANCH   2   3
ENDBRANCH   1   2
BRANCH   1   7
ATOM      7  C   UNL     1      56.036  12.974  88.715  1.00  0.00     0.000 C 
BRANCH   7   8
ATOM      8  C   UNL     1      56.239  14.446  89.118  1.00  0.00    -0.000 C 
BRANCH   8   9
ATOM      9  C   UNL     1      57.416  14.701  90.076  1.00  0.00    -0.003 C 
ATOM     10  C   UNL     1      58.585  15.427  89.411  1.00  0.00     0.004 C 
ENDBRANCH   8   9
ENDBRANCH   7   8
ENDBRANCH   1   7
TORSDOF 6
ENDMDL
MODEL 3
REMARK VINA RESULT:    -3.724     11.789     12.564
REMARK INTER + INTRA:          -5.518
REMARK INTER:                  -5.270
REMARK INTRA:                  -0.248
REMARK UNBOUND:                -0.488
REMARK SMILES CCCCCCCC(=O)[O-]
REMARK SMILES IDX 5 1 6 2 7 3 8 4 9 5 10 6 4 7 3 8 2 9 1 10
REMARK H PARENT
REMARK Flexibility Score: inf
ROOT
ATOM      1  C   UNL     1      47.428  16.020  95.081  1.00  0.00     0.000 C 
ENDROOT
BRANCH   1   2
ATOM      2  C   UNL     1      47.871  14.597  95.457  1.00  0.00     0.006 C 
BRANCH   2   3
ATOM      3  C   UNL     1      46.698  13.709  95.895  1.00  0.00     0.053 C 
BRANCH   3   4
ATOM      4  C   UNL     1      46.501  12.589  94.923  1.00  0.00     0.041 C 
ATOM      5  O   UNL     1      46.665  11.395  95.288  1.00  0.00    -0.550 OA
ATOM      6  O   UNL     1      46.186  12.865  93.598  1.00  0.00    -0.550 OA
ENDBRANCH   3   4
ENDBRANCH   2   3
ENDBRANCH   1   2
BRANCH   1   7
ATOM      7  C   UNL     1      48.573  17.042  95.186  1.00  0.00     0.000 C 
BRANCH   7   8
ATOM      8  C   UNL     1      49.821  16.474  95.886  1.00  0.00    -0.000 C 
BRANCH   8   9
ATOM      9  C   UNL     1      50.280  17.254  97.130  1.00  0.00    -0.003 C 
ATOM     10  C   UNL     1      50.836  18.639  96.798  1.00  0.00     0.004 C 
ENDBRANCH   8   9
ENDBRANCH   7   8
ENDBRANCH   1   7
TORSDOF 6
ENDMDL
MODEL 4
REMARK VINA RESULT:    -3.626      1.945      2.832
REMARK INTER + INTRA:          -5.385
REMARK INTER:                  -5.084
REMARK INTRA:                  -0.301
REMARK UNBOUND:                -0.488
REMARK SMILES CCCCCCCC(=O)[O-]
REMARK SMILES IDX 5 1 6 2 7 3 8 4 9 5 10 6 4 7 3 8 2 9 1 10
REMARK H PARENT
REMARK Flexibility Score: inf
ROOT
ATOM      1  C   UNL     1      57.950  13.588  90.041  1.00  0.00     0.000 C 
ENDROOT
BRANCH   1   2
ATOM      2  C   UNL     1      57.860  15.011  89.467  1.00  0.00     0.006 C 
BRANCH   2   3
ATOM      3  C   UNL     1      59.235  15.679  89.324  1.00  0.00     0.053 C 
BRANCH   3   4
ATOM      4  C   UNL     1      59.507  16.567  90.497  1.00  0.00     0.041 C 
ATOM      5  O   UNL     1      59.289  17.805  90.420  1.00  0.00    -0.550 OA
ATOM      6  O   UNL     1      60.050  16.035  91.660  1.00  0.00    -0.550 OA
ENDBRANCH   3   4
ENDBRANCH   2   3
ENDBRANCH   1   2
BRANCH   1   7
ATOM      7  C   UNL     1      57.180  12.560  89.194  1.00  0.00     0.000 C 
BRANCH   7   8
ATOM      8  C   UNL     1      57.919  11.215  89.066  1.00  0.00    -0.000 C 
BRANCH   8   9
ATOM      9  C   UNL     1      59.454  11.313  89.075  1.00  0.00    -0.003 C 
ATOM     10  C   UNL     1      60.098  10.550  90.233  1.00  0.00     0.004 C 
ENDBRANCH   8   9
ENDBRANCH   7   8
ENDBRANCH   1   7
TORSDOF 6
ENDMDL
MODEL 5
REMARK VINA RESULT:    -3.623      2.614      3.510
REMARK INTER + INTRA:          -5.381
REMARK INTER:                  -4.729
REMARK INTRA:                  -0.652
REMARK UNBOUND:                -0.488
REMARK SMILES CCCCCCCC(=O)[O-]
REMARK SMILES IDX 5 1 6 2 7 3 8 4 9 5 10 6 4 7 3 8 2 9 1 10
REMARK H PARENT
REMARK Flexibility Score: inf
ROOT
ATOM      1  C   UNL     1      56.658  13.336  89.821  1.00  0.00     0.000 C 
ENDROOT
BRANCH   1   2
ATOM      2  C   UNL     1      55.810  13.056  91.072  1.00  0.00     0.006 C 
BRANCH   2   3
ATOM      3  C   UNL     1      56.626  12.422  92.208  1.00  0.00     0.053 C 
BRANCH   3   4
ATOM      4  C   UNL     1      56.023  11.113  92.613  1.00  0.00     0.041 C 
ATOM      5  O   UNL     1      55.771  10.235  91.747  1.00  0.00    -0.550 OA
ATOM      6  O   UNL     1      55.691  10.883  93.943  1.00  0.00    -0.550 OA
ENDBRANCH   3   4
ENDBRANCH   2   3
ENDBRANCH   1   2
BRANCH   1   7
ATOM      7  C   UNL     1      56.268  12.442  88.631  1.00  0.00     0.000 C 
BRANCH   7   8
ATOM      8  C   UNL     1      57.101  11.149  88.554  1.00  0.00    -0.000 C 
BRANCH   8   9
ATOM      9  C   UNL     1      58.533  11.265  89.103  1.00  0.00    -0.003 C 
ATOM     10  C   UNL     1      58.868  10.192  90.138  1.00  0.00     0.004 C 
ENDBRANCH   8   9
ENDBRANCH   7   8
ENDBRANCH   1   7
TORSDOF 6
ENDMDL
MODEL 6
REMARK VINA RESULT:    -3.601      3.688      6.013
REMARK INTER + INTRA:          -5.352
REMARK INTER:                  -5.198
REMARK INTRA:                  -0.155
REMARK UNBOUND:                -0.488
REMARK SMILES CCCCCCCC(=O)[O-]
REMARK SMILES IDX 5 1 6 2 7 3 8 4 9 5 10 6 4 7 3 8 2 9 1 10
REMARK H PARENT
REMARK Flexibility Score: inf
ROOT
ATOM      1  C   UNL     1      60.533  10.244  90.963  1.00  0.00     0.000 C 
ENDROOT
BRANCH   1   2
ATOM      2  C   UNL     1      61.632  10.657  91.955  1.00  0.00     0.006 C 
BRANCH   2   3
ATOM      3  C   UNL     1      62.354   9.451  92.572  1.00  0.00     0.053 C 
BRANCH   3   4
ATOM      4  C   UNL     1      63.595   9.895  93.281  1.00  0.00     0.041 C 
ATOM      5  O   UNL     1      63.607  10.980  93.920  1.00  0.00    -0.550 OA
ATOM      6  O   UNL     1      64.755   9.135  93.194  1.00  0.00    -0.550 OA
ENDBRANCH   3   4
ENDBRANCH   2   3
ENDBRANCH   1   2
BRANCH   1   7
ATOM      7  C   UNL     1      60.713  10.892  89.579  1.00  0.00     0.000 C 
BRANCH   7   8
ATOM      8  C   UNL     1      59.431  11.570  89.063  1.00  0.00    -0.000 C 
BRANCH   8   9
ATOM      9  C   UNL     1      58.125  10.828  89.394  1.00  0.00    -0.003 C 
ATOM     10  C   UNL     1      56.891  11.473  88.763  1.00  0.00     0.004 C 
ENDBRANCH   8   9
ENDBRANCH   7   8
ENDBRANCH   1   7
TORSDOF 6
ENDMDL
MODEL 7
REMARK VINA RESULT:    -3.581      2.486      3.975
REMARK INTER + INTRA:          -5.326
REMARK INTER:                  -4.736
REMARK INTRA:                  -0.589
REMARK UNBOUND:                -0.488
REMARK SMILES CCCCCCCC(=O)[O-]
REMARK SMILES IDX 5 1 6 2 7 3 8 4 9 5 10 6 4 7 3 8 2 9 1 10
REMARK H PARENT
REMARK Flexibility Score: inf
ROOT
ATOM      1  C   UNL     1      56.697  12.791  89.119  1.00  0.00     0.000 C 
ENDROOT
BRANCH   1   2
ATOM      2  C   UNL     1      57.303  11.428  88.747  1.00  0.00     0.006 C 
BRANCH   2   3
ATOM      3  C   UNL     1      58.791  11.324  89.109  1.00  0.00     0.053 C 
BRANCH   3   4
ATOM      4  C   UNL     1      59.007  10.238  90.115  1.00  0.00     0.041 C 
ATOM      5  O   UNL     1      58.158   9.318  90.248  1.00  0.00    -0.550 OA
ATOM      6  O   UNL     1      60.123  10.268  90.943  1.00  0.00    -0.550 OA
ENDBRANCH   3   4
ENDBRANCH   2   3
ENDBRANCH   1   2
BRANCH   1   7
ATOM      7  C   UNL     1      55.658  12.687  90.249  1.00  0.00     0.000 C 
BRANCH   7   8
ATOM      8  C   UNL     1      56.257  12.964  91.640  1.00  0.00    -0.000 C 
BRANCH   8   9
ATOM      9  C   UNL     1      56.566  11.710  92.476  1.00  0.00    -0.003 C 
ATOM     10  C   UNL     1      55.544  10.591  92.280  1.00  0.00     0.004 C 
ENDBRANCH   8   9
ENDBRANCH   7   8
ENDBRANCH   1   7
TORSDOF 6
ENDMDL
MODEL 8
REMARK VINA RESULT:    -3.571      3.621      4.773
REMARK INTER + INTRA:          -5.311
REMARK INTER:                  -5.063
REMARK INTRA:                  -0.248
REMARK UNBOUND:                -0.488
REMARK SMILES CCCCCCCC(=O)[O-]
REMARK SMILES IDX 5 1 6 2 7 3 8 4 9 5 10 6 4 7 3 8 2 9 1 10
REMARK H PARENT
REMARK Flexibility Score: inf
ROOT
ATOM      1  C   UNL     1      56.224  11.013  91.789  1.00  0.00     0.000 C 
ENDROOT
BRANCH   1   2
ATOM      2  C   UNL     1      56.745   9.888  90.881  1.00  0.00     0.006 C 
BRANCH   2   3
ATOM      3  C   UNL     1      58.127  10.198  90.290  1.00  0.00     0.053 C 
BRANCH   3   4
ATOM      4  C   UNL     1      58.037  11.336  89.323  1.00  0.00     0.041 C 
ATOM      5  O   UNL     1      58.714  12.381  89.508  1.00  0.00    -0.550 OA
ATOM      6  O   UNL     1      57.166  11.262  88.242  1.00  0.00    -0.550 OA
ENDBRANCH   3   4
ENDBRANCH   2   3
ENDBRANCH   1   2
BRANCH   1   7
ATOM      7  C   UNL     1      55.311  10.491  92.913  1.00  0.00     0.000 C 
BRANCH   7   8
ATOM      8  C   UNL     1      54.552   9.210  92.521  1.00  0.00    -0.000 C 
BRANCH   8   9
ATOM      9  C   UNL     1      54.218   8.268  93.691  1.00  0.00    -0.003 C 
ATOM     10  C   UNL     1      53.044   7.335  93.393  1.00  0.00     0.004 C 
ENDBRANCH   8   9
ENDBRANCH   7   8
ENDBRANCH   1   7
TORSDOF 6
ENDMDL
MODEL 9
REMARK VINA RESULT:    -3.562     14.186     15.915
REMARK INTER + INTRA:          -5.300
REMARK INTER:                  -5.101
REMARK INTRA:                  -0.199
REMARK UNBOUND:                -0.488
REMARK SMILES CCCCCCCC(=O)[O-]
REMARK SMILES IDX 5 1 6 2 7 3 8 4 9 5 10 6 4 7 3 8 2 9 1 10
REMARK H PARENT
REMARK Flexibility Score: inf
ROOT
ATOM      1  C   UNL     1      61.833   6.660 104.616  1.00  0.00     0.000 C 
ENDROOT
BRANCH   1   2
ATOM      2  C   UNL     1      60.756   6.333 103.568  1.00  0.00     0.006 C 
BRANCH   2   3
ATOM      3  C   UNL     1      60.969   7.086 102.247  1.00  0.00     0.053 C 
BRANCH   3   4
ATOM      4  C   UNL     1      60.288   8.417 102.291  1.00  0.00     0.041 C 
ATOM      5  O   UNL     1      59.101   8.510 102.699  1.00  0.00    -0.550 OA
ATOM      6  O   UNL     1      60.948   9.551 101.832  1.00  0.00    -0.550 OA
ENDBRANCH   3   4
ENDBRANCH   2   3
ENDBRANCH   1   2
BRANCH   1   7
ATOM      7  C   UNL     1      62.356   5.405 105.335  1.00  0.00     0.000 C 
BRANCH   7   8
ATOM      8  C   UNL     1      63.893   5.304 105.321  1.00  0.00    -0.000 C 
BRANCH   8   9
ATOM      9  C   UNL     1      64.465   4.015 105.937  1.00  0.00    -0.003 C 
ATOM     10  C   UNL     1      63.408   2.931 106.150  1.00  0.00     0.004 C 
ENDBRANCH   8   9
ENDBRANCH   7   8
ENDBRANCH   1   7
TORSDOF 6
ENDMDL
