MODEL 1
REMARK VINA RESULT:    -5.084      0.000      0.000
REMARK INTER + INTRA:          -5.084
REMARK INTER:                  -5.084
REMARK INTRA:                   0.000
REMARK UNBOUND:                 0.000
REMARK SMILES CC1=CC[C@]2(C)CCCC(C)(C)[C@@]23C[C@@H]13
REMARK SMILES IDX 1 1 2 2 3 3 4 4 5 5 7 6 8 7 9 8 10 9 13 10 15 11 14 12 11 13
REMARK SMILES IDX 12 14 6 15
REMARK H PARENT
REMARK Flexibility Score: inf
ROOT
ATOM      1  C   UNL     1     143.575 142.374 130.228  1.00  0.00     0.039 C 
ATOM      2  C   UNL     1     144.211 143.304 131.221  1.00  0.00    -0.074 C 
ATOM      3  C   UNL     1     144.251 142.971 132.522  1.00  0.00    -0.027 C 
ATOM      4  C   UNL     1     144.970 143.837 133.522  1.00  0.00     0.034 C 
ATOM      5  C   UNL     1     146.278 144.413 132.916  1.00  0.00    -0.022 C 
ATOM      6  C   UNL     1     147.013 145.269 133.992  1.00  0.00     0.008 C 
ATOM      7  C   UNL     1     146.502 146.692 134.125  1.00  0.00     0.001 C 
ATOM      8  C   UNL     1     146.670 147.414 132.794  1.00  0.00     0.007 C 
ATOM      9  C   UNL     1     145.743 146.839 131.696  1.00  0.00    -0.029 C 
ATOM     10  C   UNL     1     145.911 145.252 131.602  1.00  0.00    -0.012 C 
ATOM     11  C   UNL     1     144.777 144.622 130.745  1.00  0.00     0.022 C 
ATOM     12  C   UNL     1     146.201 144.581 130.229  1.00  0.00     0.017 C 
ATOM     13  C   UNL     1     144.276 147.244 132.031  1.00  0.00     0.012 C 
ATOM     14  C   UNL     1     146.128 147.561 130.381  1.00  0.00     0.012 C 
ATOM     15  C   UNL     1     147.247 143.225 132.629  1.00  0.00     0.012 C 
ENDROOT
TORSDOF 0
ENDMDL
MODEL 2
REMARK VINA RESULT:    -4.988      1.180      4.126
REMARK INTER + INTRA:          -4.988
REMARK INTER:                  -4.988
REMARK INTRA:                   0.000
REMARK UNBOUND:                 0.000
REMARK SMILES CC1=CC[C@]2(C)CCCC(C)(C)[C@@]23C[C@@H]13
REMARK SMILES IDX 1 1 2 2 3 3 4 4 5 5 7 6 8 7 9 8 10 9 13 10 15 11 14 12 11 13
REMARK SMILES IDX 12 14 6 15
REMARK H PARENT
REMARK Flexibility Score: inf
ROOT
ATOM      1  C   UNL     1     147.173 148.377 130.230  1.00  0.00     0.039 C 
ATOM      2  C   UNL     1     146.532 147.451 131.223  1.00  0.00    -0.074 C 
ATOM      3  C   UNL     1     146.493 147.784 132.524  1.00  0.00    -0.027 C 
ATOM      4  C   UNL     1     145.769 146.921 133.523  1.00  0.00     0.034 C 
ATOM      5  C   UNL     1     144.459 146.351 132.916  1.00  0.00    -0.022 C 
ATOM      6  C   UNL     1     143.719 145.498 133.991  1.00  0.00     0.008 C 
ATOM      7  C   UNL     1     144.224 144.073 134.125  1.00  0.00     0.001 C 
ATOM      8  C   UNL     1     144.055 143.352 132.794  1.00  0.00     0.007 C 
ATOM      9  C   UNL     1     144.985 143.922 131.697  1.00  0.00    -0.029 C 
ATOM     10  C   UNL     1     144.824 145.509 131.602  1.00  0.00    -0.012 C 
ATOM     11  C   UNL     1     145.961 146.135 130.747  1.00  0.00     0.022 C 
ATOM     12  C   UNL     1     144.539 146.182 130.229  1.00  0.00     0.017 C 
ATOM     13  C   UNL     1     146.450 143.511 132.034  1.00  0.00     0.012 C 
ATOM     14  C   UNL     1     144.600 143.202 130.382  1.00  0.00     0.012 C 
ATOM     15  C   UNL     1     143.496 147.542 132.627  1.00  0.00     0.012 C 
ENDROOT
TORSDOF 0
ENDMDL
MODEL 3
REMARK VINA RESULT:    -4.430      1.470      2.980
REMARK INTER + INTRA:          -4.430
REMARK INTER:                  -4.430
REMARK INTRA:                   0.000
REMARK UNBOUND:                 0.000
REMARK SMILES CC1=CC[C@]2(C)CCCC(C)(C)[C@@]23C[C@@H]13
REMARK SMILES IDX 1 1 2 2 3 3 4 4 5 5 7 6 8 7 9 8 10 9 13 10 15 11 14 12 11 13
REMARK SMILES IDX 12 14 6 15
REMARK H PARENT
REMARK Flexibility Score: inf
ROOT
ATOM      1  C   UNL     1     142.447 147.250 130.297  1.00  0.00     0.039 C 
ATOM      2  C   UNL     1     143.310 146.505 131.273  1.00  0.00    -0.074 C 
ATOM      3  C   UNL     1     142.901 146.340 132.542  1.00  0.00    -0.027 C 
ATOM      4  C   UNL     1     143.700 145.513 133.513  1.00  0.00     0.034 C 
ATOM      5  C   UNL     1     144.300 144.264 132.814  1.00  0.00    -0.022 C 
ATOM      6  C   UNL     1     145.085 143.413 133.858  1.00  0.00     0.008 C 
ATOM      7  C   UNL     1     146.502 143.889 134.125  1.00  0.00     0.001 C 
ATOM      8  C   UNL     1     147.300 143.845 132.829  1.00  0.00     0.007 C 
ATOM      9  C   UNL     1     146.799 144.885 131.798  1.00  0.00    -0.029 C 
ATOM     10  C   UNL     1     145.219 144.749 131.595  1.00  0.00    -0.012 C 
ATOM     11  C   UNL     1     144.650 145.971 130.821  1.00  0.00     0.022 C 
ATOM     12  C   UNL     1     144.628 144.607 130.163  1.00  0.00     0.017 C 
ATOM     13  C   UNL     1     147.195 146.305 132.302  1.00  0.00     0.012 C 
ATOM     14  C   UNL     1     147.595 144.624 130.495  1.00  0.00     0.012 C 
ATOM     15  C   UNL     1     143.124 143.346 132.362  1.00  0.00     0.012 C 
ENDROOT
TORSDOF 0
ENDMDL
MODEL 4
REMARK VINA RESULT:    -4.410      1.458      2.919
REMARK INTER + INTRA:          -4.410
REMARK INTER:                  -4.410
REMARK INTRA:                   0.000
REMARK UNBOUND:                 0.000
REMARK SMILES CC1=CC[C@]2(C)CCCC(C)(C)[C@@]23C[C@@H]13
REMARK SMILES IDX 1 1 2 2 3 3 4 4 5 5 7 6 8 7 9 8 10 9 13 10 15 11 14 12 11 13
REMARK SMILES IDX 12 14 6 15
REMARK H PARENT
REMARK Flexibility Score: inf
ROOT
ATOM      1  C   UNL     1     148.292 143.508 130.375  1.00  0.00     0.039 C 
ATOM      2  C   UNL     1     147.419 144.267 131.331  1.00  0.00    -0.074 C 
ATOM      3  C   UNL     1     147.801 144.423 132.610  1.00  0.00    -0.027 C 
ATOM      4  C   UNL     1     146.995 145.264 133.563  1.00  0.00     0.034 C 
ATOM      5  C   UNL     1     146.434 146.524 132.852  1.00  0.00    -0.022 C 
ATOM      6  C   UNL     1     145.641 147.389 133.878  1.00  0.00     0.008 C 
ATOM      7  C   UNL     1     144.210 146.939 134.110  1.00  0.00     0.001 C 
ATOM      8  C   UNL     1     143.444 146.999 132.795  1.00  0.00     0.007 C 
ATOM      9  C   UNL     1     143.950 145.952 131.775  1.00  0.00    -0.029 C 
ATOM     10  C   UNL     1     145.536 146.058 131.610  1.00  0.00    -0.012 C 
ATOM     11  C   UNL     1     146.101 144.826 130.848  1.00  0.00     0.022 C 
ATOM     12  C   UNL     1     146.164 146.190 130.192  1.00  0.00     0.017 C 
ATOM     13  C   UNL     1     143.515 144.539 132.267  1.00  0.00     0.012 C 
ATOM     14  C   UNL     1     143.191 146.229 130.454  1.00  0.00     0.012 C 
ATOM     15  C   UNL     1     147.638 147.421 132.429  1.00  0.00     0.012 C 
ENDROOT
TORSDOF 0
ENDMDL
MODEL 5
REMARK VINA RESULT:    -4.290      1.234      1.696
REMARK INTER + INTRA:          -4.290
REMARK INTER:                  -4.290
REMARK INTRA:                   0.000
REMARK UNBOUND:                 0.000
REMARK SMILES CC1=CC[C@]2(C)CCCC(C)(C)[C@@]23C[C@@H]13
REMARK SMILES IDX 1 1 2 2 3 3 4 4 5 5 7 6 8 7 9 8 10 9 13 10 15 11 14 12 11 13
REMARK SMILES IDX 12 14 6 15
REMARK H PARENT
REMARK Flexibility Score: inf
ROOT
ATOM      1  C   UNL     1     143.501 142.191 130.582  1.00  0.00     0.039 C 
ATOM      2  C   UNL     1     144.261 143.155 131.447  1.00  0.00    -0.074 C 
ATOM      3  C   UNL     1     145.338 142.737 132.133  1.00  0.00    -0.027 C 
ATOM      4  C   UNL     1     146.174 143.705 132.926  1.00  0.00     0.034 C 
ATOM      5  C   UNL     1     146.314 145.058 132.180  1.00  0.00    -0.022 C 
ATOM      6  C   UNL     1     147.218 146.018 133.011  1.00  0.00     0.008 C 
ATOM      7  C   UNL     1     146.499 146.757 134.125  1.00  0.00     0.001 C 
ATOM      8  C   UNL     1     145.385 147.607 133.527  1.00  0.00     0.007 C 
ATOM      9  C   UNL     1     144.250 146.744 132.927  1.00  0.00    -0.029 C 
ATOM     10  C   UNL     1     144.851 145.657 131.921  1.00  0.00    -0.012 C 
ATOM     11  C   UNL     1     143.785 144.585 131.557  1.00  0.00     0.022 C 
ATOM     12  C   UNL     1     144.278 145.529 130.480  1.00  0.00     0.017 C 
ATOM     13  C   UNL     1     143.470 146.076 134.098  1.00  0.00     0.012 C 
ATOM     14  C   UNL     1     143.276 147.728 132.232  1.00  0.00     0.012 C 
ATOM     15  C   UNL     1     147.111 144.809 130.863  1.00  0.00     0.012 C 
ENDROOT
TORSDOF 0
ENDMDL
MODEL 6
REMARK VINA RESULT:    -3.099      1.321      3.078
REMARK INTER + INTRA:          -3.099
REMARK INTER:                  -3.099
REMARK INTRA:                   0.000
REMARK UNBOUND:                 0.000
REMARK SMILES CC1=CC[C@]2(C)CCCC(C)(C)[C@@]23C[C@@H]13
REMARK SMILES IDX 1 1 2 2 3 3 4 4 5 5 7 6 8 7 9 8 10 9 13 10 15 11 14 12 11 13
REMARK SMILES IDX 12 14 6 15
REMARK H PARENT
REMARK Flexibility Score: inf
ROOT
ATOM      1  C   UNL     1     143.153 142.047 131.873  1.00  0.00     0.039 C 
ATOM      2  C   UNL     1     143.878 143.361 131.828  1.00  0.00    -0.074 C 
ATOM      3  C   UNL     1     143.420 144.354 131.047  1.00  0.00    -0.027 C 
ATOM      4  C   UNL     1     144.070 145.712 131.060  1.00  0.00     0.034 C 
ATOM      5  C   UNL     1     144.499 146.107 132.498  1.00  0.00    -0.022 C 
ATOM      6  C   UNL     1     145.130 147.533 132.477  1.00  0.00     0.008 C 
ATOM      7  C   UNL     1     146.594 147.571 132.078  1.00  0.00     0.001 C 
ATOM      8  C   UNL     1     147.406 146.742 133.065  1.00  0.00     0.007 C 
ATOM      9  C   UNL     1     147.083 145.232 132.965  1.00  0.00    -0.029 C 
ATOM     10  C   UNL     1     145.506 144.994 133.059  1.00  0.00    -0.012 C 
ATOM     11  C   UNL     1     145.136 143.541 132.645  1.00  0.00     0.022 C 
ATOM     12  C   UNL     1     144.933 143.972 134.083  1.00  0.00     0.017 C 
ATOM     13  C   UNL     1     147.669 144.693 131.626  1.00  0.00     0.012 C 
ATOM     14  C   UNL     1     147.862 144.544 134.114  1.00  0.00     0.012 C 
ATOM     15  C   UNL     1     143.214 146.258 133.367  1.00  0.00     0.012 C 
ENDROOT
TORSDOF 0
ENDMDL
MODEL 7
REMARK VINA RESULT:    -2.988      1.490      4.031
REMARK INTER + INTRA:          -2.988
REMARK INTER:                  -2.988
REMARK INTRA:                   0.000
REMARK UNBOUND:                 0.000
REMARK SMILES CC1=CC[C@]2(C)CCCC(C)(C)[C@@]23C[C@@H]13
REMARK SMILES IDX 1 1 2 2 3 3 4 4 5 5 7 6 8 7 9 8 10 9 13 10 15 11 14 12 11 13
REMARK SMILES IDX 12 14 6 15
REMARK H PARENT
REMARK Flexibility Score: inf
ROOT
ATOM      1  C   UNL     1     147.560 148.750 131.870  1.00  0.00     0.039 C 
ATOM      2  C   UNL     1     146.875 147.415 131.832  1.00  0.00    -0.074 C 
ATOM      3  C   UNL     1     147.361 146.432 131.056  1.00  0.00    -0.027 C 
ATOM      4  C   UNL     1     146.753 145.056 131.076  1.00  0.00     0.034 C 
ATOM      5  C   UNL     1     146.335 144.655 132.516  1.00  0.00    -0.022 C 
ATOM      6  C   UNL     1     145.748 143.211 132.503  1.00  0.00     0.008 C 
ATOM      7  C   UNL     1     144.286 143.128 132.104  1.00  0.00     0.001 C 
ATOM      8  C   UNL     1     143.449 143.937 133.087  1.00  0.00     0.007 C 
ATOM      9  C   UNL     1     143.726 145.455 132.980  1.00  0.00    -0.029 C 
ATOM     10  C   UNL     1     145.296 145.741 133.072  1.00  0.00    -0.012 C 
ATOM     11  C   UNL     1     145.623 147.201 132.651  1.00  0.00     0.022 C 
ATOM     12  C   UNL     1     145.839 146.784 134.091  1.00  0.00     0.017 C 
ATOM     13  C   UNL     1     143.125 145.970 131.638  1.00  0.00     0.012 C 
ATOM     14  C   UNL     1     142.928 146.125 134.125  1.00  0.00     0.012 C 
ATOM     15  C   UNL     1     147.625 144.547 133.386  1.00  0.00     0.012 C 
ENDROOT
TORSDOF 0
ENDMDL
MODEL 8
REMARK VINA RESULT:    -2.873      1.273      3.188
REMARK INTER + INTRA:          -2.873
REMARK INTER:                  -2.873
REMARK INTRA:                   0.000
REMARK UNBOUND:                 0.000
REMARK SMILES CC1=CC[C@]2(C)CCCC(C)(C)[C@@]23C[C@@H]13
REMARK SMILES IDX 1 1 2 2 3 3 4 4 5 5 7 6 8 7 9 8 10 9 13 10 15 11 14 12 11 13
REMARK SMILES IDX 12 14 6 15
REMARK H PARENT
REMARK Flexibility Score: inf
ROOT
ATOM      1  C   UNL     1     148.548 143.197 131.949  1.00  0.00     0.039 C 
ATOM      2  C   UNL     1     147.248 143.942 131.862  1.00  0.00    -0.074 C 
ATOM      3  C   UNL     1     146.275 143.502 131.046  1.00  0.00    -0.027 C 
ATOM      4  C   UNL     1     144.928 144.172 131.016  1.00  0.00     0.034 C 
ATOM      5  C   UNL     1     144.491 144.603 132.441  1.00  0.00    -0.022 C 
ATOM      6  C   UNL     1     143.076 145.255 132.375  1.00  0.00     0.008 C 
ATOM      7  C   UNL     1     143.074 146.720 131.981  1.00  0.00     0.001 C 
ATOM      8  C   UNL     1     143.880 147.516 132.998  1.00  0.00     0.007 C 
ATOM      9  C   UNL     1     145.388 147.171 132.948  1.00  0.00    -0.029 C 
ATOM     10  C   UNL     1     145.599 145.590 133.044  1.00  0.00    -0.012 C 
ATOM     11  C   UNL     1     147.059 145.200 132.678  1.00  0.00     0.022 C 
ATOM     12  C   UNL     1     146.576 144.998 134.100  1.00  0.00     0.017 C 
ATOM     13  C   UNL     1     145.981 147.753 131.630  1.00  0.00     0.012 C 
ATOM     14  C   UNL     1     146.048 147.935 134.123  1.00  0.00     0.012 C 
ATOM     15  C   UNL     1     144.291 143.316 133.300  1.00  0.00     0.012 C 
ENDROOT
TORSDOF 0
ENDMDL
MODEL 9
REMARK VINA RESULT:    -2.822      1.330      3.957
REMARK INTER + INTRA:          -2.822
REMARK INTER:                  -2.822
REMARK INTRA:                   0.000
REMARK UNBOUND:                 0.000
REMARK SMILES CC1=CC[C@]2(C)CCCC(C)(C)[C@@]23C[C@@H]13
REMARK SMILES IDX 1 1 2 2 3 3 4 4 5 5 7 6 8 7 9 8 10 9 13 10 15 11 14 12 11 13
REMARK SMILES IDX 12 14 6 15
REMARK H PARENT
REMARK Flexibility Score: inf
ROOT
ATOM      1  C   UNL     1     142.088 147.616 131.926  1.00  0.00     0.039 C 
ATOM      2  C   UNL     1     143.404 146.897 131.856  1.00  0.00    -0.074 C 
ATOM      3  C   UNL     1     144.386 147.370 131.071  1.00  0.00    -0.027 C 
ATOM      4  C   UNL     1     145.747 146.725 131.059  1.00  0.00     0.034 C 
ATOM      5  C   UNL     1     146.159 146.276 132.486  1.00  0.00    -0.022 C 
ATOM      6  C   UNL     1     147.587 145.652 132.441  1.00  0.00     0.008 C 
ATOM      7  C   UNL     1     147.626 144.194 132.019  1.00  0.00     0.001 C 
ATOM      8  C   UNL     1     146.812 143.364 133.002  1.00  0.00     0.007 C 
ATOM      9  C   UNL     1     145.299 143.682 132.924  1.00  0.00    -0.029 C 
ATOM     10  C   UNL     1     145.056 145.257 133.044  1.00  0.00    -0.012 C 
ATOM     11  C   UNL     1     143.598 145.627 132.652  1.00  0.00     0.022 C 
ATOM     12  C   UNL     1     144.044 145.811 134.088  1.00  0.00     0.017 C 
ATOM     13  C   UNL     1     144.748 143.114 131.582  1.00  0.00     0.012 C 
ATOM     14  C   UNL     1     144.627 142.884 134.068  1.00  0.00     0.012 C 
ATOM     15  C   UNL     1     146.315 147.549 133.373  1.00  0.00     0.012 C 
ENDROOT
TORSDOF 0
ENDMDL
