MODEL 1
REMARK VINA RESULT:    -4.137      0.000      0.000
REMARK INTER + INTRA:          -6.408
REMARK INTER:                  -6.313
REMARK INTRA:                  -0.095
REMARK UNBOUND:                -0.095
REMARK SMILES CC1=CCC[C@H](C)C(=O)C[C@@H](C(C)C)C(=O)C1
REMARK SMILES IDX 8 1 9 2 6 3 7 4 5 5 4 6 3 7 2 8 1 9 10 11 11 12 15 13 16 14
REMARK SMILES IDX 17 15 12 17 13 18 14 19
REMARK H PARENT
REMARK Flexibility Score: 70.00
ROOT
ATOM      1  C   UNL     1     -13.987  12.594 -30.441  1.00  0.00     0.136 C 
ATOM      2  O   UNL     1     -13.501  11.552 -30.855  1.00  0.00    -0.299 OA
ENDROOT
BRANCH   1   3
ATOM      3  C   UNL     1     -14.496  13.634 -31.417  1.00  0.00     0.053 C 
ATOM      4  C   UNL     1     -13.470  13.812 -32.543  1.00  0.00     0.016 C 
BRANCH   3   5
ATOM      5  C   UNL     1     -15.881  13.279 -32.010  1.00  0.00     0.015 C 
BRANCH   5   6
ATOM      6  C   UNL     1     -17.048  13.487 -31.028  1.00  0.00     0.028 C 
BRANCH   6   7
ATOM      7  C   UNL     1     -17.569  12.170 -30.503  1.00  0.00    -0.028 C 
ATOM      8  C   UNL     1     -17.462  11.736 -29.227  1.00  0.00    -0.070 CG0
ATOM      9  C   UNL     1     -18.022  10.377 -28.891  1.00  0.00     0.039 C 
ATOM     10  G   UNL     1     -16.816  12.557 -28.128  1.00  0.00     0.000 G0
ENDBRANCH   6   7
ENDBRANCH   5   6
ENDBRANCH   3   5
ENDBRANCH   1   3
BRANCH   1  11
ATOM     11  C   UNL     1     -13.994  12.864 -28.955  1.00  0.00     0.087 C 
BRANCH  11  12
ATOM     12  C   UNL     1     -14.353  11.607 -28.126  1.00  0.00     0.066 C 
BRANCH  12  13
ATOM     13  C   UNL     1     -15.700  11.812 -27.450  1.00  0.00     0.140 C 
ATOM     14  O   UNL     1     -15.905  11.312 -26.353  1.00  0.00    -0.299 OA
BRANCH  13  15
ATOM     15  C   UNL     1     -16.820  12.558 -28.133  1.00  0.00     0.106 CG0
ATOM     16  G   UNL     1     -17.457  11.747 -29.244  1.00  0.00     0.000 G0
ENDBRANCH  13  15
ENDBRANCH  12  13
BRANCH  12  17
ATOM     17  C   UNL     1     -13.258  11.267 -27.065  1.00  0.00    -0.006 C 
ATOM     18  C   UNL     1     -12.157  10.372 -27.665  1.00  0.00     0.008 C 
ATOM     19  C   UNL     1     -12.603  12.531 -26.478  1.00  0.00     0.008 C 
ENDBRANCH  12  17
ENDBRANCH  11  12
ENDBRANCH   1  11
TORSDOF 1
ENDMDL
MODEL 2
REMARK VINA RESULT:    -4.117      1.577      1.809
REMARK INTER + INTRA:          -6.378
REMARK INTER:                  -6.411
REMARK INTRA:                   0.033
REMARK UNBOUND:                -0.095
REMARK SMILES CC1=CCC[C@H](C)C(=O)C[C@@H](C(C)C)C(=O)C1
REMARK SMILES IDX 8 1 9 2 6 3 7 4 5 5 4 6 3 7 2 8 1 9 10 11 11 12 15 13 16 14
REMARK SMILES IDX 17 15 12 17 13 18 14 19
REMARK H PARENT
REMARK Flexibility Score: 70.00
ROOT
ATOM      1  C   UNL     1     -14.317  14.469 -30.221  1.00  0.00     0.136 C 
ATOM      2  O   UNL     1     -14.734  15.599 -30.016  1.00  0.00    -0.299 OA
ENDROOT
BRANCH   1   3
ATOM      3  C   UNL     1     -14.113  13.981 -31.640  1.00  0.00     0.053 C 
ATOM      4  C   UNL     1     -12.898  13.046 -31.681  1.00  0.00     0.016 C 
BRANCH   3   5
ATOM      5  C   UNL     1     -15.358  13.264 -32.215  1.00  0.00     0.015 C 
BRANCH   5   6
ATOM      6  C   UNL     1     -16.688  13.958 -31.872  1.00  0.00     0.028 C 
BRANCH   6   7
ATOM      7  C   UNL     1     -17.714  12.969 -31.372  1.00  0.00    -0.028 C 
ATOM      8  C   UNL     1     -18.077  12.800 -30.081  1.00  0.00    -0.070 CG0
ATOM      9  C   UNL     1     -19.104  11.742 -29.766  1.00  0.00     0.039 C 
ATOM     10  G   UNL     1     -17.507  13.632 -28.948  1.00  0.00     0.000 G0
ENDBRANCH   6   7
ENDBRANCH   5   6
ENDBRANCH   3   5
ENDBRANCH   1   3
BRANCH   1  11
ATOM     11  C   UNL     1     -14.091  13.544 -29.048  1.00  0.00     0.087 C 
BRANCH  11  12
ATOM     12  C   UNL     1     -15.152  12.419 -28.967  1.00  0.00     0.066 C 
BRANCH  12  13
ATOM     13  C   UNL     1     -16.370  12.924 -28.210  1.00  0.00     0.140 C 
ATOM     14  O   UNL     1     -16.460  12.715 -27.008  1.00  0.00    -0.299 OA
BRANCH  13  15
ATOM     15  C   UNL     1     -17.510  13.614 -28.917  1.00  0.00     0.106 CG0
ATOM     16  G   UNL     1     -18.047  12.797 -30.076  1.00  0.00     0.000 G0
ENDBRANCH  13  15
ENDBRANCH  12  13
BRANCH  12  17
ATOM     17  C   UNL     1     -14.590  11.127 -28.294  1.00  0.00    -0.006 C 
ATOM     18  C   UNL     1     -14.526   9.957 -29.295  1.00  0.00     0.008 C 
ATOM     19  C   UNL     1     -13.188  11.343 -27.696  1.00  0.00     0.008 C 
ENDBRANCH  12  17
ENDBRANCH  11  12
ENDBRANCH   1  11
TORSDOF 1
ENDMDL
MODEL 3
REMARK VINA RESULT:    -4.064      1.896      3.908
REMARK INTER + INTRA:          -6.297
REMARK INTER:                  -6.742
REMARK INTRA:                   0.444
REMARK UNBOUND:                -0.095
REMARK SMILES CC1=CCC[C@H](C)C(=O)C[C@@H](C(C)C)C(=O)C1
REMARK SMILES IDX 8 1 9 2 6 3 7 4 5 5 4 6 3 7 2 8 1 9 10 11 11 12 15 13 16 14
REMARK SMILES IDX 17 15 12 17 13 18 14 19
REMARK H PARENT
REMARK Flexibility Score: 70.00
ROOT
ATOM      1  C   UNL     1     -16.777  12.606 -28.857  1.00  0.00     0.136 C 
ATOM      2  O   UNL     1     -16.942  13.683 -28.302  1.00  0.00    -0.299 OA
ENDROOT
BRANCH   1   3
ATOM      3  C   UNL     1     -17.728  12.161 -29.949  1.00  0.00     0.053 C 
ATOM      4  C   UNL     1     -19.121  11.944 -29.344  1.00  0.00     0.016 C 
BRANCH   3   5
ATOM      5  C   UNL     1     -17.808  13.164 -31.125  1.00  0.00     0.015 C 
BRANCH   5   6
ATOM      6  C   UNL     1     -16.472  13.359 -31.866  1.00  0.00     0.028 C 
BRANCH   6   7
ATOM      7  C   UNL     1     -15.695  14.525 -31.304  1.00  0.00    -0.028 C 
ATOM      8  C   UNL     1     -14.395  14.497 -30.936  1.00  0.00    -0.070 CG0
ATOM      9  C   UNL     1     -13.790  15.758 -30.370  1.00  0.00     0.039 C 
ATOM     10  G   UNL     1     -13.523  13.264 -31.077  1.00  0.00     0.000 G0
ENDBRANCH   6   7
ENDBRANCH   5   6
ENDBRANCH   3   5
ENDBRANCH   1   3
BRANCH   1  11
ATOM     11  C   UNL     1     -15.669  11.696 -28.383  1.00  0.00     0.087 C 
BRANCH  11  12
ATOM     12  C   UNL     1     -14.263  12.235 -28.745  1.00  0.00     0.066 C 
BRANCH  12  13
ATOM     13  C   UNL     1     -14.040  12.103 -30.244  1.00  0.00     0.140 C 
ATOM     14  O   UNL     1     -14.230  11.023 -30.787  1.00  0.00    -0.299 OA
BRANCH  13  15
ATOM     15  C   UNL     1     -13.518  13.253 -31.068  1.00  0.00     0.106 CG0
ATOM     16  G   UNL     1     -14.376  14.495 -30.933  1.00  0.00     0.000 G0
ENDBRANCH  13  15
ENDBRANCH  12  13
BRANCH  12  17
ATOM     17  C   UNL     1     -13.131  11.501 -27.959  1.00  0.00    -0.006 C 
ATOM     18  C   UNL     1     -12.737  12.278 -26.688  1.00  0.00     0.008 C 
ATOM     19  C   UNL     1     -13.532  10.069 -27.560  1.00  0.00     0.008 C 
ENDBRANCH  12  17
ENDBRANCH  11  12
ENDBRANCH   1  11
TORSDOF 1
ENDMDL
MODEL 4
REMARK VINA RESULT:    -3.921      2.075      4.489
REMARK INTER + INTRA:          -6.079
REMARK INTER:                  -6.080
REMARK INTRA:                   0.001
REMARK UNBOUND:                -0.095
REMARK SMILES CC1=CCC[C@H](C)C(=O)C[C@@H](C(C)C)C(=O)C1
REMARK SMILES IDX 8 1 9 2 6 3 7 4 5 5 4 6 3 7 2 8 1 9 10 11 11 12 15 13 16 14
REMARK SMILES IDX 17 15 12 17 13 18 14 19
REMARK H PARENT
REMARK Flexibility Score: 70.00
ROOT
ATOM      1  C   UNL     1     -14.311  10.919 -29.419  1.00  0.00     0.136 C 
ATOM      2  O   UNL     1     -14.437   9.930 -30.127  1.00  0.00    -0.299 OA
ENDROOT
BRANCH   1   3
ATOM      3  C   UNL     1     -12.956  11.579 -29.272  1.00  0.00     0.053 C 
ATOM      4  C   UNL     1     -12.019  10.638 -28.504  1.00  0.00     0.016 C 
BRANCH   3   5
ATOM      5  C   UNL     1     -12.325  11.969 -30.630  1.00  0.00     0.015 C 
BRANCH   5   6
ATOM      6  C   UNL     1     -13.274  12.752 -31.554  1.00  0.00     0.028 C 
BRANCH   6   7
ATOM      7  C   UNL     1     -13.341  14.211 -31.168  1.00  0.00    -0.028 C 
ATOM      8  C   UNL     1     -14.472  14.900 -30.899  1.00  0.00    -0.070 CG0
ATOM      9  C   UNL     1     -14.346  16.363 -30.554  1.00  0.00     0.039 C 
ATOM     10  G   UNL     1     -15.850  14.266 -30.917  1.00  0.00     0.000 G0
ENDBRANCH   6   7
ENDBRANCH   5   6
ENDBRANCH   3   5
ENDBRANCH   1   3
BRANCH   1  11
ATOM     11  C   UNL     1     -15.500  11.416 -28.632  1.00  0.00     0.087 C 
BRANCH  11  12
ATOM     12  C   UNL     1     -16.548  12.125 -29.525  1.00  0.00     0.066 C 
BRANCH  12  13
ATOM     13  C   UNL     1     -16.223  13.608 -29.608  1.00  0.00     0.140 C 
ATOM     14  O   UNL     1     -16.316  14.301 -28.604  1.00  0.00    -0.299 OA
BRANCH  13  15
ATOM     15  C   UNL     1     -15.859  14.264 -30.917  1.00  0.00     0.106 CG0
ATOM     16  G   UNL     1     -14.485  14.904 -30.878  1.00  0.00     0.000 G0
ENDBRANCH  13  15
ENDBRANCH  12  13
BRANCH  12  17
ATOM     17  C   UNL     1     -18.005  11.915 -29.003  1.00  0.00    -0.006 C 
ATOM     18  C   UNL     1     -19.016  12.747 -29.815  1.00  0.00     0.008 C 
ATOM     19  C   UNL     1     -18.433  10.437 -29.045  1.00  0.00     0.008 C 
ENDBRANCH  12  17
ENDBRANCH  11  12
ENDBRANCH   1  11
TORSDOF 1
ENDMDL
MODEL 5
REMARK VINA RESULT:    -3.911      1.738      4.012
REMARK INTER + INTRA:          -6.065
REMARK INTER:                  -6.149
REMARK INTRA:                   0.084
REMARK UNBOUND:                -0.095
REMARK SMILES CC1=CCC[C@H](C)C(=O)C[C@@H](C(C)C)C(=O)C1
REMARK SMILES IDX 8 1 9 2 6 3 7 4 5 5 4 6 3 7 2 8 1 9 10 11 11 12 15 13 16 14
REMARK SMILES IDX 17 15 12 17 13 18 14 19
REMARK H PARENT
REMARK Flexibility Score: 70.00
ROOT
ATOM      1  C   UNL     1     -13.874  12.319 -28.614  1.00  0.00     0.136 C 
ATOM      2  O   UNL     1     -13.395  13.273 -28.018  1.00  0.00    -0.299 OA
ENDROOT
BRANCH   1   3
ATOM      3  C   UNL     1     -13.752  10.924 -28.036  1.00  0.00     0.053 C 
ATOM      4  C   UNL     1     -12.607  10.901 -27.017  1.00  0.00     0.016 C 
BRANCH   3   5
ATOM      5  C   UNL     1     -15.062  10.428 -27.377  1.00  0.00     0.015 C 
BRANCH   5   6
ATOM      6  C   UNL     1     -16.180  11.486 -27.346  1.00  0.00     0.028 C 
BRANCH   6   7
ATOM      7  C   UNL     1     -17.313  11.119 -28.275  1.00  0.00    -0.028 C 
ATOM      8  C   UNL     1     -17.975  11.979 -29.080  1.00  0.00    -0.070 CG0
ATOM      9  C   UNL     1     -19.101  11.435 -29.924  1.00  0.00     0.039 C 
ATOM     10  G   UNL     1     -17.630  13.452 -29.178  1.00  0.00     0.000 G0
ENDBRANCH   6   7
ENDBRANCH   5   6
ENDBRANCH   3   5
ENDBRANCH   1   3
BRANCH   1  11
ATOM     11  C   UNL     1     -14.508  12.540 -29.967  1.00  0.00     0.087 C 
BRANCH  11  12
ATOM     12  C   UNL     1     -15.183  13.928 -30.085  1.00  0.00     0.066 C 
BRANCH  12  13
ATOM     13  C   UNL     1     -16.673  13.749 -30.331  1.00  0.00     0.140 C 
ATOM     14  O   UNL     1     -17.119  13.904 -31.460  1.00  0.00    -0.299 OA
BRANCH  13  15
ATOM     15  C   UNL     1     -17.630  13.457 -29.203  1.00  0.00     0.106 CG0
ATOM     16  G   UNL     1     -17.960  11.981 -29.095  1.00  0.00     0.000 G0
ENDBRANCH  13  15
ENDBRANCH  12  13
BRANCH  12  17
ATOM     17  C   UNL     1     -14.545  14.798 -31.215  1.00  0.00    -0.006 C 
ATOM     18  C   UNL     1     -14.055  16.153 -30.668  1.00  0.00     0.008 C 
ATOM     19  C   UNL     1     -13.367  14.087 -31.904  1.00  0.00     0.008 C 
ENDBRANCH  12  17
ENDBRANCH  11  12
ENDBRANCH   1  11
TORSDOF 1
ENDMDL
MODEL 6
REMARK VINA RESULT:    -3.793      1.958      4.289
REMARK INTER + INTRA:          -5.885
REMARK INTER:                  -5.986
REMARK INTRA:                   0.101
REMARK UNBOUND:                -0.095
REMARK SMILES CC1=CCC[C@H](C)C(=O)C[C@@H](C(C)C)C(=O)C1
REMARK SMILES IDX 8 1 9 2 6 3 7 4 5 5 4 6 3 7 2 8 1 9 10 11 11 12 15 13 16 14
REMARK SMILES IDX 17 15 12 17 13 18 14 19
REMARK H PARENT
REMARK Flexibility Score: 70.00
ROOT
ATOM      1  C   UNL     1     -16.451  13.847 -30.544  1.00  0.00     0.136 C 
ATOM      2  O   UNL     1     -16.775  14.325 -31.622  1.00  0.00    -0.299 OA
ENDROOT
BRANCH   1   3
ATOM      3  C   UNL     1     -17.512  13.351 -29.584  1.00  0.00     0.053 C 
ATOM      4  C   UNL     1     -18.112  12.049 -30.128  1.00  0.00     0.016 C 
BRANCH   3   5
ATOM      5  C   UNL     1     -16.973  13.131 -28.151  1.00  0.00     0.015 C 
BRANCH   5   6
ATOM      6  C   UNL     1     -16.758  11.651 -27.788  1.00  0.00     0.028 C 
BRANCH   6   7
ATOM      7  C   UNL     1     -15.326  11.382 -27.390  1.00  0.00    -0.028 C 
ATOM      8  C   UNL     1     -14.328  11.041 -28.235  1.00  0.00    -0.070 CG0
ATOM      9  C   UNL     1     -12.961  10.786 -27.651  1.00  0.00     0.039 C 
ATOM     10  G   UNL     1     -14.521  10.916 -29.734  1.00  0.00     0.000 G0
ENDBRANCH   6   7
ENDBRANCH   5   6
ENDBRANCH   3   5
ENDBRANCH   1   3
BRANCH   1  11
ATOM     11  C   UNL     1     -14.992  13.840 -30.152  1.00  0.00     0.087 C 
BRANCH  11  12
ATOM     12  C   UNL     1     -14.108  13.081 -31.172  1.00  0.00     0.066 C 
BRANCH  12  13
ATOM     13  C   UNL     1     -13.615  11.784 -30.550  1.00  0.00     0.140 C 
ATOM     14  O   UNL     1     -12.467  11.417 -30.757  1.00  0.00    -0.299 OA
BRANCH  13  15
ATOM     15  C   UNL     1     -14.531  10.897 -29.744  1.00  0.00     0.106 CG0
ATOM     16  G   UNL     1     -14.322  11.058 -28.251  1.00  0.00     0.000 G0
ENDBRANCH  13  15
ENDBRANCH  12  13
BRANCH  12  17
ATOM     17  C   UNL     1     -12.902  13.944 -31.661  1.00  0.00    -0.006 C 
ATOM     18  C   UNL     1     -12.541  13.624 -33.124  1.00  0.00     0.008 C 
ATOM     19  C   UNL     1     -13.176  15.454 -31.538  1.00  0.00     0.008 C 
ENDBRANCH  12  17
ENDBRANCH  11  12
ENDBRANCH   1  11
TORSDOF 1
ENDMDL
MODEL 7
REMARK VINA RESULT:    -3.687      2.055      4.957
REMARK INTER + INTRA:          -5.722
REMARK INTER:                  -5.696
REMARK INTRA:                  -0.025
REMARK UNBOUND:                -0.095
REMARK SMILES CC1=CCC[C@H](C)C(=O)C[C@@H](C(C)C)C(=O)C1
REMARK SMILES IDX 8 1 9 2 6 3 7 4 5 5 4 6 3 7 2 8 1 9 10 11 11 12 15 13 16 14
REMARK SMILES IDX 17 15 12 17 13 18 14 19
REMARK H PARENT
REMARK Flexibility Score: 70.00
ROOT
ATOM      1  C   UNL     1     -16.510  12.811 -28.319  1.00  0.00     0.136 C 
ATOM      2  O   UNL     1     -17.247  13.758 -28.552  1.00  0.00    -0.299 OA
ENDROOT
BRANCH   1   3
ATOM      3  C   UNL     1     -17.035  11.608 -27.563  1.00  0.00     0.053 C 
ATOM      4  C   UNL     1     -17.230  10.445 -28.542  1.00  0.00     0.016 C 
BRANCH   3   5
ATOM      5  C   UNL     1     -16.111  11.177 -26.399  1.00  0.00     0.015 C 
BRANCH   5   6
ATOM      6  C   UNL     1     -15.329   9.880 -26.675  1.00  0.00     0.028 C 
BRANCH   6   7
ATOM      7  C   UNL     1     -13.841  10.133 -26.728  1.00  0.00    -0.028 C 
ATOM      8  C   UNL     1     -13.097  10.202 -27.854  1.00  0.00    -0.070 CG0
ATOM      9  C   UNL     1     -11.615  10.438 -27.711  1.00  0.00     0.039 C 
ATOM     10  G   UNL     1     -13.688  10.066 -29.244  1.00  0.00     0.000 G0
ENDBRANCH   6   7
ENDBRANCH   5   6
ENDBRANCH   3   5
ENDBRANCH   1   3
BRANCH   1  11
ATOM     11  C   UNL     1     -15.056  12.895 -28.718  1.00  0.00     0.087 C 
BRANCH  11  12
ATOM     12  C   UNL     1     -14.791  12.298 -30.122  1.00  0.00     0.066 C 
BRANCH  12  13
ATOM     13  C   UNL     1     -13.622  11.328 -30.048  1.00  0.00     0.140 C 
ATOM     14  O   UNL     1     -12.618  11.544 -30.712  1.00  0.00    -0.299 OA
BRANCH  13  15
ATOM     15  C   UNL     1     -13.698  10.061 -29.232  1.00  0.00     0.106 CG0
ATOM     16  G   UNL     1     -13.098  10.230 -27.850  1.00  0.00     0.000 G0
ENDBRANCH  13  15
ENDBRANCH  12  13
BRANCH  12  17
ATOM     17  C   UNL     1     -14.514  13.404 -31.189  1.00  0.00    -0.006 C 
ATOM     18  C   UNL     1     -15.461  13.267 -32.397  1.00  0.00     0.008 C 
ATOM     19  C   UNL     1     -14.654  14.823 -30.609  1.00  0.00     0.008 C 
ENDBRANCH  12  17
ENDBRANCH  11  12
ENDBRANCH   1  11
TORSDOF 1
ENDMDL
MODEL 8
REMARK VINA RESULT:    -3.518      1.689      2.014
REMARK INTER + INTRA:          -5.465
REMARK INTER:                  -5.413
REMARK INTRA:                  -0.052
REMARK UNBOUND:                -0.095
REMARK SMILES CC1=CCC[C@H](C)C(=O)C[C@@H](C(C)C)C(=O)C1
REMARK SMILES IDX 8 1 9 2 6 3 7 4 5 5 4 6 3 7 2 8 1 9 10 11 11 12 15 13 16 14
REMARK SMILES IDX 17 15 12 17 13 18 14 19
REMARK H PARENT
REMARK Flexibility Score: 70.00
ROOT
ATOM      1  C   UNL     1     -15.118  13.870 -29.474  1.00  0.00     0.136 C 
ATOM      2  O   UNL     1     -14.152  14.615 -29.395  1.00  0.00    -0.299 OA
ENDROOT
BRANCH   1   3
ATOM      3  C   UNL     1     -16.102  14.021 -30.616  1.00  0.00     0.053 C 
ATOM      4  C   UNL     1     -15.684  13.095 -31.765  1.00  0.00     0.016 C 
BRANCH   3   5
ATOM      5  C   UNL     1     -17.562  13.726 -30.197  1.00  0.00     0.015 C 
BRANCH   5   6
ATOM      6  C   UNL     1     -18.151  12.462 -30.848  1.00  0.00     0.028 C 
BRANCH   6   7
ATOM      7  C   UNL     1     -18.977  11.668 -29.863  1.00  0.00    -0.028 C 
ATOM      8  C   UNL     1     -18.569  10.554 -29.216  1.00  0.00    -0.070 CG0
ATOM      9  C   UNL     1     -19.544   9.878 -28.285  1.00  0.00     0.039 C 
ATOM     10  G   UNL     1     -17.180   9.968 -29.377  1.00  0.00     0.000 G0
ENDBRANCH   6   7
ENDBRANCH   5   6
ENDBRANCH   3   5
ENDBRANCH   1   3
BRANCH   1  11
ATOM     11  C   UNL     1     -15.360  12.860 -28.377  1.00  0.00     0.087 C 
BRANCH  11  12
ATOM     12  C   UNL     1     -15.052  11.411 -28.827  1.00  0.00     0.066 C 
BRANCH  12  13
ATOM     13  C   UNL     1     -16.181  10.492 -28.387  1.00  0.00     0.140 C 
ATOM     14  O   UNL     1     -16.255  10.148 -27.216  1.00  0.00    -0.299 OA
BRANCH  13  15
ATOM     15  C   UNL     1     -17.174   9.933 -29.376  1.00  0.00     0.106 CG0
ATOM     16  G   UNL     1     -18.554  10.539 -29.212  1.00  0.00     0.000 G0
ENDBRANCH  13  15
ENDBRANCH  12  13
BRANCH  12  17
ATOM     17  C   UNL     1     -13.685  10.900 -28.268  1.00  0.00    -0.006 C 
ATOM     18  C   UNL     1     -12.513  11.346 -29.163  1.00  0.00     0.008 C 
ATOM     19  C   UNL     1     -13.424  11.385 -26.831  1.00  0.00     0.008 C 
ENDBRANCH  12  17
ENDBRANCH  11  12
ENDBRANCH   1  11
TORSDOF 1
ENDMDL
MODEL 9
REMARK VINA RESULT:    -3.271      1.949      5.076
REMARK INTER + INTRA:          -5.087
REMARK INTER:                  -5.200
REMARK INTRA:                   0.112
REMARK UNBOUND:                -0.095
REMARK SMILES CC1=CCC[C@H](C)C(=O)C[C@@H](C(C)C)C(=O)C1
REMARK SMILES IDX 8 1 9 2 6 3 7 4 5 5 4 6 3 7 2 8 1 9 10 11 11 12 15 13 16 14
REMARK SMILES IDX 17 15 12 17 13 18 14 19
REMARK H PARENT
REMARK Flexibility Score: 70.00
ROOT
ATOM      1  C   UNL     1     -16.444  11.654 -27.729  1.00  0.00     0.136 C 
ATOM      2  O   UNL     1     -17.161  10.762 -27.299  1.00  0.00    -0.299 OA
ENDROOT
BRANCH   1   3
ATOM      3  C   UNL     1     -14.989  11.725 -27.311  1.00  0.00     0.053 C 
ATOM      4  C   UNL     1     -14.669  10.534 -26.399  1.00  0.00     0.016 C 
BRANCH   3   5
ATOM      5  C   UNL     1     -14.017  11.751 -28.515  1.00  0.00     0.015 C 
BRANCH   5   6
ATOM      6  C   UNL     1     -13.625  13.169 -28.966  1.00  0.00     0.028 C 
BRANCH   6   7
ATOM      7  C   UNL     1     -13.522  13.262 -30.470  1.00  0.00    -0.028 C 
ATOM      8  C   UNL     1     -14.470  13.767 -31.291  1.00  0.00    -0.070 CG0
ATOM      9  C   UNL     1     -14.201  13.755 -32.775  1.00  0.00     0.039 C 
ATOM     10  G   UNL     1     -15.775  14.349 -30.786  1.00  0.00     0.000 G0
ENDBRANCH   6   7
ENDBRANCH   5   6
ENDBRANCH   3   5
ENDBRANCH   1   3
BRANCH   1  11
ATOM     11  C   UNL     1     -17.047  12.724 -28.607  1.00  0.00     0.087 C 
BRANCH  11  12
ATOM     12  C   UNL     1     -17.230  12.255 -30.071  1.00  0.00     0.066 C 
BRANCH  12  13
ATOM     13  C   UNL     1     -16.942  13.413 -31.015  1.00  0.00     0.140 C 
ATOM     14  O   UNL     1     -17.630  13.558 -32.016  1.00  0.00    -0.299 OA
BRANCH  13  15
ATOM     15  C   UNL     1     -15.779  14.346 -30.787  1.00  0.00     0.106 CG0
ATOM     16  G   UNL     1     -14.473  13.776 -31.305  1.00  0.00     0.000 G0
ENDBRANCH  13  15
ENDBRANCH  12  13
BRANCH  12  17
ATOM     17  C   UNL     1     -18.660  11.683 -30.332  1.00  0.00    -0.006 C 
ATOM     18  C   UNL     1     -18.733  10.182 -29.992  1.00  0.00     0.008 C 
ATOM     19  C   UNL     1     -19.741  12.426 -29.527  1.00  0.00     0.008 C 
ENDBRANCH  12  17
ENDBRANCH  11  12
ENDBRANCH   1  11
TORSDOF 1
ENDMDL
