MODEL 1
REMARK VINA RESULT:    -3.103      0.000      0.000
REMARK INTER + INTRA:          -4.952
REMARK INTER:                  -4.282
REMARK INTRA:                  -0.670
REMARK UNBOUND:                -0.670
REMARK SMILES OC[C@H](O)C(O)[C@@H](O)CO
REMARK SMILES IDX 5 1 7 2 9 3 10 4 8 6 3 8 2 9 1 10 4 12 6 14
REMARK H PARENT 10 5 8 7 1 11 4 13 6 15
REMARK Flexibility Score: inf
ROOT
ATOM      1  C   UNL     1      29.889 -21.529  22.235  1.00  0.00     0.176 C 
ENDROOT
BRANCH   1   2
ATOM      2  C   UNL     1      28.937 -21.380  23.447  1.00  0.00     0.171 C 
BRANCH   2   3
ATOM      3  C   UNL     1      29.272 -20.131  24.284  1.00  0.00     0.190 C 
BRANCH   3   4
ATOM      4  O   UNL     1      30.024 -20.484  25.414  1.00  0.00    -0.394 OA
ATOM      5  H   UNL     1      29.608 -21.304  25.787  1.00  0.00     0.210 HD
ENDBRANCH   3   4
ENDBRANCH   2   3
BRANCH   2   6
ATOM      6  O   UNL     1      28.946 -22.534  24.253  1.00  0.00    -0.388 OA
ATOM      7  H   UNL     1      28.023 -22.675  24.593  1.00  0.00     0.211 HD
ENDBRANCH   2   6
ENDBRANCH   1   2
BRANCH   1   8
ATOM      8  C   UNL     1      29.589 -22.818  21.432  1.00  0.00     0.171 C 
BRANCH   8   9
ATOM      9  C   UNL     1      30.036 -22.700  19.965  1.00  0.00     0.190 C 
BRANCH   9  10
ATOM     10  O   UNL     1      31.417 -22.473  19.892  1.00  0.00    -0.394 OA
ATOM     11  H   UNL     1      31.555 -21.526  20.155  1.00  0.00     0.210 HD
ENDBRANCH   9  10
ENDBRANCH   8   9
BRANCH   8  12
ATOM     12  O   UNL     1      28.212 -23.094  21.478  1.00  0.00    -0.388 OA
ATOM     13  H   UNL     1      27.844 -22.599  22.256  1.00  0.00     0.211 HD
ENDBRANCH   8  12
ENDBRANCH   1   8
BRANCH   1  14
ATOM     14  O   UNL     1      31.222 -21.546  22.687  1.00  0.00    -0.388 OA
ATOM     15  H   UNL     1      31.462 -22.492  22.865  1.00  0.00     0.211 HD
ENDBRANCH   1  14
TORSDOF 9
ENDMDL
MODEL 2
REMARK VINA RESULT:    -3.053      1.960      3.516
REMARK INTER + INTRA:          -4.883
REMARK INTER:                  -4.143
REMARK INTRA:                  -0.740
REMARK UNBOUND:                -0.670
REMARK SMILES OC[C@H](O)C(O)[C@@H](O)CO
REMARK SMILES IDX 5 1 7 2 9 3 10 4 8 6 3 8 2 9 1 10 4 12 6 14
REMARK H PARENT 10 5 8 7 1 11 4 13 6 15
REMARK Flexibility Score: inf
ROOT
ATOM      1  C   UNL     1      30.151 -20.853  22.605  1.00  0.00     0.176 C 
ENDROOT
BRANCH   1   2
ATOM      2  C   UNL     1      30.155 -22.386  22.386  1.00  0.00     0.171 C 
BRANCH   2   3
ATOM      3  C   UNL     1      29.656 -22.760  20.977  1.00  0.00     0.190 C 
BRANCH   3   4
ATOM      4  O   UNL     1      30.722 -22.768  20.065  1.00  0.00    -0.394 OA
ATOM      5  H   UNL     1      31.310 -22.007  20.310  1.00  0.00     0.210 HD
ENDBRANCH   3   4
ENDBRANCH   2   3
BRANCH   2   6
ATOM      6  O   UNL     1      29.401 -23.049  23.373  1.00  0.00    -0.388 OA
ATOM      7  H   UNL     1      29.123 -23.927  23.002  1.00  0.00     0.211 HD
ENDBRANCH   2   6
ENDBRANCH   1   2
BRANCH   1   8
ATOM      8  C   UNL     1      28.774 -20.234  22.259  1.00  0.00     0.171 C 
BRANCH   8   9
ATOM      9  C   UNL     1      28.822 -18.697  22.241  1.00  0.00     0.190 C 
BRANCH   9  10
ATOM     10  O   UNL     1      29.322 -18.237  21.016  1.00  0.00    -0.394 OA
ATOM     11  H   UNL     1      28.767 -18.666  20.313  1.00  0.00     0.210 HD
ENDBRANCH   9  10
ENDBRANCH   8   9
BRANCH   8  12
ATOM     12  O   UNL     1      27.817 -20.659  23.194  1.00  0.00    -0.388 OA
ATOM     13  H   UNL     1      28.288 -20.773  24.060  1.00  0.00     0.211 HD
ENDBRANCH   8  12
ENDBRANCH   1   8
BRANCH   1  14
ATOM     14  O   UNL     1      31.154 -20.264  21.811  1.00  0.00    -0.388 OA
ATOM     15  H   UNL     1      31.198 -20.776  20.963  1.00  0.00     0.211 HD
ENDBRANCH   1  14
TORSDOF 9
ENDMDL
MODEL 3
REMARK VINA RESULT:    -3.052     12.550     13.927
REMARK INTER + INTRA:          -4.881
REMARK INTER:                  -3.906
REMARK INTRA:                  -0.975
REMARK UNBOUND:                -0.670
REMARK SMILES OC[C@H](O)C(O)[C@@H](O)CO
REMARK SMILES IDX 5 1 7 2 9 3 10 4 8 6 3 8 2 9 1 10 4 12 6 14
REMARK H PARENT 10 5 8 7 1 11 4 13 6 15
REMARK Flexibility Score: inf
ROOT
ATOM      1  C   UNL     1      28.042 -22.843  35.422  1.00  0.00     0.176 C 
ENDROOT
BRANCH   1   2
ATOM      2  C   UNL     1      27.526 -23.125  36.854  1.00  0.00     0.171 C 
BRANCH   2   3
ATOM      3  C   UNL     1      26.031 -22.781  36.998  1.00  0.00     0.190 C 
BRANCH   3   4
ATOM      4  O   UNL     1      25.865 -21.410  37.247  1.00  0.00    -0.394 OA
ATOM      5  H   UNL     1      25.004 -21.148  36.828  1.00  0.00     0.210 HD
ENDBRANCH   3   4
ENDBRANCH   2   3
BRANCH   2   6
ATOM      6  O   UNL     1      28.288 -22.440  37.819  1.00  0.00    -0.388 OA
ATOM      7  H   UNL     1      28.193 -21.467  37.646  1.00  0.00     0.211 HD
ENDBRANCH   2   6
ENDBRANCH   1   2
BRANCH   1   8
ATOM      8  C   UNL     1      29.220 -21.838  35.430  1.00  0.00     0.171 C 
BRANCH   8   9
ATOM      9  C   UNL     1      28.757 -20.404  35.123  1.00  0.00     0.190 C 
BRANCH   9  10
ATOM     10  O   UNL     1      28.132 -19.842  36.245  1.00  0.00    -0.394 OA
ATOM     11  H   UNL     1      28.646 -19.022  36.464  1.00  0.00     0.210 HD
ENDBRANCH   9  10
ENDBRANCH   8   9
BRANCH   8  12
ATOM     12  O   UNL     1      30.180 -22.230  34.483  1.00  0.00    -0.388 OA
ATOM     13  H   UNL     1      31.053 -21.868  34.788  1.00  0.00     0.211 HD
ENDBRANCH   8  12
ENDBRANCH   1   8
BRANCH   1  14
ATOM     14  O   UNL     1      26.988 -22.338  34.636  1.00  0.00    -0.388 OA
ATOM     15  H   UNL     1      26.518 -23.115  34.237  1.00  0.00     0.211 HD
ENDBRANCH   1  14
TORSDOF 9
ENDMDL
MODEL 4
REMARK VINA RESULT:    -3.042     10.923     13.323
REMARK INTER + INTRA:          -4.868
REMARK INTER:                  -4.294
REMARK INTRA:                  -0.574
REMARK UNBOUND:                -0.670
REMARK SMILES OC[C@H](O)C(O)[C@@H](O)CO
REMARK SMILES IDX 5 1 7 2 9 3 10 4 8 6 3 8 2 9 1 10 4 12 6 14
REMARK H PARENT 10 5 8 7 1 11 4 13 6 15
REMARK Flexibility Score: inf
ROOT
ATOM      1  C   UNL     1      29.116 -22.331  34.668  1.00  0.00     0.176 C 
ENDROOT
BRANCH   1   2
ATOM      2  C   UNL     1      28.249 -21.061  34.851  1.00  0.00     0.171 C 
BRANCH   2   3
ATOM      3  C   UNL     1      27.967 -20.367  33.504  1.00  0.00     0.190 C 
BRANCH   3   4
ATOM      4  O   UNL     1      28.025 -21.294  32.453  1.00  0.00    -0.394 OA
ATOM      5  H   UNL     1      27.634 -22.138  32.798  1.00  0.00     0.210 HD
ENDBRANCH   3   4
ENDBRANCH   2   3
BRANCH   2   6
ATOM      6  O   UNL     1      28.839 -20.162  35.759  1.00  0.00    -0.388 OA
ATOM      7  H   UNL     1      29.613 -20.620  36.180  1.00  0.00     0.211 HD
ENDBRANCH   2   6
ENDBRANCH   1   2
BRANCH   1   8
ATOM      8  C   UNL     1      29.362 -23.049  36.018  1.00  0.00     0.171 C 
BRANCH   8   9
ATOM      9  C   UNL     1      28.086 -23.124  36.872  1.00  0.00     0.190 C 
BRANCH   9  10
ATOM     10  O   UNL     1      28.199 -22.293  37.995  1.00  0.00    -0.394 OA
ATOM     11  H   UNL     1      27.473 -21.621  37.914  1.00  0.00     0.210 HD
ENDBRANCH   9  10
ENDBRANCH   8   9
BRANCH   8  12
ATOM     12  O   UNL     1      30.363 -22.374  36.736  1.00  0.00    -0.388 OA
ATOM     13  H   UNL     1      31.065 -23.042  36.953  1.00  0.00     0.211 HD
ENDBRANCH   8  12
ENDBRANCH   1   8
BRANCH   1  14
ATOM     14  O   UNL     1      30.346 -21.977  34.082  1.00  0.00    -0.388 OA
ATOM     15  H   UNL     1      30.521 -22.622  33.349  1.00  0.00     0.211 HD
ENDBRANCH   1  14
TORSDOF 9
ENDMDL
MODEL 5
REMARK VINA RESULT:    -3.027      1.571      4.391
REMARK INTER + INTRA:          -4.847
REMARK INTER:                  -4.154
REMARK INTRA:                  -0.692
REMARK UNBOUND:                -0.670
REMARK SMILES OC[C@H](O)C(O)[C@@H](O)CO
REMARK SMILES IDX 5 1 7 2 9 3 10 4 8 6 3 8 2 9 1 10 4 12 6 14
REMARK H PARENT 10 5 8 7 1 11 4 13 6 15
REMARK Flexibility Score: inf
ROOT
ATOM      1  C   UNL     1      29.246 -20.767  23.178  1.00  0.00     0.176 C 
ENDROOT
BRANCH   1   2
ATOM      2  C   UNL     1      29.937 -20.406  21.840  1.00  0.00     0.171 C 
BRANCH   2   3
ATOM      3  C   UNL     1      30.709 -21.605  21.257  1.00  0.00     0.190 C 
BRANCH   3   4
ATOM      4  O   UNL     1      32.056 -21.558  21.647  1.00  0.00    -0.394 OA
ATOM      5  H   UNL     1      32.593 -21.575  20.813  1.00  0.00     0.210 HD
ENDBRANCH   3   4
ENDBRANCH   2   3
BRANCH   2   6
ATOM      6  O   UNL     1      30.785 -19.292  21.983  1.00  0.00    -0.388 OA
ATOM      7  H   UNL     1      31.704 -19.578  21.742  1.00  0.00     0.211 HD
ENDBRANCH   2   6
ENDBRANCH   1   2
BRANCH   1   8
ATOM      8  C   UNL     1      29.495 -19.683  24.256  1.00  0.00     0.171 C 
BRANCH   8   9
ATOM      9  C   UNL     1      29.048 -20.147  25.653  1.00  0.00     0.190 C 
BRANCH   9  10
ATOM     10  O   UNL     1      30.115 -20.750  26.333  1.00  0.00    -0.394 OA
ATOM     11  H   UNL     1      30.489 -21.428  25.712  1.00  0.00     0.210 HD
ENDBRANCH   9  10
ENDBRANCH   8   9
BRANCH   8  12
ATOM     12  O   UNL     1      28.805 -18.509  23.913  1.00  0.00    -0.388 OA
ATOM     13  H   UNL     1      28.611 -18.029  24.760  1.00  0.00     0.211 HD
ENDBRANCH   8  12
ENDBRANCH   1   8
BRANCH   1  14
ATOM     14  O   UNL     1      29.726 -22.011  23.631  1.00  0.00    -0.388 OA
ATOM     15  H   UNL     1      29.387 -22.704  23.007  1.00  0.00     0.211 HD
ENDBRANCH   1  14
TORSDOF 9
ENDMDL
MODEL 6
REMARK VINA RESULT:    -3.022      1.689      3.619
REMARK INTER + INTRA:          -4.840
REMARK INTER:                  -4.131
REMARK INTRA:                  -0.708
REMARK UNBOUND:                -0.670
REMARK SMILES OC[C@H](O)C(O)[C@@H](O)CO
REMARK SMILES IDX 5 1 7 2 9 3 10 4 8 6 3 8 2 9 1 10 4 12 6 14
REMARK H PARENT 10 5 8 7 1 11 4 13 6 15
REMARK Flexibility Score: inf
ROOT
ATOM      1  C   UNL     1      29.078 -22.443  22.065  1.00  0.00     0.176 C 
ENDROOT
BRANCH   1   2
ATOM      2  C   UNL     1      29.835 -21.474  21.123  1.00  0.00     0.171 C 
BRANCH   2   3
ATOM      3  C   UNL     1      31.104 -20.909  21.790  1.00  0.00     0.190 C 
BRANCH   3   4
ATOM      4  O   UNL     1      32.236 -21.625  21.375  1.00  0.00    -0.394 OA
ATOM      5  H   UNL     1      32.702 -21.058  20.708  1.00  0.00     0.210 HD
ENDBRANCH   3   4
ENDBRANCH   2   3
BRANCH   2   6
ATOM      6  O   UNL     1      29.000 -20.431  20.680  1.00  0.00    -0.388 OA
ATOM      7  H   UNL     1      28.353 -20.815  20.032  1.00  0.00     0.211 HD
ENDBRANCH   2   6
ENDBRANCH   1   2
BRANCH   1   8
ATOM      8  C   UNL     1      28.055 -21.690  22.951  1.00  0.00     0.171 C 
BRANCH   8   9
ATOM      9  C   UNL     1      27.956 -22.300  24.360  1.00  0.00     0.190 C 
BRANCH   9  10
ATOM     10  O   UNL     1      28.928 -21.743  25.203  1.00  0.00    -0.394 OA
ATOM     11  H   UNL     1      29.403 -21.059  24.662  1.00  0.00     0.210 HD
ENDBRANCH   9  10
ENDBRANCH   8   9
BRANCH   8  12
ATOM     12  O   UNL     1      26.790 -21.720  22.342  1.00  0.00    -0.388 OA
ATOM     13  H   UNL     1      26.930 -21.538  21.376  1.00  0.00     0.211 HD
ENDBRANCH   8  12
ENDBRANCH   1   8
BRANCH   1  14
ATOM     14  O   UNL     1      30.005 -23.125  22.876  1.00  0.00    -0.388 OA
ATOM     15  H   UNL     1      30.025 -22.662  23.754  1.00  0.00     0.211 HD
ENDBRANCH   1  14
TORSDOF 9
ENDMDL
MODEL 7
REMARK VINA RESULT:    -3.013      1.689      2.021
REMARK INTER + INTRA:          -4.828
REMARK INTER:                  -4.061
REMARK INTRA:                  -0.767
REMARK UNBOUND:                -0.670
REMARK SMILES OC[C@H](O)C(O)[C@@H](O)CO
REMARK SMILES IDX 5 1 7 2 9 3 10 4 8 6 3 8 2 9 1 10 4 12 6 14
REMARK H PARENT 10 5 8 7 1 11 4 13 6 15
REMARK Flexibility Score: inf
ROOT
ATOM      1  C   UNL     1      30.564 -20.954  21.659  1.00  0.00     0.176 C 
ENDROOT
BRANCH   1   2
ATOM      2  C   UNL     1      30.185 -19.720  22.514  1.00  0.00     0.171 C 
BRANCH   2   3
ATOM      3  C   UNL     1      29.143 -20.074  23.592  1.00  0.00     0.190 C 
BRANCH   3   4
ATOM      4  O   UNL     1      29.739 -20.810  24.627  1.00  0.00    -0.394 OA
ATOM      5  H   UNL     1      30.212 -21.570  24.199  1.00  0.00     0.210 HD
ENDBRANCH   3   4
ENDBRANCH   2   3
BRANCH   2   6
ATOM      6  O   UNL     1      29.728 -18.659  21.711  1.00  0.00    -0.388 OA
ATOM      7  H   UNL     1      28.854 -18.927  21.322  1.00  0.00     0.211 HD
ENDBRANCH   2   6
ENDBRANCH   1   2
BRANCH   1   8
ATOM      8  C   UNL     1      29.315 -21.603  21.014  1.00  0.00     0.171 C 
BRANCH   8   9
ATOM      9  C   UNL     1      29.605 -23.023  20.498  1.00  0.00     0.190 C 
BRANCH   9  10
ATOM     10  O   UNL     1      30.860 -23.070  19.875  1.00  0.00    -0.394 OA
ATOM     11  H   UNL     1      30.704 -22.839  18.923  1.00  0.00     0.210 HD
ENDBRANCH   9  10
ENDBRANCH   8   9
BRANCH   8  12
ATOM     12  O   UNL     1      28.864 -20.805  19.950  1.00  0.00    -0.388 OA
ATOM     13  H   UNL     1      28.355 -20.052  20.349  1.00  0.00     0.211 HD
ENDBRANCH   8  12
ENDBRANCH   1   8
BRANCH   1  14
ATOM     14  O   UNL     1      31.230 -21.896  22.467  1.00  0.00    -0.388 OA
ATOM     15  H   UNL     1      31.342 -22.721  21.927  1.00  0.00     0.211 HD
ENDBRANCH   1  14
TORSDOF 9
ENDMDL
MODEL 8
REMARK VINA RESULT:    -2.979      1.577      2.542
REMARK INTER + INTRA:          -4.781
REMARK INTER:                  -4.291
REMARK INTRA:                  -0.491
REMARK UNBOUND:                -0.670
REMARK SMILES OC[C@H](O)C(O)[C@@H](O)CO
REMARK SMILES IDX 5 1 7 2 9 3 10 4 8 6 3 8 2 9 1 10 4 12 6 14
REMARK H PARENT 10 5 8 7 1 11 4 13 6 15
REMARK Flexibility Score: inf
ROOT
ATOM      1  C   UNL     1      29.700 -19.931  22.156  1.00  0.00     0.176 C 
ENDROOT
BRANCH   1   2
ATOM      2  C   UNL     1      29.062 -19.934  23.567  1.00  0.00     0.171 C 
BRANCH   2   3
ATOM      3  C   UNL     1      28.610 -18.523  23.990  1.00  0.00     0.190 C 
BRANCH   3   4
ATOM      4  O   UNL     1      29.661 -17.840  24.621  1.00  0.00    -0.394 OA
ATOM      5  H   UNL     1      29.684 -18.161  25.559  1.00  0.00     0.210 HD
ENDBRANCH   3   4
ENDBRANCH   2   3
BRANCH   2   6
ATOM      6  O   UNL     1      29.936 -20.484  24.524  1.00  0.00    -0.388 OA
ATOM      7  H   UNL     1      29.461 -21.230  24.975  1.00  0.00     0.211 HD
ENDBRANCH   2   6
ENDBRANCH   1   2
BRANCH   1   8
ATOM      8  C   UNL     1      30.232 -21.333  21.769  1.00  0.00     0.171 C 
BRANCH   8   9
ATOM      9  C   UNL     1      29.221 -22.444  22.102  1.00  0.00     0.190 C 
BRANCH   9  10
ATOM     10  O   UNL     1      29.608 -23.125  23.264  1.00  0.00    -0.394 OA
ATOM     11  H   UNL     1      29.227 -24.038  23.188  1.00  0.00     0.210 HD
ENDBRANCH   9  10
ENDBRANCH   8   9
BRANCH   8  12
ATOM     12  O   UNL     1      31.437 -21.583  22.445  1.00  0.00    -0.388 OA
ATOM     13  H   UNL     1      32.077 -21.937  21.774  1.00  0.00     0.211 HD
ENDBRANCH   8  12
ENDBRANCH   1   8
BRANCH   1  14
ATOM     14  O   UNL     1      30.750 -18.994  22.119  1.00  0.00    -0.388 OA
ATOM     15  H   UNL     1      30.926 -18.710  23.053  1.00  0.00     0.211 HD
ENDBRANCH   1  14
TORSDOF 9
ENDMDL
