MODEL 1
REMARK VINA RESULT:    -2.660      0.000      0.000
REMARK INTER + INTRA:          -3.145
REMARK INTER:                  -3.126
REMARK INTRA:                  -0.019
REMARK UNBOUND:                -0.019
REMARK SMILES CCCCC(=O)[O-]
REMARK SMILES IDX 4 1 5 2 6 3 7 4 3 5 2 6 1 7
REMARK H PARENT
REMARK Flexibility Score: inf
ROOT
ATOM      1  C   UNL     1      56.129  28.399  50.411  1.00  0.00     0.053 C 
ENDROOT
BRANCH   1   2
ATOM      2  C   UNL     1      55.211  27.466  49.687  1.00  0.00     0.041 C 
ATOM      3  O   UNL     1      54.043  27.831  49.391  1.00  0.00    -0.550 OA
ATOM      4  O   UNL     1      55.628  26.176  49.384  1.00  0.00    -0.550 OA
ENDBRANCH   1   2
BRANCH   1   5
ATOM      5  C   UNL     1      57.591  28.041  50.128  1.00  0.00     0.006 C 
BRANCH   5   6
ATOM      6  C   UNL     1      58.488  29.281  50.215  1.00  0.00    -0.003 C 
ATOM      7  C   UNL     1      59.484  29.323  49.060  1.00  0.00     0.004 C 
ENDBRANCH   5   6
ENDBRANCH   1   5
TORSDOF 3
ENDMDL
MODEL 2
REMARK VINA RESULT:    -2.658      2.867      4.077
REMARK INTER + INTRA:          -3.143
REMARK INTER:                  -3.106
REMARK INTRA:                  -0.036
REMARK UNBOUND:                -0.019
REMARK SMILES CCCCC(=O)[O-]
REMARK SMILES IDX 4 1 5 2 6 3 7 4 3 5 2 6 1 7
REMARK H PARENT
REMARK Flexibility Score: inf
ROOT
ATOM      1  C   UNL     1      57.764  28.164  50.143  1.00  0.00     0.053 C 
ENDROOT
BRANCH   1   2
ATOM      2  C   UNL     1      58.767  29.265  50.010  1.00  0.00     0.041 C 
ATOM      3  O   UNL     1      59.314  29.494  48.900  1.00  0.00    -0.550 OA
ATOM      4  O   UNL     1      59.136  30.009  51.124  1.00  0.00    -0.550 OA
ENDBRANCH   1   2
BRANCH   1   5
ATOM      5  C   UNL     1      56.371  28.737  50.417  1.00  0.00     0.006 C 
BRANCH   5   6
ATOM      6  C   UNL     1      55.277  27.762  49.966  1.00  0.00    -0.003 C 
ATOM      7  C   UNL     1      55.862  26.392  49.636  1.00  0.00     0.004 C 
ENDBRANCH   5   6
ENDBRANCH   1   5
TORSDOF 3
ENDMDL
MODEL 3
REMARK VINA RESULT:    -2.634      2.046      3.042
REMARK INTER + INTRA:          -3.114
REMARK INTER:                  -3.078
REMARK INTRA:                  -0.037
REMARK UNBOUND:                -0.019
REMARK SMILES CCCCC(=O)[O-]
REMARK SMILES IDX 4 1 5 2 6 3 7 4 3 5 2 6 1 7
REMARK H PARENT
REMARK Flexibility Score: inf
ROOT
ATOM      1  C   UNL     1      54.849  26.782  49.654  1.00  0.00     0.053 C 
ENDROOT
BRANCH   1   2
ATOM      2  C   UNL     1      53.965  25.735  49.055  1.00  0.00     0.041 C 
ATOM      3  O   UNL     1      54.134  24.522  49.346  1.00  0.00    -0.550 OA
ATOM      4  O   UNL     1      52.985  26.093  48.139  1.00  0.00    -0.550 OA
ENDBRANCH   1   2
BRANCH   1   5
ATOM      5  C   UNL     1      54.156  28.147  49.632  1.00  0.00     0.006 C 
BRANCH   5   6
ATOM      6  C   UNL     1      55.028  29.218  50.298  1.00  0.00    -0.003 C 
ATOM      7  C   UNL     1      56.463  28.730  50.470  1.00  0.00     0.004 C 
ENDBRANCH   5   6
ENDBRANCH   1   5
TORSDOF 3
ENDMDL
MODEL 4
REMARK VINA RESULT:    -2.624     13.417     14.127
REMARK INTER + INTRA:          -3.103
REMARK INTER:                  -3.079
REMARK INTRA:                  -0.023
REMARK UNBOUND:                -0.019
REMARK SMILES CCCCC(=O)[O-]
REMARK SMILES IDX 4 1 5 2 6 3 7 4 3 5 2 6 1 7
REMARK H PARENT
REMARK Flexibility Score: inf
ROOT
ATOM      1  C   UNL     1      62.247  34.048  59.950  1.00  0.00     0.053 C 
ENDROOT
BRANCH   1   2
ATOM      2  C   UNL     1      63.230  34.925  60.659  1.00  0.00     0.041 C 
ATOM      3  O   UNL     1      64.358  34.474  60.988  1.00  0.00    -0.550 OA
ATOM      4  O   UNL     1      62.882  36.225  61.001  1.00  0.00    -0.550 OA
ENDBRANCH   1   2
BRANCH   1   5
ATOM      5  C   UNL     1      62.535  32.573  60.243  1.00  0.00     0.006 C 
BRANCH   5   6
ATOM      6  C   UNL     1      61.233  31.783  60.419  1.00  0.00    -0.003 C 
ATOM      7  C   UNL     1      61.419  30.624  61.394  1.00  0.00     0.004 C 
ENDBRANCH   5   6
ENDBRANCH   1   5
TORSDOF 3
ENDMDL
MODEL 5
REMARK VINA RESULT:    -2.623      2.982      4.018
REMARK INTER + INTRA:          -3.101
REMARK INTER:                  -3.038
REMARK INTRA:                  -0.063
REMARK UNBOUND:                -0.019
REMARK SMILES CCCCC(=O)[O-]
REMARK SMILES IDX 4 1 5 2 6 3 7 4 3 5 2 6 1 7
REMARK H PARENT
REMARK Flexibility Score: inf
ROOT
ATOM      1  C   UNL     1      58.485  27.811  50.161  1.00  0.00     0.053 C 
ENDROOT
BRANCH   1   2
ATOM      2  C   UNL     1      59.511  28.469  49.295  1.00  0.00     0.041 C 
ATOM      3  O   UNL     1      59.340  29.652  48.897  1.00  0.00    -0.550 OA
ATOM      4  O   UNL     1      60.634  27.761  48.886  1.00  0.00    -0.550 OA
ENDBRANCH   1   2
BRANCH   1   5
ATOM      5  C   UNL     1      57.269  28.724  50.341  1.00  0.00     0.006 C 
BRANCH   5   6
ATOM      6  C   UNL     1      55.963  27.937  50.190  1.00  0.00    -0.003 C 
ATOM      7  C   UNL     1      56.235  26.487  49.801  1.00  0.00     0.004 C 
ENDBRANCH   5   6
ENDBRANCH   1   5
TORSDOF 3
ENDMDL
MODEL 6
REMARK VINA RESULT:    -2.615      2.678      4.041
REMARK INTER + INTRA:          -3.092
REMARK INTER:                  -3.049
REMARK INTRA:                  -0.043
REMARK UNBOUND:                -0.019
REMARK SMILES CCCCC(=O)[O-]
REMARK SMILES IDX 4 1 5 2 6 3 7 4 3 5 2 6 1 7
REMARK H PARENT
REMARK Flexibility Score: inf
ROOT
ATOM      1  C   UNL     1      56.281  26.180  49.796  1.00  0.00     0.053 C 
ENDROOT
BRANCH   1   2
ATOM      2  C   UNL     1      57.716  26.515  50.048  1.00  0.00     0.041 C 
ATOM      3  O   UNL     1      58.089  27.717  50.090  1.00  0.00    -0.550 OA
ATOM      4  O   UNL     1      58.653  25.499  50.187  1.00  0.00    -0.550 OA
ENDBRANCH   1   2
BRANCH   1   5
ATOM      5  C   UNL     1      55.415  27.441  49.864  1.00  0.00     0.006 C 
BRANCH   5   6
ATOM      6  C   UNL     1      53.995  27.162  49.359  1.00  0.00    -0.003 C 
ATOM      7  C   UNL     1      53.894  25.771  48.741  1.00  0.00     0.004 C 
ENDBRANCH   5   6
ENDBRANCH   1   5
TORSDOF 3
ENDMDL
MODEL 7
REMARK VINA RESULT:    -2.615      2.682      3.561
REMARK INTER + INTRA:          -3.092
REMARK INTER:                  -3.052
REMARK INTRA:                  -0.040
REMARK UNBOUND:                -0.019
REMARK SMILES CCCCC(=O)[O-]
REMARK SMILES IDX 4 1 5 2 6 3 7 4 3 5 2 6 1 7
REMARK H PARENT
REMARK Flexibility Score: inf
ROOT
ATOM      1  C   UNL     1      54.297  27.268  49.334  1.00  0.00     0.053 C 
ENDROOT
BRANCH   1   2
ATOM      2  C   UNL     1      55.001  25.949  49.335  1.00  0.00     0.041 C 
ATOM      3  O   UNL     1      56.259  25.902  49.333  1.00  0.00    -0.550 OA
ATOM      4  O   UNL     1      54.269  24.770  49.289  1.00  0.00    -0.550 OA
ENDBRANCH   1   2
BRANCH   1   5
ATOM      5  C   UNL     1      55.134  28.324  50.062  1.00  0.00     0.006 C 
BRANCH   5   6
ATOM      6  C   UNL     1      54.300  29.573  50.366  1.00  0.00    -0.003 C 
ATOM      7  C   UNL     1      52.878  29.430  49.832  1.00  0.00     0.004 C 
ENDBRANCH   5   6
ENDBRANCH   1   5
TORSDOF 3
ENDMDL
MODEL 8
REMARK VINA RESULT:    -2.611     12.262     12.931
REMARK INTER + INTRA:          -3.087
REMARK INTER:                  -3.052
REMARK INTRA:                  -0.035
REMARK UNBOUND:                -0.019
REMARK SMILES CCCCC(=O)[O-]
REMARK SMILES IDX 4 1 5 2 6 3 7 4 3 5 2 6 1 7
REMARK H PARENT
REMARK Flexibility Score: inf
ROOT
ATOM      1  C   UNL     1      62.392  32.541  60.268  1.00  0.00     0.053 C 
ENDROOT
BRANCH   1   2
ATOM      2  C   UNL     1      61.229  31.610  60.395  1.00  0.00     0.041 C 
ATOM      3  O   UNL     1      60.492  31.377  59.401  1.00  0.00    -0.550 OA
ATOM      4  O   UNL     1      60.927  31.038  61.625  1.00  0.00    -0.550 OA
ENDBRANCH   1   2
BRANCH   1   5
ATOM      5  C   UNL     1      61.912  33.959  59.947  1.00  0.00     0.006 C 
BRANCH   5   6
ATOM      6  C   UNL     1      62.905  35.006  60.465  1.00  0.00    -0.003 C 
ATOM      7  C   UNL     1      64.260  34.376  60.772  1.00  0.00     0.004 C 
ENDBRANCH   5   6
ENDBRANCH   1   5
TORSDOF 3
ENDMDL
MODEL 9
REMARK VINA RESULT:    -2.611     12.846     13.183
REMARK INTER + INTRA:          -3.087
REMARK INTER:                  -3.053
REMARK INTRA:                  -0.034
REMARK UNBOUND:                -0.019
REMARK SMILES CCCCC(=O)[O-]
REMARK SMILES IDX 4 1 5 2 6 3 7 4 3 5 2 6 1 7
REMARK H PARENT
REMARK Flexibility Score: inf
ROOT
ATOM      1  C   UNL     1      62.828  31.389  60.283  1.00  0.00     0.053 C 
ENDROOT
BRANCH   1   2
ATOM      2  C   UNL     1      61.996  30.530  61.182  1.00  0.00     0.041 C 
ATOM      3  O   UNL     1      60.927  30.977  61.675  1.00  0.00    -0.550 OA
ATOM      4  O   UNL     1      62.426  29.252  61.517  1.00  0.00    -0.550 OA
ENDBRANCH   1   2
BRANCH   1   5
ATOM      5  C   UNL     1      62.228  32.793  60.178  1.00  0.00     0.006 C 
BRANCH   5   6
ATOM      6  C   UNL     1      63.306  33.867  60.359  1.00  0.00    -0.003 C 
ATOM      7  C   UNL     1      62.691  35.263  60.413  1.00  0.00     0.004 C 
ENDBRANCH   5   6
ENDBRANCH   1   5
TORSDOF 3
ENDMDL
