MODEL 1
REMARK VINA RESULT:    -4.111      0.000      0.000
REMARK INTER + INTRA:          -5.350
REMARK INTER:                  -5.072
REMARK INTRA:                  -0.278
REMARK UNBOUND:                -0.278
REMARK SMILES C=CC[C@@H](C)C(=O)CC
REMARK SMILES IDX 4 1 5 2 6 3 7 4 8 5 9 6 3 7 2 8 1 9
REMARK H PARENT
REMARK Flexibility Score: inf
ROOT
ATOM      1  C   UNL     1      10.712 -10.167 -44.117  1.00  0.00     0.057 C 
ATOM      2  C   UNL     1      12.115 -10.767 -43.944  1.00  0.00     0.016 C 
ENDROOT
BRANCH   1   3
ATOM      3  C   UNL     1      10.810  -8.661 -44.237  1.00  0.00     0.135 C 
ATOM      4  O   UNL     1      11.519  -8.166 -45.102  1.00  0.00    -0.299 OA
BRANCH   3   5
ATOM      5  C   UNL     1      10.038  -7.753 -43.316  1.00  0.00     0.072 C 
ATOM      6  C   UNL     1      10.298  -8.116 -41.857  1.00  0.00     0.012 C 
ENDBRANCH   3   5
ENDBRANCH   1   3
BRANCH   1   7
ATOM      7  C   UNL     1       9.989 -10.749 -45.349  1.00  0.00     0.038 C 
BRANCH   7   8
ATOM      8  C   UNL     1       8.536 -10.356 -45.401  1.00  0.00    -0.034 C 
ATOM      9  C   UNL     1       7.607 -11.163 -45.922  1.00  0.00     0.004 C 
ENDBRANCH   7   8
ENDBRANCH   1   7
TORSDOF 4
ENDMDL
MODEL 2
REMARK VINA RESULT:    -4.073      1.135      3.058
REMARK INTER + INTRA:          -5.303
REMARK INTER:                  -5.017
REMARK INTRA:                  -0.286
REMARK UNBOUND:                -0.278
REMARK SMILES C=CC[C@@H](C)C(=O)CC
REMARK SMILES IDX 4 1 5 2 6 3 7 4 8 5 9 6 3 7 2 8 1 9
REMARK H PARENT
REMARK Flexibility Score: inf
ROOT
ATOM      1  C   UNL     1      11.091 -10.567 -44.529  1.00  0.00     0.057 C 
ATOM      2  C   UNL     1       9.692 -10.869 -45.084  1.00  0.00     0.016 C 
ENDROOT
BRANCH   1   3
ATOM      3  C   UNL     1      11.288  -9.070 -44.422  1.00  0.00     0.135 C 
ATOM      4  O   UNL     1      12.379  -8.582 -44.683  1.00  0.00    -0.299 OA
BRANCH   3   5
ATOM      5  C   UNL     1      10.159  -8.162 -44.010  1.00  0.00     0.072 C 
ATOM      6  C   UNL     1      10.227  -7.858 -42.517  1.00  0.00     0.012 C 
ENDBRANCH   3   5
ENDBRANCH   1   3
BRANCH   1   7
ATOM      7  C   UNL     1      11.316 -11.228 -43.154  1.00  0.00     0.038 C 
BRANCH   7   8
ATOM      8  C   UNL     1      12.496 -12.163 -43.152  1.00  0.00    -0.034 C 
ATOM      9  C   UNL     1      13.702 -11.775 -43.578  1.00  0.00     0.004 C 
ENDBRANCH   7   8
ENDBRANCH   1   7
TORSDOF 4
ENDMDL
MODEL 3
REMARK VINA RESULT:    -4.030      1.345      1.668
REMARK INTER + INTRA:          -5.251
REMARK INTER:                  -4.760
REMARK INTRA:                  -0.491
REMARK UNBOUND:                -0.278
REMARK SMILES C=CC[C@@H](C)C(=O)CC
REMARK SMILES IDX 4 1 5 2 6 3 7 4 8 5 9 6 3 7 2 8 1 9
REMARK H PARENT
REMARK Flexibility Score: inf
ROOT
ATOM      1  C   UNL     1      10.530 -10.987 -44.074  1.00  0.00     0.057 C 
ATOM      2  C   UNL     1      10.917 -11.920 -42.917  1.00  0.00     0.016 C 
ENDROOT
BRANCH   1   3
ATOM      3  C   UNL     1      11.632  -9.976 -44.307  1.00  0.00     0.135 C 
ATOM      4  O   UNL     1      12.801 -10.332 -44.261  1.00  0.00    -0.299 OA
BRANCH   3   5
ATOM      5  C   UNL     1      11.317  -8.534 -44.608  1.00  0.00     0.072 C 
ATOM      6  C   UNL     1      10.074  -8.082 -43.849  1.00  0.00     0.012 C 
ENDBRANCH   3   5
ENDBRANCH   1   3
BRANCH   1   7
ATOM      7  C   UNL     1      10.250 -11.772 -45.372  1.00  0.00     0.038 C 
BRANCH   7   8
ATOM      8  C   UNL     1       9.186 -11.122 -46.218  1.00  0.00    -0.034 C 
ATOM      9  C   UNL     1       7.998 -10.777 -45.712  1.00  0.00     0.004 C 
ENDBRANCH   7   8
ENDBRANCH   1   7
TORSDOF 4
ENDMDL
MODEL 4
REMARK VINA RESULT:    -4.024      1.738      3.710
REMARK INTER + INTRA:          -5.243
REMARK INTER:                  -4.954
REMARK INTRA:                  -0.289
REMARK UNBOUND:                -0.278
REMARK SMILES C=CC[C@@H](C)C(=O)CC
REMARK SMILES IDX 4 1 5 2 6 3 7 4 8 5 9 6 3 7 2 8 1 9
REMARK H PARENT
REMARK Flexibility Score: inf
ROOT
ATOM      1  C   UNL     1      11.053 -10.600 -44.436  1.00  0.00     0.057 C 
ATOM      2  C   UNL     1      11.329 -11.007 -42.982  1.00  0.00     0.016 C 
ENDROOT
BRANCH   1   3
ATOM      3  C   UNL     1       9.769 -11.244 -44.914  1.00  0.00     0.135 C 
ATOM      4  O   UNL     1       9.628 -12.455 -44.822  1.00  0.00    -0.299 OA
BRANCH   3   5
ATOM      5  C   UNL     1       8.651 -10.418 -45.494  1.00  0.00     0.072 C 
ATOM      6  C   UNL     1       7.498 -11.309 -45.945  1.00  0.00     0.012 C 
ENDBRANCH   3   5
ENDBRANCH   1   3
BRANCH   1   7
ATOM      7  C   UNL     1      10.966  -9.068 -44.594  1.00  0.00     0.038 C 
BRANCH   7   8
ATOM      8  C   UNL     1      10.680  -8.371 -43.290  1.00  0.00    -0.034 C 
ATOM      9  C   UNL     1       9.718  -7.450 -43.179  1.00  0.00     0.004 C 
ENDBRANCH   7   8
ENDBRANCH   1   7
TORSDOF 4
ENDMDL
MODEL 5
REMARK VINA RESULT:    -4.003      1.728      3.643
REMARK INTER + INTRA:          -5.217
REMARK INTER:                  -4.729
REMARK INTRA:                  -0.488
REMARK UNBOUND:                -0.278
REMARK SMILES C=CC[C@@H](C)C(=O)CC
REMARK SMILES IDX 4 1 5 2 6 3 7 4 8 5 9 6 3 7 2 8 1 9
REMARK H PARENT
REMARK Flexibility Score: inf
ROOT
ATOM      1  C   UNL     1      10.644  -8.630 -44.691  1.00  0.00     0.057 C 
ATOM      2  C   UNL     1      12.175  -8.539 -44.626  1.00  0.00     0.016 C 
ENDROOT
BRANCH   1   3
ATOM      3  C   UNL     1      10.219 -10.080 -44.783  1.00  0.00     0.135 C 
ATOM      4  O   UNL     1       9.070 -10.356 -45.099  1.00  0.00    -0.299 OA
BRANCH   3   5
ATOM      5  C   UNL     1      11.189 -11.197 -44.502  1.00  0.00     0.072 C 
ATOM      6  C   UNL     1      10.975 -11.761 -43.102  1.00  0.00     0.012 C 
ENDBRANCH   3   5
ENDBRANCH   1   3
BRANCH   1   7
ATOM      7  C   UNL     1       9.979  -7.962 -43.469  1.00  0.00     0.038 C 
BRANCH   7   8
ATOM      8  C   UNL     1      10.751  -8.194 -42.197  1.00  0.00    -0.034 C 
ATOM      9  C   UNL     1      10.146  -8.557 -41.063  1.00  0.00     0.004 C 
ENDBRANCH   7   8
ENDBRANCH   1   7
TORSDOF 4
ENDMDL
MODEL 6
REMARK VINA RESULT:    -3.968      1.752      3.830
REMARK INTER + INTRA:          -5.174
REMARK INTER:                  -4.936
REMARK INTRA:                  -0.238
REMARK UNBOUND:                -0.278
REMARK SMILES C=CC[C@@H](C)C(=O)CC
REMARK SMILES IDX 4 1 5 2 6 3 7 4 8 5 9 6 3 7 2 8 1 9
REMARK H PARENT
REMARK Flexibility Score: inf
ROOT
ATOM      1  C   UNL     1      10.640 -10.487 -44.300  1.00  0.00     0.057 C 
ATOM      2  C   UNL     1       9.602 -10.717 -45.407  1.00  0.00     0.016 C 
ENDROOT
BRANCH   1   3
ATOM      3  C   UNL     1      11.627 -11.635 -44.277  1.00  0.00     0.135 C 
ATOM      4  O   UNL     1      11.691 -12.399 -45.230  1.00  0.00    -0.299 OA
BRANCH   3   5
ATOM      5  C   UNL     1      12.545 -11.851 -43.103  1.00  0.00     0.072 C 
ATOM      6  C   UNL     1      14.005 -11.811 -43.542  1.00  0.00     0.012 C 
ENDBRANCH   3   5
ENDBRANCH   1   3
BRANCH   1   7
ATOM      7  C   UNL     1      11.389  -9.151 -44.486  1.00  0.00     0.038 C 
BRANCH   7   8
ATOM      8  C   UNL     1      10.528  -7.960 -44.155  1.00  0.00    -0.034 C 
ATOM      9  C   UNL     1      10.005  -7.786 -42.938  1.00  0.00     0.004 C 
ENDBRANCH   7   8
ENDBRANCH   1   7
TORSDOF 4
ENDMDL
MODEL 7
REMARK VINA RESULT:    -3.857      1.837      3.732
REMARK INTER + INTRA:          -5.037
REMARK INTER:                  -4.794
REMARK INTRA:                  -0.243
REMARK UNBOUND:                -0.278
REMARK SMILES C=CC[C@@H](C)C(=O)CC
REMARK SMILES IDX 4 1 5 2 6 3 7 4 8 5 9 6 3 7 2 8 1 9
REMARK H PARENT
REMARK Flexibility Score: inf
ROOT
ATOM      1  C   UNL     1      11.393 -11.220 -44.306  1.00  0.00     0.057 C 
ATOM      2  C   UNL     1      10.822 -11.969 -43.093  1.00  0.00     0.016 C 
ENDROOT
BRANCH   1   3
ATOM      3  C   UNL     1      10.540 -10.008 -44.609  1.00  0.00     0.135 C 
ATOM      4  O   UNL     1       9.403 -10.158 -45.035  1.00  0.00    -0.299 OA
BRANCH   3   5
ATOM      5  C   UNL     1      11.059  -8.612 -44.385  1.00  0.00     0.072 C 
ATOM      6  C   UNL     1      10.068  -7.789 -43.569  1.00  0.00     0.012 C 
ENDBRANCH   3   5
ENDBRANCH   1   3
BRANCH   1   7
ATOM      7  C   UNL     1      12.857 -10.791 -44.076  1.00  0.00     0.038 C 
BRANCH   7   8
ATOM      8  C   UNL     1      13.634 -11.804 -43.278  1.00  0.00    -0.034 C 
ATOM      9  C   UNL     1      14.959 -11.931 -43.400  1.00  0.00     0.004 C 
ENDBRANCH   7   8
ENDBRANCH   1   7
TORSDOF 4
ENDMDL
MODEL 8
REMARK VINA RESULT:    -3.557      1.869      2.992
REMARK INTER + INTRA:          -4.666
REMARK INTER:                  -4.362
REMARK INTRA:                  -0.304
REMARK UNBOUND:                -0.278
REMARK SMILES C=CC[C@@H](C)C(=O)CC
REMARK SMILES IDX 4 1 5 2 6 3 7 4 8 5 9 6 3 7 2 8 1 9
REMARK H PARENT
REMARK Flexibility Score: inf
ROOT
ATOM      1  C   UNL     1      11.092  -9.831 -44.699  1.00  0.00     0.057 C 
ATOM      2  C   UNL     1      11.670  -8.409 -44.671  1.00  0.00     0.016 C 
ENDROOT
BRANCH   1   3
ATOM      3  C   UNL     1      11.542 -10.592 -43.471  1.00  0.00     0.135 C 
ATOM      4  O   UNL     1      10.973 -10.413 -42.403  1.00  0.00    -0.299 OA
BRANCH   3   5
ATOM      5  C   UNL     1      12.677 -11.581 -43.539  1.00  0.00     0.072 C 
ATOM      6  C   UNL     1      12.375 -12.683 -44.548  1.00  0.00     0.012 C 
ENDBRANCH   3   5
ENDBRANCH   1   3
BRANCH   1   7
ATOM      7  C   UNL     1       9.551  -9.819 -44.776  1.00  0.00     0.038 C 
BRANCH   7   8
ATOM      8  C   UNL     1       9.006 -10.992 -45.548  1.00  0.00    -0.034 C 
ATOM      9  C   UNL     1       7.787 -10.971 -46.094  1.00  0.00     0.004 C 
ENDBRANCH   7   8
ENDBRANCH   1   7
TORSDOF 4
ENDMDL
