MODEL 1
REMARK VINA RESULT:    -0.881      0.000      0.000
REMARK INTER + INTRA:          -1.286
REMARK INTER:                  -1.035
REMARK INTRA:                  -0.250
REMARK UNBOUND:                -0.250
REMARK SMILES C=CC(C)=CCC=C(C)C
REMARK SMILES IDX 5 1 3 2 4 3 6 4 7 5 9 6 8 7 10 8 2 9 1 10
REMARK H PARENT
REMARK Flexibility Score: inf
ROOT
ATOM      1  C   UNL     1      -0.366   6.334  -9.891  1.00  0.00    -0.020 C 
ATOM      2  C   UNL     1       0.510   5.858  -8.982  1.00  0.00    -0.055 C 
ATOM      3  C   UNL     1       1.567   4.839  -9.349  1.00  0.00     0.044 C 
ENDROOT
BRANCH   1   4
ATOM      4  C   UNL     1      -0.413   5.911 -11.335  1.00  0.00     0.055 C 
BRANCH   4   5
ATOM      5  C   UNL     1      -1.821   5.563 -11.757  1.00  0.00    -0.024 C 
ATOM      6  C   UNL     1      -3.569   4.798 -13.306  1.00  0.00     0.039 C 
ATOM      7  C   UNL     1      -2.131   5.118 -12.993  1.00  0.00    -0.080 C 
ATOM      8  C   UNL     1      -1.073   4.936 -14.055  1.00  0.00     0.039 C 
ENDBRANCH   4   5
ENDBRANCH   1   4
BRANCH   2   9
ATOM      9  C   UNL     1       0.458   6.423  -7.609  1.00  0.00    -0.005 C 
ATOM     10  C   UNL     1      -0.336   7.435  -7.256  1.00  0.00     0.009 C 
ENDBRANCH   2   9
TORSDOF 3
ENDMDL
MODEL 2
REMARK VINA RESULT:     0.395      0.537      5.269
REMARK INTER + INTRA:           0.214
REMARK INTER:                   0.437
REMARK INTRA:                  -0.223
REMARK UNBOUND:                -0.250
REMARK SMILES C=CC(C)=CCC=C(C)C
REMARK SMILES IDX 5 1 3 2 4 3 6 4 7 5 9 6 8 7 10 8 2 9 1 10
REMARK H PARENT
REMARK Flexibility Score: inf
ROOT
ATOM      1  C   UNL     1      -1.487   5.540 -11.625  1.00  0.00    -0.020 C 
ATOM      2  C   UNL     1      -1.726   5.257 -12.922  1.00  0.00    -0.055 C 
ATOM      3  C   UNL     1      -0.617   5.225 -13.950  1.00  0.00     0.044 C 
ENDROOT
BRANCH   1   4
ATOM      4  C   UNL     1      -0.131   5.868 -11.058  1.00  0.00     0.055 C 
BRANCH   4   5
ATOM      5  C   UNL     1      -0.243   6.407  -9.652  1.00  0.00    -0.024 C 
ATOM      6  C   UNL     1       0.361   6.610  -7.278  1.00  0.00     0.039 C 
ATOM      7  C   UNL     1       0.557   6.003  -8.643  1.00  0.00    -0.080 C 
ATOM      8  C   UNL     1       1.635   4.967  -8.855  1.00  0.00     0.039 C 
ENDBRANCH   4   5
ENDBRANCH   1   4
BRANCH   2   9
ATOM      9  C   UNL     1      -3.116   4.898 -13.307  1.00  0.00    -0.005 C 
ATOM     10  C   UNL     1      -4.124   5.771 -13.329  1.00  0.00     0.009 C 
ENDBRANCH   2   9
TORSDOF 3
ENDMDL
MODEL 3
REMARK VINA RESULT:     0.538      9.470     11.969
REMARK INTER + INTRA:           0.382
REMARK INTER:                   0.632
REMARK INTRA:                  -0.250
REMARK UNBOUND:                -0.250
REMARK SMILES C=CC(C)=CCC=C(C)C
REMARK SMILES IDX 5 1 3 2 4 3 6 4 7 5 9 6 8 7 10 8 2 9 1 10
REMARK H PARENT
REMARK Flexibility Score: inf
ROOT
ATOM      1  C   UNL     1      10.551   7.877  -7.360  1.00  0.00    -0.020 C 
ATOM      2  C   UNL     1      11.822   7.430  -7.292  1.00  0.00    -0.055 C 
ATOM      3  C   UNL     1      12.376   6.784  -6.041  1.00  0.00     0.044 C 
ENDROOT
BRANCH   1   4
ATOM      4  C   UNL     1       9.560   7.808  -6.228  1.00  0.00     0.055 C 
BRANCH   4   5
ATOM      5  C   UNL     1       8.494   8.868  -6.371  1.00  0.00    -0.024 C 
ATOM      6  C   UNL     1       6.199   9.749  -6.373  1.00  0.00     0.039 C 
ATOM      7  C   UNL     1       7.178   8.615  -6.211  1.00  0.00    -0.080 C 
ATOM      8  C   UNL     1       6.674   7.232  -5.875  1.00  0.00     0.039 C 
ENDBRANCH   4   5
ENDBRANCH   1   4
BRANCH   2   9
ATOM      9  C   UNL     1      12.654   7.522  -8.520  1.00  0.00    -0.005 C 
ATOM     10  C   UNL     1      12.412   8.379  -9.513  1.00  0.00     0.009 C 
ENDBRANCH   2   9
TORSDOF 3
ENDMDL
MODEL 4
REMARK VINA RESULT:     0.855      0.896      1.541
REMARK INTER + INTRA:           0.755
REMARK INTER:                   0.536
REMARK INTRA:                   0.218
REMARK UNBOUND:                -0.250
REMARK SMILES C=CC(C)=CCC=C(C)C
REMARK SMILES IDX 5 1 3 2 4 3 6 4 7 5 9 6 8 7 10 8 2 9 1 10
REMARK H PARENT
REMARK Flexibility Score: inf
ROOT
ATOM      1  C   UNL     1      -1.198   6.277  -9.105  1.00  0.00    -0.020 C 
ATOM      2  C   UNL     1       0.050   6.160  -8.607  1.00  0.00    -0.055 C 
ATOM      3  C   UNL     1       1.089   5.272  -9.258  1.00  0.00     0.044 C 
ENDROOT
BRANCH   1   4
ATOM      4  C   UNL     1      -1.705   5.548 -10.320  1.00  0.00     0.055 C 
BRANCH   4   5
ATOM      5  C   UNL     1      -0.801   5.771 -11.509  1.00  0.00    -0.024 C 
ATOM      6  C   UNL     1      -0.170   5.712 -13.884  1.00  0.00     0.039 C 
ATOM      7  C   UNL     1      -1.149   5.442 -12.771  1.00  0.00    -0.080 C 
ATOM      8  C   UNL     1      -2.488   4.820 -13.084  1.00  0.00     0.039 C 
ENDBRANCH   4   5
ENDBRANCH   1   4
BRANCH   2   9
ATOM      9  C   UNL     1       0.408   6.994  -7.431  1.00  0.00    -0.005 C 
ATOM     10  C   UNL     1      -0.309   8.043  -7.025  1.00  0.00     0.009 C 
ENDBRANCH   2   9
TORSDOF 3
ENDMDL
MODEL 5
REMARK VINA RESULT:     0.860      9.764     11.850
REMARK INTER + INTRA:           0.760
REMARK INTER:                   0.299
REMARK INTRA:                   0.461
REMARK UNBOUND:                -0.250
REMARK SMILES C=CC(C)=CCC=C(C)C
REMARK SMILES IDX 5 1 3 2 4 3 6 4 7 5 9 6 8 7 10 8 2 9 1 10
REMARK H PARENT
REMARK Flexibility Score: inf
ROOT
ATOM      1  C   UNL     1       9.578   8.322  -6.568  1.00  0.00    -0.020 C 
ATOM      2  C   UNL     1       8.248   8.184  -6.392  1.00  0.00    -0.055 C 
ATOM      3  C   UNL     1       7.641   6.898  -5.876  1.00  0.00     0.044 C 
ENDROOT
BRANCH   1   4
ATOM      4  C   UNL     1      10.593   7.243  -6.300  1.00  0.00     0.055 C 
BRANCH   4   5
ATOM      5  C   UNL     1      11.844   7.453  -7.119  1.00  0.00    -0.024 C 
ATOM      6  C   UNL     1      13.130   7.969  -9.149  1.00  0.00     0.039 C 
ATOM      7  C   UNL     1      11.821   7.779  -8.428  1.00  0.00    -0.080 C 
ATOM      8  C   UNL     1      10.521   7.959  -9.175  1.00  0.00     0.039 C 
ENDBRANCH   4   5
ENDBRANCH   1   4
BRANCH   2   9
ATOM      9  C   UNL     1       7.388   9.368  -6.650  1.00  0.00    -0.005 C 
ATOM     10  C   UNL     1       6.332   9.690  -5.902  1.00  0.00     0.009 C 
ENDBRANCH   2   9
TORSDOF 3
ENDMDL
MODEL 6
REMARK VINA RESULT:     1.203     11.240     13.434
REMARK INTER + INTRA:           1.164
REMARK INTER:                   1.367
REMARK INTRA:                  -0.203
REMARK UNBOUND:                -0.250
REMARK SMILES C=CC(C)=CCC=C(C)C
REMARK SMILES IDX 5 1 3 2 4 3 6 4 7 5 9 6 8 7 10 8 2 9 1 10
REMARK H PARENT
REMARK Flexibility Score: inf
ROOT
ATOM      1  C   UNL     1      11.088   7.887  -7.978  1.00  0.00    -0.020 C 
ATOM      2  C   UNL     1      10.918   7.532  -6.688  1.00  0.00    -0.055 C 
ATOM      3  C   UNL     1      12.012   6.851  -5.896  1.00  0.00     0.044 C 
ENDROOT
BRANCH   1   4
ATOM      4  C   UNL     1      12.342   7.640  -8.774  1.00  0.00     0.055 C 
BRANCH   4   5
ATOM      5  C   UNL     1      12.611   8.773  -9.735  1.00  0.00    -0.024 C 
ATOM      6  C   UNL     1      13.794   9.939 -11.548  1.00  0.00     0.039 C 
ATOM      7  C   UNL     1      13.617   8.754 -10.634  1.00  0.00    -0.080 C 
ATOM      8  C   UNL     1      14.557   7.577 -10.742  1.00  0.00     0.039 C 
ENDBRANCH   4   5
ENDBRANCH   1   4
BRANCH   2   9
ATOM      9  C   UNL     1       9.636   7.900  -6.032  1.00  0.00    -0.005 C 
ATOM     10  C   UNL     1       8.617   7.053  -5.876  1.00  0.00     0.009 C 
ENDBRANCH   2   9
TORSDOF 3
ENDMDL
MODEL 7
REMARK VINA RESULT:     1.536      0.870      2.073
REMARK INTER + INTRA:           1.555
REMARK INTER:                   1.857
REMARK INTRA:                  -0.302
REMARK UNBOUND:                -0.250
REMARK SMILES C=CC(C)=CCC=C(C)C
REMARK SMILES IDX 5 1 3 2 4 3 6 4 7 5 9 6 8 7 10 8 2 9 1 10
REMARK H PARENT
REMARK Flexibility Score: inf
ROOT
ATOM      1  C   UNL     1       0.339   5.568 -10.960  1.00  0.00    -0.020 C 
ATOM      2  C   UNL     1       0.557   5.567  -9.629  1.00  0.00    -0.055 C 
ATOM      3  C   UNL     1      -0.208   6.478  -8.694  1.00  0.00     0.044 C 
ENDROOT
BRANCH   1   4
ATOM      4  C   UNL     1      -0.649   6.459 -11.664  1.00  0.00     0.055 C 
BRANCH   4   5
ATOM      5  C   UNL     1      -1.964   5.750 -11.885  1.00  0.00    -0.024 C 
ATOM      6  C   UNL     1      -3.574   4.347 -13.103  1.00  0.00     0.039 C 
ATOM      7  C   UNL     1      -2.228   5.015 -12.986  1.00  0.00    -0.080 C 
ATOM      8  C   UNL     1      -1.211   4.850 -14.089  1.00  0.00     0.039 C 
ENDBRANCH   4   5
ENDBRANCH   1   4
BRANCH   2   9
ATOM      9  C   UNL     1       1.529   4.583  -9.087  1.00  0.00    -0.005 C 
ATOM     10  C   UNL     1       1.757   3.390  -9.638  1.00  0.00     0.009 C 
ENDBRANCH   2   9
TORSDOF 3
ENDMDL
MODEL 8
REMARK VINA RESULT:     1.692      1.058      5.580
REMARK INTER + INTRA:           1.738
REMARK INTER:                   1.930
REMARK INTRA:                  -0.192
REMARK UNBOUND:                -0.250
REMARK SMILES C=CC(C)=CCC=C(C)C
REMARK SMILES IDX 5 1 3 2 4 3 6 4 7 5 9 6 8 7 10 8 2 9 1 10
REMARK H PARENT
REMARK Flexibility Score: inf
ROOT
ATOM      1  C   UNL     1      -0.488   5.842 -11.457  1.00  0.00    -0.020 C 
ATOM      2  C   UNL     1      -1.128   5.461 -12.581  1.00  0.00    -0.055 C 
ATOM      3  C   UNL     1      -2.587   5.060 -12.572  1.00  0.00     0.044 C 
ENDROOT
BRANCH   1   4
ATOM      4  C   UNL     1      -1.118   5.896 -10.091  1.00  0.00     0.055 C 
BRANCH   4   5
ATOM      5  C   UNL     1      -0.076   6.088  -9.015  1.00  0.00    -0.024 C 
ATOM      6  C   UNL     1       0.796   6.888  -6.860  1.00  0.00     0.039 C 
ATOM      7  C   UNL     1      -0.316   6.758  -7.868  1.00  0.00    -0.080 C 
ATOM      8  C   UNL     1      -1.666   7.369  -7.578  1.00  0.00     0.039 C 
ENDBRANCH   4   5
ENDBRANCH   1   4
BRANCH   2   9
ATOM      9  C   UNL     1      -0.375   5.518 -13.860  1.00  0.00    -0.005 C 
ATOM     10  C   UNL     1      -0.796   4.949 -14.991  1.00  0.00     0.009 C 
ENDBRANCH   2   9
TORSDOF 3
ENDMDL
