MODEL 1
REMARK VINA RESULT:    -3.580      0.000      0.000
REMARK INTER + INTRA:          -4.387
REMARK INTER:                  -4.103
REMARK INTRA:                  -0.284
REMARK UNBOUND:                -0.284
REMARK SMILES COC(=O)c1ccccc1O
REMARK SMILES IDX 5 1 6 2 7 3 8 4 9 5 10 6 3 7 4 8 2 9 1 10 11 11
REMARK H PARENT 11 12
REMARK Flexibility Score: inf
ROOT
ATOM      1  C   UNL     1       4.030   2.648   4.362  1.00  0.00     0.101 A 
ATOM      2  C   UNL     1       4.540   2.644   5.674  1.00  0.00     0.019 A 
ATOM      3  C   UNL     1       5.115   1.490   6.211  1.00  0.00     0.001 A 
ATOM      4  C   UNL     1       5.189   0.326   5.447  1.00  0.00     0.004 A 
ATOM      5  C   UNL     1       4.707   0.318   4.138  1.00  0.00     0.047 A 
ATOM      6  C   UNL     1       4.146   1.472   3.577  1.00  0.00     0.130 A 
ENDROOT
BRANCH   1   7
ATOM      7  C   UNL     1       3.356   3.867   3.867  1.00  0.00     0.341 C 
ATOM      8  O   UNL     1       3.734   4.393   2.784  1.00  0.00    -0.246 OA
BRANCH   7   9
ATOM      9  O   UNL     1       2.344   4.468   4.622  1.00  0.00    -0.465 OA
ATOM     10  C   UNL     1       2.114   5.872   4.618  1.00  0.00     0.282 C 
ENDBRANCH   7   9
ENDBRANCH   1   7
BRANCH   6  11
ATOM     11  O   UNL     1       3.754   1.422   2.238  1.00  0.00    -0.507 OA
ATOM     12  H   UNL     1       3.895   2.184   1.588  1.00  0.00     0.293 HD
ENDBRANCH   6  11
TORSDOF 3
ENDMDL
MODEL 2
REMARK VINA RESULT:    -3.265      1.492      1.933
REMARK INTER + INTRA:          -4.026
REMARK INTER:                  -3.752
REMARK INTRA:                  -0.274
REMARK UNBOUND:                -0.284
REMARK SMILES COC(=O)c1ccccc1O
REMARK SMILES IDX 5 1 6 2 7 3 8 4 9 5 10 6 3 7 4 8 2 9 1 10 11 11
REMARK H PARENT 11 12
REMARK Flexibility Score: inf
ROOT
ATOM      1  C   UNL     1       4.441   2.693   3.537  1.00  0.00     0.101 A 
ATOM      2  C   UNL     1       4.055   1.474   4.126  1.00  0.00     0.019 A 
ATOM      3  C   UNL     1       4.870   0.345   4.025  1.00  0.00     0.001 A 
ATOM      4  C   UNL     1       6.080   0.415   3.336  1.00  0.00     0.004 A 
ATOM      5  C   UNL     1       6.488   1.620   2.764  1.00  0.00     0.047 A 
ATOM      6  C   UNL     1       5.693   2.768   2.874  1.00  0.00     0.130 A 
ENDROOT
BRANCH   1   7
ATOM      7  C   UNL     1       3.509   3.838   3.598  1.00  0.00     0.341 C 
ATOM      8  O   UNL     1       3.440   4.640   2.626  1.00  0.00    -0.246 OA
BRANCH   7   9
ATOM      9  O   UNL     1       2.749   4.066   4.749  1.00  0.00    -0.465 OA
ATOM     10  C   UNL     1       2.035   5.276   4.972  1.00  0.00     0.282 C 
ENDBRANCH   7   9
ENDBRANCH   1   7
BRANCH   6  11
ATOM     11  O   UNL     1       6.194   3.961   2.347  1.00  0.00    -0.507 OA
ATOM     12  H   UNL     1       6.515   4.056   1.393  1.00  0.00     0.293 HD
ENDBRANCH   6  11
TORSDOF 3
ENDMDL
MODEL 3
REMARK VINA RESULT:    -3.217      9.856     10.358
REMARK INTER + INTRA:          -3.971
REMARK INTER:                  -3.626
REMARK INTRA:                  -0.345
REMARK UNBOUND:                -0.284
REMARK SMILES COC(=O)c1ccccc1O
REMARK SMILES IDX 5 1 6 2 7 3 8 4 9 5 10 6 3 7 4 8 2 9 1 10 11 11
REMARK H PARENT 11 12
REMARK Flexibility Score: inf
ROOT
ATOM      1  C   UNL     1       3.298  -5.149  -1.651  1.00  0.00     0.101 A 
ATOM      2  C   UNL     1       3.203  -5.891  -0.459  1.00  0.00     0.019 A 
ATOM      3  C   UNL     1       4.352  -6.263   0.242  1.00  0.00     0.001 A 
ATOM      4  C   UNL     1       5.611  -5.903  -0.237  1.00  0.00     0.004 A 
ATOM      5  C   UNL     1       5.723  -5.150  -1.407  1.00  0.00     0.047 A 
ATOM      6  C   UNL     1       4.580  -4.749  -2.110  1.00  0.00     0.130 A 
ENDROOT
BRANCH   1   7
ATOM      7  C   UNL     1       2.060  -4.849  -2.401  1.00  0.00     0.341 C 
ATOM      8  O   UNL     1       0.979  -4.673  -1.776  1.00  0.00    -0.246 OA
BRANCH   7   9
ATOM      9  O   UNL     1       2.074  -4.819  -3.799  1.00  0.00    -0.465 OA
ATOM     10  C   UNL     1       2.030  -5.997  -4.594  1.00  0.00     0.282 C 
ENDBRANCH   7   9
ENDBRANCH   1   7
BRANCH   6  11
ATOM     11  O   UNL     1       4.756  -3.932  -3.228  1.00  0.00    -0.507 OA
ATOM     12  H   UNL     1       5.652  -3.780  -3.671  1.00  0.00     0.293 HD
ENDBRANCH   6  11
TORSDOF 3
ENDMDL
MODEL 4
REMARK VINA RESULT:    -3.209     10.283     11.292
REMARK INTER + INTRA:          -3.962
REMARK INTER:                  -3.680
REMARK INTRA:                  -0.282
REMARK UNBOUND:                -0.284
REMARK SMILES COC(=O)c1ccccc1O
REMARK SMILES IDX 5 1 6 2 7 3 8 4 9 5 10 6 3 7 4 8 2 9 1 10 11 11
REMARK H PARENT 11 12
REMARK Flexibility Score: inf
ROOT
ATOM      1  C   UNL     1       2.835  -4.904  -3.622  1.00  0.00     0.101 A 
ATOM      2  C   UNL     1       1.723  -4.896  -2.758  1.00  0.00     0.019 A 
ATOM      3  C   UNL     1       1.879  -5.146  -1.393  1.00  0.00     0.001 A 
ATOM      4  C   UNL     1       3.145  -5.408  -0.871  1.00  0.00     0.004 A 
ATOM      5  C   UNL     1       4.261  -5.400  -1.708  1.00  0.00     0.047 A 
ATOM      6  C   UNL     1       4.125  -5.130  -3.076  1.00  0.00     0.130 A 
ENDROOT
BRANCH   1   7
ATOM      7  C   UNL     1       2.610  -4.716  -5.070  1.00  0.00     0.341 C 
ATOM      8  O   UNL     1       3.242  -5.429  -5.898  1.00  0.00    -0.246 OA
BRANCH   7   9
ATOM      9  O   UNL     1       1.745  -3.715  -5.524  1.00  0.00    -0.465 OA
ATOM     10  C   UNL     1       1.357  -3.596  -6.887  1.00  0.00     0.282 C 
ENDBRANCH   7   9
ENDBRANCH   1   7
BRANCH   6  11
ATOM     11  O   UNL     1       5.288  -5.058  -3.846  1.00  0.00    -0.507 OA
ATOM     12  H   UNL     1       6.208  -5.269  -3.483  1.00  0.00     0.293 HD
ENDBRANCH   6  11
TORSDOF 3
ENDMDL
MODEL 5
REMARK VINA RESULT:    -3.168      1.096      2.113
REMARK INTER + INTRA:          -3.915
REMARK INTER:                  -3.608
REMARK INTRA:                  -0.307
REMARK UNBOUND:                -0.284
REMARK SMILES COC(=O)c1ccccc1O
REMARK SMILES IDX 5 1 6 2 7 3 8 4 9 5 10 6 3 7 4 8 2 9 1 10 11 11
REMARK H PARENT 11 12
REMARK Flexibility Score: inf
ROOT
ATOM      1  C   UNL     1       3.785   2.929   4.219  1.00  0.00     0.101 A 
ATOM      2  C   UNL     1       3.981   1.913   3.264  1.00  0.00     0.019 A 
ATOM      3  C   UNL     1       4.614   0.719   3.615  1.00  0.00     0.001 A 
ATOM      4  C   UNL     1       5.062   0.523   4.920  1.00  0.00     0.004 A 
ATOM      5  C   UNL     1       4.859   1.510   5.884  1.00  0.00     0.047 A 
ATOM      6  C   UNL     1       4.206   2.705   5.555  1.00  0.00     0.130 A 
ENDROOT
BRANCH   1   7
ATOM      7  C   UNL     1       3.185   4.208   3.782  1.00  0.00     0.341 C 
ATOM      8  O   UNL     1       3.498   4.693   2.660  1.00  0.00    -0.246 OA
BRANCH   7   9
ATOM      9  O   UNL     1       2.322   4.906   4.631  1.00  0.00    -0.465 OA
ATOM     10  C   UNL     1       2.116   6.310   4.532  1.00  0.00     0.282 C 
ENDBRANCH   7   9
ENDBRANCH   1   7
BRANCH   6  11
ATOM     11  O   UNL     1       3.964   3.620   6.582  1.00  0.00    -0.507 OA
ATOM     12  H   UNL     1       3.990   4.622   6.451  1.00  0.00     0.293 HD
ENDBRANCH   6  11
TORSDOF 3
ENDMDL
MODEL 6
REMARK VINA RESULT:    -3.168     11.284     11.909
REMARK INTER + INTRA:          -3.915
REMARK INTER:                  -3.629
REMARK INTRA:                  -0.285
REMARK UNBOUND:                -0.284
REMARK SMILES COC(=O)c1ccccc1O
REMARK SMILES IDX 5 1 6 2 7 3 8 4 9 5 10 6 3 7 4 8 2 9 1 10 11 11
REMARK H PARENT 11 12
REMARK Flexibility Score: inf
ROOT
ATOM      1  C   UNL     1      -5.873  -3.285   1.674  1.00  0.00     0.101 A 
ATOM      2  C   UNL     1      -6.128  -2.872   0.352  1.00  0.00     0.019 A 
ATOM      3  C   UNL     1      -5.267  -3.237  -0.685  1.00  0.00     0.001 A 
ATOM      4  C   UNL     1      -4.143  -4.017  -0.420  1.00  0.00     0.004 A 
ATOM      5  C   UNL     1      -3.886  -4.452   0.881  1.00  0.00     0.047 A 
ATOM      6  C   UNL     1      -4.751  -4.113   1.930  1.00  0.00     0.130 A 
ENDROOT
BRANCH   1   7
ATOM      7  C   UNL     1      -6.765  -2.806   2.751  1.00  0.00     0.341 C 
ATOM      8  O   UNL     1      -8.015  -2.811   2.575  1.00  0.00    -0.246 OA
BRANCH   7   9
ATOM      9  O   UNL     1      -6.226  -2.295   3.936  1.00  0.00    -0.465 OA
ATOM     10  C   UNL     1      -7.025  -1.976   5.068  1.00  0.00     0.282 C 
ENDBRANCH   7   9
ENDBRANCH   1   7
BRANCH   6  11
ATOM     11  O   UNL     1      -4.482  -4.645   3.193  1.00  0.00    -0.507 OA
ATOM     12  H   UNL     1      -5.025  -5.389   3.610  1.00  0.00     0.293 HD
ENDBRANCH   6  11
TORSDOF 3
ENDMDL
MODEL 7
REMARK VINA RESULT:    -3.085      9.294     10.121
REMARK INTER + INTRA:          -3.819
REMARK INTER:                  -3.471
REMARK INTRA:                  -0.348
REMARK UNBOUND:                -0.284
REMARK SMILES COC(=O)c1ccccc1O
REMARK SMILES IDX 5 1 6 2 7 3 8 4 9 5 10 6 3 7 4 8 2 9 1 10 11 11
REMARK H PARENT 11 12
REMARK Flexibility Score: inf
ROOT
ATOM      1  C   UNL     1       4.443  -5.358  -1.434  1.00  0.00     0.101 A 
ATOM      2  C   UNL     1       5.062  -5.467  -0.175  1.00  0.00     0.019 A 
ATOM      3  C   UNL     1       6.177  -4.688   0.141  1.00  0.00     0.001 A 
ATOM      4  C   UNL     1       6.690  -3.790  -0.793  1.00  0.00     0.004 A 
ATOM      5  C   UNL     1       6.077  -3.653  -2.039  1.00  0.00     0.047 A 
ATOM      6  C   UNL     1       4.945  -4.412  -2.365  1.00  0.00     0.130 A 
ENDROOT
BRANCH   1   7
ATOM      7  C   UNL     1       3.318  -6.261  -1.754  1.00  0.00     0.341 C 
ATOM      8  O   UNL     1       3.428  -7.498  -1.528  1.00  0.00    -0.246 OA
BRANCH   7   9
ATOM      9  O   UNL     1       2.161  -5.759  -2.357  1.00  0.00    -0.465 OA
ATOM     10  C   UNL     1       1.326  -4.793  -1.731  1.00  0.00     0.282 C 
ENDBRANCH   7   9
ENDBRANCH   1   7
BRANCH   6  11
ATOM     11  O   UNL     1       4.332  -4.172  -3.596  1.00  0.00    -0.507 OA
ATOM     12  H   UNL     1       3.586  -3.502  -3.724  1.00  0.00     0.293 HD
ENDBRANCH   6  11
TORSDOF 3
ENDMDL
MODEL 8
REMARK VINA RESULT:    -3.077     11.090     12.297
REMARK INTER + INTRA:          -3.810
REMARK INTER:                  -3.579
REMARK INTRA:                  -0.231
REMARK UNBOUND:                -0.284
REMARK SMILES COC(=O)c1ccccc1O
REMARK SMILES IDX 5 1 6 2 7 3 8 4 9 5 10 6 3 7 4 8 2 9 1 10 11 11
REMARK H PARENT 11 12
REMARK Flexibility Score: inf
ROOT
ATOM      1  C   UNL     1      -5.054  -3.762   0.966  1.00  0.00     0.101 A 
ATOM      2  C   UNL     1      -6.177  -3.416   0.191  1.00  0.00     0.019 A 
ATOM      3  C   UNL     1      -7.316  -2.874   0.790  1.00  0.00     0.001 A 
ATOM      4  C   UNL     1      -7.351  -2.671   2.168  1.00  0.00     0.004 A 
ATOM      5  C   UNL     1      -6.240  -2.988   2.950  1.00  0.00     0.047 A 
ATOM      6  C   UNL     1      -5.081  -3.512   2.362  1.00  0.00     0.130 A 
ENDROOT
BRANCH   1   7
ATOM      7  C   UNL     1      -3.904  -4.409   0.300  1.00  0.00     0.341 C 
ATOM      8  O   UNL     1      -3.247  -3.772  -0.569  1.00  0.00    -0.246 OA
BRANCH   7   9
ATOM      9  O   UNL     1      -3.581  -5.739   0.588  1.00  0.00    -0.465 OA
ATOM     10  C   UNL     1      -4.563  -6.762   0.694  1.00  0.00     0.282 C 
ENDBRANCH   7   9
ENDBRANCH   1   7
BRANCH   6  11
ATOM     11  O   UNL     1      -3.976  -3.735   3.187  1.00  0.00    -0.507 OA
ATOM     12  H   UNL     1      -3.339  -3.004   3.471  1.00  0.00     0.293 HD
ENDBRANCH   6  11
TORSDOF 3
ENDMDL
MODEL 9
REMARK VINA RESULT:    -3.054     11.150     11.906
REMARK INTER + INTRA:          -3.784
REMARK INTER:                  -3.450
REMARK INTRA:                  -0.334
REMARK UNBOUND:                -0.284
REMARK SMILES COC(=O)c1ccccc1O
REMARK SMILES IDX 5 1 6 2 7 3 8 4 9 5 10 6 3 7 4 8 2 9 1 10 11 11
REMARK H PARENT 11 12
REMARK Flexibility Score: inf
ROOT
ATOM      1  C   UNL     1      -4.162  -5.176   1.180  1.00  0.00     0.101 A 
ATOM      2  C   UNL     1      -4.170  -6.536   0.818  1.00  0.00     0.019 A 
ATOM      3  C   UNL     1      -4.182  -7.533   1.795  1.00  0.00     0.001 A 
ATOM      4  C   UNL     1      -4.186  -7.188   3.146  1.00  0.00     0.004 A 
ATOM      5  C   UNL     1      -4.199  -5.845   3.523  1.00  0.00     0.047 A 
ATOM      6  C   UNL     1      -4.209  -4.832   2.556  1.00  0.00     0.130 A 
ENDROOT
BRANCH   1   7
ATOM      7  C   UNL     1      -4.065  -4.158   0.113  1.00  0.00     0.341 C 
ATOM      8  O   UNL     1      -3.061  -4.149  -0.652  1.00  0.00    -0.246 OA
BRANCH   7   9
ATOM      9  O   UNL     1      -5.050  -3.173  -0.012  1.00  0.00    -0.465 OA
ATOM     10  C   UNL     1      -6.435  -3.480  -0.112  1.00  0.00     0.282 C 
ENDBRANCH   7   9
ENDBRANCH   1   7
BRANCH   6  11
ATOM     11  O   UNL     1      -4.302  -3.510   2.997  1.00  0.00    -0.507 OA
ATOM     12  H   UNL     1      -5.181  -3.049   3.187  1.00  0.00     0.293 HD
ENDBRANCH   6  11
TORSDOF 3
ENDMDL
