MODEL 1
REMARK VINA RESULT:    -6.195      0.000      0.000
REMARK INTER + INTRA:          -7.747
REMARK INTER:                  -7.462
REMARK INTRA:                  -0.285
REMARK UNBOUND:                -0.285
REMARK SMILES O=c1c(O)c(-c2ccc(O)c(O)c2)oc2cc(O)cc(O)c12
REMARK SMILES IDX 5 1 3 2 2 3 1 4 22 5 20 6 19 7 17 8 16 9 15 10 14 11 6 12
REMARK SMILES IDX 7 13 8 14 9 15 13 16 11 17 10 18 12 20 4 22 21 24 18 26
REMARK H PARENT 10 19 12 21 4 23 21 25 18 27
REMARK Flexibility Score: inf
ROOT
ATOM      1  C   UNL     1      22.712  49.178  36.436  1.00  0.00     0.180 A 
ATOM      2  C   UNL     1      23.098  50.521  36.283  1.00  0.00     0.208 A 
ATOM      3  C   UNL     1      23.031  51.379  37.393  1.00  0.00     0.238 A 
ATOM      4  O   UNL     1      23.325  52.594  37.237  1.00  0.00    -0.285 OA
ATOM      5  C   UNL     1      22.596  50.880  38.644  1.00  0.00     0.111 A 
ATOM      6  C   UNL     1      22.529  51.650  39.844  1.00  0.00     0.134 A 
ATOM      7  C   UNL     1      21.960  51.088  40.995  1.00  0.00     0.093 A 
ATOM      8  C   UNL     1      21.517  49.763  41.004  1.00  0.00     0.123 A 
ATOM      9  C   UNL     1      21.634  48.986  39.855  1.00  0.00     0.094 A 
ATOM     10  C   UNL     1      22.164  49.529  38.682  1.00  0.00     0.146 A 
ATOM     11  O   UNL     1      22.247  48.756  37.606  1.00  0.00    -0.452 OA
ENDROOT
BRANCH   1  12
ATOM     12  C   UNL     1      22.778  48.208  35.320  1.00  0.00     0.025 A 
ATOM     13  C   UNL     1      23.870  47.332  35.231  1.00  0.00     0.016 A 
ATOM     14  C   UNL     1      23.962  46.423  34.174  1.00  0.00     0.051 A 
ATOM     15  C   UNL     1      22.979  46.380  33.181  1.00  0.00     0.157 A 
ATOM     16  C   UNL     1      21.800  48.183  34.312  1.00  0.00     0.062 A 
ATOM     17  C   UNL     1      21.885  47.276  33.247  1.00  0.00     0.158 A 
BRANCH  15  18
ATOM     18  O   UNL     1      23.125  45.443  32.157  1.00  0.00    -0.504 OA
ATOM     19  H   UNL     1      23.089  44.443  32.296  1.00  0.00     0.293 HD
ENDBRANCH  15  18
BRANCH  17  20
ATOM     20  O   UNL     1      20.875  47.305  32.282  1.00  0.00    -0.504 OA
ATOM     21  H   UNL     1      20.031  46.756  32.333  1.00  0.00     0.293 HD
ENDBRANCH  17  20
ENDBRANCH   1  12
BRANCH   2  22
ATOM     22  O   UNL     1      23.502  50.998  35.034  1.00  0.00    -0.502 OA
ATOM     23  H   UNL     1      24.287  50.604  34.528  1.00  0.00     0.293 HD
ENDBRANCH   2  22
BRANCH   6  24
ATOM     24  O   UNL     1      23.026  52.951  39.966  1.00  0.00    -0.507 OA
ATOM     25  H   UNL     1      22.546  53.781  39.654  1.00  0.00     0.293 HD
ENDBRANCH   6  24
BRANCH   8  26
ATOM     26  O   UNL     1      20.967  49.207  42.158  1.00  0.00    -0.508 OA
ATOM     27  H   UNL     1      21.128  48.238  42.408  1.00  0.00     0.293 HD
ENDBRANCH   8  26
TORSDOF 6
ENDMDL
MODEL 2
REMARK VINA RESULT:    -6.049      2.076      7.130
REMARK INTER + INTRA:          -7.572
REMARK INTER:                  -7.275
REMARK INTRA:                  -0.298
REMARK UNBOUND:                -0.285
REMARK SMILES O=c1c(O)c(-c2ccc(O)c(O)c2)oc2cc(O)cc(O)c12
REMARK SMILES IDX 5 1 3 2 2 3 1 4 22 5 20 6 19 7 17 8 16 9 15 10 14 11 6 12
REMARK SMILES IDX 7 13 8 14 9 15 13 16 11 17 10 18 12 20 4 22 21 24 18 26
REMARK H PARENT 10 19 12 21 4 23 21 25 18 27
REMARK Flexibility Score: inf
ROOT
ATOM      1  C   UNL     1      23.099  48.859  37.026  1.00  0.00     0.180 A 
ATOM      2  C   UNL     1      23.336  47.547  36.584  1.00  0.00     0.208 A 
ATOM      3  C   UNL     1      23.661  47.331  35.235  1.00  0.00     0.238 A 
ATOM      4  O   UNL     1      23.818  46.148  34.832  1.00  0.00    -0.285 OA
ATOM      5  C   UNL     1      23.760  48.431  34.349  1.00  0.00     0.111 A 
ATOM      6  C   UNL     1      24.122  48.333  32.972  1.00  0.00     0.134 A 
ATOM      7  C   UNL     1      24.062  49.472  32.159  1.00  0.00     0.093 A 
ATOM      8  C   UNL     1      23.716  50.718  32.689  1.00  0.00     0.123 A 
ATOM      9  C   UNL     1      23.419  50.834  34.045  1.00  0.00     0.094 A 
ATOM     10  C   UNL     1      23.436  49.709  34.874  1.00  0.00     0.146 A 
ATOM     11  O   UNL     1      23.136  49.863  36.157  1.00  0.00    -0.452 OA
ENDROOT
BRANCH   1  12
ATOM     12  C   UNL     1      22.777  49.168  38.438  1.00  0.00     0.025 A 
ATOM     13  C   UNL     1      21.457  49.029  38.891  1.00  0.00     0.016 A 
ATOM     14  C   UNL     1      21.129  49.334  40.213  1.00  0.00     0.051 A 
ATOM     15  C   UNL     1      22.103  49.798  41.103  1.00  0.00     0.157 A 
ATOM     16  C   UNL     1      23.755  49.655  39.323  1.00  0.00     0.062 A 
ATOM     17  C   UNL     1      23.433  49.966  40.650  1.00  0.00     0.158 A 
BRANCH  15  18
ATOM     18  O   UNL     1      21.711  50.077  42.413  1.00  0.00    -0.504 OA
ATOM     19  H   UNL     1      20.750  50.105  42.722  1.00  0.00     0.293 HD
ENDBRANCH  15  18
BRANCH  17  20
ATOM     20  O   UNL     1      24.456  50.443  41.474  1.00  0.00    -0.504 OA
ATOM     21  H   UNL     1      24.447  50.375  42.481  1.00  0.00     0.293 HD
ENDBRANCH  17  20
ENDBRANCH   1  12
BRANCH   2  22
ATOM     22  O   UNL     1      23.211  46.473  37.469  1.00  0.00    -0.502 OA
ATOM     23  H   UNL     1      23.745  46.409  38.328  1.00  0.00     0.293 HD
ENDBRANCH   2  22
BRANCH   6  24
ATOM     24  O   UNL     1      24.569  47.156  32.364  1.00  0.00    -0.507 OA
ATOM     25  H   UNL     1      25.398  47.084  31.793  1.00  0.00     0.293 HD
ENDBRANCH   6  24
BRANCH   8  26
ATOM     26  O   UNL     1      23.674  51.849  31.877  1.00  0.00    -0.508 OA
ATOM     27  H   UNL     1      22.840  52.419  31.805  1.00  0.00     0.293 HD
ENDBRANCH   8  26
TORSDOF 6
ENDMDL
MODEL 3
REMARK VINA RESULT:    -5.572      1.517      2.890
REMARK INTER + INTRA:          -6.997
REMARK INTER:                  -6.837
REMARK INTRA:                  -0.160
REMARK UNBOUND:                -0.285
REMARK SMILES O=c1c(O)c(-c2ccc(O)c(O)c2)oc2cc(O)cc(O)c12
REMARK SMILES IDX 5 1 3 2 2 3 1 4 22 5 20 6 19 7 17 8 16 9 15 10 14 11 6 12
REMARK SMILES IDX 7 13 8 14 9 15 13 16 11 17 10 18 12 20 4 22 21 24 18 26
REMARK H PARENT 10 19 12 21 4 23 21 25 18 27
REMARK Flexibility Score: inf
ROOT
ATOM      1  C   UNL     1      22.814  47.852  36.987  1.00  0.00     0.180 A 
ATOM      2  C   UNL     1      23.057  47.153  38.182  1.00  0.00     0.208 A 
ATOM      3  C   UNL     1      22.781  47.781  39.407  1.00  0.00     0.238 A 
ATOM      4  O   UNL     1      23.053  47.170  40.475  1.00  0.00    -0.285 OA
ATOM      5  C   UNL     1      22.249  49.093  39.422  1.00  0.00     0.111 A 
ATOM      6  C   UNL     1      21.893  49.809  40.604  1.00  0.00     0.134 A 
ATOM      7  C   UNL     1      21.498  51.149  40.507  1.00  0.00     0.093 A 
ATOM      8  C   UNL     1      21.384  51.778  39.265  1.00  0.00     0.123 A 
ATOM      9  C   UNL     1      21.671  51.068  38.102  1.00  0.00     0.094 A 
ATOM     10  C   UNL     1      22.102  49.741  38.169  1.00  0.00     0.146 A 
ATOM     11  O   UNL     1      22.376  49.105  37.036  1.00  0.00    -0.452 OA
ENDROOT
BRANCH   1  12
ATOM     12  C   UNL     1      23.056  47.248  35.658  1.00  0.00     0.025 A 
ATOM     13  C   UNL     1      24.369  46.954  35.263  1.00  0.00     0.016 A 
ATOM     14  C   UNL     1      24.621  46.402  34.005  1.00  0.00     0.051 A 
ATOM     15  C   UNL     1      23.575  46.148  33.113  1.00  0.00     0.157 A 
ATOM     16  C   UNL     1      22.004  47.015  34.756  1.00  0.00     0.062 A 
ATOM     17  C   UNL     1      22.249  46.465  33.491  1.00  0.00     0.158 A 
BRANCH  15  18
ATOM     18  O   UNL     1      23.894  45.588  31.875  1.00  0.00    -0.504 OA
ATOM     19  H   UNL     1      24.261  44.655  31.754  1.00  0.00     0.293 HD
ENDBRANCH  15  18
BRANCH  17  20
ATOM     20  O   UNL     1      21.154  46.258  32.647  1.00  0.00    -0.504 OA
ATOM     21  H   UNL     1      20.998  46.769  31.791  1.00  0.00     0.293 HD
ENDBRANCH  17  20
ENDBRANCH   1  12
BRANCH   2  22
ATOM     22  O   UNL     1      23.604  45.867  38.145  1.00  0.00    -0.502 OA
ATOM     23  H   UNL     1      24.601  45.697  38.214  1.00  0.00     0.293 HD
ENDBRANCH   2  22
BRANCH   6  24
ATOM     24  O   UNL     1      21.885  49.247  41.885  1.00  0.00    -0.507 OA
ATOM     25  H   UNL     1      22.171  48.304  42.101  1.00  0.00     0.293 HD
ENDBRANCH   6  24
BRANCH   8  26
ATOM     26  O   UNL     1      20.974  53.107  39.176  1.00  0.00    -0.508 OA
ATOM     27  H   UNL     1      20.675  53.511  38.297  1.00  0.00     0.293 HD
ENDBRANCH   8  26
TORSDOF 6
ENDMDL
MODEL 4
REMARK VINA RESULT:    -5.329     22.211     24.082
REMARK INTER + INTRA:          -6.705
REMARK INTER:                  -6.431
REMARK INTRA:                  -0.274
REMARK UNBOUND:                -0.285
REMARK SMILES O=c1c(O)c(-c2ccc(O)c(O)c2)oc2cc(O)cc(O)c12
REMARK SMILES IDX 5 1 3 2 2 3 1 4 22 5 20 6 19 7 17 8 16 9 15 10 14 11 6 12
REMARK SMILES IDX 7 13 8 14 9 15 13 16 11 17 10 18 12 20 4 22 21 24 18 26
REMARK H PARENT 10 19 12 21 4 23 21 25 18 27
REMARK Flexibility Score: inf
ROOT
ATOM      1  C   UNL     1      40.061  35.297  44.488  1.00  0.00     0.180 A 
ATOM      2  C   UNL     1      40.567  34.455  43.482  1.00  0.00     0.208 A 
ATOM      3  C   UNL     1      40.685  34.952  42.174  1.00  0.00     0.238 A 
ATOM      4  O   UNL     1      41.086  34.177  41.266  1.00  0.00    -0.285 OA
ATOM      5  C   UNL     1      40.311  36.288  41.891  1.00  0.00     0.111 A 
ATOM      6  C   UNL     1      40.427  36.908  40.611  1.00  0.00     0.134 A 
ATOM      7  C   UNL     1      39.905  38.193  40.416  1.00  0.00     0.093 A 
ATOM      8  C   UNL     1      39.331  38.905  41.473  1.00  0.00     0.123 A 
ATOM      9  C   UNL     1      39.268  38.331  42.739  1.00  0.00     0.094 A 
ATOM     10  C   UNL     1      39.747  37.036  42.957  1.00  0.00     0.146 A 
ATOM     11  O   UNL     1      39.658  36.524  44.178  1.00  0.00    -0.452 OA
ENDROOT
BRANCH   1  12
ATOM     12  C   UNL     1      39.931  34.853  45.894  1.00  0.00     0.025 A 
ATOM     13  C   UNL     1      41.077  34.758  46.696  1.00  0.00     0.016 A 
ATOM     14  C   UNL     1      40.979  34.323  48.019  1.00  0.00     0.051 A 
ATOM     15  C   UNL     1      39.743  33.959  48.562  1.00  0.00     0.157 A 
ATOM     16  C   UNL     1      38.690  34.467  46.429  1.00  0.00     0.062 A 
ATOM     17  C   UNL     1      38.583  34.027  47.754  1.00  0.00     0.158 A 
BRANCH  15  18
ATOM     18  O   UNL     1      39.712  33.540  49.893  1.00  0.00    -0.504 OA
ATOM     19  H   UNL     1      40.456  33.024  50.341  1.00  0.00     0.293 HD
ENDBRANCH  15  18
BRANCH  17  20
ATOM     20  O   UNL     1      37.318  33.661  48.220  1.00  0.00    -0.504 OA
ATOM     21  H   UNL     1      37.114  32.781  48.669  1.00  0.00     0.293 HD
ENDBRANCH  17  20
ENDBRANCH   1  12
BRANCH   2  22
ATOM     22  O   UNL     1      40.908  33.133  43.778  1.00  0.00    -0.502 OA
ATOM     23  H   UNL     1      40.635  32.355  43.189  1.00  0.00     0.293 HD
ENDBRANCH   2  22
BRANCH   6  24
ATOM     24  O   UNL     1      41.063  36.320  39.513  1.00  0.00    -0.507 OA
ATOM     25  H   UNL     1      42.060  36.321  39.359  1.00  0.00     0.293 HD
ENDBRANCH   6  24
BRANCH   8  26
ATOM     26  O   UNL     1      38.829  40.189  41.274  1.00  0.00    -0.508 OA
ATOM     27  H   UNL     1      38.123  40.380  40.573  1.00  0.00     0.293 HD
ENDBRANCH   8  26
TORSDOF 6
ENDMDL
MODEL 5
REMARK VINA RESULT:    -5.201     21.812     23.553
REMARK INTER + INTRA:          -6.550
REMARK INTER:                  -6.324
REMARK INTRA:                  -0.226
REMARK UNBOUND:                -0.285
REMARK SMILES O=c1c(O)c(-c2ccc(O)c(O)c2)oc2cc(O)cc(O)c12
REMARK SMILES IDX 5 1 3 2 2 3 1 4 22 5 20 6 19 7 17 8 16 9 15 10 14 11 6 12
REMARK SMILES IDX 7 13 8 14 9 15 13 16 11 17 10 18 12 20 4 22 21 24 18 26
REMARK H PARENT 10 19 12 21 4 23 21 25 18 27
REMARK Flexibility Score: inf
ROOT
ATOM      1  C   UNL     1      40.324  36.317  42.225  1.00  0.00     0.180 A 
ATOM      2  C   UNL     1      40.463  37.633  41.751  1.00  0.00     0.208 A 
ATOM      3  C   UNL     1      40.668  37.845  40.378  1.00  0.00     0.238 A 
ATOM      4  O   UNL     1      40.847  39.022  39.968  1.00  0.00    -0.285 OA
ATOM      5  C   UNL     1      40.714  36.740  39.494  1.00  0.00     0.111 A 
ATOM      6  C   UNL     1      40.875  36.840  38.080  1.00  0.00     0.134 A 
ATOM      7  C   UNL     1      41.037  35.676  37.318  1.00  0.00     0.093 A 
ATOM      8  C   UNL     1      40.978  34.413  37.914  1.00  0.00     0.123 A 
ATOM      9  C   UNL     1      40.761  34.304  39.284  1.00  0.00     0.094 A 
ATOM     10  C   UNL     1      40.632  35.448  40.076  1.00  0.00     0.146 A 
ATOM     11  O   UNL     1      40.437  35.298  41.380  1.00  0.00    -0.452 OA
ENDROOT
BRANCH   1  12
ATOM     12  C   UNL     1      40.081  36.016  43.654  1.00  0.00     0.025 A 
ATOM     13  C   UNL     1      41.125  36.168  44.578  1.00  0.00     0.016 A 
ATOM     14  C   UNL     1      40.922  35.870  45.927  1.00  0.00     0.051 A 
ATOM     15  C   UNL     1      39.684  35.402  46.377  1.00  0.00     0.157 A 
ATOM     16  C   UNL     1      38.842  35.525  44.099  1.00  0.00     0.062 A 
ATOM     17  C   UNL     1      38.631  35.221  45.450  1.00  0.00     0.158 A 
BRANCH  15  18
ATOM     18  O   UNL     1      39.545  35.131  47.740  1.00  0.00    -0.504 OA
ATOM     19  H   UNL     1      40.179  35.465  48.451  1.00  0.00     0.293 HD
ENDBRANCH  15  18
BRANCH  17  20
ATOM     20  O   UNL     1      37.373  34.739  45.821  1.00  0.00    -0.504 OA
ATOM     21  H   UNL     1      37.091  33.774  45.736  1.00  0.00     0.293 HD
ENDBRANCH  17  20
ENDBRANCH   1  12
BRANCH   2  22
ATOM     22  O   UNL     1      40.437  38.708  42.644  1.00  0.00    -0.502 OA
ATOM     23  H   UNL     1      39.604  38.969  43.159  1.00  0.00     0.293 HD
ENDBRANCH   2  22
BRANCH   6  24
ATOM     24  O   UNL     1      40.856  38.048  37.375  1.00  0.00    -0.507 OA
ATOM     25  H   UNL     1      40.250  38.248  36.594  1.00  0.00     0.293 HD
ENDBRANCH   6  24
BRANCH   8  26
ATOM     26  O   UNL     1      41.125  33.259  37.146  1.00  0.00    -0.508 OA
ATOM     27  H   UNL     1      40.458  32.498  37.201  1.00  0.00     0.293 HD
ENDBRANCH   8  26
TORSDOF 6
ENDMDL
MODEL 6
REMARK VINA RESULT:    -5.172      1.554      6.746
REMARK INTER + INTRA:          -6.516
REMARK INTER:                  -6.253
REMARK INTRA:                  -0.263
REMARK UNBOUND:                -0.285
REMARK SMILES O=c1c(O)c(-c2ccc(O)c(O)c2)oc2cc(O)cc(O)c12
REMARK SMILES IDX 5 1 3 2 2 3 1 4 22 5 20 6 19 7 17 8 16 9 15 10 14 11 6 12
REMARK SMILES IDX 7 13 8 14 9 15 13 16 11 17 10 18 12 20 4 22 21 24 18 26
REMARK H PARENT 10 19 12 21 4 23 21 25 18 27
REMARK Flexibility Score: inf
ROOT
ATOM      1  C   UNL     1      22.883  49.761  36.968  1.00  0.00     0.180 A 
ATOM      2  C   UNL     1      23.035  50.938  36.216  1.00  0.00     0.208 A 
ATOM      3  C   UNL     1      23.288  50.838  34.839  1.00  0.00     0.238 A 
ATOM      4  O   UNL     1      23.479  51.895  34.180  1.00  0.00    -0.285 OA
ATOM      5  C   UNL     1      23.369  49.564  34.228  1.00  0.00     0.111 A 
ATOM      6  C   UNL     1      23.580  49.346  32.833  1.00  0.00     0.134 A 
ATOM      7  C   UNL     1      23.772  48.042  32.359  1.00  0.00     0.093 A 
ATOM      8  C   UNL     1      23.696  46.944  33.221  1.00  0.00     0.123 A 
ATOM      9  C   UNL     1      23.430  47.143  34.573  1.00  0.00     0.094 A 
ATOM     10  C   UNL     1      23.270  48.435  35.081  1.00  0.00     0.146 A 
ATOM     11  O   UNL     1      23.029  48.580  36.379  1.00  0.00    -0.452 OA
ENDROOT
BRANCH   1  12
ATOM     12  C   UNL     1      22.590  49.786  38.419  1.00  0.00     0.025 A 
ATOM     13  C   UNL     1      21.282  49.543  38.863  1.00  0.00     0.016 A 
ATOM     14  C   UNL     1      20.981  49.582  40.226  1.00  0.00     0.051 A 
ATOM     15  C   UNL     1      21.970  49.878  41.169  1.00  0.00     0.157 A 
ATOM     16  C   UNL     1      23.582  50.106  39.362  1.00  0.00     0.062 A 
ATOM     17  C   UNL     1      23.287  50.150  40.730  1.00  0.00     0.158 A 
BRANCH  15  18
ATOM     18  O   UNL     1      21.604  49.893  42.516  1.00  0.00    -0.504 OA
ATOM     19  H   UNL     1      20.655  49.793  42.846  1.00  0.00     0.293 HD
ENDBRANCH  15  18
BRANCH  17  20
ATOM     20  O   UNL     1      24.323  50.473  41.611  1.00  0.00    -0.504 OA
ATOM     21  H   UNL     1      25.282  50.607  41.328  1.00  0.00     0.293 HD
ENDBRANCH  17  20
ENDBRANCH   1  12
BRANCH   2  22
ATOM     22  O   UNL     1      22.975  52.186  36.843  1.00  0.00    -0.502 OA
ATOM     23  H   UNL     1      22.870  52.288  37.846  1.00  0.00     0.293 HD
ENDBRANCH   2  22
BRANCH   6  24
ATOM     24  O   UNL     1      23.584  50.364  31.875  1.00  0.00    -0.507 OA
ATOM     25  H   UNL     1      22.756  50.804  31.501  1.00  0.00     0.293 HD
ENDBRANCH   6  24
BRANCH   8  26
ATOM     26  O   UNL     1      23.872  45.649  32.738  1.00  0.00    -0.508 OA
ATOM     27  H   UNL     1      24.644  45.412  32.126  1.00  0.00     0.293 HD
ENDBRANCH   8  26
TORSDOF 6
ENDMDL
MODEL 7
REMARK VINA RESULT:    -4.335     21.322     23.381
REMARK INTER + INTRA:          -5.507
REMARK INTER:                  -5.211
REMARK INTRA:                  -0.297
REMARK UNBOUND:                -0.285
REMARK SMILES O=c1c(O)c(-c2ccc(O)c(O)c2)oc2cc(O)cc(O)c12
REMARK SMILES IDX 5 1 3 2 2 3 1 4 22 5 20 6 19 7 17 8 16 9 15 10 14 11 6 12
REMARK SMILES IDX 7 13 8 14 9 15 13 16 11 17 10 18 12 20 4 22 21 24 18 26
REMARK H PARENT 10 19 12 21 4 23 21 25 18 27
REMARK Flexibility Score: inf
ROOT
ATOM      1  C   UNL     1      39.439  36.143  43.413  1.00  0.00     0.180 A 
ATOM      2  C   UNL     1      39.433  37.526  43.161  1.00  0.00     0.208 A 
ATOM      3  C   UNL     1      39.730  37.983  41.867  1.00  0.00     0.238 A 
ATOM      4  O   UNL     1      39.778  39.224  41.660  1.00  0.00    -0.285 OA
ATOM      5  C   UNL     1      40.013  37.052  40.838  1.00  0.00     0.111 A 
ATOM      6  C   UNL     1      40.287  37.402  39.482  1.00  0.00     0.134 A 
ATOM      7  C   UNL     1      40.681  36.407  38.578  1.00  0.00     0.093 A 
ATOM      8  C   UNL     1      40.748  35.067  38.967  1.00  0.00     0.123 A 
ATOM      9  C   UNL     1      40.424  34.708  40.273  1.00  0.00     0.094 A 
ATOM     10  C   UNL     1      40.062  35.683  41.207  1.00  0.00     0.146 A 
ATOM     11  O   UNL     1      39.772  35.298  42.444  1.00  0.00    -0.452 OA
ENDROOT
BRANCH   1  12
ATOM     12  C   UNL     1      39.111  35.584  44.745  1.00  0.00     0.025 A 
ATOM     13  C   UNL     1      37.807  35.138  45.004  1.00  0.00     0.016 A 
ATOM     14  C   UNL     1      37.473  34.626  46.259  1.00  0.00     0.051 A 
ATOM     15  C   UNL     1      38.424  34.564  47.282  1.00  0.00     0.157 A 
ATOM     16  C   UNL     1      40.064  35.544  45.777  1.00  0.00     0.062 A 
ATOM     17  C   UNL     1      39.736  35.035  47.040  1.00  0.00     0.158 A 
BRANCH  15  18
ATOM     18  O   UNL     1      38.027  34.034  48.511  1.00  0.00    -0.504 OA
ATOM     19  H   UNL     1      38.241  34.455  49.404  1.00  0.00     0.293 HD
ENDBRANCH  15  18
BRANCH  17  20
ATOM     20  O   UNL     1      40.734  35.023  48.018  1.00  0.00    -0.504 OA
ATOM     21  H   UNL     1      40.597  34.688  48.959  1.00  0.00     0.293 HD
ENDBRANCH  17  20
ENDBRANCH   1  12
BRANCH   2  22
ATOM     22  O   UNL     1      39.174  38.428  44.196  1.00  0.00    -0.502 OA
ATOM     23  H   UNL     1      38.995  38.129  45.148  1.00  0.00     0.293 HD
ENDBRANCH   2  22
BRANCH   6  24
ATOM     24  O   UNL     1      40.162  38.697  38.969  1.00  0.00    -0.507 OA
ATOM     25  H   UNL     1      40.037  39.527  39.529  1.00  0.00     0.293 HD
ENDBRANCH   6  24
BRANCH   8  26
ATOM     26  O   UNL     1      41.125  34.081  38.057  1.00  0.00    -0.508 OA
ATOM     27  H   UNL     1      42.030  33.630  38.110  1.00  0.00     0.293 HD
ENDBRANCH   8  26
TORSDOF 6
ENDMDL
MODEL 8
REMARK VINA RESULT:    -3.957     21.743     23.104
REMARK INTER + INTRA:          -5.052
REMARK INTER:                  -4.737
REMARK INTRA:                  -0.315
REMARK UNBOUND:                -0.285
REMARK SMILES O=c1c(O)c(-c2ccc(O)c(O)c2)oc2cc(O)cc(O)c12
REMARK SMILES IDX 5 1 3 2 2 3 1 4 22 5 20 6 19 7 17 8 16 9 15 10 14 11 6 12
REMARK SMILES IDX 7 13 8 14 9 15 13 16 11 17 10 18 12 20 4 22 21 24 18 26
REMARK H PARENT 10 19 12 21 4 23 21 25 18 27
REMARK Flexibility Score: inf
ROOT
ATOM      1  C   UNL     1      39.091  35.911  43.800  1.00  0.00     0.180 A 
ATOM      2  C   UNL     1      37.767  35.443  43.847  1.00  0.00     0.208 A 
ATOM      3  C   UNL     1      37.321  34.777  44.999  1.00  0.00     0.238 A 
ATOM      4  O   UNL     1      36.151  34.311  45.014  1.00  0.00    -0.285 OA
ATOM      5  C   UNL     1      38.199  34.601  46.096  1.00  0.00     0.111 A 
ATOM      6  C   UNL     1      37.840  33.977  47.329  1.00  0.00     0.134 A 
ATOM      7  C   UNL     1      38.826  33.741  48.296  1.00  0.00     0.093 A 
ATOM      8  C   UNL     1      40.143  34.166  48.100  1.00  0.00     0.123 A 
ATOM      9  C   UNL     1      40.488  34.829  46.926  1.00  0.00     0.094 A 
ATOM     10  C   UNL     1      39.535  35.047  45.927  1.00  0.00     0.146 A 
ATOM     11  O   UNL     1      39.910  35.674  44.819  1.00  0.00    -0.452 OA
ENDROOT
BRANCH   1  12
ATOM     12  C   UNL     1      39.626  36.645  42.630  1.00  0.00     0.025 A 
ATOM     13  C   UNL     1      39.565  38.045  42.608  1.00  0.00     0.016 A 
ATOM     14  C   UNL     1      40.046  38.755  41.505  1.00  0.00     0.051 A 
ATOM     15  C   UNL     1      40.581  38.084  40.401  1.00  0.00     0.157 A 
ATOM     16  C   UNL     1      40.142  35.966  41.513  1.00  0.00     0.062 A 
ATOM     17  C   UNL     1      40.624  36.670  40.403  1.00  0.00     0.158 A 
BRANCH  15  18
ATOM     18  O   UNL     1      41.051  38.853  39.335  1.00  0.00    -0.504 OA
ATOM     19  H   UNL     1      40.688  39.763  39.091  1.00  0.00     0.293 HD
ENDBRANCH  15  18
BRANCH  17  20
ATOM     20  O   UNL     1      41.125  35.930  39.328  1.00  0.00    -0.504 OA
ATOM     21  H   UNL     1      41.446  36.338  38.463  1.00  0.00     0.293 HD
ENDBRANCH  17  20
ENDBRANCH   1  12
BRANCH   2  22
ATOM     22  O   UNL     1      36.924  35.607  42.745  1.00  0.00    -0.502 OA
ATOM     23  H   UNL     1      36.049  35.105  42.648  1.00  0.00     0.293 HD
ENDBRANCH   2  22
BRANCH   6  24
ATOM     24  O   UNL     1      36.537  33.597  47.662  1.00  0.00    -0.507 OA
ATOM     25  H   UNL     1      36.297  32.954  48.402  1.00  0.00     0.293 HD
ENDBRANCH   6  24
BRANCH   8  26
ATOM     26  O   UNL     1      41.114  33.941  49.074  1.00  0.00    -0.508 OA
ATOM     27  H   UNL     1      40.944  34.155  50.050  1.00  0.00     0.293 HD
ENDBRANCH   8  26
TORSDOF 6
ENDMDL
MODEL 9
REMARK VINA RESULT:    -3.711     20.839     22.366
REMARK INTER + INTRA:          -4.756
REMARK INTER:                  -5.106
REMARK INTRA:                   0.350
REMARK UNBOUND:                -0.285
REMARK SMILES O=c1c(O)c(-c2ccc(O)c(O)c2)oc2cc(O)cc(O)c12
REMARK SMILES IDX 5 1 3 2 2 3 1 4 22 5 20 6 19 7 17 8 16 9 15 10 14 11 6 12
REMARK SMILES IDX 7 13 8 14 9 15 13 16 11 17 10 18 12 20 4 22 21 24 18 26
REMARK H PARENT 10 19 12 21 4 23 21 25 18 27
REMARK Flexibility Score: inf
ROOT
ATOM      1  C   UNL     1      40.128  37.019  40.891  1.00  0.00     0.180 A 
ATOM      2  C   UNL     1      39.441  37.991  41.638  1.00  0.00     0.208 A 
ATOM      3  C   UNL     1      39.235  37.776  43.010  1.00  0.00     0.238 A 
ATOM      4  O   UNL     1      38.570  38.624  43.663  1.00  0.00    -0.285 OA
ATOM      5  C   UNL     1      39.733  36.600  43.621  1.00  0.00     0.111 A 
ATOM      6  C   UNL     1      39.618  36.299  45.012  1.00  0.00     0.134 A 
ATOM      7  C   UNL     1      40.033  35.047  45.484  1.00  0.00     0.093 A 
ATOM      8  C   UNL     1      40.619  34.112  44.626  1.00  0.00     0.123 A 
ATOM      9  C   UNL     1      40.790  34.421  43.279  1.00  0.00     0.094 A 
ATOM     10  C   UNL     1      40.353  35.648  42.772  1.00  0.00     0.146 A 
ATOM     11  O   UNL     1      40.526  35.897  41.479  1.00  0.00    -0.452 OA
ENDROOT
BRANCH   1  12
ATOM     12  C   UNL     1      40.405  37.187  39.446  1.00  0.00     0.025 A 
ATOM     13  C   UNL     1      40.501  38.478  38.908  1.00  0.00     0.016 A 
ATOM     14  C   UNL     1      40.743  38.658  37.544  1.00  0.00     0.051 A 
ATOM     15  C   UNL     1      40.876  37.558  36.691  1.00  0.00     0.157 A 
ATOM     16  C   UNL     1      40.517  36.080  38.588  1.00  0.00     0.062 A 
ATOM     17  C   UNL     1      40.756  36.251  37.219  1.00  0.00     0.158 A 
BRANCH  15  18
ATOM     18  O   UNL     1      41.124  37.807  35.340  1.00  0.00    -0.504 OA
ATOM     19  H   UNL     1      40.419  38.105  34.681  1.00  0.00     0.293 HD
ENDBRANCH  15  18
BRANCH  17  20
ATOM     20  O   UNL     1      40.858  35.105  36.426  1.00  0.00    -0.504 OA
ATOM     21  H   UNL     1      40.131  34.410  36.343  1.00  0.00     0.293 HD
ENDBRANCH  17  20
ENDBRANCH   1  12
BRANCH   2  22
ATOM     22  O   UNL     1      38.937  39.134  41.010  1.00  0.00    -0.502 OA
ATOM     23  H   UNL     1      39.528  39.781  40.501  1.00  0.00     0.293 HD
ENDBRANCH   2  22
BRANCH   6  24
ATOM     24  O   UNL     1      39.132  37.196  45.968  1.00  0.00    -0.507 OA
ATOM     25  H   UNL     1      39.618  38.024  46.277  1.00  0.00     0.293 HD
ENDBRANCH   6  24
BRANCH   8  26
ATOM     26  O   UNL     1      41.044  32.875  45.107  1.00  0.00    -0.508 OA
ATOM     27  H   UNL     1      41.920  32.773  45.605  1.00  0.00     0.293 HD
ENDBRANCH   8  26
TORSDOF 6
ENDMDL
