MODEL 1
REMARK VINA RESULT:    -3.869      0.000      0.000
REMARK INTER + INTRA:          -9.066
REMARK INTER:                  -7.262
REMARK INTRA:                  -1.804
REMARK UNBOUND:                -1.804
REMARK SMILES O=C([O-])CCCCCCCCCCCCCCC(=O)[O-]
REMARK SMILES IDX 10 1 9 2 8 3 7 4 6 5 5 6 4 7 2 8 1 9 3 10 11 11 12 12 13 13
REMARK SMILES IDX 14 14 15 15 16 16 17 17 18 18 19 19 20 20
REMARK H PARENT
REMARK Flexibility Score: inf
ROOT
ATOM      1  C   UNL     1      33.568 -44.869   2.132  1.00  0.00     0.000 C 
ENDROOT
BRANCH   1   2
ATOM      2  C   UNL     1      32.944 -44.060   0.980  1.00  0.00     0.000 C 
BRANCH   2   3
ATOM      3  C   UNL     1      33.978 -43.611  -0.063  1.00  0.00     0.000 C 
BRANCH   3   4
ATOM      4  C   UNL     1      33.420 -43.754  -1.484  1.00  0.00     0.000 C 
BRANCH   4   5
ATOM      5  C   UNL     1      31.931 -44.128  -1.454  1.00  0.00     0.000 C 
BRANCH   5   6
ATOM      6  C   UNL     1      31.609 -45.341  -2.340  1.00  0.00     0.006 C 
BRANCH   6   7
ATOM      7  C   UNL     1      32.629 -45.528  -3.471  1.00  0.00     0.053 C 
BRANCH   7   8
ATOM      8  C   UNL     1      32.925 -46.981  -3.669  1.00  0.00     0.041 C 
ATOM      9  O   UNL     1      34.062 -47.350  -4.066  1.00  0.00    -0.550 OA
ATOM     10  O   UNL     1      31.959 -47.934  -3.370  1.00  0.00    -0.550 OA
ENDBRANCH   7   8
ENDBRANCH   6   7
ENDBRANCH   5   6
ENDBRANCH   4   5
ENDBRANCH   3   4
ENDBRANCH   2   3
ENDBRANCH   1   2
BRANCH   1  11
ATOM     11  C   UNL     1      34.102 -46.257   1.734  1.00  0.00     0.000 C 
BRANCH  11  12
ATOM     12  C   UNL     1      33.193 -46.980   0.726  1.00  0.00     0.000 C 
BRANCH  12  13
ATOM     13  C   UNL     1      33.988 -47.776  -0.326  1.00  0.00     0.000 C 
BRANCH  13  14
ATOM     14  C   UNL     1      34.219 -49.255   0.044  1.00  0.00     0.000 C 
BRANCH  14  15
ATOM     15  C   UNL     1      33.129 -49.857   0.952  1.00  0.00     0.000 C 
BRANCH  15  16
ATOM     16  C   UNL     1      33.713 -50.637   2.138  1.00  0.00     0.006 C 
BRANCH  16  17
ATOM     17  C   UNL     1      35.066 -50.063   2.564  1.00  0.00     0.053 C 
BRANCH  17  18
ATOM     18  C   UNL     1      35.735 -50.969   3.548  1.00  0.00     0.041 C 
ATOM     19  O   UNL     1      35.907 -52.185   3.274  1.00  0.00    -0.550 OA
ATOM     20  O   UNL     1      36.206 -50.463   4.752  1.00  0.00    -0.550 OA
ENDBRANCH  17  18
ENDBRANCH  16  17
ENDBRANCH  15  16
ENDBRANCH  14  15
ENDBRANCH  13  14
ENDBRANCH  12  13
ENDBRANCH  11  12
ENDBRANCH   1  11
TORSDOF 15
ENDMDL
MODEL 2
REMARK VINA RESULT:    -3.847      1.318      6.061
REMARK INTER + INTRA:          -9.024
REMARK INTER:                  -7.079
REMARK INTRA:                  -1.945
REMARK UNBOUND:                -1.804
REMARK SMILES O=C([O-])CCCCCCCCCCCCCCC(=O)[O-]
REMARK SMILES IDX 10 1 9 2 8 3 7 4 6 5 5 6 4 7 2 8 1 9 3 10 11 11 12 12 13 13
REMARK SMILES IDX 14 14 15 15 16 16 17 17 18 18 19 19 20 20
REMARK H PARENT
REMARK Flexibility Score: inf
ROOT
ATOM      1  C   UNL     1      35.426 -44.423   1.706  1.00  0.00     0.000 C 
ENDROOT
BRANCH   1   2
ATOM      2  C   UNL     1      34.198 -44.978   2.451  1.00  0.00     0.000 C 
BRANCH   2   3
ATOM      3  C   UNL     1      33.262 -45.786   1.539  1.00  0.00     0.000 C 
BRANCH   3   4
ATOM      4  C   UNL     1      34.041 -46.855   0.763  1.00  0.00     0.000 C 
BRANCH   4   5
ATOM      5  C   UNL     1      33.168 -48.092   0.509  1.00  0.00     0.000 C 
BRANCH   5   6
ATOM      6  C   UNL     1      33.978 -49.398   0.519  1.00  0.00     0.006 C 
BRANCH   6   7
ATOM      7  C   UNL     1      33.690 -50.257   1.756  1.00  0.00     0.053 C 
BRANCH   7   8
ATOM      8  C   UNL     1      34.838 -50.194   2.712  1.00  0.00     0.041 C 
ATOM      9  O   UNL     1      35.549 -51.213   2.921  1.00  0.00    -0.550 OA
ATOM     10  O   UNL     1      35.155 -48.996   3.340  1.00  0.00    -0.550 OA
ENDBRANCH   7   8
ENDBRANCH   6   7
ENDBRANCH   5   6
ENDBRANCH   4   5
ENDBRANCH   3   4
ENDBRANCH   2   3
ENDBRANCH   1   2
BRANCH   1  11
ATOM     11  C   UNL     1      35.403 -42.904   1.461  1.00  0.00     0.000 C 
BRANCH  11  12
ATOM     12  C   UNL     1      34.856 -42.531   0.072  1.00  0.00     0.000 C 
BRANCH  12  13
ATOM     13  C   UNL     1      34.999 -43.676  -0.948  1.00  0.00     0.000 C 
BRANCH  13  14
ATOM     14  C   UNL     1      33.979 -43.621  -2.104  1.00  0.00     0.000 C 
BRANCH  14  15
ATOM     15  C   UNL     1      32.921 -44.741  -2.068  1.00  0.00     0.000 C 
BRANCH  15  16
ATOM     16  C   UNL     1      33.400 -46.030  -2.750  1.00  0.00     0.006 C 
BRANCH  16  17
ATOM     17  C   UNL     1      32.234 -46.990  -2.996  1.00  0.00     0.053 C 
BRANCH  17  18
ATOM     18  C   UNL     1      32.734 -48.387  -3.185  1.00  0.00     0.041 C 
ATOM     19  O   UNL     1      33.967 -48.632  -3.119  1.00  0.00    -0.550 OA
ATOM     20  O   UNL     1      31.836 -49.426  -3.391  1.00  0.00    -0.550 OA
ENDBRANCH  17  18
ENDBRANCH  16  17
ENDBRANCH  15  16
ENDBRANCH  14  15
ENDBRANCH  13  14
ENDBRANCH  12  13
ENDBRANCH  11  12
ENDBRANCH   1  11
TORSDOF 15
ENDMDL
MODEL 3
REMARK VINA RESULT:    -3.845      1.807      2.535
REMARK INTER + INTRA:          -9.022
REMARK INTER:                  -7.296
REMARK INTRA:                  -1.726
REMARK UNBOUND:                -1.804
REMARK SMILES O=C([O-])CCCCCCCCCCCCCCC(=O)[O-]
REMARK SMILES IDX 10 1 9 2 8 3 7 4 6 5 5 6 4 7 2 8 1 9 3 10 11 11 12 12 13 13
REMARK SMILES IDX 14 14 15 15 16 16 17 17 18 18 19 19 20 20
REMARK H PARENT
REMARK Flexibility Score: inf
ROOT
ATOM      1  C   UNL     1      34.681 -43.982   2.182  1.00  0.00     0.000 C 
ENDROOT
BRANCH   1   2
ATOM      2  C   UNL     1      34.933 -43.290   0.830  1.00  0.00     0.000 C 
BRANCH   2   3
ATOM      3  C   UNL     1      33.720 -43.357  -0.110  1.00  0.00     0.000 C 
BRANCH   3   4
ATOM      4  C   UNL     1      34.165 -43.426  -1.575  1.00  0.00     0.000 C 
BRANCH   4   5
ATOM      5  C   UNL     1      34.152 -44.875  -2.085  1.00  0.00     0.000 C 
BRANCH   5   6
ATOM      6  C   UNL     1      32.909 -45.652  -1.624  1.00  0.00     0.006 C 
BRANCH   6   7
ATOM      7  C   UNL     1      33.075 -47.168  -1.781  1.00  0.00     0.053 C 
BRANCH   7   8
ATOM      8  C   UNL     1      32.275 -47.662  -2.945  1.00  0.00     0.041 C 
ATOM      9  O   UNL     1      31.788 -46.847  -3.772  1.00  0.00    -0.550 OA
ATOM     10  O   UNL     1      32.107 -49.026  -3.144  1.00  0.00    -0.550 OA
ENDBRANCH   7   8
ENDBRANCH   6   7
ENDBRANCH   5   6
ENDBRANCH   4   5
ENDBRANCH   3   4
ENDBRANCH   2   3
ENDBRANCH   1   2
BRANCH   1  11
ATOM     11  C   UNL     1      33.503 -44.974   2.194  1.00  0.00     0.000 C 
BRANCH  11  12
ATOM     12  C   UNL     1      33.928 -46.409   1.839  1.00  0.00     0.000 C 
BRANCH  12  13
ATOM     13  C   UNL     1      35.346 -46.749   2.336  1.00  0.00     0.000 C 
BRANCH  13  14
ATOM     14  C   UNL     1      35.386 -47.392   3.737  1.00  0.00     0.000 C 
BRANCH  14  15
ATOM     15  C   UNL     1      36.247 -48.668   3.821  1.00  0.00     0.000 C 
BRANCH  15  16
ATOM     16  C   UNL     1      36.101 -49.563   2.583  1.00  0.00     0.006 C 
BRANCH  16  17
ATOM     17  C   UNL     1      35.142 -50.725   2.853  1.00  0.00     0.053 C 
BRANCH  17  18
ATOM     18  C   UNL     1      33.909 -50.594   2.016  1.00  0.00     0.041 C 
ATOM     19  O   UNL     1      33.875 -49.774   1.063  1.00  0.00    -0.550 OA
ATOM     20  O   UNL     1      32.810 -51.407   2.264  1.00  0.00    -0.550 OA
ENDBRANCH  17  18
ENDBRANCH  16  17
ENDBRANCH  15  16
ENDBRANCH  14  15
ENDBRANCH  13  14
ENDBRANCH  12  13
ENDBRANCH  11  12
ENDBRANCH   1  11
TORSDOF 15
ENDMDL
MODEL 4
REMARK VINA RESULT:    -3.834      2.121      6.438
REMARK INTER + INTRA:          -8.999
REMARK INTER:                  -6.786
REMARK INTRA:                  -2.214
REMARK UNBOUND:                -1.804
REMARK SMILES O=C([O-])CCCCCCCCCCCCCCC(=O)[O-]
REMARK SMILES IDX 10 1 9 2 8 3 7 4 6 5 5 6 4 7 2 8 1 9 3 10 11 11 12 12 13 13
REMARK SMILES IDX 14 14 15 15 16 16 17 17 18 18 19 19 20 20
REMARK H PARENT
REMARK Flexibility Score: inf
ROOT
ATOM      1  C   UNL     1      33.373 -43.405   0.053  1.00  0.00     0.000 C 
ENDROOT
BRANCH   1   2
ATOM      2  C   UNL     1      32.831 -44.435   1.062  1.00  0.00     0.000 C 
BRANCH   2   3
ATOM      3  C   UNL     1      33.748 -44.618   2.279  1.00  0.00     0.000 C 
BRANCH   3   4
ATOM      4  C   UNL     1      34.319 -46.040   2.327  1.00  0.00     0.000 C 
BRANCH   4   5
ATOM      5  C   UNL     1      33.675 -46.925   1.250  1.00  0.00     0.000 C 
BRANCH   5   6
ATOM      6  C   UNL     1      34.697 -47.822   0.534  1.00  0.00     0.006 C 
BRANCH   6   7
ATOM      7  C   UNL     1      34.089 -49.154   0.076  1.00  0.00     0.053 C 
BRANCH   7   8
ATOM      8  C   UNL     1      33.667 -49.967   1.259  1.00  0.00     0.041 C 
ATOM      9  O   UNL     1      34.442 -50.111   2.240  1.00  0.00    -0.550 OA
ATOM     10  O   UNL     1      32.397 -50.529   1.298  1.00  0.00    -0.550 OA
ENDBRANCH   7   8
ENDBRANCH   6   7
ENDBRANCH   5   6
ENDBRANCH   4   5
ENDBRANCH   3   4
ENDBRANCH   2   3
ENDBRANCH   1   2
BRANCH   1  11
ATOM     11  C   UNL     1      34.905 -43.394  -0.101  1.00  0.00     0.000 C 
BRANCH  11  12
ATOM     12  C   UNL     1      35.400 -44.332  -1.215  1.00  0.00     0.000 C 
BRANCH  12  13
ATOM     13  C   UNL     1      34.399 -44.451  -2.380  1.00  0.00     0.000 C 
BRANCH  13  14
ATOM     14  C   UNL     1      34.050 -45.903  -2.767  1.00  0.00     0.000 C 
BRANCH  14  15
ATOM     15  C   UNL     1      32.699 -46.397  -2.215  1.00  0.00     0.000 C 
BRANCH  15  16
ATOM     16  C   UNL     1      31.735 -46.842  -3.323  1.00  0.00     0.006 C 
BRANCH  16  17
ATOM     17  C   UNL     1      31.450 -45.697  -4.298  1.00  0.00     0.053 C 
BRANCH  17  18
ATOM     18  C   UNL     1      30.506 -44.710  -3.689  1.00  0.00     0.041 C 
ATOM     19  O   UNL     1      29.483 -45.109  -3.074  1.00  0.00    -0.550 OA
ATOM     20  O   UNL     1      30.776 -43.350  -3.764  1.00  0.00    -0.550 OA
ENDBRANCH  17  18
ENDBRANCH  16  17
ENDBRANCH  15  16
ENDBRANCH  14  15
ENDBRANCH  13  14
ENDBRANCH  12  13
ENDBRANCH  11  12
ENDBRANCH   1  11
TORSDOF 15
ENDMDL
MODEL 5
REMARK VINA RESULT:    -3.826      1.234      7.368
REMARK INTER + INTRA:          -8.985
REMARK INTER:                  -7.288
REMARK INTRA:                  -1.697
REMARK UNBOUND:                -1.804
REMARK SMILES O=C([O-])CCCCCCCCCCCCCCC(=O)[O-]
REMARK SMILES IDX 10 1 9 2 8 3 7 4 6 5 5 6 4 7 2 8 1 9 3 10 11 11 12 12 13 13
REMARK SMILES IDX 14 14 15 15 16 16 17 17 18 18 19 19 20 20
REMARK H PARENT
REMARK Flexibility Score: inf
ROOT
ATOM      1  C   UNL     1      33.756 -46.713   1.217  1.00  0.00     0.000 C 
ENDROOT
BRANCH   1   2
ATOM      2  C   UNL     1      33.266 -47.548   0.021  1.00  0.00     0.000 C 
BRANCH   2   3
ATOM      3  C   UNL     1      33.783 -48.994   0.051  1.00  0.00     0.000 C 
BRANCH   3   4
ATOM      4  C   UNL     1      32.892 -49.876   0.934  1.00  0.00     0.000 C 
BRANCH   4   5
ATOM      5  C   UNL     1      33.703 -50.507   2.075  1.00  0.00     0.000 C 
BRANCH   5   6
ATOM      6  C   UNL     1      35.142 -49.974   2.141  1.00  0.00     0.006 C 
BRANCH   6   7
ATOM      7  C   UNL     1      35.398 -49.126   3.392  1.00  0.00     0.053 C 
BRANCH   7   8
ATOM      8  C   UNL     1      36.330 -49.836   4.322  1.00  0.00     0.041 C 
ATOM      9  O   UNL     1      36.144 -51.049   4.604  1.00  0.00    -0.550 OA
ATOM     10  O   UNL     1      37.433 -49.172   4.842  1.00  0.00    -0.550 OA
ENDBRANCH   7   8
ENDBRANCH   6   7
ENDBRANCH   5   6
ENDBRANCH   4   5
ENDBRANCH   3   4
ENDBRANCH   2   3
ENDBRANCH   1   2
BRANCH   1  11
ATOM     11  C   UNL     1      33.043 -45.360   1.400  1.00  0.00     0.000 C 
BRANCH  11  12
ATOM     12  C   UNL     1      33.971 -44.265   1.951  1.00  0.00     0.000 C 
BRANCH  12  13
ATOM     13  C   UNL     1      34.715 -43.502   0.839  1.00  0.00     0.000 C 
BRANCH  13  14
ATOM     14  C   UNL     1      33.840 -43.160  -0.384  1.00  0.00     0.000 C 
BRANCH  14  15
ATOM     15  C   UNL     1      34.394 -43.684  -1.724  1.00  0.00     0.000 C 
BRANCH  15  16
ATOM     16  C   UNL     1      33.514 -44.780  -2.339  1.00  0.00     0.006 C 
BRANCH  16  17
ATOM     17  C   UNL     1      32.029 -44.489  -2.108  1.00  0.00     0.053 C 
BRANCH  17  18
ATOM     18  C   UNL     1      31.180 -45.509  -2.800  1.00  0.00     0.041 C 
ATOM     19  O   UNL     1      31.666 -46.625  -3.119  1.00  0.00    -0.550 OA
ATOM     20  O   UNL     1      29.841 -45.243  -3.056  1.00  0.00    -0.550 OA
ENDBRANCH  17  18
ENDBRANCH  16  17
ENDBRANCH  15  16
ENDBRANCH  14  15
ENDBRANCH  13  14
ENDBRANCH  12  13
ENDBRANCH  11  12
ENDBRANCH   1  11
TORSDOF 15
ENDMDL
MODEL 6
REMARK VINA RESULT:    -3.821      2.951      4.631
REMARK INTER + INTRA:          -8.976
REMARK INTER:                  -6.732
REMARK INTRA:                  -2.244
REMARK UNBOUND:                -1.804
REMARK SMILES O=C([O-])CCCCCCCCCCCCCCC(=O)[O-]
REMARK SMILES IDX 10 1 9 2 8 3 7 4 6 5 5 6 4 7 2 8 1 9 3 10 11 11 12 12 13 13
REMARK SMILES IDX 14 14 15 15 16 16 17 17 18 18 19 19 20 20
REMARK H PARENT
REMARK Flexibility Score: inf
ROOT
ATOM      1  C   UNL     1      36.316 -46.940   2.677  1.00  0.00     0.000 C 
ENDROOT
BRANCH   1   2
ATOM      2  C   UNL     1      35.626 -45.646   2.207  1.00  0.00     0.000 C 
BRANCH   2   3
ATOM      3  C   UNL     1      34.162 -45.552   2.661  1.00  0.00     0.000 C 
BRANCH   3   4
ATOM      4  C   UNL     1      33.327 -44.749   1.656  1.00  0.00     0.000 C 
BRANCH   4   5
ATOM      5  C   UNL     1      34.227 -44.079   0.607  1.00  0.00     0.000 C 
BRANCH   5   6
ATOM      6  C   UNL     1      33.424 -43.421  -0.526  1.00  0.00     0.006 C 
BRANCH   6   7
ATOM      7  C   UNL     1      31.910 -43.602  -0.353  1.00  0.00     0.053 C 
BRANCH   7   8
ATOM      8  C   UNL     1      31.264 -43.863  -1.677  1.00  0.00     0.041 C 
ATOM      9  O   UNL     1      31.968 -44.085  -2.696  1.00  0.00    -0.550 OA
ATOM     10  O   UNL     1      29.879 -43.909  -1.776  1.00  0.00    -0.550 OA
ENDBRANCH   7   8
ENDBRANCH   6   7
ENDBRANCH   5   6
ENDBRANCH   4   5
ENDBRANCH   3   4
ENDBRANCH   2   3
ENDBRANCH   1   2
BRANCH   1  11
ATOM     11  C   UNL     1      35.397 -47.935   3.410  1.00  0.00     0.000 C 
BRANCH  11  12
ATOM     12  C   UNL     1      35.765 -49.403   3.132  1.00  0.00     0.000 C 
BRANCH  12  13
ATOM     13  C   UNL     1      34.778 -50.090   2.170  1.00  0.00     0.000 C 
BRANCH  13  14
ATOM     14  C   UNL     1      33.621 -49.185   1.701  1.00  0.00     0.000 C 
BRANCH  14  15
ATOM     15  C   UNL     1      33.453 -49.116   0.170  1.00  0.00     0.000 C 
BRANCH  15  16
ATOM     16  C   UNL     1      34.090 -47.859  -0.438  1.00  0.00     0.006 C 
BRANCH  16  17
ATOM     17  C   UNL     1      33.112 -47.142  -1.372  1.00  0.00     0.053 C 
BRANCH  17  18
ATOM     18  C   UNL     1      33.104 -47.788  -2.721  1.00  0.00     0.041 C 
ATOM     19  O   UNL     1      34.057 -47.596  -3.520  1.00  0.00    -0.550 OA
ATOM     20  O   UNL     1      32.064 -48.636  -3.081  1.00  0.00    -0.550 OA
ENDBRANCH  17  18
ENDBRANCH  16  17
ENDBRANCH  15  16
ENDBRANCH  14  15
ENDBRANCH  13  14
ENDBRANCH  12  13
ENDBRANCH  11  12
ENDBRANCH   1  11
TORSDOF 15
ENDMDL
MODEL 7
REMARK VINA RESULT:    -3.775      2.914      5.833
REMARK INTER + INTRA:          -8.890
REMARK INTER:                  -6.640
REMARK INTRA:                  -2.250
REMARK UNBOUND:                -1.804
REMARK SMILES O=C([O-])CCCCCCCCCCCCCCC(=O)[O-]
REMARK SMILES IDX 10 1 9 2 8 3 7 4 6 5 5 6 4 7 2 8 1 9 3 10 11 11 12 12 13 13
REMARK SMILES IDX 14 14 15 15 16 16 17 17 18 18 19 19 20 20
REMARK H PARENT
REMARK Flexibility Score: inf
ROOT
ATOM      1  C   UNL     1      36.822 -48.636   1.825  1.00  0.00     0.000 C 
ENDROOT
BRANCH   1   2
ATOM      2  C   UNL     1      36.000 -49.887   2.186  1.00  0.00     0.000 C 
BRANCH   2   3
ATOM      3  C   UNL     1      34.513 -49.578   2.413  1.00  0.00     0.000 C 
BRANCH   3   4
ATOM      4  C   UNL     1      33.714 -49.744   1.115  1.00  0.00     0.000 C 
BRANCH   4   5
ATOM      5  C   UNL     1      33.206 -48.387   0.606  1.00  0.00     0.000 C 
BRANCH   5   6
ATOM      6  C   UNL     1      34.059 -47.831  -0.544  1.00  0.00     0.006 C 
BRANCH   6   7
ATOM      7  C   UNL     1      34.092 -48.770  -1.757  1.00  0.00     0.053 C 
BRANCH   7   8
ATOM      8  C   UNL     1      32.849 -48.609  -2.573  1.00  0.00     0.041 C 
ATOM      9  O   UNL     1      32.156 -49.614  -2.882  1.00  0.00    -0.550 OA
ATOM     10  O   UNL     1      32.427 -47.341  -2.954  1.00  0.00    -0.550 OA
ENDBRANCH   7   8
ENDBRANCH   6   7
ENDBRANCH   5   6
ENDBRANCH   4   5
ENDBRANCH   3   4
ENDBRANCH   2   3
ENDBRANCH   1   2
BRANCH   1  11
ATOM     11  C   UNL     1      36.726 -47.482   2.840  1.00  0.00     0.000 C 
BRANCH  11  12
ATOM     12  C   UNL     1      36.047 -46.231   2.259  1.00  0.00     0.000 C 
BRANCH  12  13
ATOM     13  C   UNL     1      34.753 -45.857   3.005  1.00  0.00     0.000 C 
BRANCH  13  14
ATOM     14  C   UNL     1      34.018 -44.634   2.421  1.00  0.00     0.000 C 
BRANCH  14  15
ATOM     15  C   UNL     1      32.804 -44.987   1.539  1.00  0.00     0.000 C 
BRANCH  15  16
ATOM     16  C   UNL     1      32.477 -43.891   0.516  1.00  0.00     0.006 C 
BRANCH  16  17
ATOM     17  C   UNL     1      32.572 -44.426  -0.915  1.00  0.00     0.053 C 
BRANCH  17  18
ATOM     18  C   UNL     1      33.831 -43.953  -1.570  1.00  0.00     0.041 C 
ATOM     19  O   UNL     1      34.100 -44.299  -2.749  1.00  0.00    -0.550 OA
ATOM     20  O   UNL     1      34.689 -43.096  -0.892  1.00  0.00    -0.550 OA
ENDBRANCH  17  18
ENDBRANCH  16  17
ENDBRANCH  15  16
ENDBRANCH  14  15
ENDBRANCH  13  14
ENDBRANCH  12  13
ENDBRANCH  11  12
ENDBRANCH   1  11
TORSDOF 15
ENDMDL
MODEL 8
REMARK VINA RESULT:    -3.744      1.954      3.083
REMARK INTER + INTRA:          -8.831
REMARK INTER:                  -6.334
REMARK INTRA:                  -2.497
REMARK UNBOUND:                -1.804
REMARK SMILES O=C([O-])CCCCCCCCCCCCCCC(=O)[O-]
REMARK SMILES IDX 10 1 9 2 8 3 7 4 6 5 5 6 4 7 2 8 1 9 3 10 11 11 12 12 13 13
REMARK SMILES IDX 14 14 15 15 16 16 17 17 18 18 19 19 20 20
REMARK H PARENT
REMARK Flexibility Score: inf
ROOT
ATOM      1  C   UNL     1      36.597 -46.195   0.750  1.00  0.00     0.000 C 
ENDROOT
BRANCH   1   2
ATOM      2  C   UNL     1      36.309 -45.571   2.128  1.00  0.00     0.000 C 
BRANCH   2   3
ATOM      3  C   UNL     1      34.871 -45.819   2.606  1.00  0.00     0.000 C 
BRANCH   3   4
ATOM      4  C   UNL     1      34.030 -44.541   2.499  1.00  0.00     0.000 C 
BRANCH   4   5
ATOM      5  C   UNL     1      32.874 -44.726   1.505  1.00  0.00     0.000 C 
BRANCH   5   6
ATOM      6  C   UNL     1      33.041 -43.872   0.239  1.00  0.00     0.006 C 
BRANCH   6   7
ATOM      7  C   UNL     1      31.703 -43.583  -0.453  1.00  0.00     0.053 C 
BRANCH   7   8
ATOM      8  C   UNL     1      31.686 -44.179  -1.825  1.00  0.00     0.041 C 
ATOM      9  O   UNL     1      30.629 -44.682  -2.287  1.00  0.00    -0.550 OA
ATOM     10  O   UNL     1      32.829 -44.138  -2.614  1.00  0.00    -0.550 OA
ENDBRANCH   7   8
ENDBRANCH   6   7
ENDBRANCH   5   6
ENDBRANCH   4   5
ENDBRANCH   3   4
ENDBRANCH   2   3
ENDBRANCH   1   2
BRANCH   1  11
ATOM     11  C   UNL     1      36.229 -45.307  -0.453  1.00  0.00     0.000 C 
BRANCH  11  12
ATOM     12  C   UNL     1      35.531 -46.088  -1.580  1.00  0.00     0.000 C 
BRANCH  12  13
ATOM     13  C   UNL     1      35.049 -47.479  -1.127  1.00  0.00     0.000 C 
BRANCH  13  14
ATOM     14  C   UNL     1      33.538 -47.558  -0.832  1.00  0.00     0.000 C 
BRANCH  14  15
ATOM     15  C   UNL     1      33.194 -48.157   0.546  1.00  0.00     0.000 C 
BRANCH  15  16
ATOM     16  C   UNL     1      34.018 -49.411   0.868  1.00  0.00     0.006 C 
BRANCH  16  17
ATOM     17  C   UNL     1      34.297 -49.517   2.369  1.00  0.00     0.053 C 
BRANCH  17  18
ATOM     18  C   UNL     1      35.714 -49.933   2.612  1.00  0.00     0.041 C 
ATOM     19  O   UNL     1      36.624 -49.570   1.822  1.00  0.00    -0.550 OA
ATOM     20  O   UNL     1      36.035 -50.686   3.733  1.00  0.00    -0.550 OA
ENDBRANCH  17  18
ENDBRANCH  16  17
ENDBRANCH  15  16
ENDBRANCH  14  15
ENDBRANCH  13  14
ENDBRANCH  12  13
ENDBRANCH  11  12
ENDBRANCH   1  11
TORSDOF 15
ENDMDL
MODEL 9
REMARK VINA RESULT:    -3.741      1.361      6.509
REMARK INTER + INTRA:          -8.825
REMARK INTER:                  -7.131
REMARK INTRA:                  -1.694
REMARK UNBOUND:                -1.804
REMARK SMILES O=C([O-])CCCCCCCCCCCCCCC(=O)[O-]
REMARK SMILES IDX 10 1 9 2 8 3 7 4 6 5 5 6 4 7 2 8 1 9 3 10 11 11 12 12 13 13
REMARK SMILES IDX 14 14 15 15 16 16 17 17 18 18 19 19 20 20
REMARK H PARENT
REMARK Flexibility Score: inf
ROOT
ATOM      1  C   UNL     1      32.873 -44.733   1.515  1.00  0.00     0.000 C 
ENDROOT
BRANCH   1   2
ATOM      2  C   UNL     1      33.818 -45.941   1.642  1.00  0.00     0.000 C 
BRANCH   2   3
ATOM      3  C   UNL     1      33.284 -47.194   0.933  1.00  0.00     0.000 C 
BRANCH   3   4
ATOM      4  C   UNL     1      34.435 -48.095   0.471  1.00  0.00     0.000 C 
BRANCH   4   5
ATOM      5  C   UNL     1      34.188 -49.554   0.883  1.00  0.00     0.000 C 
BRANCH   5   6
ATOM      6  C   UNL     1      34.433 -49.794   2.380  1.00  0.00     0.006 C 
BRANCH   6   7
ATOM      7  C   UNL     1      35.885 -50.186   2.681  1.00  0.00     0.053 C 
BRANCH   7   8
ATOM      8  C   UNL     1      35.932 -51.222   3.760  1.00  0.00     0.041 C 
ATOM      9  O   UNL     1      36.471 -50.962   4.868  1.00  0.00    -0.550 OA
ATOM     10  O   UNL     1      35.337 -52.461   3.559  1.00  0.00    -0.550 OA
ENDBRANCH   7   8
ENDBRANCH   6   7
ENDBRANCH   5   6
ENDBRANCH   4   5
ENDBRANCH   3   4
ENDBRANCH   2   3
ENDBRANCH   1   2
BRANCH   1  11
ATOM     11  C   UNL     1      33.141 -43.825   0.302  1.00  0.00     0.000 C 
BRANCH  11  12
ATOM     12  C   UNL     1      32.016 -43.881  -0.746  1.00  0.00     0.000 C 
BRANCH  12  13
ATOM     13  C   UNL     1      32.218 -45.011  -1.773  1.00  0.00     0.000 C 
BRANCH  13  14
ATOM     14  C   UNL     1      33.684 -45.215  -2.207  1.00  0.00     0.000 C 
BRANCH  14  15
ATOM     15  C   UNL     1      33.979 -46.605  -2.804  1.00  0.00     0.000 C 
BRANCH  15  16
ATOM     16  C   UNL     1      32.704 -47.363  -3.195  1.00  0.00     0.006 C 
BRANCH  16  17
ATOM     17  C   UNL     1      32.766 -48.822  -2.734  1.00  0.00     0.053 C 
BRANCH  17  18
ATOM     18  C   UNL     1      33.145 -49.717  -3.871  1.00  0.00     0.041 C 
ATOM     19  O   UNL     1      32.382 -50.655  -4.219  1.00  0.00    -0.550 OA
ATOM     20  O   UNL     1      34.321 -49.489  -4.574  1.00  0.00    -0.550 OA
ENDBRANCH  17  18
ENDBRANCH  16  17
ENDBRANCH  15  16
ENDBRANCH  14  15
ENDBRANCH  13  14
ENDBRANCH  12  13
ENDBRANCH  11  12
ENDBRANCH   1  11
TORSDOF 15
ENDMDL
