MODEL 1
REMARK VINA RESULT:    -5.362      0.000      0.000
REMARK INTER + INTRA:          -6.176
REMARK INTER:                  -5.989
REMARK INTRA:                  -0.187
REMARK UNBOUND:                -0.187
REMARK SMILES O=C([O-])c1ccccc1C(=O)[O-]
REMARK SMILES IDX 4 1 9 2 5 3 8 4 6 5 7 6 2 7 1 8 3 9 10 10 11 11 12 12
REMARK H PARENT
REMARK Flexibility Score: inf
ROOT
ATOM      1  C   UNL     1      13.790 -47.785  71.360  1.00  0.00     0.006 A 
ATOM      2  C   UNL     1      15.211 -47.858  71.358  1.00  0.00     0.006 A 
ATOM      3  C   UNL     1      13.064 -48.601  72.245  1.00  0.00     0.010 A 
ATOM      4  C   UNL     1      15.849 -48.793  72.196  1.00  0.00     0.010 A 
ATOM      5  C   UNL     1      13.718 -49.506  73.083  1.00  0.00     0.001 A 
ATOM      6  C   UNL     1      15.107 -49.610  73.049  1.00  0.00     0.001 A 
ENDROOT
BRANCH   1   7
ATOM      7  C   UNL     1      13.027 -46.932  70.419  1.00  0.00     0.072 C 
ATOM      8  O   UNL     1      12.679 -47.369  69.291  1.00  0.00    -0.545 OA
ATOM      9  O   UNL     1      12.628 -45.657  70.801  1.00  0.00    -0.545 OA
ENDBRANCH   1   7
BRANCH   2  10
ATOM     10  C   UNL     1      16.060 -46.941  70.563  1.00  0.00     0.072 C 
ATOM     11  O   UNL     1      16.284 -47.180  69.347  1.00  0.00    -0.545 OA
ATOM     12  O   UNL     1      16.672 -45.845  71.159  1.00  0.00    -0.545 OA
ENDBRANCH   2  10
TORSDOF 2
ENDMDL
MODEL 2
REMARK VINA RESULT:    -5.322      0.178      3.026
REMARK INTER + INTRA:          -6.131
REMARK INTER:                  -5.927
REMARK INTRA:                  -0.204
REMARK UNBOUND:                -0.187
REMARK SMILES O=C([O-])c1ccccc1C(=O)[O-]
REMARK SMILES IDX 4 1 9 2 5 3 8 4 6 5 7 6 2 7 1 8 3 9 10 10 11 11 12 12
REMARK H PARENT
REMARK Flexibility Score: inf
ROOT
ATOM      1  C   UNL     1      15.250 -47.763  71.291  1.00  0.00     0.006 A 
ATOM      2  C   UNL     1      13.829 -47.747  71.380  1.00  0.00     0.006 A 
ATOM      3  C   UNL     1      15.973 -48.679  72.076  1.00  0.00     0.010 A 
ATOM      4  C   UNL     1      13.191 -48.601  72.299  1.00  0.00     0.010 A 
ATOM      5  C   UNL     1      15.319 -49.531  72.966  1.00  0.00     0.001 A 
ATOM      6  C   UNL     1      13.931 -49.484  73.086  1.00  0.00     0.001 A 
ENDROOT
BRANCH   1   7
ATOM      7  C   UNL     1      16.015 -46.810  70.455  1.00  0.00     0.072 C 
ATOM      8  O   UNL     1      16.601 -45.824  70.974  1.00  0.00    -0.545 OA
ATOM      9  O   UNL     1      16.151 -47.033  69.090  1.00  0.00    -0.545 OA
ENDBRANCH   1   7
BRANCH   2  10
ATOM     10  C   UNL     1      12.981 -46.918  70.493  1.00  0.00     0.072 C 
ATOM     11  O   UNL     1      12.657 -47.340  69.351  1.00  0.00    -0.545 OA
ATOM     12  O   UNL     1      12.587 -45.642  70.877  1.00  0.00    -0.545 OA
ENDBRANCH   2  10
TORSDOF 2
ENDMDL
MODEL 3
REMARK VINA RESULT:    -5.283     12.597     14.146
REMARK INTER + INTRA:          -6.088
REMARK INTER:                  -5.887
REMARK INTRA:                  -0.201
REMARK UNBOUND:                -0.187
REMARK SMILES O=C([O-])c1ccccc1C(=O)[O-]
REMARK SMILES IDX 4 1 9 2 5 3 8 4 6 5 7 6 2 7 1 8 3 9 10 10 11 11 12 12
REMARK H PARENT
REMARK Flexibility Score: inf
ROOT
ATOM      1  C   UNL     1      15.785 -35.198  67.633  1.00  0.00     0.006 A 
ATOM      2  C   UNL     1      15.116 -33.969  67.373  1.00  0.00     0.006 A 
ATOM      3  C   UNL     1      15.652 -36.256  66.715  1.00  0.00     0.010 A 
ATOM      4  C   UNL     1      14.287 -33.867  66.239  1.00  0.00     0.010 A 
ATOM      5  C   UNL     1      14.842 -36.127  65.587  1.00  0.00     0.001 A 
ATOM      6  C   UNL     1      14.151 -34.939  65.356  1.00  0.00     0.001 A 
ENDROOT
BRANCH   1   7
ATOM      7  C   UNL     1      16.566 -35.444  68.867  1.00  0.00     0.072 C 
ATOM      8  O   UNL     1      17.825 -35.469  68.839  1.00  0.00    -0.545 OA
ATOM      9  O   UNL     1      15.916 -35.585  70.087  1.00  0.00    -0.545 OA
ENDBRANCH   1   7
BRANCH   2  10
ATOM     10  C   UNL     1      15.310 -32.761  68.207  1.00  0.00     0.072 C 
ATOM     11  O   UNL     1      16.204 -31.924  67.911  1.00  0.00    -0.545 OA
ATOM     12  O   UNL     1      14.556 -32.565  69.358  1.00  0.00    -0.545 OA
ENDBRANCH   2  10
TORSDOF 2
ENDMDL
MODEL 4
REMARK VINA RESULT:    -5.152      1.768      2.483
REMARK INTER + INTRA:          -5.942
REMARK INTER:                  -5.747
REMARK INTRA:                  -0.195
REMARK UNBOUND:                -0.187
REMARK SMILES O=C([O-])c1ccccc1C(=O)[O-]
REMARK SMILES IDX 4 1 9 2 5 3 8 4 6 5 7 6 2 7 1 8 3 9 10 10 11 11 12 12
REMARK H PARENT
REMARK Flexibility Score: inf
ROOT
ATOM      1  C   UNL     1      14.540 -48.023  70.325  1.00  0.00     0.006 A 
ATOM      2  C   UNL     1      15.102 -48.383  71.582  1.00  0.00     0.006 A 
ATOM      3  C   UNL     1      13.141 -48.032  70.174  1.00  0.00     0.010 A 
ATOM      4  C   UNL     1      14.248 -48.801  72.620  1.00  0.00     0.010 A 
ATOM      5  C   UNL     1      12.312 -48.429  71.224  1.00  0.00     0.001 A 
ATOM      6  C   UNL     1      12.865 -48.824  72.440  1.00  0.00     0.001 A 
ENDROOT
BRANCH   1   7
ATOM      7  C   UNL     1      15.364 -47.703  69.136  1.00  0.00     0.072 C 
ATOM      8  O   UNL     1      15.720 -48.607  68.336  1.00  0.00    -0.545 OA
ATOM      9  O   UNL     1      15.697 -46.383  68.855  1.00  0.00    -0.545 OA
ENDBRANCH   1   7
BRANCH   2  10
ATOM     10  C   UNL     1      16.550 -48.270  71.873  1.00  0.00     0.072 C 
ATOM     11  O   UNL     1      17.240 -49.305  72.067  1.00  0.00    -0.545 OA
ATOM     12  O   UNL     1      17.152 -47.024  72.002  1.00  0.00    -0.545 OA
ENDBRANCH   2  10
TORSDOF 2
ENDMDL
MODEL 5
REMARK VINA RESULT:    -5.128      5.608      7.091
REMARK INTER + INTRA:          -5.915
REMARK INTER:                  -5.694
REMARK INTRA:                  -0.221
REMARK UNBOUND:                -0.187
REMARK SMILES O=C([O-])c1ccccc1C(=O)[O-]
REMARK SMILES IDX 4 1 9 2 5 3 8 4 6 5 7 6 2 7 1 8 3 9 10 10 11 11 12 12
REMARK H PARENT
REMARK Flexibility Score: inf
ROOT
ATOM      1  C   UNL     1      20.165 -46.791  67.666  1.00  0.00     0.006 A 
ATOM      2  C   UNL     1      19.389 -47.922  68.044  1.00  0.00     0.006 A 
ATOM      3  C   UNL     1      20.726 -45.980  68.670  1.00  0.00     0.010 A 
ATOM      4  C   UNL     1      19.147 -48.162  69.410  1.00  0.00     0.010 A 
ATOM      5  C   UNL     1      20.491 -46.248  70.019  1.00  0.00     0.001 A 
ATOM      6  C   UNL     1      19.693 -47.330  70.388  1.00  0.00     0.001 A 
ENDROOT
BRANCH   1   7
ATOM      7  C   UNL     1      20.359 -46.381  66.256  1.00  0.00     0.072 C 
ATOM      8  O   UNL     1      19.648 -45.477  65.744  1.00  0.00    -0.545 OA
ATOM      9  O   UNL     1      21.378 -46.948  65.499  1.00  0.00    -0.545 OA
ENDBRANCH   1   7
BRANCH   2  10
ATOM     10  C   UNL     1      18.879 -48.907  67.062  1.00  0.00     0.072 C 
ATOM     11  O   UNL     1      19.584 -49.897  66.734  1.00  0.00    -0.545 OA
ATOM     12  O   UNL     1      17.649 -48.719  66.442  1.00  0.00    -0.545 OA
ENDBRANCH   2  10
TORSDOF 2
ENDMDL
MODEL 6
REMARK VINA RESULT:    -5.125      1.338      3.287
REMARK INTER + INTRA:          -5.911
REMARK INTER:                  -5.699
REMARK INTRA:                  -0.213
REMARK UNBOUND:                -0.187
REMARK SMILES O=C([O-])c1ccccc1C(=O)[O-]
REMARK SMILES IDX 4 1 9 2 5 3 8 4 6 5 7 6 2 7 1 8 3 9 10 10 11 11 12 12
REMARK H PARENT
REMARK Flexibility Score: inf
ROOT
ATOM      1  C   UNL     1      15.721 -48.133  71.640  1.00  0.00     0.006 A 
ATOM      2  C   UNL     1      14.592 -47.737  70.870  1.00  0.00     0.006 A 
ATOM      3  C   UNL     1      15.529 -48.976  72.750  1.00  0.00     0.010 A 
ATOM      4  C   UNL     1      13.308 -48.144  71.278  1.00  0.00     0.010 A 
ATOM      5  C   UNL     1      14.249 -49.385  73.124  1.00  0.00     0.001 A 
ATOM      6  C   UNL     1      13.139 -48.960  72.397  1.00  0.00     0.001 A 
ENDROOT
BRANCH   1   7
ATOM      7  C   UNL     1      17.093 -47.644  71.370  1.00  0.00     0.072 C 
ATOM      8  O   UNL     1      17.558 -46.653  71.991  1.00  0.00    -0.545 OA
ATOM      9  O   UNL     1      17.909 -48.320  70.470  1.00  0.00    -0.545 OA
ENDBRANCH   1   7
BRANCH   2  10
ATOM     10  C   UNL     1      14.713 -46.969  69.609  1.00  0.00     0.072 C 
ATOM     11  O   UNL     1      14.377 -45.756  69.571  1.00  0.00    -0.545 OA
ATOM     12  O   UNL     1      15.134 -47.589  68.439  1.00  0.00    -0.545 OA
ENDBRANCH   2  10
TORSDOF 2
ENDMDL
MODEL 7
REMARK VINA RESULT:    -4.997      2.042      3.110
REMARK INTER + INTRA:          -5.769
REMARK INTER:                  -5.728
REMARK INTRA:                  -0.041
REMARK UNBOUND:                -0.187
REMARK SMILES O=C([O-])c1ccccc1C(=O)[O-]
REMARK SMILES IDX 4 1 9 2 5 3 8 4 6 5 7 6 2 7 1 8 3 9 10 10 11 11 12 12
REMARK H PARENT
REMARK Flexibility Score: inf
ROOT
ATOM      1  C   UNL     1      13.706 -47.637  71.321  1.00  0.00     0.006 A 
ATOM      2  C   UNL     1      14.017 -46.585  70.415  1.00  0.00     0.006 A 
ATOM      3  C   UNL     1      14.756 -48.349  71.928  1.00  0.00     0.010 A 
ATOM      4  C   UNL     1      15.365 -46.328  70.101  1.00  0.00     0.010 A 
ATOM      5  C   UNL     1      16.086 -48.064  71.619  1.00  0.00     0.001 A 
ATOM      6  C   UNL     1      16.389 -47.063  70.698  1.00  0.00     0.001 A 
ENDROOT
BRANCH   1   7
ATOM      7  C   UNL     1      12.318 -48.070  71.607  1.00  0.00     0.072 C 
ATOM      8  O   UNL     1      11.948 -49.249  71.365  1.00  0.00    -0.545 OA
ATOM      9  O   UNL     1      11.426 -47.193  72.212  1.00  0.00    -0.545 OA
ENDBRANCH   1   7
BRANCH   2  10
ATOM     10  C   UNL     1      12.984 -45.694  69.838  1.00  0.00     0.072 C 
ATOM     11  O   UNL     1      12.561 -44.706  70.496  1.00  0.00    -0.545 OA
ATOM     12  O   UNL     1      12.421 -45.970  68.598  1.00  0.00    -0.545 OA
ENDBRANCH   2  10
TORSDOF 2
ENDMDL
MODEL 8
REMARK VINA RESULT:    -4.980      5.419      6.637
REMARK INTER + INTRA:          -5.750
REMARK INTER:                  -5.520
REMARK INTRA:                  -0.230
REMARK UNBOUND:                -0.187
REMARK SMILES O=C([O-])c1ccccc1C(=O)[O-]
REMARK SMILES IDX 4 1 9 2 5 3 8 4 6 5 7 6 2 7 1 8 3 9 10 10 11 11 12 12
REMARK H PARENT
REMARK Flexibility Score: inf
ROOT
ATOM      1  C   UNL     1      18.987 -47.935  67.658  1.00  0.00     0.006 A 
ATOM      2  C   UNL     1      19.933 -46.876  67.561  1.00  0.00     0.006 A 
ATOM      3  C   UNL     1      18.537 -48.336  68.929  1.00  0.00     0.010 A 
ATOM      4  C   UNL     1      20.444 -46.305  68.742  1.00  0.00     0.010 A 
ATOM      5  C   UNL     1      19.041 -47.741  70.086  1.00  0.00     0.001 A 
ATOM      6  C   UNL     1      20.001 -46.736  69.993  1.00  0.00     0.001 A 
ENDROOT
BRANCH   1   7
ATOM      7  C   UNL     1      18.497 -48.687  66.479  1.00  0.00     0.072 C 
ATOM      8  O   UNL     1      17.421 -48.365  65.910  1.00  0.00    -0.545 OA
ATOM      9  O   UNL     1      19.260 -49.719  65.946  1.00  0.00    -0.545 OA
ENDBRANCH   1   7
BRANCH   2  10
ATOM     10  C   UNL     1      20.356 -46.295  66.266  1.00  0.00     0.072 C 
ATOM     11  O   UNL     1      19.739 -45.309  65.783  1.00  0.00    -0.545 OA
ATOM     12  O   UNL     1      21.391 -46.867  65.537  1.00  0.00    -0.545 OA
ENDBRANCH   2  10
TORSDOF 2
ENDMDL
MODEL 9
REMARK VINA RESULT:    -4.853      6.031      7.309
REMARK INTER + INTRA:          -5.608
REMARK INTER:                  -5.397
REMARK INTRA:                  -0.211
REMARK UNBOUND:                -0.187
REMARK SMILES O=C([O-])c1ccccc1C(=O)[O-]
REMARK SMILES IDX 4 1 9 2 5 3 8 4 6 5 7 6 2 7 1 8 3 9 10 10 11 11 12 12
REMARK H PARENT
REMARK Flexibility Score: inf
ROOT
ATOM      1  C   UNL     1      20.613 -46.183  68.965  1.00  0.00     0.006 A 
ATOM      2  C   UNL     1      20.471 -47.037  67.836  1.00  0.00     0.006 A 
ATOM      3  C   UNL     1      20.090 -46.596  70.205  1.00  0.00     0.010 A 
ATOM      4  C   UNL     1      19.755 -48.241  67.973  1.00  0.00     0.010 A 
ATOM      5  C   UNL     1      19.402 -47.804  70.323  1.00  0.00     0.001 A 
ATOM      6  C   UNL     1      19.224 -48.619  69.207  1.00  0.00     0.001 A 
ENDROOT
BRANCH   1   7
ATOM      7  C   UNL     1      21.229 -44.838  68.886  1.00  0.00     0.072 C 
ATOM      8  O   UNL     1      22.475 -44.693  68.994  1.00  0.00    -0.545 OA
ATOM      9  O   UNL     1      20.440 -43.725  68.623  1.00  0.00    -0.545 OA
ENDBRANCH   1   7
BRANCH   2  10
ATOM     10  C   UNL     1      21.108 -46.749  66.530  1.00  0.00     0.072 C 
ATOM     11  O   UNL     1      20.426 -46.270  65.585  1.00  0.00    -0.545 OA
ATOM     12  O   UNL     1      22.443 -47.063  66.308  1.00  0.00    -0.545 OA
ENDBRANCH   2  10
TORSDOF 2
ENDMDL
