MODEL 1
REMARK VINA RESULT:    -5.259      0.000      0.000
REMARK INTER + INTRA:          -7.928
REMARK INTER:                  -8.026
REMARK INTRA:                   0.098
REMARK UNBOUND:                 0.098
REMARK SMILES CC1=CCC[C@@H](C)C(=O)C[C@@H](C(C)C)C(=O)C1
REMARK SMILES IDX 8 1 9 2 6 3 7 4 5 5 4 6 3 7 2 8 1 9 10 11 11 12 15 13 16 14
REMARK SMILES IDX 17 15 12 17 13 18 14 19
REMARK H PARENT
REMARK Flexibility Score: 70.00
ROOT
ATOM      1  C   UNL     1      -7.821  30.801  24.367  1.00  0.00     0.136 C 
ATOM      2  O   UNL     1      -6.740  30.474  23.896  1.00  0.00    -0.299 OA
ENDROOT
BRANCH   1   3
ATOM      3  C   UNL     1      -8.246  30.249  25.715  1.00  0.00     0.053 C 
ATOM      4  C   UNL     1      -9.760  29.994  25.734  1.00  0.00     0.016 C 
BRANCH   3   5
ATOM      5  C   UNL     1      -7.816  31.218  26.853  1.00  0.00     0.015 C 
BRANCH   5   6
ATOM      6  C   UNL     1      -8.825  32.345  27.155  1.00  0.00     0.028 C 
BRANCH   6   7
ATOM      7  C   UNL     1      -8.261  33.750  27.169  1.00  0.00    -0.028 C 
ATOM      8  C   UNL     1      -8.392  34.677  26.193  1.00  0.00    -0.070 CG0
ATOM      9  C   UNL     1      -7.878  36.068  26.471  1.00  0.00     0.039 C 
ATOM     10  G   UNL     1      -9.033  34.392  24.848  1.00  0.00     0.000 G0
ENDBRANCH   6   7
ENDBRANCH   5   6
ENDBRANCH   3   5
ENDBRANCH   1   3
BRANCH   1  11
ATOM     11  C   UNL     1      -8.728  31.718  23.576  1.00  0.00     0.087 C 
BRANCH  11  12
ATOM     12  C   UNL     1      -7.998  32.912  22.890  1.00  0.00     0.066 C 
BRANCH  12  13
ATOM     13  C   UNL     1      -8.018  34.186  23.734  1.00  0.00     0.140 C 
ATOM     14  O   UNL     1      -7.174  35.049  23.549  1.00  0.00    -0.299 OA
BRANCH  13  15
ATOM     15  C   UNL     1      -9.037  34.407  24.829  1.00  0.00     0.106 CG0
ATOM     16  G   UNL     1      -8.398  34.685  26.177  1.00  0.00     0.000 G0
ENDBRANCH  13  15
ENDBRANCH  12  13
BRANCH  12  17
ATOM     17  C   UNL     1      -8.400  33.118  21.394  1.00  0.00    -0.006 C 
ATOM     18  C   UNL     1      -9.267  31.959  20.875  1.00  0.00     0.008 C 
ATOM     19  C   UNL     1      -7.223  33.374  20.438  1.00  0.00     0.008 C 
ENDBRANCH  12  17
ENDBRANCH  11  12
ENDBRANCH   1  11
TORSDOF 1
ENDMDL
MODEL 2
REMARK VINA RESULT:    -5.119      1.758      4.063
REMARK INTER + INTRA:          -7.715
REMARK INTER:                  -7.423
REMARK INTRA:                  -0.292
REMARK UNBOUND:                 0.098
REMARK SMILES CC1=CCC[C@@H](C)C(=O)C[C@@H](C(C)C)C(=O)C1
REMARK SMILES IDX 8 1 9 2 6 3 7 4 5 5 4 6 3 7 2 8 1 9 10 11 11 12 15 13 16 14
REMARK SMILES IDX 17 15 12 17 13 18 14 19
REMARK H PARENT
REMARK Flexibility Score: 70.00
ROOT
ATOM      1  C   UNL     1      -7.378  30.749  23.312  1.00  0.00     0.136 C 
ATOM      2  O   UNL     1      -6.285  30.809  22.768  1.00  0.00    -0.299 OA
ENDROOT
BRANCH   1   3
ATOM      3  C   UNL     1      -8.597  30.358  22.496  1.00  0.00     0.053 C 
ATOM      4  C   UNL     1      -8.500  28.888  22.062  1.00  0.00     0.016 C 
BRANCH   3   5
ATOM      5  C   UNL     1      -8.752  31.305  21.272  1.00  0.00     0.015 C 
BRANCH   5   6
ATOM      6  C   UNL     1      -9.541  32.600  21.555  1.00  0.00     0.028 C 
BRANCH   6   7
ATOM      7  C   UNL     1      -8.720  33.785  22.016  1.00  0.00    -0.028 C 
ATOM      8  C   UNL     1      -8.735  34.340  23.250  1.00  0.00    -0.070 CG0
ATOM      9  C   UNL     1      -7.729  35.425  23.546  1.00  0.00     0.039 C 
ATOM     10  G   UNL     1      -9.700  33.923  24.344  1.00  0.00     0.000 G0
ENDBRANCH   6   7
ENDBRANCH   5   6
ENDBRANCH   3   5
ENDBRANCH   1   3
BRANCH   1  11
ATOM     11  C   UNL     1      -7.499  31.104  24.779  1.00  0.00     0.087 C 
BRANCH  11  12
ATOM     12  C   UNL     1      -8.931  31.534  25.221  1.00  0.00     0.066 C 
BRANCH  12  13
ATOM     13  C   UNL     1      -9.069  33.045  25.400  1.00  0.00     0.140 C 
ATOM     14  O   UNL     1      -8.682  33.571  26.432  1.00  0.00    -0.299 OA
BRANCH  13  15
ATOM     15  C   UNL     1      -9.709  33.923  24.348  1.00  0.00     0.106 CG0
ATOM     16  G   UNL     1      -8.739  34.330  23.255  1.00  0.00     0.000 G0
ENDBRANCH  13  15
ENDBRANCH  12  13
BRANCH  12  17
ATOM     17  C   UNL     1      -9.505  30.685  26.401  1.00  0.00    -0.006 C 
ATOM     18  C   UNL     1      -8.575  30.714  27.625  1.00  0.00     0.008 C 
ATOM     19  C   UNL     1      -9.864  29.234  26.038  1.00  0.00     0.008 C 
ENDBRANCH  12  17
ENDBRANCH  11  12
ENDBRANCH   1  11
TORSDOF 1
ENDMDL
MODEL 3
REMARK VINA RESULT:    -4.972      1.923      4.925
REMARK INTER + INTRA:          -7.490
REMARK INTER:                  -7.234
REMARK INTRA:                  -0.256
REMARK UNBOUND:                 0.098
REMARK SMILES CC1=CCC[C@@H](C)C(=O)C[C@@H](C(C)C)C(=O)C1
REMARK SMILES IDX 8 1 9 2 6 3 7 4 5 5 4 6 3 7 2 8 1 9 10 11 11 12 15 13 16 14
REMARK SMILES IDX 17 15 12 17 13 18 14 19
REMARK H PARENT
REMARK Flexibility Score: 70.00
ROOT
ATOM      1  C   UNL     1      -7.958  34.592  22.220  1.00  0.00     0.136 C 
ATOM      2  O   UNL     1      -7.386  35.657  22.035  1.00  0.00    -0.299 OA
ENDROOT
BRANCH   1   3
ATOM      3  C   UNL     1      -7.671  33.420  21.300  1.00  0.00     0.053 C 
ATOM      4  C   UNL     1      -6.935  33.899  20.040  1.00  0.00     0.016 C 
BRANCH   3   5
ATOM      5  C   UNL     1      -8.992  32.679  20.942  1.00  0.00     0.015 C 
BRANCH   5   6
ATOM      6  C   UNL     1      -9.089  31.238  21.481  1.00  0.00     0.028 C 
BRANCH   6   7
ATOM      7  C   UNL     1      -8.069  30.856  22.533  1.00  0.00    -0.028 C 
ATOM      8  C   UNL     1      -8.204  31.000  23.871  1.00  0.00    -0.070 CG0
ATOM      9  C   UNL     1      -7.127  30.419  24.754  1.00  0.00     0.039 C 
ATOM     10  G   UNL     1      -9.378  31.705  24.523  1.00  0.00     0.000 G0
ENDBRANCH   6   7
ENDBRANCH   5   6
ENDBRANCH   3   5
ENDBRANCH   1   3
BRANCH   1  11
ATOM     11  C   UNL     1      -8.971  34.478  23.339  1.00  0.00     0.087 C 
BRANCH  11  12
ATOM     12  C   UNL     1      -8.354  34.167  24.736  1.00  0.00     0.066 C 
BRANCH  12  13
ATOM     13  C   UNL     1      -8.919  32.895  25.367  1.00  0.00     0.140 C 
ATOM     14  O   UNL     1      -8.989  32.800  26.582  1.00  0.00    -0.299 OA
BRANCH  13  15
ATOM     15  C   UNL     1      -9.369  31.718  24.531  1.00  0.00     0.106 CG0
ATOM     16  G   UNL     1      -8.212  30.984  23.880  1.00  0.00     0.000 G0
ENDBRANCH  13  15
ENDBRANCH  12  13
BRANCH  12  17
ATOM     17  C   UNL     1      -8.312  35.403  25.693  1.00  0.00    -0.006 C 
ATOM     18  C   UNL     1      -9.371  36.451  25.312  1.00  0.00     0.008 C 
ATOM     19  C   UNL     1      -6.932  36.065  25.833  1.00  0.00     0.008 C 
ENDBRANCH  12  17
ENDBRANCH  11  12
ENDBRANCH   1  11
TORSDOF 1
ENDMDL
MODEL 4
REMARK VINA RESULT:    -4.903      1.821      5.018
REMARK INTER + INTRA:          -7.385
REMARK INTER:                  -7.414
REMARK INTRA:                   0.029
REMARK UNBOUND:                 0.098
REMARK SMILES CC1=CCC[C@@H](C)C(=O)C[C@@H](C(C)C)C(=O)C1
REMARK SMILES IDX 8 1 9 2 6 3 7 4 5 5 4 6 3 7 2 8 1 9 10 11 11 12 15 13 16 14
REMARK SMILES IDX 17 15 12 17 13 18 14 19
REMARK H PARENT
REMARK Flexibility Score: 70.00
ROOT
ATOM      1  C   UNL     1      -8.307  34.492  26.241  1.00  0.00     0.136 C 
ATOM      2  O   UNL     1      -7.899  34.461  27.393  1.00  0.00    -0.299 OA
ENDROOT
BRANCH   1   3
ATOM      3  C   UNL     1      -7.844  35.603  25.316  1.00  0.00     0.053 C 
ATOM      4  C   UNL     1      -9.022  36.518  24.950  1.00  0.00     0.016 C 
BRANCH   3   5
ATOM      5  C   UNL     1      -7.174  35.003  24.047  1.00  0.00     0.015 C 
BRANCH   5   6
ATOM      6  C   UNL     1      -7.888  35.337  22.721  1.00  0.00     0.028 C 
BRANCH   6   7
ATOM      7  C   UNL     1      -7.929  34.225  21.695  1.00  0.00    -0.028 C 
ATOM      8  C   UNL     1      -8.717  33.127  21.733  1.00  0.00    -0.070 CG0
ATOM      9  C   UNL     1      -8.708  32.212  20.532  1.00  0.00     0.039 C 
ATOM     10  G   UNL     1      -9.607  32.775  22.910  1.00  0.00     0.000 G0
ENDBRANCH   6   7
ENDBRANCH   5   6
ENDBRANCH   3   5
ENDBRANCH   1   3
BRANCH   1  11
ATOM     11  C   UNL     1      -9.295  33.445  25.773  1.00  0.00     0.087 C 
BRANCH  11  12
ATOM     12  C   UNL     1      -8.644  32.111  25.300  1.00  0.00     0.066 C 
BRANCH  12  13
ATOM     13  C   UNL     1      -9.000  31.755  23.857  1.00  0.00     0.140 C 
ATOM     14  O   UNL     1      -8.768  30.633  23.434  1.00  0.00    -0.299 OA
BRANCH  13  15
ATOM     15  C   UNL     1      -9.606  32.764  22.907  1.00  0.00     0.106 CG0
ATOM     16  G   UNL     1      -8.686  33.107  21.751  1.00  0.00     0.000 G0
ENDBRANCH  13  15
ENDBRANCH  12  13
BRANCH  12  17
ATOM     17  C   UNL     1      -8.807  30.937  26.318  1.00  0.00    -0.006 C 
ATOM     18  C   UNL     1      -9.612  31.367  27.555  1.00  0.00     0.008 C 
ATOM     19  C   UNL     1      -7.491  30.264  26.744  1.00  0.00     0.008 C 
ENDBRANCH  12  17
ENDBRANCH  11  12
ENDBRANCH   1  11
TORSDOF 1
ENDMDL
MODEL 5
REMARK VINA RESULT:    -4.600      1.741      3.681
REMARK INTER + INTRA:          -6.923
REMARK INTER:                  -7.630
REMARK INTRA:                   0.707
REMARK UNBOUND:                 0.098
REMARK SMILES CC1=CCC[C@@H](C)C(=O)C[C@@H](C(C)C)C(=O)C1
REMARK SMILES IDX 8 1 9 2 6 3 7 4 5 5 4 6 3 7 2 8 1 9 10 11 11 12 15 13 16 14
REMARK SMILES IDX 17 15 12 17 13 18 14 19
REMARK H PARENT
REMARK Flexibility Score: 70.00
ROOT
ATOM      1  C   UNL     1      -8.845  33.796  22.177  1.00  0.00     0.136 C 
ATOM      2  O   UNL     1      -8.518  33.455  21.050  1.00  0.00    -0.299 OA
ENDROOT
BRANCH   1   3
ATOM      3  C   UNL     1      -8.245  35.054  22.779  1.00  0.00     0.053 C 
ATOM      4  C   UNL     1      -7.216  35.668  21.819  1.00  0.00     0.016 C 
BRANCH   3   5
ATOM      5  C   UNL     1      -7.613  34.739  24.166  1.00  0.00     0.015 C 
BRANCH   5   6
ATOM      6  C   UNL     1      -8.411  35.270  25.373  1.00  0.00     0.028 C 
BRANCH   6   7
ATOM      7  C   UNL     1      -8.314  34.449  26.642  1.00  0.00    -0.028 C 
ATOM      8  C   UNL     1      -8.885  33.243  26.861  1.00  0.00    -0.070 CG0
ATOM      9  C   UNL     1      -8.541  32.525  28.144  1.00  0.00     0.039 C 
ATOM     10  G   UNL     1      -9.839  32.578  25.888  1.00  0.00     0.000 G0
ENDBRANCH   6   7
ENDBRANCH   5   6
ENDBRANCH   3   5
ENDBRANCH   1   3
BRANCH   1  11
ATOM     11  C   UNL     1      -9.811  32.936  22.963  1.00  0.00     0.087 C 
BRANCH  11  12
ATOM     12  C   UNL     1      -9.202  31.603  23.493  1.00  0.00     0.066 C 
BRANCH  12  13
ATOM     13  C   UNL     1      -9.202  31.514  25.019  1.00  0.00     0.140 C 
ATOM     14  O   UNL     1      -8.685  30.555  25.570  1.00  0.00    -0.299 OA
BRANCH  13  15
ATOM     15  C   UNL     1      -9.857  32.567  25.884  1.00  0.00     0.106 CG0
ATOM     16  G   UNL     1      -8.886  33.222  26.848  1.00  0.00     0.000 G0
ENDBRANCH  13  15
ENDBRANCH  12  13
BRANCH  12  17
ATOM     17  C   UNL     1      -7.844  31.222  22.820  1.00  0.00    -0.006 C 
ATOM     18  C   UNL     1      -7.964  29.931  21.993  1.00  0.00     0.008 C 
ATOM     19  C   UNL     1      -6.649  31.130  23.783  1.00  0.00     0.008 C 
ENDBRANCH  12  17
ENDBRANCH  11  12
ENDBRANCH   1  11
TORSDOF 1
ENDMDL
MODEL 6
REMARK VINA RESULT:    -4.298      2.131      4.127
REMARK INTER + INTRA:          -6.461
REMARK INTER:                  -7.561
REMARK INTRA:                   1.100
REMARK UNBOUND:                 0.098
REMARK SMILES CC1=CCC[C@@H](C)C(=O)C[C@@H](C(C)C)C(=O)C1
REMARK SMILES IDX 8 1 9 2 6 3 7 4 5 5 4 6 3 7 2 8 1 9 10 11 11 12 15 13 16 14
REMARK SMILES IDX 17 15 12 17 13 18 14 19
REMARK H PARENT
REMARK Flexibility Score: 70.00
ROOT
ATOM      1  C   UNL     1      -9.145  32.281  25.712  1.00  0.00     0.136 C 
ATOM      2  O   UNL     1      -9.121  32.977  26.717  1.00  0.00    -0.299 OA
ENDROOT
BRANCH   1   3
ATOM      3  C   UNL     1      -8.447  30.933  25.721  1.00  0.00     0.053 C 
ATOM      4  C   UNL     1      -7.878  30.636  27.116  1.00  0.00     0.016 C 
BRANCH   3   5
ATOM      5  C   UNL     1      -7.337  30.895  24.632  1.00  0.00     0.015 C 
BRANCH   5   6
ATOM      6  C   UNL     1      -7.530  29.812  23.552  1.00  0.00     0.028 C 
BRANCH   6   7
ATOM      7  C   UNL     1      -8.431  30.187  22.395  1.00  0.00    -0.028 C 
ATOM      8  C   UNL     1      -8.469  31.381  21.762  1.00  0.00    -0.070 CG0
ATOM      9  C   UNL     1      -9.338  31.500  20.534  1.00  0.00     0.039 C 
ATOM     10  G   UNL     1      -7.683  32.596  22.218  1.00  0.00     0.000 G0
ENDBRANCH   6   7
ENDBRANCH   5   6
ENDBRANCH   3   5
ENDBRANCH   1   3
BRANCH   1  11
ATOM     11  C   UNL     1      -9.837  32.795  24.468  1.00  0.00     0.087 C 
BRANCH  11  12
ATOM     12  C   UNL     1      -9.187  34.069  23.849  1.00  0.00     0.066 C 
BRANCH  12  13
ATOM     13  C   UNL     1      -8.555  33.810  22.482  1.00  0.00     0.140 C 
ATOM     14  O   UNL     1      -8.782  34.571  21.555  1.00  0.00    -0.299 OA
BRANCH  13  15
ATOM     15  C   UNL     1      -7.676  32.608  22.220  1.00  0.00     0.106 CG0
ATOM     16  G   UNL     1      -8.462  31.395  21.758  1.00  0.00     0.000 G0
ENDBRANCH  13  15
ENDBRANCH  12  13
BRANCH  12  17
ATOM     17  C   UNL     1      -8.276  34.857  24.846  1.00  0.00    -0.006 C 
ATOM     18  C   UNL     1      -8.992  36.095  25.409  1.00  0.00     0.008 C 
ATOM     19  C   UNL     1      -6.895  35.244  24.291  1.00  0.00     0.008 C 
ENDBRANCH  12  17
ENDBRANCH  11  12
ENDBRANCH   1  11
TORSDOF 1
ENDMDL
MODEL 7
REMARK VINA RESULT:    -4.245      1.460      3.524
REMARK INTER + INTRA:          -6.381
REMARK INTER:                  -7.255
REMARK INTRA:                   0.874
REMARK UNBOUND:                 0.098
REMARK SMILES CC1=CCC[C@@H](C)C(=O)C[C@@H](C(C)C)C(=O)C1
REMARK SMILES IDX 8 1 9 2 6 3 7 4 5 5 4 6 3 7 2 8 1 9 10 11 11 12 15 13 16 14
REMARK SMILES IDX 17 15 12 17 13 18 14 19
REMARK H PARENT
REMARK Flexibility Score: 70.00
ROOT
ATOM      1  C   UNL     1      -8.343  34.557  23.737  1.00  0.00     0.136 C 
ATOM      2  O   UNL     1      -7.162  34.683  23.447  1.00  0.00    -0.299 OA
ENDROOT
BRANCH   1   3
ATOM      3  C   UNL     1      -8.859  35.142  25.039  1.00  0.00     0.053 C 
ATOM      4  C   UNL     1      -9.013  36.665  24.915  1.00  0.00     0.016 C 
BRANCH   3   5
ATOM      5  C   UNL     1      -7.914  34.757  26.214  1.00  0.00     0.015 C 
BRANCH   5   6
ATOM      6  C   UNL     1      -8.611  34.058  27.398  1.00  0.00     0.028 C 
BRANCH   6   7
ATOM      7  C   UNL     1      -8.231  32.609  27.624  1.00  0.00    -0.028 C 
ATOM      8  C   UNL     1      -8.500  31.572  26.799  1.00  0.00    -0.070 CG0
ATOM      9  C   UNL     1      -7.902  30.228  27.142  1.00  0.00     0.039 C 
ATOM     10  G   UNL     1      -9.357  31.691  25.554  1.00  0.00     0.000 G0
ENDBRANCH   6   7
ENDBRANCH   5   6
ENDBRANCH   3   5
ENDBRANCH   1   3
BRANCH   1  11
ATOM     11  C   UNL     1      -9.257  33.785  22.809  1.00  0.00     0.087 C 
BRANCH  11  12
ATOM     12  C   UNL     1      -9.152  32.236  22.943  1.00  0.00     0.066 C 
BRANCH  12  13
ATOM     13  C   UNL     1      -8.539  31.794  24.271  1.00  0.00     0.140 C 
ATOM     14  O   UNL     1      -7.353  31.507  24.326  1.00  0.00    -0.299 OA
BRANCH  13  15
ATOM     15  C   UNL     1      -9.364  31.662  25.531  1.00  0.00     0.106 CG0
ATOM     16  G   UNL     1      -8.513  31.574  26.783  1.00  0.00     0.000 G0
ENDBRANCH  13  15
ENDBRANCH  12  13
BRANCH  12  17
ATOM     17  C   UNL     1      -8.548  31.536  21.684  1.00  0.00    -0.006 C 
ATOM     18  C   UNL     1      -9.043  32.186  20.381  1.00  0.00     0.008 C 
ATOM     19  C   UNL     1      -8.750  30.013  21.631  1.00  0.00     0.008 C 
ENDBRANCH  12  17
ENDBRANCH  11  12
ENDBRANCH   1  11
TORSDOF 1
ENDMDL
MODEL 8
REMARK VINA RESULT:    -4.201      1.431      3.531
REMARK INTER + INTRA:          -6.313
REMARK INTER:                  -7.096
REMARK INTRA:                   0.783
REMARK UNBOUND:                 0.098
REMARK SMILES CC1=CCC[C@@H](C)C(=O)C[C@@H](C(C)C)C(=O)C1
REMARK SMILES IDX 8 1 9 2 6 3 7 4 5 5 4 6 3 7 2 8 1 9 10 11 11 12 15 13 16 14
REMARK SMILES IDX 17 15 12 17 13 18 14 19
REMARK H PARENT
REMARK Flexibility Score: 70.00
ROOT
ATOM      1  C   UNL     1      -7.750  35.211  23.822  1.00  0.00     0.136 C 
ATOM      2  O   UNL     1      -6.553  35.292  24.058  1.00  0.00    -0.299 OA
ENDROOT
BRANCH   1   3
ATOM      3  C   UNL     1      -8.746  35.339  24.961  1.00  0.00     0.053 C 
ATOM      4  C   UNL     1      -9.021  36.818  25.266  1.00  0.00     0.016 C 
BRANCH   3   5
ATOM      5  C   UNL     1      -8.225  34.585  26.218  1.00  0.00     0.015 C 
BRANCH   5   6
ATOM      6  C   UNL     1      -9.130  33.433  26.700  1.00  0.00     0.028 C 
BRANCH   6   7
ATOM      7  C   UNL     1      -8.565  32.038  26.540  1.00  0.00    -0.028 C 
ATOM      8  C   UNL     1      -8.538  31.309  25.401  1.00  0.00    -0.070 CG0
ATOM      9  C   UNL     1      -7.794  29.996  25.424  1.00  0.00     0.039 C 
ATOM     10  G   UNL     1      -9.205  31.746  24.111  1.00  0.00     0.000 G0
ENDBRANCH   6   7
ENDBRANCH   5   6
ENDBRANCH   3   5
ENDBRANCH   1   3
BRANCH   1  11
ATOM     11  C   UNL     1      -8.212  34.947  22.405  1.00  0.00     0.087 C 
BRANCH  11  12
ATOM     12  C   UNL     1      -8.760  33.509  22.164  1.00  0.00     0.066 C 
BRANCH  12  13
ATOM     13  C   UNL     1      -8.253  32.498  23.193  1.00  0.00     0.140 C 
ATOM     14  O   UNL     1      -7.058  32.259  23.269  1.00  0.00    -0.299 OA
BRANCH  13  15
ATOM     15  C   UNL     1      -9.192  31.747  24.109  1.00  0.00     0.106 CG0
ATOM     16  G   UNL     1      -8.522  31.295  25.393  1.00  0.00     0.000 G0
ENDBRANCH  13  15
ENDBRANCH  12  13
BRANCH  12  17
ATOM     17  C   UNL     1      -8.649  33.035  20.679  1.00  0.00    -0.006 C 
ATOM     18  C   UNL     1      -9.087  31.570  20.517  1.00  0.00     0.008 C 
ATOM     19  C   UNL     1      -7.271  33.254  20.033  1.00  0.00     0.008 C 
ENDBRANCH  12  17
ENDBRANCH  11  12
ENDBRANCH   1  11
TORSDOF 1
ENDMDL
MODEL 9
REMARK VINA RESULT:    -3.708      1.978      3.922
REMARK INTER + INTRA:          -5.561
REMARK INTER:                  -6.578
REMARK INTRA:                   1.017
REMARK UNBOUND:                 0.098
REMARK SMILES CC1=CCC[C@@H](C)C(=O)C[C@@H](C(C)C)C(=O)C1
REMARK SMILES IDX 8 1 9 2 6 3 7 4 5 5 4 6 3 7 2 8 1 9 10 11 11 12 15 13 16 14
REMARK SMILES IDX 17 15 12 17 13 18 14 19
REMARK H PARENT
REMARK Flexibility Score: 70.00
ROOT
ATOM      1  C   UNL     1      -8.647  34.259  24.928  1.00  0.00     0.136 C 
ATOM      2  O   UNL     1      -7.510  34.704  24.868  1.00  0.00    -0.299 OA
ENDROOT
BRANCH   1   3
ATOM      3  C   UNL     1      -9.145  33.654  26.228  1.00  0.00     0.053 C 
ATOM      4  C   UNL     1      -8.153  33.942  27.364  1.00  0.00     0.016 C 
BRANCH   3   5
ATOM      5  C   UNL     1      -9.386  32.127  26.054  1.00  0.00     0.015 C 
BRANCH   5   6
ATOM      6  C   UNL     1      -8.108  31.265  26.087  1.00  0.00     0.028 C 
BRANCH   6   7
ATOM      7  C   UNL     1      -8.058  30.122  25.096  1.00  0.00    -0.028 C 
ATOM      8  C   UNL     1      -7.714  30.206  23.791  1.00  0.00    -0.070 CG0
ATOM      9  C   UNL     1      -7.585  28.919  23.013  1.00  0.00     0.039 C 
ATOM     10  G   UNL     1      -7.448  31.518  23.077  1.00  0.00     0.000 G0
ENDBRANCH   6   7
ENDBRANCH   5   6
ENDBRANCH   3   5
ENDBRANCH   1   3
BRANCH   1  11
ATOM     11  C   UNL     1      -9.521  34.284  23.692  1.00  0.00     0.087 C 
BRANCH  11  12
ATOM     12  C   UNL     1      -8.860  33.665  22.424  1.00  0.00     0.066 C 
BRANCH  12  13
ATOM     13  C   UNL     1      -8.684  32.150  22.524  1.00  0.00     0.140 C 
ATOM     14  O   UNL     1      -9.587  31.410  22.167  1.00  0.00    -0.299 OA
BRANCH  13  15
ATOM     15  C   UNL     1      -7.429  31.525  23.091  1.00  0.00     0.106 CG0
ATOM     16  G   UNL     1      -7.697  30.207  23.793  1.00  0.00     0.000 G0
ENDBRANCH  13  15
ENDBRANCH  12  13
BRANCH  12  17
ATOM     17  C   UNL     1      -7.591  34.435  21.937  1.00  0.00    -0.006 C 
ATOM     18  C   UNL     1      -7.762  35.957  22.079  1.00  0.00     0.008 C 
ATOM     19  C   UNL     1      -7.125  34.080  20.515  1.00  0.00     0.008 C 
ENDBRANCH  12  17
ENDBRANCH  11  12
ENDBRANCH   1  11
TORSDOF 1
ENDMDL
