MODEL 1
REMARK VINA RESULT:    -7.063      0.000      0.000
REMARK INTER + INTRA:          -8.977
REMARK INTER:                  -8.715
REMARK INTRA:                  -0.262
REMARK UNBOUND:                -0.262
REMARK SMILES O=c1c(O)c(-c2cc(O)c(O)c(O)c2)oc2cc(O)cc(O)c12
REMARK SMILES IDX 5 1 3 2 2 3 1 4 23 5 21 6 20 7 18 8 17 9 16 10 15 11 6 12
REMARK SMILES IDX 7 13 8 14 14 15 10 16 12 17 9 18 11 20 13 22 4 24 22 26
REMARK SMILES IDX 19 28
REMARK H PARENT 9 19 11 21 13 23 4 25 22 27 19 29
REMARK Flexibility Score: inf
ROOT
ATOM      1  C   UNL     1      -9.199 -14.419 -36.937  1.00  0.00     0.180 A 
ATOM      2  C   UNL     1      -9.282 -14.192 -38.322  1.00  0.00     0.208 A 
ATOM      3  C   UNL     1     -10.509 -13.785 -38.873  1.00  0.00     0.238 A 
ATOM      4  O   UNL     1     -10.591 -13.635 -40.120  1.00  0.00    -0.285 OA
ATOM      5  C   UNL     1     -11.630 -13.593 -38.031  1.00  0.00     0.111 A 
ATOM      6  C   UNL     1     -12.909 -13.143 -38.476  1.00  0.00     0.134 A 
ATOM      7  C   UNL     1     -13.983 -13.114 -37.577  1.00  0.00     0.093 A 
ATOM      8  C   UNL     1     -13.806 -13.457 -36.234  1.00  0.00     0.123 A 
ATOM      9  C   UNL     1     -12.547 -13.841 -35.777  1.00  0.00     0.094 A 
ATOM     10  C   UNL     1     -11.466 -13.914 -36.658  1.00  0.00     0.146 A 
ATOM     11  O   UNL     1     -10.286 -14.294 -36.184  1.00  0.00    -0.452 OA
ENDROOT
BRANCH   1  12
ATOM     12  C   UNL     1      -7.937 -14.826 -36.281  1.00  0.00     0.029 A 
ATOM     13  C   UNL     1      -7.461 -16.135 -36.449  1.00  0.00     0.062 A 
ATOM     14  C   UNL     1      -6.282 -16.560 -35.826  1.00  0.00     0.162 A 
ATOM     15  C   UNL     1      -7.232 -13.948 -35.443  1.00  0.00     0.062 A 
ATOM     16  C   UNL     1      -5.565 -15.661 -35.001  1.00  0.00     0.200 A 
ATOM     17  C   UNL     1      -6.051 -14.359 -34.812  1.00  0.00     0.162 A 
BRANCH  14  18
ATOM     18  O   UNL     1      -5.865 -17.873 -36.051  1.00  0.00    -0.504 OA
ATOM     19  H   UNL     1      -4.899 -18.167 -36.061  1.00  0.00     0.293 HD
ENDBRANCH  14  18
BRANCH  16  20
ATOM     20  O   UNL     1      -4.379 -16.018 -34.354  1.00  0.00    -0.502 OA
ATOM     21  H   UNL     1      -4.158 -16.958 -34.056  1.00  0.00     0.293 HD
ENDBRANCH  16  20
BRANCH  17  22
ATOM     22  O   UNL     1      -5.353 -13.477 -33.988  1.00  0.00    -0.504 OA
ATOM     23  H   UNL     1      -5.659 -13.279 -33.042  1.00  0.00     0.293 HD
ENDBRANCH  17  22
ENDBRANCH   1  12
BRANCH   2  24
ATOM     24  O   UNL     1      -8.168 -14.409 -39.138  1.00  0.00    -0.502 OA
ATOM     25  H   UNL     1      -7.292 -13.919 -39.003  1.00  0.00     0.293 HD
ENDBRANCH   2  24
BRANCH   6  26
ATOM     26  O   UNL     1     -13.170 -12.691 -39.772  1.00  0.00    -0.507 OA
ATOM     27  H   UNL     1     -14.082 -12.433 -40.119  1.00  0.00     0.293 HD
ENDBRANCH   6  26
BRANCH   8  28
ATOM     28  O   UNL     1     -14.875 -13.410 -35.342  1.00  0.00    -0.508 OA
ATOM     29  H   UNL     1     -15.832 -13.530 -35.655  1.00  0.00     0.293 HD
ENDBRANCH   8  28
TORSDOF 7
ENDMDL
MODEL 2
REMARK VINA RESULT:    -7.000      0.159      1.761
REMARK INTER + INTRA:          -8.900
REMARK INTER:                  -8.613
REMARK INTRA:                  -0.287
REMARK UNBOUND:                -0.262
REMARK SMILES O=c1c(O)c(-c2cc(O)c(O)c(O)c2)oc2cc(O)cc(O)c12
REMARK SMILES IDX 5 1 3 2 2 3 1 4 23 5 21 6 20 7 18 8 17 9 16 10 15 11 6 12
REMARK SMILES IDX 7 13 8 14 14 15 10 16 12 17 9 18 11 20 13 22 4 24 22 26
REMARK SMILES IDX 19 28
REMARK H PARENT 9 19 11 21 13 23 4 25 22 27 19 29
REMARK Flexibility Score: inf
ROOT
ATOM      1  C   UNL     1      -9.185 -14.460 -36.944  1.00  0.00     0.180 A 
ATOM      2  C   UNL     1      -9.293 -14.286 -38.334  1.00  0.00     0.208 A 
ATOM      3  C   UNL     1     -10.522 -13.872 -38.875  1.00  0.00     0.238 A 
ATOM      4  O   UNL     1     -10.629 -13.769 -40.125  1.00  0.00    -0.285 OA
ATOM      5  C   UNL     1     -11.620 -13.622 -38.017  1.00  0.00     0.111 A 
ATOM      6  C   UNL     1     -12.899 -13.160 -38.452  1.00  0.00     0.134 A 
ATOM      7  C   UNL     1     -13.951 -13.071 -37.532  1.00  0.00     0.093 A 
ATOM      8  C   UNL     1     -13.752 -13.365 -36.180  1.00  0.00     0.123 A 
ATOM      9  C   UNL     1     -12.492 -13.760 -35.736  1.00  0.00     0.094 A 
ATOM     10  C   UNL     1     -11.433 -13.893 -36.636  1.00  0.00     0.146 A 
ATOM     11  O   UNL     1     -10.251 -14.281 -36.173  1.00  0.00    -0.452 OA
ENDROOT
BRANCH   1  12
ATOM     12  C   UNL     1      -7.917 -14.871 -36.299  1.00  0.00     0.029 A 
ATOM     13  C   UNL     1      -7.141 -13.913 -35.631  1.00  0.00     0.062 A 
ATOM     14  C   UNL     1      -5.926 -14.262 -35.028  1.00  0.00     0.162 A 
ATOM     15  C   UNL     1      -7.443 -16.189 -36.390  1.00  0.00     0.062 A 
ATOM     16  C   UNL     1      -5.466 -15.598 -35.106  1.00  0.00     0.200 A 
ATOM     17  C   UNL     1      -6.230 -16.552 -35.793  1.00  0.00     0.162 A 
BRANCH  14  18
ATOM     18  O   UNL     1      -5.215 -13.256 -34.370  1.00  0.00    -0.504 OA
ATOM     19  H   UNL     1      -4.208 -13.175 -34.381  1.00  0.00     0.293 HD
ENDBRANCH  14  18
BRANCH  16  20
ATOM     20  O   UNL     1      -4.267 -16.015 -34.521  1.00  0.00    -0.502 OA
ATOM     21  H   UNL     1      -3.992 -16.982 -34.423  1.00  0.00     0.293 HD
ENDBRANCH  16  20
BRANCH  17  22
ATOM     22  O   UNL     1      -5.771 -17.866 -35.883  1.00  0.00    -0.504 OA
ATOM     23  H   UNL     1      -6.181 -18.529 -36.530  1.00  0.00     0.293 HD
ENDBRANCH  17  22
ENDBRANCH   1  12
BRANCH   2  24
ATOM     24  O   UNL     1      -8.203 -14.559 -39.165  1.00  0.00    -0.502 OA
ATOM     25  H   UNL     1      -7.301 -14.113 -39.043  1.00  0.00     0.293 HD
ENDBRANCH   2  24
BRANCH   6  26
ATOM     26  O   UNL     1     -13.178 -12.753 -39.760  1.00  0.00    -0.507 OA
ATOM     27  H   UNL     1     -13.650 -13.318 -40.449  1.00  0.00     0.293 HD
ENDBRANCH   6  26
BRANCH   8  28
ATOM     28  O   UNL     1     -14.800 -13.259 -35.268  1.00  0.00    -0.508 OA
ATOM     29  H   UNL     1     -14.836 -13.834 -34.435  1.00  0.00     0.293 HD
ENDBRANCH   8  28
TORSDOF 7
ENDMDL
MODEL 3
REMARK VINA RESULT:    -6.784      1.516      1.532
REMARK INTER + INTRA:          -8.633
REMARK INTER:                  -8.433
REMARK INTRA:                  -0.200
REMARK UNBOUND:                -0.262
REMARK SMILES O=c1c(O)c(-c2cc(O)c(O)c(O)c2)oc2cc(O)cc(O)c12
REMARK SMILES IDX 5 1 3 2 2 3 1 4 23 5 21 6 20 7 18 8 17 9 16 10 15 11 6 12
REMARK SMILES IDX 7 13 8 14 14 15 10 16 12 17 9 18 11 20 13 22 4 24 22 26
REMARK SMILES IDX 19 28
REMARK H PARENT 9 19 11 21 13 23 4 25 22 27 19 29
REMARK Flexibility Score: inf
ROOT
ATOM      1  C   UNL     1      -9.162 -13.572 -36.423  1.00  0.00     0.180 A 
ATOM      2  C   UNL     1      -9.088 -12.343 -37.101  1.00  0.00     0.208 A 
ATOM      3  C   UNL     1     -10.275 -11.741 -37.551  1.00  0.00     0.238 A 
ATOM      4  O   UNL     1     -10.198 -10.668 -38.205  1.00  0.00    -0.285 OA
ATOM      5  C   UNL     1     -11.520 -12.367 -37.303  1.00  0.00     0.111 A 
ATOM      6  C   UNL     1     -12.787 -11.827 -37.678  1.00  0.00     0.134 A 
ATOM      7  C   UNL     1     -13.945 -12.594 -37.498  1.00  0.00     0.093 A 
ATOM      8  C   UNL     1     -13.889 -13.854 -36.897  1.00  0.00     0.123 A 
ATOM      9  C   UNL     1     -12.663 -14.364 -36.474  1.00  0.00     0.094 A 
ATOM     10  C   UNL     1     -11.487 -13.639 -36.673  1.00  0.00     0.146 A 
ATOM     11  O   UNL     1     -10.339 -14.166 -36.263  1.00  0.00    -0.452 OA
ENDROOT
BRANCH   1  12
ATOM     12  C   UNL     1      -7.958 -14.255 -35.898  1.00  0.00     0.029 A 
ATOM     13  C   UNL     1      -7.643 -15.545 -36.349  1.00  0.00     0.062 A 
ATOM     14  C   UNL     1      -6.525 -16.228 -35.858  1.00  0.00     0.162 A 
ATOM     15  C   UNL     1      -7.154 -13.663 -34.911  1.00  0.00     0.062 A 
ATOM     16  C   UNL     1      -5.706 -15.615 -34.880  1.00  0.00     0.200 A 
ATOM     17  C   UNL     1      -6.032 -14.335 -34.410  1.00  0.00     0.162 A 
BRANCH  14  18
ATOM     18  O   UNL     1      -6.268 -17.504 -36.364  1.00  0.00    -0.504 OA
ATOM     19  H   UNL     1      -5.397 -17.999 -36.238  1.00  0.00     0.293 HD
ENDBRANCH  14  18
BRANCH  16  20
ATOM     20  O   UNL     1      -4.571 -16.238 -34.352  1.00  0.00    -0.502 OA
ATOM     21  H   UNL     1      -4.505 -17.229 -34.168  1.00  0.00     0.293 HD
ENDBRANCH  16  20
BRANCH  17  22
ATOM     22  O   UNL     1      -5.234 -13.736 -33.435  1.00  0.00    -0.504 OA
ATOM     23  H   UNL     1      -5.535 -13.670 -32.470  1.00  0.00     0.293 HD
ENDBRANCH  17  22
ENDBRANCH   1  12
BRANCH   2  24
ATOM     24  O   UNL     1      -7.846 -11.754 -37.355  1.00  0.00    -0.502 OA
ATOM     25  H   UNL     1      -7.443 -11.713 -38.283  1.00  0.00     0.293 HD
ENDBRANCH   2  24
BRANCH   6  26
ATOM     26  O   UNL     1     -12.964 -10.543 -38.201  1.00  0.00    -0.507 OA
ATOM     27  H   UNL     1     -13.256  -9.740 -37.666  1.00  0.00     0.293 HD
ENDBRANCH   6  26
BRANCH   8  28
ATOM     28  O   UNL     1     -15.047 -14.603 -36.707  1.00  0.00    -0.508 OA
ATOM     29  H   UNL     1     -15.756 -14.322 -36.040  1.00  0.00     0.293 HD
ENDBRANCH   8  28
TORSDOF 7
ENDMDL
MODEL 4
REMARK VINA RESULT:    -6.485      2.698      3.461
REMARK INTER + INTRA:          -8.264
REMARK INTER:                  -7.911
REMARK INTRA:                  -0.353
REMARK UNBOUND:                -0.262
REMARK SMILES O=c1c(O)c(-c2cc(O)c(O)c(O)c2)oc2cc(O)cc(O)c12
REMARK SMILES IDX 5 1 3 2 2 3 1 4 23 5 21 6 20 7 18 8 17 9 16 10 15 11 6 12
REMARK SMILES IDX 7 13 8 14 14 15 10 16 12 17 9 18 11 20 13 22 4 24 22 26
REMARK SMILES IDX 19 28
REMARK H PARENT 9 19 11 21 13 23 4 25 22 27 19 29
REMARK Flexibility Score: inf
ROOT
ATOM      1  C   UNL     1      -9.764 -12.917 -36.951  1.00  0.00     0.180 A 
ATOM      2  C   UNL     1     -10.285 -13.883 -36.072  1.00  0.00     0.208 A 
ATOM      3  C   UNL     1     -11.668 -13.902 -35.825  1.00  0.00     0.238 A 
ATOM      4  O   UNL     1     -12.122 -14.733 -34.996  1.00  0.00    -0.285 OA
ATOM      5  C   UNL     1     -12.512 -12.967 -36.471  1.00  0.00     0.111 A 
ATOM      6  C   UNL     1     -13.932 -12.922 -36.326  1.00  0.00     0.134 A 
ATOM      7  C   UNL     1     -14.653 -11.874 -36.910  1.00  0.00     0.093 A 
ATOM      8  C   UNL     1     -14.013 -10.906 -37.689  1.00  0.00     0.123 A 
ATOM      9  C   UNL     1     -12.636 -10.976 -37.886  1.00  0.00     0.094 A 
ATOM     10  C   UNL     1     -11.885 -11.989 -37.286  1.00  0.00     0.146 A 
ATOM     11  O   UNL     1     -10.574 -12.013 -37.491  1.00  0.00    -0.452 OA
ENDROOT
BRANCH   1  12
ATOM     12  C   UNL     1      -8.322 -12.850 -37.280  1.00  0.00     0.029 A 
ATOM     13  C   UNL     1      -7.832 -13.562 -38.384  1.00  0.00     0.062 A 
ATOM     14  C   UNL     1      -6.471 -13.538 -38.711  1.00  0.00     0.162 A 
ATOM     15  C   UNL     1      -7.421 -12.134 -36.476  1.00  0.00     0.062 A 
ATOM     16  C   UNL     1      -5.573 -12.795 -37.909  1.00  0.00     0.200 A 
ATOM     17  C   UNL     1      -6.057 -12.101 -36.791  1.00  0.00     0.162 A 
BRANCH  14  18
ATOM     18  O   UNL     1      -6.059 -14.262 -39.832  1.00  0.00    -0.504 OA
ATOM     19  H   UNL     1      -6.690 -14.655 -40.516  1.00  0.00     0.293 HD
ENDBRANCH  14  18
BRANCH  16  20
ATOM     20  O   UNL     1      -4.204 -12.724 -38.183  1.00  0.00    -0.502 OA
ATOM     21  H   UNL     1      -3.749 -13.231 -38.928  1.00  0.00     0.293 HD
ENDBRANCH  16  20
BRANCH  17  22
ATOM     22  O   UNL     1      -5.171 -11.381 -35.991  1.00  0.00    -0.504 OA
ATOM     23  H   UNL     1      -4.938 -11.682 -35.052  1.00  0.00     0.293 HD
ENDBRANCH  17  22
ENDBRANCH   1  12
BRANCH   2  24
ATOM     24  O   UNL     1      -9.431 -14.782 -35.428  1.00  0.00    -0.502 OA
ATOM     25  H   UNL     1      -9.075 -14.619 -34.493  1.00  0.00     0.293 HD
ENDBRANCH   2  24
BRANCH   6  26
ATOM     26  O   UNL     1     -14.678 -13.889 -35.646  1.00  0.00    -0.507 OA
ATOM     27  H   UNL     1     -15.619 -14.162 -35.885  1.00  0.00     0.293 HD
ENDBRANCH   6  26
BRANCH   8  28
ATOM     28  O   UNL     1     -14.740  -9.875 -38.280  1.00  0.00    -0.508 OA
ATOM     29  H   UNL     1     -14.855  -9.818 -39.285  1.00  0.00     0.293 HD
ENDBRANCH   8  28
TORSDOF 7
ENDMDL
MODEL 5
REMARK VINA RESULT:    -6.408      1.812      2.793
REMARK INTER + INTRA:          -8.169
REMARK INTER:                  -7.855
REMARK INTRA:                  -0.314
REMARK UNBOUND:                -0.262
REMARK SMILES O=c1c(O)c(-c2cc(O)c(O)c(O)c2)oc2cc(O)cc(O)c12
REMARK SMILES IDX 5 1 3 2 2 3 1 4 23 5 21 6 20 7 18 8 17 9 16 10 15 11 6 12
REMARK SMILES IDX 7 13 8 14 14 15 10 16 12 17 9 18 11 20 13 22 4 24 22 26
REMARK SMILES IDX 19 28
REMARK H PARENT 9 19 11 21 13 23 4 25 22 27 19 29
REMARK Flexibility Score: inf
ROOT
ATOM      1  C   UNL     1      -7.574 -13.579 -36.742  1.00  0.00     0.180 A 
ATOM      2  C   UNL     1      -7.567 -14.264 -37.970  1.00  0.00     0.208 A 
ATOM      3  C   UNL     1      -8.771 -14.397 -38.682  1.00  0.00     0.238 A 
ATOM      4  O   UNL     1      -8.769 -15.058 -39.753  1.00  0.00    -0.285 OA
ATOM      5  C   UNL     1      -9.961 -13.830 -38.166  1.00  0.00     0.111 A 
ATOM      6  C   UNL     1     -11.228 -13.870 -38.823  1.00  0.00     0.134 A 
ATOM      7  C   UNL     1     -12.364 -13.390 -38.160  1.00  0.00     0.093 A 
ATOM      8  C   UNL     1     -12.269 -12.813 -36.891  1.00  0.00     0.123 A 
ATOM      9  C   UNL     1     -11.027 -12.717 -36.267  1.00  0.00     0.094 A 
ATOM     10  C   UNL     1      -9.881 -13.219 -36.888  1.00  0.00     0.146 A 
ATOM     11  O   UNL     1      -8.719 -13.116 -36.254  1.00  0.00    -0.452 OA
ENDROOT
BRANCH   1  12
ATOM     12  C   UNL     1      -6.342 -13.377 -35.947  1.00  0.00     0.029 A 
ATOM     13  C   UNL     1      -5.413 -12.407 -36.348  1.00  0.00     0.062 A 
ATOM     14  C   UNL     1      -4.227 -12.204 -35.633  1.00  0.00     0.162 A 
ATOM     15  C   UNL     1      -6.053 -14.177 -34.830  1.00  0.00     0.062 A 
ATOM     16  C   UNL     1      -3.954 -12.999 -34.494  1.00  0.00     0.200 A 
ATOM     17  C   UNL     1      -4.871 -13.986 -34.104  1.00  0.00     0.162 A 
BRANCH  14  18
ATOM     18  O   UNL     1      -3.356 -11.211 -36.086  1.00  0.00    -0.504 OA
ATOM     19  H   UNL     1      -2.431 -11.055 -35.711  1.00  0.00     0.293 HD
ENDBRANCH  14  18
BRANCH  16  20
ATOM     20  O   UNL     1      -2.793 -12.844 -33.731  1.00  0.00    -0.502 OA
ATOM     21  H   UNL     1      -2.228 -13.613 -33.398  1.00  0.00     0.293 HD
ENDBRANCH  16  20
BRANCH  17  22
ATOM     22  O   UNL     1      -4.596 -14.779 -32.992  1.00  0.00    -0.504 OA
ATOM     23  H   UNL     1      -5.150 -14.718 -32.145  1.00  0.00     0.293 HD
ENDBRANCH  17  22
ENDBRANCH   1  12
BRANCH   2  24
ATOM     24  O   UNL     1      -6.385 -14.835 -38.450  1.00  0.00    -0.502 OA
ATOM     25  H   UNL     1      -6.228 -15.836 -38.457  1.00  0.00     0.293 HD
ENDBRANCH   2  24
BRANCH   6  26
ATOM     26  O   UNL     1     -11.418 -14.341 -40.125  1.00  0.00    -0.507 OA
ATOM     27  H   UNL     1     -12.287 -14.290 -40.634  1.00  0.00     0.293 HD
ENDBRANCH   6  26
BRANCH   8  28
ATOM     28  O   UNL     1     -13.402 -12.324 -36.245  1.00  0.00    -0.508 OA
ATOM     29  H   UNL     1     -14.327 -12.674 -36.462  1.00  0.00     0.293 HD
ENDBRANCH   8  28
TORSDOF 7
ENDMDL
MODEL 6
REMARK VINA RESULT:    -6.392      1.944      3.293
REMARK INTER + INTRA:          -8.149
REMARK INTER:                  -7.782
REMARK INTRA:                  -0.367
REMARK UNBOUND:                -0.262
REMARK SMILES O=c1c(O)c(-c2cc(O)c(O)c(O)c2)oc2cc(O)cc(O)c12
REMARK SMILES IDX 5 1 3 2 2 3 1 4 23 5 21 6 20 7 18 8 17 9 16 10 15 11 6 12
REMARK SMILES IDX 7 13 8 14 14 15 10 16 12 17 9 18 11 20 13 22 4 24 22 26
REMARK SMILES IDX 19 28
REMARK H PARENT 9 19 11 21 13 23 4 25 22 27 19 29
REMARK Flexibility Score: inf
ROOT
ATOM      1  C   UNL     1      -9.212 -13.502 -36.580  1.00  0.00     0.180 A 
ATOM      2  C   UNL     1      -9.626 -12.801 -35.434  1.00  0.00     0.208 A 
ATOM      3  C   UNL     1     -10.919 -12.252 -35.402  1.00  0.00     0.238 A 
ATOM      4  O   UNL     1     -11.265 -11.578 -34.397  1.00  0.00    -0.285 OA
ATOM      5  C   UNL     1     -11.785 -12.426 -36.508  1.00  0.00     0.111 A 
ATOM      6  C   UNL     1     -13.129 -11.948 -36.567  1.00  0.00     0.134 A 
ATOM      7  C   UNL     1     -13.851 -12.063 -37.761  1.00  0.00     0.093 A 
ATOM      8  C   UNL     1     -13.301 -12.698 -38.877  1.00  0.00     0.123 A 
ATOM      9  C   UNL     1     -12.011 -13.221 -38.810  1.00  0.00     0.094 A 
ATOM     10  C   UNL     1     -11.253 -13.088 -37.645  1.00  0.00     0.146 A 
ATOM     11  O   UNL     1     -10.025 -13.592 -37.626  1.00  0.00    -0.452 OA
ENDROOT
BRANCH   1  12
ATOM     12  C   UNL     1      -7.875 -14.129 -36.678  1.00  0.00     0.029 A 
ATOM     13  C   UNL     1      -6.831 -13.435 -37.305  1.00  0.00     0.062 A 
ATOM     14  C   UNL     1      -5.560 -14.007 -37.435  1.00  0.00     0.162 A 
ATOM     15  C   UNL     1      -7.642 -15.431 -36.208  1.00  0.00     0.062 A 
ATOM     16  C   UNL     1      -5.327 -15.311 -36.938  1.00  0.00     0.200 A 
ATOM     17  C   UNL     1      -6.376 -16.017 -36.330  1.00  0.00     0.162 A 
BRANCH  14  18
ATOM     18  O   UNL     1      -4.567 -13.249 -38.060  1.00  0.00    -0.504 OA
ATOM     19  H   UNL     1      -4.596 -12.968 -39.030  1.00  0.00     0.293 HD
ENDBRANCH  14  18
BRANCH  16  20
ATOM     20  O   UNL     1      -4.081 -15.938 -37.028  1.00  0.00    -0.502 OA
ATOM     21  H   UNL     1      -3.804 -16.540 -37.791  1.00  0.00     0.293 HD
ENDBRANCH  16  20
BRANCH  17  22
ATOM     22  O   UNL     1      -6.151 -17.307 -35.854  1.00  0.00    -0.504 OA
ATOM     23  H   UNL     1      -5.256 -17.768 -35.970  1.00  0.00     0.293 HD
ENDBRANCH  17  22
ENDBRANCH   1  12
BRANCH   2  24
ATOM     24  O   UNL     1      -8.747 -12.622 -34.363  1.00  0.00    -0.502 OA
ATOM     25  H   UNL     1      -9.057 -12.621 -33.398  1.00  0.00     0.293 HD
ENDBRANCH   2  24
BRANCH   6  26
ATOM     26  O   UNL     1     -13.804 -11.381 -35.482  1.00  0.00    -0.507 OA
ATOM     27  H   UNL     1     -13.477 -10.587 -34.953  1.00  0.00     0.293 HD
ENDBRANCH   6  26
BRANCH   8  28
ATOM     28  O   UNL     1     -14.032 -12.823 -40.057  1.00  0.00    -0.508 OA
ATOM     29  H   UNL     1     -13.779 -13.500 -40.767  1.00  0.00     0.293 HD
ENDBRANCH   8  28
TORSDOF 7
ENDMDL
MODEL 7
REMARK VINA RESULT:    -6.390      1.630      6.812
REMARK INTER + INTRA:          -8.147
REMARK INTER:                  -7.792
REMARK INTRA:                  -0.355
REMARK UNBOUND:                -0.262
REMARK SMILES O=c1c(O)c(-c2cc(O)c(O)c(O)c2)oc2cc(O)cc(O)c12
REMARK SMILES IDX 5 1 3 2 2 3 1 4 23 5 21 6 20 7 18 8 17 9 16 10 15 11 6 12
REMARK SMILES IDX 7 13 8 14 14 15 10 16 12 17 9 18 11 20 13 22 4 24 22 26
REMARK SMILES IDX 19 28
REMARK H PARENT 9 19 11 21 13 23 4 25 22 27 19 29
REMARK Flexibility Score: inf
ROOT
ATOM      1  C   UNL     1     -10.042 -13.469 -37.164  1.00  0.00     0.180 A 
ATOM      2  C   UNL     1      -9.386 -13.761 -38.372  1.00  0.00     0.208 A 
ATOM      3  C   UNL     1      -8.046 -14.183 -38.335  1.00  0.00     0.238 A 
ATOM      4  O   UNL     1      -7.448 -14.391 -39.423  1.00  0.00    -0.285 OA
ATOM      5  C   UNL     1      -7.387 -14.322 -37.090  1.00  0.00     0.111 A 
ATOM      6  C   UNL     1      -6.044 -14.780 -36.933  1.00  0.00     0.134 A 
ATOM      7  C   UNL     1      -5.450 -14.755 -35.664  1.00  0.00     0.093 A 
ATOM      8  C   UNL     1      -6.172 -14.350 -34.539  1.00  0.00     0.123 A 
ATOM      9  C   UNL     1      -7.502 -13.957 -34.675  1.00  0.00     0.094 A 
ATOM     10  C   UNL     1      -8.110 -13.937 -35.932  1.00  0.00     0.146 A 
ATOM     11  O   UNL     1      -9.376 -13.547 -36.018  1.00  0.00    -0.452 OA
ENDROOT
BRANCH   1  12
ATOM     12  C   UNL     1     -11.460 -13.044 -37.121  1.00  0.00     0.029 A 
ATOM     13  C   UNL     1     -12.468 -14.011 -37.009  1.00  0.00     0.062 A 
ATOM     14  C   UNL     1     -13.819 -13.647 -36.987  1.00  0.00     0.162 A 
ATOM     15  C   UNL     1     -11.822 -11.694 -37.250  1.00  0.00     0.062 A 
ATOM     16  C   UNL     1     -14.175 -12.281 -37.094  1.00  0.00     0.200 A 
ATOM     17  C   UNL     1     -13.169 -11.313 -37.230  1.00  0.00     0.162 A 
BRANCH  14  18
ATOM     18  O   UNL     1     -14.766 -14.665 -36.861  1.00  0.00    -0.504 OA
ATOM     19  H   UNL     1     -15.522 -14.820 -37.512  1.00  0.00     0.293 HD
ENDBRANCH  14  18
BRANCH  16  20
ATOM     20  O   UNL     1     -15.504 -11.847 -37.073  1.00  0.00    -0.502 OA
ATOM     21  H   UNL     1     -16.299 -12.452 -37.222  1.00  0.00     0.293 HD
ENDBRANCH  16  20
BRANCH  17  22
ATOM     22  O   UNL     1     -13.520  -9.969 -37.351  1.00  0.00    -0.504 OA
ATOM     23  H   UNL     1     -13.075  -9.363 -38.030  1.00  0.00     0.293 HD
ENDBRANCH  17  22
ENDBRANCH   1  12
BRANCH   2  24
ATOM     24  O   UNL     1     -10.050 -13.596 -39.591  1.00  0.00    -0.502 OA
ATOM     25  H   UNL     1      -9.910 -12.784 -40.181  1.00  0.00     0.293 HD
ENDBRANCH   2  24
BRANCH   6  26
ATOM     26  O   UNL     1      -5.266 -15.291 -37.975  1.00  0.00    -0.507 OA
ATOM     27  H   UNL     1      -5.286 -14.954 -38.926  1.00  0.00     0.293 HD
ENDBRANCH   6  26
BRANCH   8  28
ATOM     28  O   UNL     1      -5.579 -14.343 -33.278  1.00  0.00    -0.508 OA
ATOM     29  H   UNL     1      -5.754 -13.597 -32.615  1.00  0.00     0.293 HD
ENDBRANCH   8  28
TORSDOF 7
ENDMDL
MODEL 8
REMARK VINA RESULT:    -6.348      1.900      2.976
REMARK INTER + INTRA:          -8.094
REMARK INTER:                  -7.751
REMARK INTRA:                  -0.344
REMARK UNBOUND:                -0.262
REMARK SMILES O=c1c(O)c(-c2cc(O)c(O)c(O)c2)oc2cc(O)cc(O)c12
REMARK SMILES IDX 5 1 3 2 2 3 1 4 23 5 21 6 20 7 18 8 17 9 16 10 15 11 6 12
REMARK SMILES IDX 7 13 8 14 14 15 10 16 12 17 9 18 11 20 13 22 4 24 22 26
REMARK SMILES IDX 19 28
REMARK H PARENT 9 19 11 21 13 23 4 25 22 27 19 29
REMARK Flexibility Score: inf
ROOT
ATOM      1  C   UNL     1      -9.154 -13.621 -36.685  1.00  0.00     0.180 A 
ATOM      2  C   UNL     1      -9.581 -12.985 -35.507  1.00  0.00     0.208 A 
ATOM      3  C   UNL     1     -10.884 -12.465 -35.448  1.00  0.00     0.238 A 
ATOM      4  O   UNL     1     -11.243 -11.849 -34.410  1.00  0.00    -0.285 OA
ATOM      5  C   UNL     1     -11.749 -12.603 -36.561  1.00  0.00     0.111 A 
ATOM      6  C   UNL     1     -13.102 -12.151 -36.596  1.00  0.00     0.134 A 
ATOM      7  C   UNL     1     -13.823 -12.223 -37.794  1.00  0.00     0.093 A 
ATOM      8  C   UNL     1     -13.261 -12.791 -38.940  1.00  0.00     0.123 A 
ATOM      9  C   UNL     1     -11.961 -13.289 -38.899  1.00  0.00     0.094 A 
ATOM     10  C   UNL     1     -11.204 -13.198 -37.728  1.00  0.00     0.146 A 
ATOM     11  O   UNL     1      -9.966 -13.677 -37.735  1.00  0.00    -0.452 OA
ENDROOT
BRANCH   1  12
ATOM     12  C   UNL     1      -7.804 -14.215 -36.814  1.00  0.00     0.029 A 
ATOM     13  C   UNL     1      -7.560 -15.495 -36.297  1.00  0.00     0.062 A 
ATOM     14  C   UNL     1      -6.290 -16.078 -36.382  1.00  0.00     0.162 A 
ATOM     15  C   UNL     1      -6.743 -13.501 -37.393  1.00  0.00     0.062 A 
ATOM     16  C   UNL     1      -5.231 -15.360 -36.987  1.00  0.00     0.200 A 
ATOM     17  C   UNL     1      -5.467 -14.070 -37.485  1.00  0.00     0.162 A 
BRANCH  14  18
ATOM     18  O   UNL     1      -6.127 -17.361 -35.855  1.00  0.00    -0.504 OA
ATOM     19  H   UNL     1      -5.982 -17.556 -34.875  1.00  0.00     0.293 HD
ENDBRANCH  14  18
BRANCH  16  20
ATOM     20  O   UNL     1      -3.942 -15.885 -37.111  1.00  0.00    -0.502 OA
ATOM     21  H   UNL     1      -3.129 -15.503 -36.649  1.00  0.00     0.293 HD
ENDBRANCH  16  20
BRANCH  17  22
ATOM     22  O   UNL     1      -4.421 -13.356 -38.068  1.00  0.00    -0.504 OA
ATOM     23  H   UNL     1      -3.452 -13.597 -37.895  1.00  0.00     0.293 HD
ENDBRANCH  17  22
ENDBRANCH   1  12
BRANCH   2  24
ATOM     24  O   UNL     1      -8.703 -12.840 -34.428  1.00  0.00    -0.502 OA
ATOM     25  H   UNL     1      -7.780 -13.257 -34.418  1.00  0.00     0.293 HD
ENDBRANCH   2  24
BRANCH   6  26
ATOM     26  O   UNL     1     -13.787 -11.651 -35.484  1.00  0.00    -0.507 OA
ATOM     27  H   UNL     1     -13.349 -11.213 -34.688  1.00  0.00     0.293 HD
ENDBRANCH   6  26
BRANCH   8  28
ATOM     28  O   UNL     1     -13.991 -12.874 -40.124  1.00  0.00    -0.508 OA
ATOM     29  H   UNL     1     -13.925 -12.158 -40.838  1.00  0.00     0.293 HD
ENDBRANCH   8  28
TORSDOF 7
ENDMDL
MODEL 9
REMARK VINA RESULT:    -6.325      2.017      7.358
REMARK INTER + INTRA:          -8.066
REMARK INTER:                  -7.732
REMARK INTRA:                  -0.334
REMARK UNBOUND:                -0.262
REMARK SMILES O=c1c(O)c(-c2cc(O)c(O)c(O)c2)oc2cc(O)cc(O)c12
REMARK SMILES IDX 5 1 3 2 2 3 1 4 23 5 21 6 20 7 18 8 17 9 16 10 15 11 6 12
REMARK SMILES IDX 7 13 8 14 14 15 10 16 12 17 9 18 11 20 13 22 4 24 22 26
REMARK SMILES IDX 19 28
REMARK H PARENT 9 19 11 21 13 23 4 25 22 27 19 29
REMARK Flexibility Score: inf
ROOT
ATOM      1  C   UNL     1     -10.072 -13.488 -35.752  1.00  0.00     0.180 A 
ATOM      2  C   UNL     1      -9.741 -13.671 -34.398  1.00  0.00     0.208 A 
ATOM      3  C   UNL     1      -8.432 -14.058 -34.064  1.00  0.00     0.238 A 
ATOM      4  O   UNL     1      -8.156 -14.273 -32.854  1.00  0.00    -0.285 OA
ATOM      5  C   UNL     1      -7.469 -14.240 -35.085  1.00  0.00     0.111 A 
ATOM      6  C   UNL     1      -6.105 -14.591 -34.857  1.00  0.00     0.134 A 
ATOM      7  C   UNL     1      -5.273 -14.873 -35.948  1.00  0.00     0.093 A 
ATOM      8  C   UNL     1      -5.739 -14.752 -37.260  1.00  0.00     0.123 A 
ATOM      9  C   UNL     1      -7.054 -14.352 -37.493  1.00  0.00     0.094 A 
ATOM     10  C   UNL     1      -7.917 -14.099 -36.424  1.00  0.00     0.146 A 
ATOM     11  O   UNL     1      -9.164 -13.730 -36.690  1.00  0.00    -0.452 OA
ENDROOT
BRANCH   1  12
ATOM     12  C   UNL     1     -11.422 -13.058 -36.180  1.00  0.00     0.029 A 
ATOM     13  C   UNL     1     -12.445 -14.009 -36.299  1.00  0.00     0.062 A 
ATOM     14  C   UNL     1     -13.728 -13.641 -36.722  1.00  0.00     0.162 A 
ATOM     15  C   UNL     1     -11.689 -11.724 -36.528  1.00  0.00     0.062 A 
ATOM     16  C   UNL     1     -13.994 -12.290 -37.049  1.00  0.00     0.200 A 
ATOM     17  C   UNL     1     -12.966 -11.340 -36.954  1.00  0.00     0.162 A 
BRANCH  14  18
ATOM     18  O   UNL     1     -14.698 -14.642 -36.804  1.00  0.00    -0.504 OA
ATOM     19  H   UNL     1     -15.583 -14.614 -36.318  1.00  0.00     0.293 HD
ENDBRANCH  14  18
BRANCH  16  20
ATOM     20  O   UNL     1     -15.253 -11.853 -37.472  1.00  0.00    -0.502 OA
ATOM     21  H   UNL     1     -16.124 -12.279 -37.188  1.00  0.00     0.293 HD
ENDBRANCH  16  20
BRANCH  17  22
ATOM     22  O   UNL     1     -13.223 -10.012 -37.290  1.00  0.00    -0.504 OA
ATOM     23  H   UNL     1     -12.779  -9.570 -38.086  1.00  0.00     0.293 HD
ENDBRANCH  17  22
ENDBRANCH   1  12
BRANCH   2  24
ATOM     24  O   UNL     1     -10.714 -13.507 -33.408  1.00  0.00    -0.502 OA
ATOM     25  H   UNL     1     -11.687 -13.328 -33.625  1.00  0.00     0.293 HD
ENDBRANCH   2  24
BRANCH   6  26
ATOM     26  O   UNL     1      -5.514 -14.651 -33.592  1.00  0.00    -0.507 OA
ATOM     27  H   UNL     1      -5.855 -15.210 -32.824  1.00  0.00     0.293 HD
ENDBRANCH   6  26
BRANCH   8  28
ATOM     28  O   UNL     1      -4.901 -15.018 -38.340  1.00  0.00    -0.508 OA
ATOM     29  H   UNL     1      -4.817 -14.373 -39.117  1.00  0.00     0.293 HD
ENDBRANCH   8  28
TORSDOF 7
ENDMDL
