MODEL 1
REMARK VINA RESULT:    -2.401      0.000      0.000
REMARK INTER + INTRA:          -2.401
REMARK INTER:                  -2.401
REMARK INTRA:                   0.000
REMARK UNBOUND:                 0.000
REMARK SMILES CC(=O)[O-]
REMARK SMILES IDX 1 1 2 2 3 3 4 4
REMARK H PARENT
REMARK Flexibility Score: inf
ROOT
ATOM      1  C   UNL     1      40.537  -0.012  -2.813  1.00  0.00     0.063 C 
ATOM      2  C   UNL     1      41.201  -0.229  -1.496  1.00  0.00     0.038 C 
ATOM      3  O   UNL     1      41.357   0.735  -0.701  1.00  0.00    -0.550 OA
ATOM      4  O   UNL     1      41.602  -1.505  -1.119  1.00  0.00    -0.550 OA
ENDROOT
TORSDOF 0
ENDMDL
MODEL 2
REMARK VINA RESULT:    -2.377      9.453     10.011
REMARK INTER + INTRA:          -2.377
REMARK INTER:                  -2.377
REMARK INTRA:                   0.000
REMARK UNBOUND:                 0.000
REMARK SMILES CC(=O)[O-]
REMARK SMILES IDX 1 1 2 2 3 3 4 4
REMARK H PARENT
REMARK Flexibility Score: inf
ROOT
ATOM      1  C   UNL     1      47.402   7.521   1.971  1.00  0.00     0.063 C 
ATOM      2  C   UNL     1      47.851   6.549   0.933  1.00  0.00     0.038 C 
ATOM      3  O   UNL     1      49.020   6.083   0.967  1.00  0.00    -0.550 OA
ATOM      4  O   UNL     1      46.963   6.114  -0.044  1.00  0.00    -0.550 OA
ENDROOT
TORSDOF 0
ENDMDL
MODEL 3
REMARK VINA RESULT:    -2.364      9.936     10.604
REMARK INTER + INTRA:          -2.364
REMARK INTER:                  -2.364
REMARK INTRA:                   0.000
REMARK UNBOUND:                 0.000
REMARK SMILES CC(=O)[O-]
REMARK SMILES IDX 1 1 2 2 3 3 4 4
REMARK H PARENT
REMARK Flexibility Score: inf
ROOT
ATOM      1  C   UNL     1      37.973   7.184  -6.457  1.00  0.00     0.063 C 
ATOM      2  C   UNL     1      38.119   8.651  -6.236  1.00  0.00     0.038 C 
ATOM      3  O   UNL     1      37.554   9.467  -7.012  1.00  0.00    -0.550 OA
ATOM      4  O   UNL     1      38.835   9.123  -5.143  1.00  0.00    -0.550 OA
ENDROOT
TORSDOF 0
ENDMDL
MODEL 4
REMARK VINA RESULT:    -2.361      1.404      2.064
REMARK INTER + INTRA:          -2.361
REMARK INTER:                  -2.361
REMARK INTRA:                   0.000
REMARK UNBOUND:                 0.000
REMARK SMILES CC(=O)[O-]
REMARK SMILES IDX 1 1 2 2 3 3 4 4
REMARK H PARENT
REMARK Flexibility Score: inf
ROOT
ATOM      1  C   UNL     1      41.083   1.022  -0.519  1.00  0.00     0.063 C 
ATOM      2  C   UNL     1      41.132  -0.097  -1.502  1.00  0.00     0.038 C 
ATOM      3  O   UNL     1      41.485  -1.248  -1.133  1.00  0.00    -0.550 OA
ATOM      4  O   UNL     1      40.739   0.113  -2.818  1.00  0.00    -0.550 OA
ENDROOT
TORSDOF 0
ENDMDL
MODEL 5
REMARK VINA RESULT:    -2.337     11.689     12.227
REMARK INTER + INTRA:          -2.337
REMARK INTER:                  -2.337
REMARK INTRA:                   0.000
REMARK UNBOUND:                 0.000
REMARK SMILES CC(=O)[O-]
REMARK SMILES IDX 1 1 2 2 3 3 4 4
REMARK H PARENT
REMARK Flexibility Score: inf
ROOT
ATOM      1  C   UNL     1      38.182   9.481   2.322  1.00  0.00     0.063 C 
ATOM      2  C   UNL     1      38.481  10.698   3.129  1.00  0.00     0.038 C 
ATOM      3  O   UNL     1      37.542  11.404   3.581  1.00  0.00    -0.550 OA
ATOM      4  O   UNL     1      39.797  11.028   3.431  1.00  0.00    -0.550 OA
ENDROOT
TORSDOF 0
ENDMDL
MODEL 6
REMARK VINA RESULT:    -2.332      9.901     10.618
REMARK INTER + INTRA:          -2.332
REMARK INTER:                  -2.332
REMARK INTRA:                   0.000
REMARK UNBOUND:                 0.000
REMARK SMILES CC(=O)[O-]
REMARK SMILES IDX 1 1 2 2 3 3 4 4
REMARK H PARENT
REMARK Flexibility Score: inf
ROOT
ATOM      1  C   UNL     1      39.171   8.863  -5.170  1.00  0.00     0.063 C 
ATOM      2  C   UNL     1      38.136   8.482  -6.172  1.00  0.00     0.038 C 
ATOM      3  O   UNL     1      37.747   7.287  -6.257  1.00  0.00    -0.550 OA
ATOM      4  O   UNL     1      37.558   9.453  -6.981  1.00  0.00    -0.550 OA
ENDROOT
TORSDOF 0
ENDMDL
MODEL 7
REMARK VINA RESULT:    -2.329      9.480      9.720
REMARK INTER + INTRA:          -2.329
REMARK INTER:                  -2.329
REMARK INTRA:                   0.000
REMARK UNBOUND:                 0.000
REMARK SMILES CC(=O)[O-]
REMARK SMILES IDX 1 1 2 2 3 3 4 4
REMARK H PARENT
REMARK Flexibility Score: inf
ROOT
ATOM      1  C   UNL     1      46.688   6.416  -0.253  1.00  0.00     0.063 C 
ATOM      2  C   UNL     1      47.570   6.647   0.926  1.00  0.00     0.038 C 
ATOM      3  O   UNL     1      47.114   7.212   1.955  1.00  0.00    -0.550 OA
ATOM      4  O   UNL     1      48.883   6.192   0.914  1.00  0.00    -0.550 OA
ENDROOT
TORSDOF 0
ENDMDL
MODEL 8
REMARK VINA RESULT:    -2.276     11.458     12.033
REMARK INTER + INTRA:          -2.276
REMARK INTER:                  -2.276
REMARK INTRA:                   0.000
REMARK UNBOUND:                 0.000
REMARK SMILES CC(=O)[O-]
REMARK SMILES IDX 1 1 2 2 3 3 4 4
REMARK H PARENT
REMARK Flexibility Score: inf
ROOT
ATOM      1  C   UNL     1      37.637  11.364   3.567  1.00  0.00     0.063 C 
ATOM      2  C   UNL     1      38.739  10.481   3.087  1.00  0.00     0.038 C 
ATOM      3  O   UNL     1      39.903  10.617   3.546  1.00  0.00    -0.550 OA
ATOM      4  O   UNL     1      38.473   9.471   2.170  1.00  0.00    -0.550 OA
ENDROOT
TORSDOF 0
ENDMDL
MODEL 9
REMARK VINA RESULT:    -2.262      9.761     10.256
REMARK INTER + INTRA:          -2.262
REMARK INTER:                  -2.262
REMARK INTRA:                   0.000
REMARK UNBOUND:                 0.000
REMARK SMILES CC(=O)[O-]
REMARK SMILES IDX 1 1 2 2 3 3 4 4
REMARK H PARENT
REMARK Flexibility Score: inf
ROOT
ATOM      1  C   UNL     1      37.626   9.375  -6.943  1.00  0.00     0.063 C 
ATOM      2  C   UNL     1      38.292   8.496  -5.940  1.00  0.00     0.038 C 
ATOM      3  O   UNL     1      38.907   9.002  -4.965  1.00  0.00    -0.550 OA
ATOM      4  O   UNL     1      38.189   7.114  -6.048  1.00  0.00    -0.550 OA
ENDROOT
TORSDOF 0
ENDMDL
