MODEL 1
REMARK VINA RESULT:    -4.679      0.000      0.000
REMARK INTER + INTRA:          -6.024
REMARK INTER:                  -5.773
REMARK INTRA:                  -0.251
REMARK UNBOUND:                -0.251
REMARK SMILES CCCCC=CC(C)=O
REMARK SMILES IDX 4 1 3 2 2 3 1 4 5 5 6 6 7 7 9 8 8 9
REMARK H PARENT
REMARK Flexibility Score: inf
ROOT
ATOM      1  C   UNL     1      35.027  21.642  17.328  1.00  0.00     0.027 C 
ENDROOT
BRANCH   1   2
ATOM      2  C   UNL     1      34.230  20.749  16.361  1.00  0.00     0.004 C 
BRANCH   2   3
ATOM      3  C   UNL     1      35.093  19.742  15.580  1.00  0.00    -0.003 C 
ATOM      4  C   UNL     1      34.798  18.290  15.955  1.00  0.00     0.004 C 
ENDBRANCH   2   3
ENDBRANCH   1   2
BRANCH   1   5
ATOM      5  C   UNL     1      34.478  21.613  18.727  1.00  0.00    -0.023 C 
ATOM      6  C   UNL     1      33.550  20.722  19.095  1.00  0.00     0.042 C 
BRANCH   6   7
ATOM      7  C   UNL     1      32.983  20.657  20.457  1.00  0.00     0.152 C 
ATOM      8  O   UNL     1      32.374  19.613  20.809  1.00  0.00    -0.295 OA
ATOM      9  C   UNL     1      33.107  21.788  21.434  1.00  0.00     0.093 C 
ENDBRANCH   6   7
ENDBRANCH   1   5
TORSDOF 4
ENDMDL
MODEL 2
REMARK VINA RESULT:    -4.644      2.405      4.598
REMARK INTER + INTRA:          -5.981
REMARK INTER:                  -5.747
REMARK INTRA:                  -0.233
REMARK UNBOUND:                -0.251
REMARK SMILES CCCCC=CC(C)=O
REMARK SMILES IDX 4 1 3 2 2 3 1 4 5 5 6 6 7 7 9 8 8 9
REMARK H PARENT
REMARK Flexibility Score: inf
ROOT
ATOM      1  C   UNL     1      34.879  21.256  17.080  1.00  0.00     0.027 C 
ENDROOT
BRANCH   1   2
ATOM      2  C   UNL     1      34.613  21.695  18.530  1.00  0.00     0.004 C 
BRANCH   2   3
ATOM      3  C   UNL     1      33.408  20.999  19.187  1.00  0.00    -0.003 C 
ATOM      4  C   UNL     1      33.529  20.910  20.708  1.00  0.00     0.004 C 
ENDBRANCH   2   3
ENDBRANCH   1   2
BRANCH   1   5
ATOM      5  C   UNL     1      34.038  20.080  16.669  1.00  0.00    -0.023 C 
ATOM      6  C   UNL     1      34.590  18.903  16.349  1.00  0.00     0.042 C 
BRANCH   6   7
ATOM      7  C   UNL     1      33.802  17.723  15.940  1.00  0.00     0.152 C 
ATOM      8  O   UNL     1      34.385  16.795  15.317  1.00  0.00    -0.295 OA
ATOM      9  C   UNL     1      32.339  17.590  16.237  1.00  0.00     0.093 C 
ENDBRANCH   6   7
ENDBRANCH   1   5
TORSDOF 4
ENDMDL
MODEL 3
REMARK VINA RESULT:    -4.433      1.530      2.560
REMARK INTER + INTRA:          -5.720
REMARK INTER:                  -5.543
REMARK INTRA:                  -0.177
REMARK UNBOUND:                -0.251
REMARK SMILES CCCCC=CC(C)=O
REMARK SMILES IDX 4 1 3 2 2 3 1 4 5 5 6 6 7 7 9 8 8 9
REMARK H PARENT
REMARK Flexibility Score: inf
ROOT
ATOM      1  C   UNL     1      33.469  20.626  18.981  1.00  0.00     0.027 C 
ENDROOT
BRANCH   1   2
ATOM      2  C   UNL     1      34.562  21.641  18.602  1.00  0.00     0.004 C 
BRANCH   2   3
ATOM      3  C   UNL     1      34.980  21.591  17.122  1.00  0.00    -0.003 C 
ATOM      4  C   UNL     1      34.393  20.390  16.380  1.00  0.00     0.004 C 
ENDBRANCH   2   3
ENDBRANCH   1   2
BRANCH   1   5
ATOM      5  C   UNL     1      33.201  20.591  20.460  1.00  0.00    -0.023 C 
ATOM      6  C   UNL     1      33.154  21.713  21.189  1.00  0.00     0.042 C 
BRANCH   6   7
ATOM      7  C   UNL     1      32.894  21.724  22.642  1.00  0.00     0.152 C 
ATOM      8  O   UNL     1      31.953  22.437  23.081  1.00  0.00    -0.295 OA
ATOM      9  C   UNL     1      33.708  20.921  23.612  1.00  0.00     0.093 C 
ENDBRANCH   6   7
ENDBRANCH   1   5
TORSDOF 4
ENDMDL
MODEL 4
REMARK VINA RESULT:    -4.392      1.635      2.665
REMARK INTER + INTRA:          -5.670
REMARK INTER:                  -5.381
REMARK INTRA:                  -0.289
REMARK UNBOUND:                -0.251
REMARK SMILES CCCCC=CC(C)=O
REMARK SMILES IDX 4 1 3 2 2 3 1 4 5 5 6 6 7 7 9 8 8 9
REMARK H PARENT
REMARK Flexibility Score: inf
ROOT
ATOM      1  C   UNL     1      32.739  17.490  16.435  1.00  0.00     0.027 C 
ENDROOT
BRANCH   1   2
ATOM      2  C   UNL     1      34.045  17.805  15.685  1.00  0.00     0.004 C 
BRANCH   2   3
ATOM      3  C   UNL     1      34.143  19.253  15.173  1.00  0.00    -0.003 C 
ATOM      4  C   UNL     1      35.321  20.018  15.776  1.00  0.00     0.004 C 
ENDBRANCH   2   3
ENDBRANCH   1   2
BRANCH   1   5
ATOM      5  C   UNL     1      32.396  18.534  17.461  1.00  0.00    -0.023 C 
ATOM      6  C   UNL     1      32.956  18.529  18.677  1.00  0.00     0.042 C 
BRANCH   6   7
ATOM      7  C   UNL     1      32.648  19.534  19.715  1.00  0.00     0.152 C 
ATOM      8  O   UNL     1      31.690  19.313  20.502  1.00  0.00    -0.295 OA
ATOM      9  C   UNL     1      33.433  20.803  19.864  1.00  0.00     0.093 C 
ENDBRANCH   6   7
ENDBRANCH   1   5
TORSDOF 4
ENDMDL
MODEL 5
REMARK VINA RESULT:    -4.363      2.168      4.997
REMARK INTER + INTRA:          -5.634
REMARK INTER:                  -5.480
REMARK INTRA:                  -0.153
REMARK UNBOUND:                -0.251
REMARK SMILES CCCCC=CC(C)=O
REMARK SMILES IDX 4 1 3 2 2 3 1 4 5 5 6 6 7 7 9 8 8 9
REMARK H PARENT
REMARK Flexibility Score: inf
ROOT
ATOM      1  C   UNL     1      34.248  21.758  19.216  1.00  0.00     0.027 C 
ENDROOT
BRANCH   1   2
ATOM      2  C   UNL     1      33.265  20.815  19.931  1.00  0.00     0.004 C 
BRANCH   2   3
ATOM      3  C   UNL     1      33.359  20.856  21.466  1.00  0.00    -0.003 C 
ATOM      4  C   UNL     1      32.912  22.195  22.053  1.00  0.00     0.004 C 
ENDBRANCH   2   3
ENDBRANCH   1   2
BRANCH   1   5
ATOM      5  C   UNL     1      34.597  21.288  17.831  1.00  0.00    -0.023 C 
ATOM      6  C   UNL     1      33.718  20.614  17.080  1.00  0.00     0.042 C 
BRANCH   6   7
ATOM      7  C   UNL     1      34.018  20.134  15.716  1.00  0.00     0.152 C 
ATOM      8  O   UNL     1      33.082  20.082  14.875  1.00  0.00    -0.295 OA
ATOM      9  C   UNL     1      35.393  19.707  15.298  1.00  0.00     0.093 C 
ENDBRANCH   6   7
ENDBRANCH   1   5
TORSDOF 4
ENDMDL
MODEL 6
REMARK VINA RESULT:    -4.302      8.157     11.417
REMARK INTER + INTRA:          -5.559
REMARK INTER:                  -5.287
REMARK INTRA:                  -0.273
REMARK UNBOUND:                -0.251
REMARK SMILES CCCCC=CC(C)=O
REMARK SMILES IDX 4 1 3 2 2 3 1 4 5 5 6 6 7 7 9 8 8 9
REMARK H PARENT
REMARK Flexibility Score: inf
ROOT
ATOM      1  C   UNL     1      26.980  18.257  28.062  1.00  0.00     0.027 C 
ENDROOT
BRANCH   1   2
ATOM      2  C   UNL     1      25.981  19.419  28.204  1.00  0.00     0.004 C 
BRANCH   2   3
ATOM      3  C   UNL     1      26.584  20.805  27.913  1.00  0.00    -0.003 C 
ATOM      4  C   UNL     1      27.299  21.407  29.122  1.00  0.00     0.004 C 
ENDBRANCH   2   3
ENDBRANCH   1   2
BRANCH   1   5
ATOM      5  C   UNL     1      27.859  18.395  26.850  1.00  0.00    -0.023 C 
ATOM      6  C   UNL     1      29.188  18.262  26.932  1.00  0.00     0.042 C 
BRANCH   6   7
ATOM      7  C   UNL     1      30.088  18.389  25.768  1.00  0.00     0.152 C 
ATOM      8  O   UNL     1      31.259  17.932  25.858  1.00  0.00    -0.295 OA
ATOM      9  C   UNL     1      29.660  19.042  24.488  1.00  0.00     0.093 C 
ENDBRANCH   6   7
ENDBRANCH   1   5
TORSDOF 4
ENDMDL
MODEL 7
REMARK VINA RESULT:    -4.268      2.470      5.080
REMARK INTER + INTRA:          -5.518
REMARK INTER:                  -5.338
REMARK INTRA:                  -0.180
REMARK UNBOUND:                -0.251
REMARK SMILES CCCCC=CC(C)=O
REMARK SMILES IDX 4 1 3 2 2 3 1 4 5 5 6 6 7 7 9 8 8 9
REMARK H PARENT
REMARK Flexibility Score: inf
ROOT
ATOM      1  C   UNL     1      31.693  19.259  18.975  1.00  0.00     0.027 C 
ENDROOT
BRANCH   1   2
ATOM      2  C   UNL     1      32.603  19.632  20.159  1.00  0.00     0.004 C 
BRANCH   2   3
ATOM      3  C   UNL     1      33.185  21.054  20.080  1.00  0.00    -0.003 C 
ATOM      4  C   UNL     1      33.120  21.797  21.414  1.00  0.00     0.004 C 
ENDBRANCH   2   3
ENDBRANCH   1   2
BRANCH   1   5
ATOM      5  C   UNL     1      32.446  19.157  17.677  1.00  0.00    -0.023 C 
ATOM      6  C   UNL     1      33.469  18.308  17.527  1.00  0.00     0.042 C 
BRANCH   6   7
ATOM      7  C   UNL     1      34.236  18.176  16.272  1.00  0.00     0.152 C 
ATOM      8  O   UNL     1      33.996  17.194  15.520  1.00  0.00    -0.295 OA
ATOM      9  C   UNL     1      35.287  19.164  15.864  1.00  0.00     0.093 C 
ENDBRANCH   6   7
ENDBRANCH   1   5
TORSDOF 4
ENDMDL
MODEL 8
REMARK VINA RESULT:    -4.265      8.085     11.339
REMARK INTER + INTRA:          -5.513
REMARK INTER:                  -5.243
REMARK INTRA:                  -0.270
REMARK UNBOUND:                -0.251
REMARK SMILES CCCCC=CC(C)=O
REMARK SMILES IDX 4 1 3 2 2 3 1 4 5 5 6 6 7 7 9 8 8 9
REMARK H PARENT
REMARK Flexibility Score: inf
ROOT
ATOM      1  C   UNL     1      28.740  17.887  28.786  1.00  0.00     0.027 C 
ENDROOT
BRANCH   1   2
ATOM      2  C   UNL     1      27.332  18.373  28.399  1.00  0.00     0.004 C 
BRANCH   2   3
ATOM      3  C   UNL     1      26.903  19.676  29.097  1.00  0.00    -0.003 C 
ATOM      4  C   UNL     1      28.002  20.267  29.979  1.00  0.00     0.004 C 
ENDBRANCH   2   3
ENDBRANCH   1   2
BRANCH   1   5
ATOM      5  C   UNL     1      29.710  17.952  27.640  1.00  0.00    -0.023 C 
ATOM      6  C   UNL     1      29.354  18.453  26.451  1.00  0.00     0.042 C 
BRANCH   6   7
ATOM      7  C   UNL     1      30.273  18.536  25.298  1.00  0.00     0.152 C 
ATOM      8  O   UNL     1      29.845  19.024  24.219  1.00  0.00    -0.295 OA
ATOM      9  C   UNL     1      31.693  18.060  25.366  1.00  0.00     0.093 C 
ENDBRANCH   6   7
ENDBRANCH   1   5
TORSDOF 4
ENDMDL
MODEL 9
REMARK VINA RESULT:    -4.242      7.220     10.346
REMARK INTER + INTRA:          -5.485
REMARK INTER:                  -5.245
REMARK INTRA:                  -0.241
REMARK UNBOUND:                -0.251
REMARK SMILES CCCCC=CC(C)=O
REMARK SMILES IDX 4 1 3 2 2 3 1 4 5 5 6 6 7 7 9 8 8 9
REMARK H PARENT
REMARK Flexibility Score: inf
ROOT
ATOM      1  C   UNL     1      27.510  19.510  26.937  1.00  0.00     0.027 C 
ENDROOT
BRANCH   1   2
ATOM      2  C   UNL     1      27.530  18.265  27.841  1.00  0.00     0.004 C 
BRANCH   2   3
ATOM      3  C   UNL     1      28.572  18.327  28.972  1.00  0.00    -0.003 C 
ATOM      4  C   UNL     1      29.650  17.251  28.846  1.00  0.00     0.004 C 
ENDBRANCH   2   3
ENDBRANCH   1   2
BRANCH   1   5
ATOM      5  C   UNL     1      28.746  19.631  26.092  1.00  0.00    -0.023 C 
ATOM      6  C   UNL     1      28.942  18.848  25.024  1.00  0.00     0.042 C 
BRANCH   6   7
ATOM      7  C   UNL     1      30.141  18.931  24.166  1.00  0.00     0.152 C 
ATOM      8  O   UNL     1      31.256  18.607  24.654  1.00  0.00    -0.295 OA
ATOM      9  C   UNL     1      30.079  19.387  22.739  1.00  0.00     0.093 C 
ENDBRANCH   6   7
ENDBRANCH   1   5
TORSDOF 4
ENDMDL
