MODEL 1
REMARK VINA RESULT:    -3.593      0.000      0.000
REMARK INTER + INTRA:          -5.858
REMARK INTER:                  -5.484
REMARK INTRA:                  -0.374
REMARK UNBOUND:                -0.374
REMARK SMILES CC1=CCC[C@@H](C)C(=O)C[C@H](C(C)C)C(=O)C1
REMARK SMILES IDX 8 1 9 2 6 3 7 4 5 5 4 6 3 7 2 8 1 9 10 11 11 12 15 13 16 14
REMARK SMILES IDX 17 15 12 17 13 18 14 19
REMARK H PARENT
REMARK Flexibility Score: 70.00
ROOT
ATOM      1  C   UNL     1      18.361  27.352  28.291  1.00  0.00     0.136 C 
ATOM      2  O   UNL     1      18.618  27.958  27.260  1.00  0.00    -0.299 OA
ENDROOT
BRANCH   1   3
ATOM      3  C   UNL     1      18.225  25.837  28.265  1.00  0.00     0.053 C 
ATOM      4  C   UNL     1      19.450  25.150  27.630  1.00  0.00     0.016 C 
BRANCH   3   5
ATOM      5  C   UNL     1      16.912  25.347  27.606  1.00  0.00     0.015 C 
BRANCH   5   6
ATOM      6  C   UNL     1      15.617  25.774  28.332  1.00  0.00     0.028 C 
BRANCH   6   7
ATOM      7  C   UNL     1      15.489  25.118  29.690  1.00  0.00    -0.028 C 
ATOM      8  C   UNL     1      15.239  25.736  30.870  1.00  0.00    -0.070 CG0
ATOM      9  C   UNL     1      15.079  24.866  32.091  1.00  0.00     0.039 C 
ATOM     10  G   UNL     1      14.996  27.226  31.015  1.00  0.00     0.000 G0
ENDBRANCH   6   7
ENDBRANCH   5   6
ENDBRANCH   3   5
ENDBRANCH   1   3
BRANCH   1  11
ATOM     11  C   UNL     1      18.347  28.097  29.609  1.00  0.00     0.087 C 
BRANCH  11  12
ATOM     12  C   UNL     1      16.976  28.725  29.986  1.00  0.00     0.066 C 
BRANCH  12  13
ATOM     13  C   UNL     1      16.261  28.050  31.167  1.00  0.00     0.140 C 
ATOM     14  O   UNL     1      16.690  28.251  32.294  1.00  0.00    -0.299 OA
BRANCH  13  15
ATOM     15  C   UNL     1      14.992  27.227  31.052  1.00  0.00     0.106 CG0
ATOM     16  G   UNL     1      15.260  25.745  30.866  1.00  0.00     0.000 G0
ENDBRANCH  13  15
ENDBRANCH  12  13
BRANCH  12  17
ATOM     17  C   UNL     1      17.131  30.273  30.169  1.00  0.00    -0.006 C 
ATOM     18  C   UNL     1      15.896  31.069  29.718  1.00  0.00     0.008 C 
ATOM     19  C   UNL     1      18.397  30.829  29.496  1.00  0.00     0.008 C 
ENDBRANCH  12  17
ENDBRANCH  11  12
ENDBRANCH   1  11
TORSDOF 1
ENDMDL
MODEL 2
REMARK VINA RESULT:    -3.549      3.128      4.992
REMARK INTER + INTRA:          -5.789
REMARK INTER:                  -5.572
REMARK INTRA:                  -0.217
REMARK UNBOUND:                -0.374
REMARK SMILES CC1=CCC[C@@H](C)C(=O)C[C@H](C(C)C)C(=O)C1
REMARK SMILES IDX 8 1 9 2 6 3 7 4 5 5 4 6 3 7 2 8 1 9 10 11 11 12 15 13 16 14
REMARK SMILES IDX 17 15 12 17 13 18 14 19
REMARK H PARENT
REMARK Flexibility Score: 70.00
ROOT
ATOM      1  C   UNL     1      18.620  29.352  29.251  1.00  0.00     0.136 C 
ATOM      2  O   UNL     1      18.397  30.279  30.018  1.00  0.00    -0.299 OA
ENDROOT
BRANCH   1   3
ATOM      3  C   UNL     1      17.463  28.544  28.682  1.00  0.00     0.053 C 
ATOM      4  C   UNL     1      16.618  27.877  29.784  1.00  0.00     0.016 C 
BRANCH   3   5
ATOM      5  C   UNL     1      17.898  27.511  27.615  1.00  0.00     0.015 C 
BRANCH   5   6
ATOM      6  C   UNL     1      17.956  26.047  28.107  1.00  0.00     0.028 C 
BRANCH   6   7
ATOM      7  C   UNL     1      19.108  25.288  27.484  1.00  0.00    -0.028 C 
ATOM      8  C   UNL     1      20.352  25.134  27.999  1.00  0.00    -0.070 CG0
ATOM      9  C   UNL     1      21.320  24.268  27.233  1.00  0.00     0.039 C 
ATOM     10  G   UNL     1      20.788  25.679  29.345  1.00  0.00     0.000 G0
ENDBRANCH   6   7
ENDBRANCH   5   6
ENDBRANCH   3   5
ENDBRANCH   1   3
BRANCH   1  11
ATOM     11  C   UNL     1      20.029  29.125  28.747  1.00  0.00     0.087 C 
BRANCH  11  12
ATOM     12  C   UNL     1      20.961  28.370  29.737  1.00  0.00     0.066 C 
BRANCH  12  13
ATOM     13  C   UNL     1      21.512  27.035  29.212  1.00  0.00     0.140 C 
ATOM     14  O   UNL     1      22.633  27.024  28.726  1.00  0.00    -0.299 OA
BRANCH  13  15
ATOM     15  C   UNL     1      20.806  25.699  29.342  1.00  0.00     0.106 CG0
ATOM     16  G   UNL     1      20.329  25.147  28.012  1.00  0.00     0.000 G0
ENDBRANCH  13  15
ENDBRANCH  12  13
BRANCH  12  17
ATOM     17  C   UNL     1      22.082  29.333  30.254  1.00  0.00    -0.006 C 
ATOM     18  C   UNL     1      22.261  29.300  31.780  1.00  0.00     0.008 C 
ATOM     19  C   UNL     1      21.894  30.782  29.772  1.00  0.00     0.008 C 
ENDBRANCH  12  17
ENDBRANCH  11  12
ENDBRANCH   1  11
TORSDOF 1
ENDMDL
MODEL 3
REMARK VINA RESULT:    -3.521      4.197      6.480
REMARK INTER + INTRA:          -5.747
REMARK INTER:                  -5.406
REMARK INTRA:                  -0.341
REMARK UNBOUND:                -0.374
REMARK SMILES CC1=CCC[C@@H](C)C(=O)C[C@H](C(C)C)C(=O)C1
REMARK SMILES IDX 8 1 9 2 6 3 7 4 5 5 4 6 3 7 2 8 1 9 10 11 11 12 15 13 16 14
REMARK SMILES IDX 17 15 12 17 13 18 14 19
REMARK H PARENT
REMARK Flexibility Score: 70.00
ROOT
ATOM      1  C   UNL     1      19.355  29.437  29.740  1.00  0.00     0.136 C 
ATOM      2  O   UNL     1      18.863  28.446  30.263  1.00  0.00    -0.299 OA
ENDROOT
BRANCH   1   3
ATOM      3  C   UNL     1      20.868  29.581  29.666  1.00  0.00     0.053 C 
ATOM      4  C   UNL     1      21.536  28.385  28.960  1.00  0.00     0.016 C 
BRANCH   3   5
ATOM      5  C   UNL     1      21.530  29.855  31.039  1.00  0.00     0.015 C 
BRANCH   5   6
ATOM      6  C   UNL     1      21.112  31.181  31.714  1.00  0.00     0.028 C 
BRANCH   6   7
ATOM      7  C   UNL     1      21.504  32.384  30.883  1.00  0.00    -0.028 C 
ATOM      8  C   UNL     1      20.694  33.395  30.485  1.00  0.00    -0.070 CG0
ATOM      9  C   UNL     1      21.324  34.533  29.723  1.00  0.00     0.039 C 
ATOM     10  G   UNL     1      19.229  33.507  30.858  1.00  0.00     0.000 G0
ENDBRANCH   6   7
ENDBRANCH   5   6
ENDBRANCH   3   5
ENDBRANCH   1   3
BRANCH   1  11
ATOM     11  C   UNL     1      18.458  30.425  29.026  1.00  0.00     0.087 C 
BRANCH  11  12
ATOM     12  C   UNL     1      17.747  31.448  29.956  1.00  0.00     0.066 C 
BRANCH  12  13
ATOM     13  C   UNL     1      18.281  32.886  29.861  1.00  0.00     0.140 C 
ATOM     14  O   UNL     1      17.863  33.599  28.961  1.00  0.00    -0.299 OA
BRANCH  13  15
ATOM     15  C   UNL     1      19.221  33.525  30.864  1.00  0.00     0.106 CG0
ATOM     16  G   UNL     1      20.682  33.394  30.479  1.00  0.00     0.000 G0
ENDBRANCH  13  15
ENDBRANCH  12  13
BRANCH  12  17
ATOM     17  C   UNL     1      16.195  31.359  29.758  1.00  0.00    -0.006 C 
ATOM     18  C   UNL     1      15.402  32.232  30.743  1.00  0.00     0.008 C 
ATOM     19  C   UNL     1      15.672  29.912  29.790  1.00  0.00     0.008 C 
ENDBRANCH  12  17
ENDBRANCH  11  12
ENDBRANCH   1  11
TORSDOF 1
ENDMDL
MODEL 4
REMARK VINA RESULT:    -3.481      3.126      6.302
REMARK INTER + INTRA:          -5.687
REMARK INTER:                  -5.346
REMARK INTRA:                  -0.340
REMARK UNBOUND:                -0.374
REMARK SMILES CC1=CCC[C@@H](C)C(=O)C[C@H](C(C)C)C(=O)C1
REMARK SMILES IDX 8 1 9 2 6 3 7 4 5 5 4 6 3 7 2 8 1 9 10 11 11 12 15 13 16 14
REMARK SMILES IDX 17 15 12 17 13 18 14 19
REMARK H PARENT
REMARK Flexibility Score: 70.00
ROOT
ATOM      1  C   UNL     1      15.985  30.511  29.970  1.00  0.00     0.136 C 
ATOM      2  O   UNL     1      14.993  29.974  29.495  1.00  0.00    -0.299 OA
ENDROOT
BRANCH   1   3
ATOM      3  C   UNL     1      15.989  32.014  30.210  1.00  0.00     0.053 C 
ATOM      4  C   UNL     1      16.405  32.805  28.955  1.00  0.00     0.016 C 
BRANCH   3   5
ATOM      5  C   UNL     1      16.831  32.439  31.438  1.00  0.00     0.015 C 
BRANCH   5   6
ATOM      6  C   UNL     1      18.075  33.296  31.114  1.00  0.00     0.028 C 
BRANCH   6   7
ATOM      7  C   UNL     1      19.331  32.724  31.734  1.00  0.00    -0.028 C 
ATOM      8  C   UNL     1      20.182  31.833  31.171  1.00  0.00    -0.070 CG0
ATOM      9  C   UNL     1      21.417  31.460  31.951  1.00  0.00     0.039 C 
ATOM     10  G   UNL     1      20.030  31.283  29.765  1.00  0.00     0.000 G0
ENDBRANCH   6   7
ENDBRANCH   5   6
ENDBRANCH   3   5
ENDBRANCH   1   3
BRANCH   1  11
ATOM     11  C   UNL     1      17.130  29.655  30.466  1.00  0.00     0.087 C 
BRANCH  11  12
ATOM     12  C   UNL     1      18.201  29.315  29.392  1.00  0.00     0.066 C 
BRANCH  12  13
ATOM     13  C   UNL     1      19.619  29.814  29.714  1.00  0.00     0.140 C 
ATOM     14  O   UNL     1      20.502  28.984  29.866  1.00  0.00    -0.299 OA
BRANCH  13  15
ATOM     15  C   UNL     1      20.030  31.272  29.761  1.00  0.00     0.106 CG0
ATOM     16  G   UNL     1      20.187  31.802  31.173  1.00  0.00     0.000 G0
ENDBRANCH  13  15
ENDBRANCH  12  13
BRANCH  12  17
ATOM     17  C   UNL     1      18.153  27.785  29.058  1.00  0.00    -0.006 C 
ATOM     18  C   UNL     1      18.235  27.485  27.553  1.00  0.00     0.008 C 
ATOM     19  C   UNL     1      16.935  27.077  29.675  1.00  0.00     0.008 C 
ENDBRANCH  12  17
ENDBRANCH  11  12
ENDBRANCH   1  11
TORSDOF 1
ENDMDL
MODEL 5
REMARK VINA RESULT:    -3.478      1.773      2.362
REMARK INTER + INTRA:          -5.683
REMARK INTER:                  -5.414
REMARK INTRA:                  -0.269
REMARK UNBOUND:                -0.374
REMARK SMILES CC1=CCC[C@@H](C)C(=O)C[C@H](C(C)C)C(=O)C1
REMARK SMILES IDX 8 1 9 2 6 3 7 4 5 5 4 6 3 7 2 8 1 9 10 11 11 12 15 13 16 14
REMARK SMILES IDX 17 15 12 17 13 18 14 19
REMARK H PARENT
REMARK Flexibility Score: 70.00
ROOT
ATOM      1  C   UNL     1      20.508  28.264  29.240  1.00  0.00     0.136 C 
ATOM      2  O   UNL     1      21.560  28.627  28.732  1.00  0.00    -0.299 OA
ENDROOT
BRANCH   1   3
ATOM      3  C   UNL     1      19.962  26.876  28.938  1.00  0.00     0.053 C 
ATOM      4  C   UNL     1      21.031  25.779  29.097  1.00  0.00     0.016 C 
BRANCH   3   5
ATOM      5  C   UNL     1      19.265  26.775  27.558  1.00  0.00     0.015 C 
BRANCH   5   6
ATOM      6  C   UNL     1      17.842  27.375  27.499  1.00  0.00     0.028 C 
BRANCH   6   7
ATOM      7  C   UNL     1      16.915  26.729  28.506  1.00  0.00    -0.028 C 
ATOM      8  C   UNL     1      16.171  27.360  29.447  1.00  0.00    -0.070 CG0
ATOM      9  C   UNL     1      15.258  26.513  30.296  1.00  0.00     0.039 C 
ATOM     10  G   UNL     1      16.114  28.866  29.617  1.00  0.00     0.000 G0
ENDBRANCH   6   7
ENDBRANCH   5   6
ENDBRANCH   3   5
ENDBRANCH   1   3
BRANCH   1  11
ATOM     11  C   UNL     1      19.849  29.131  30.291  1.00  0.00     0.087 C 
BRANCH  11  12
ATOM     12  C   UNL     1      18.590  29.901  29.804  1.00  0.00     0.066 C 
BRANCH  12  13
ATOM     13  C   UNL     1      17.264  29.423  30.416  1.00  0.00     0.140 C 
ATOM     14  O   UNL     1      17.097  29.569  31.617  1.00  0.00    -0.299 OA
BRANCH  13  15
ATOM     15  C   UNL     1      16.097  28.868  29.622  1.00  0.00     0.106 CG0
ATOM     16  G   UNL     1      16.160  27.364  29.444  1.00  0.00     0.000 G0
ENDBRANCH  13  15
ENDBRANCH  12  13
BRANCH  12  17
ATOM     17  C   UNL     1      18.814  31.444  29.961  1.00  0.00    -0.006 C 
ATOM     18  C   UNL     1      17.856  32.291  29.109  1.00  0.00     0.008 C 
ATOM     19  C   UNL     1      20.271  31.864  29.700  1.00  0.00     0.008 C 
ENDBRANCH  12  17
ENDBRANCH  11  12
ENDBRANCH   1  11
TORSDOF 1
ENDMDL
MODEL 6
REMARK VINA RESULT:    -3.444      3.395      6.077
REMARK INTER + INTRA:          -5.630
REMARK INTER:                  -5.270
REMARK INTRA:                  -0.359
REMARK UNBOUND:                -0.374
REMARK SMILES CC1=CCC[C@@H](C)C(=O)C[C@H](C(C)C)C(=O)C1
REMARK SMILES IDX 8 1 9 2 6 3 7 4 5 5 4 6 3 7 2 8 1 9 10 11 11 12 15 13 16 14
REMARK SMILES IDX 17 15 12 17 13 18 14 19
REMARK H PARENT
REMARK Flexibility Score: 70.00
ROOT
ATOM      1  C   UNL     1      16.785  28.718  30.805  1.00  0.00     0.136 C 
ATOM      2  O   UNL     1      16.582  27.512  30.851  1.00  0.00    -0.299 OA
ENDROOT
BRANCH   1   3
ATOM      3  C   UNL     1      15.637  29.688  31.035  1.00  0.00     0.053 C 
ATOM      4  C   UNL     1      15.025  30.195  29.715  1.00  0.00     0.016 C 
BRANCH   3   5
ATOM      5  C   UNL     1      16.007  30.871  31.965  1.00  0.00     0.015 C 
BRANCH   5   6
ATOM      6  C   UNL     1      15.984  32.263  31.294  1.00  0.00     0.028 C 
BRANCH   6   7
ATOM      7  C   UNL     1      17.238  33.054  31.594  1.00  0.00    -0.028 C 
ATOM      8  C   UNL     1      18.330  33.179  30.801  1.00  0.00    -0.070 CG0
ATOM      9  C   UNL     1      19.437  34.086  31.276  1.00  0.00     0.039 C 
ATOM     10  G   UNL     1      18.453  32.561  29.421  1.00  0.00     0.000 G0
ENDBRANCH   6   7
ENDBRANCH   5   6
ENDBRANCH   3   5
ENDBRANCH   1   3
BRANCH   1  11
ATOM     11  C   UNL     1      18.205  29.229  30.684  1.00  0.00     0.087 C 
BRANCH  11  12
ATOM     12  C   UNL     1      18.552  29.870  29.311  1.00  0.00     0.066 C 
BRANCH  12  13
ATOM     13  C   UNL     1      19.215  31.254  29.394  1.00  0.00     0.140 C 
ATOM     14  O   UNL     1      20.435  31.312  29.374  1.00  0.00    -0.299 OA
BRANCH  13  15
ATOM     15  C   UNL     1      18.464  32.572  29.400  1.00  0.00     0.106 CG0
ATOM     16  G   UNL     1      18.330  33.174  30.786  1.00  0.00     0.000 G0
ENDBRANCH  13  15
ENDBRANCH  12  13
BRANCH  12  17
ATOM     17  C   UNL     1      19.365  28.854  28.438  1.00  0.00    -0.006 C 
ATOM     18  C   UNL     1      18.477  27.912  27.611  1.00  0.00     0.008 C 
ATOM     19  C   UNL     1      20.381  28.042  29.260  1.00  0.00     0.008 C 
ENDBRANCH  12  17
ENDBRANCH  11  12
ENDBRANCH   1  11
TORSDOF 1
ENDMDL
MODEL 7
REMARK VINA RESULT:    -3.418      3.594      5.915
REMARK INTER + INTRA:          -5.590
REMARK INTER:                  -5.251
REMARK INTRA:                  -0.339
REMARK UNBOUND:                -0.374
REMARK SMILES CC1=CCC[C@@H](C)C(=O)C[C@H](C(C)C)C(=O)C1
REMARK SMILES IDX 8 1 9 2 6 3 7 4 5 5 4 6 3 7 2 8 1 9 10 11 11 12 15 13 16 14
REMARK SMILES IDX 17 15 12 17 13 18 14 19
REMARK H PARENT
REMARK Flexibility Score: 70.00
ROOT
ATOM      1  C   UNL     1      20.981  28.316  29.240  1.00  0.00     0.136 C 
ATOM      2  O   UNL     1      20.932  27.163  29.646  1.00  0.00    -0.299 OA
ENDROOT
BRANCH   1   3
ATOM      3  C   UNL     1      22.310  29.056  29.220  1.00  0.00     0.053 C 
ATOM      4  C   UNL     1      23.381  28.314  28.398  1.00  0.00     0.016 C 
BRANCH   3   5
ATOM      5  C   UNL     1      22.840  29.409  30.632  1.00  0.00     0.015 C 
BRANCH   5   6
ATOM      6  C   UNL     1      21.970  30.409  31.426  1.00  0.00     0.028 C 
BRANCH   6   7
ATOM      7  C   UNL     1      21.621  31.630  30.604  1.00  0.00    -0.028 C 
ATOM      8  C   UNL     1      20.380  32.113  30.353  1.00  0.00    -0.070 CG0
ATOM      9  C   UNL     1      20.277  33.395  29.566  1.00  0.00     0.039 C 
ATOM     10  G   UNL     1      19.104  31.510  30.910  1.00  0.00     0.000 G0
ENDBRANCH   6   7
ENDBRANCH   5   6
ENDBRANCH   3   5
ENDBRANCH   1   3
BRANCH   1  11
ATOM     11  C   UNL     1      19.752  28.935  28.608  1.00  0.00     0.087 C 
BRANCH  11  12
ATOM     12  C   UNL     1      18.580  29.206  29.593  1.00  0.00     0.066 C 
BRANCH  12  13
ATOM     13  C   UNL     1      18.323  30.690  29.898  1.00  0.00     0.140 C 
ATOM     14  O   UNL     1      17.380  31.238  29.348  1.00  0.00    -0.299 OA
BRANCH  13  15
ATOM     15  C   UNL     1      19.097  31.508  30.913  1.00  0.00     0.106 CG0
ATOM     16  G   UNL     1      20.383  32.088  30.355  1.00  0.00     0.000 G0
ENDBRANCH  13  15
ENDBRANCH  12  13
BRANCH  12  17
ATOM     17  C   UNL     1      17.295  28.450  29.111  1.00  0.00    -0.006 C 
ATOM     18  C   UNL     1      16.337  28.081  30.256  1.00  0.00     0.008 C 
ATOM     19  C   UNL     1      17.616  27.205  28.266  1.00  0.00     0.008 C 
ENDBRANCH  12  17
ENDBRANCH  11  12
ENDBRANCH   1  11
TORSDOF 1
ENDMDL
MODEL 8
REMARK VINA RESULT:    -3.185      3.641      5.137
REMARK INTER + INTRA:          -5.234
REMARK INTER:                  -5.472
REMARK INTRA:                   0.237
REMARK UNBOUND:                -0.374
REMARK SMILES CC1=CCC[C@@H](C)C(=O)C[C@H](C(C)C)C(=O)C1
REMARK SMILES IDX 8 1 9 2 6 3 7 4 5 5 4 6 3 7 2 8 1 9 10 11 11 12 15 13 16 14
REMARK SMILES IDX 17 15 12 17 13 18 14 19
REMARK H PARENT
REMARK Flexibility Score: 70.00
ROOT
ATOM      1  C   UNL     1      18.057  29.049  29.022  1.00  0.00     0.136 C 
ATOM      2  O   UNL     1      17.025  28.579  29.482  1.00  0.00    -0.299 OA
ENDROOT
BRANCH   1   3
ATOM      3  C   UNL     1      18.977  28.175  28.182  1.00  0.00     0.053 C 
ATOM      4  C   UNL     1      18.241  26.968  27.571  1.00  0.00     0.016 C 
BRANCH   3   5
ATOM      5  C   UNL     1      20.253  27.723  28.935  1.00  0.00     0.015 C 
BRANCH   5   6
ATOM      6  C   UNL     1      21.391  28.768  28.978  1.00  0.00     0.028 C 
BRANCH   6   7
ATOM      7  C   UNL     1      21.939  28.946  30.378  1.00  0.00    -0.028 C 
ATOM      8  C   UNL     1      21.735  30.002  31.202  1.00  0.00    -0.070 CG0
ATOM      9  C   UNL     1      22.323  29.928  32.588  1.00  0.00     0.039 C 
ATOM     10  G   UNL     1      20.860  31.192  30.857  1.00  0.00     0.000 G0
ENDBRANCH   6   7
ENDBRANCH   5   6
ENDBRANCH   3   5
ENDBRANCH   1   3
BRANCH   1  11
ATOM     11  C   UNL     1      18.323  30.533  29.151  1.00  0.00     0.087 C 
BRANCH  11  12
ATOM     12  C   UNL     1      18.165  31.099  30.591  1.00  0.00     0.066 C 
BRANCH  12  13
ATOM     13  C   UNL     1      19.449  31.083  31.435  1.00  0.00     0.140 C 
ATOM     14  O   UNL     1      19.349  30.882  32.636  1.00  0.00    -0.299 OA
BRANCH  13  15
ATOM     15  C   UNL     1      20.853  31.201  30.872  1.00  0.00     0.106 CG0
ATOM     16  G   UNL     1      21.727  30.006  31.201  1.00  0.00     0.000 G0
ENDBRANCH  13  15
ENDBRANCH  12  13
BRANCH  12  17
ATOM     17  C   UNL     1      17.486  32.510  30.537  1.00  0.00    -0.006 C 
ATOM     18  C   UNL     1      16.049  32.478  29.993  1.00  0.00     0.008 C 
ATOM     19  C   UNL     1      18.323  33.546  29.767  1.00  0.00     0.008 C 
ENDBRANCH  12  17
ENDBRANCH  11  12
ENDBRANCH   1  11
TORSDOF 1
ENDMDL
MODEL 9
REMARK VINA RESULT:    -3.181      4.510      7.046
REMARK INTER + INTRA:          -5.228
REMARK INTER:                  -5.244
REMARK INTRA:                   0.016
REMARK UNBOUND:                -0.374
REMARK SMILES CC1=CCC[C@@H](C)C(=O)C[C@H](C(C)C)C(=O)C1
REMARK SMILES IDX 8 1 9 2 6 3 7 4 5 5 4 6 3 7 2 8 1 9 10 11 11 12 15 13 16 14
REMARK SMILES IDX 17 15 12 17 13 18 14 19
REMARK H PARENT
REMARK Flexibility Score: 70.00
ROOT
ATOM      1  C   UNL     1      17.753  30.880  30.027  1.00  0.00     0.136 C 
ATOM      2  O   UNL     1      17.517  29.997  30.840  1.00  0.00    -0.299 OA
ENDROOT
BRANCH   1   3
ATOM      3  C   UNL     1      17.070  32.233  30.160  1.00  0.00     0.053 C 
ATOM      4  C   UNL     1      15.542  32.104  30.312  1.00  0.00     0.016 C 
BRANCH   3   5
ATOM      5  C   UNL     1      17.432  33.221  29.024  1.00  0.00     0.015 C 
BRANCH   5   6
ATOM      6  C   UNL     1      18.700  34.068  29.274  1.00  0.00     0.028 C 
BRANCH   6   7
ATOM      7  C   UNL     1      18.974  34.251  30.751  1.00  0.00    -0.028 C 
ATOM      8  C   UNL     1      19.957  33.662  31.474  1.00  0.00    -0.070 CG0
ATOM      9  C   UNL     1      20.086  34.054  32.924  1.00  0.00     0.039 C 
ATOM     10  G   UNL     1      21.001  32.730  30.889  1.00  0.00     0.000 G0
ENDBRANCH   6   7
ENDBRANCH   5   6
ENDBRANCH   3   5
ENDBRANCH   1   3
BRANCH   1  11
ATOM     11  C   UNL     1      18.845  30.674  28.999  1.00  0.00     0.087 C 
BRANCH  11  12
ATOM     12  C   UNL     1      20.268  30.474  29.593  1.00  0.00     0.066 C 
BRANCH  12  13
ATOM     13  C   UNL     1      20.550  31.274  30.874  1.00  0.00     0.140 C 
ATOM     14  O   UNL     1      20.484  30.690  31.946  1.00  0.00    -0.299 OA
BRANCH  13  15
ATOM     15  C   UNL     1      21.005  32.720  30.906  1.00  0.00     0.106 CG0
ATOM     16  G   UNL     1      19.954  33.663  31.460  1.00  0.00     0.000 G0
ENDBRANCH  13  15
ENDBRANCH  12  13
BRANCH  12  17
ATOM     17  C   UNL     1      20.571  28.945  29.748  1.00  0.00    -0.006 C 
ATOM     18  C   UNL     1      22.071  28.624  29.831  1.00  0.00     0.008 C 
ATOM     19  C   UNL     1      19.905  28.091  28.655  1.00  0.00     0.008 C 
ENDBRANCH  12  17
ENDBRANCH  11  12
ENDBRANCH   1  11
TORSDOF 1
ENDMDL
