MODEL 1
REMARK VINA RESULT:    -5.520      0.000      0.000
REMARK INTER + INTRA:          -7.648
REMARK INTER:                  -7.779
REMARK INTRA:                   0.131
REMARK UNBOUND:                 0.131
REMARK SMILES CC1=CCC(=C(C)C)C(=O)CC(C)=CCC1
REMARK SMILES IDX 12 1 14 2 13 3 15 4 16 5 2 6 1 7 3 8 11 10 9 11 10 12 5 13
REMARK SMILES IDX 6 14 7 15 8 16 4 17
REMARK H PARENT
REMARK Flexibility Score: 60.00
ROOT
ATOM      1  C   UNL     1     -13.601 -32.629  29.021  1.00  0.00    -0.070 C 
ATOM      2  C   UNL     1     -14.307 -32.544  30.187  1.00  0.00    -0.027 C 
ATOM      3  C   UNL     1     -14.376 -32.400  27.745  1.00  0.00     0.039 C 
ENDROOT
BRANCH   2   4
ATOM      4  C   UNL     1     -13.894 -32.767  31.637  1.00  0.00     0.032 C 
BRANCH   4   5
ATOM      5  C   UNL     1     -13.137 -34.061  31.960  1.00  0.00     0.034 C 
BRANCH   5   6
ATOM      6  C   UNL     1     -11.604 -34.009  32.007  1.00  0.00    -0.077 C 
ATOM      7  C   UNL     1     -11.052 -32.953  32.942  1.00  0.00     0.039 C 
ATOM      8  C   UNL     1     -10.702 -34.689  31.237  1.00  0.00    -0.023 CG0
ATOM      9  G   UNL     1     -10.907 -35.787  30.211  1.00  0.00     0.000 G0
ENDBRANCH   5   6
ENDBRANCH   4   5
ENDBRANCH   2   4
BRANCH   1  10
ATOM     10  C   UNL     1     -12.116 -32.919  28.871  1.00  0.00     0.111 C 
BRANCH  10  11
ATOM     11  C   UNL     1     -11.866 -34.308  28.369  1.00  0.00     0.163 C 
ATOM     12  O   UNL     1     -11.527 -34.472  27.166  1.00  0.00    -0.294 OA
BRANCH  11  13
ATOM     13  C   UNL     1     -12.054 -35.481  29.261  1.00  0.00    -0.002 C 
ATOM     14  C   UNL     1     -13.198 -36.223  29.234  1.00  0.00    -0.069 C 
ATOM     15  C   UNL     1     -14.276 -35.960  28.205  1.00  0.00     0.039 C 
ATOM     16  C   UNL     1     -13.438 -37.349  30.214  1.00  0.00     0.039 C 
BRANCH  13  17
ATOM     17  C   UNL     1     -10.912 -35.783  30.208  1.00  0.00     0.066 CG0
ATOM     18  G   UNL     1     -10.703 -34.679  31.227  1.00  0.00     0.000 G0
ENDBRANCH  13  17
ENDBRANCH  11  13
ENDBRANCH  10  11
ENDBRANCH   1  10
TORSDOF 0
ENDMDL
MODEL 2
REMARK VINA RESULT:    -5.244      1.835      3.812
REMARK INTER + INTRA:          -7.258
REMARK INTER:                  -7.401
REMARK INTRA:                   0.142
REMARK UNBOUND:                 0.131
REMARK SMILES CC1=CCC(=C(C)C)C(=O)CC(C)=CCC1
REMARK SMILES IDX 12 1 14 2 13 3 15 4 16 5 2 6 1 7 3 8 11 10 9 11 10 12 5 13
REMARK SMILES IDX 6 14 7 15 8 16 4 17
REMARK H PARENT
REMARK Flexibility Score: 60.00
ROOT
ATOM      1  C   UNL     1     -11.439 -34.026  27.991  1.00  0.00    -0.070 C 
ATOM      2  C   UNL     1     -10.639 -34.833  28.746  1.00  0.00    -0.027 C 
ATOM      3  C   UNL     1     -11.446 -34.283  26.503  1.00  0.00     0.039 C 
ENDROOT
BRANCH   2   4
ATOM      4  C   UNL     1     -10.330 -34.839  30.239  1.00  0.00     0.032 C 
BRANCH   4   5
ATOM      5  C   UNL     1     -10.855 -36.023  31.059  1.00  0.00     0.034 C 
BRANCH   5   6
ATOM      6  C   UNL     1     -12.364 -36.301  31.042  1.00  0.00    -0.077 C 
ATOM      7  C   UNL     1     -12.726 -37.718  30.649  1.00  0.00     0.039 C 
ATOM      8  C   UNL     1     -13.398 -35.419  31.206  1.00  0.00    -0.023 CG0
ATOM      9  G   UNL     1     -13.393 -33.951  31.586  1.00  0.00     0.000 G0
ENDBRANCH   5   6
ENDBRANCH   4   5
ENDBRANCH   2   4
BRANCH   1  10
ATOM     10  C   UNL     1     -12.334 -32.901  28.489  1.00  0.00     0.111 C 
BRANCH  10  11
ATOM     11  C   UNL     1     -13.596 -33.423  29.103  1.00  0.00     0.163 C 
ATOM     12  O   UNL     1     -14.360 -34.148  28.409  1.00  0.00    -0.294 OA
BRANCH  11  13
ATOM     13  C   UNL     1     -13.968 -33.062  30.495  1.00  0.00    -0.002 C 
ATOM     14  C   UNL     1     -14.746 -31.975  30.767  1.00  0.00    -0.069 C 
ATOM     15  C   UNL     1     -15.371 -31.163  29.655  1.00  0.00     0.039 C 
ATOM     16  C   UNL     1     -15.036 -31.542  32.187  1.00  0.00     0.039 C 
BRANCH  13  17
ATOM     17  C   UNL     1     -13.413 -33.957  31.582  1.00  0.00     0.066 CG0
ATOM     18  G   UNL     1     -13.398 -35.417  31.173  1.00  0.00     0.000 G0
ENDBRANCH  13  17
ENDBRANCH  11  13
ENDBRANCH  10  11
ENDBRANCH   1  10
TORSDOF 0
ENDMDL
MODEL 3
REMARK VINA RESULT:    -5.028      1.771      3.588
REMARK INTER + INTRA:          -6.955
REMARK INTER:                  -7.142
REMARK INTRA:                   0.187
REMARK UNBOUND:                 0.131
REMARK SMILES CC1=CCC(=C(C)C)C(=O)CC(C)=CCC1
REMARK SMILES IDX 12 1 14 2 13 3 15 4 16 5 2 6 1 7 3 8 11 10 9 11 10 12 5 13
REMARK SMILES IDX 6 14 7 15 8 16 4 17
REMARK H PARENT
REMARK Flexibility Score: 60.00
ROOT
ATOM      1  C   UNL     1     -13.419 -33.186  31.331  1.00  0.00    -0.070 C 
ATOM      2  C   UNL     1     -14.404 -32.542  30.640  1.00  0.00    -0.027 C 
ATOM      3  C   UNL     1     -13.815 -33.812  32.647  1.00  0.00     0.039 C 
ENDROOT
BRANCH   2   4
ATOM      4  C   UNL     1     -14.375 -31.757  29.334  1.00  0.00     0.032 C 
BRANCH   4   5
ATOM      5  C   UNL     1     -13.261 -32.095  28.336  1.00  0.00     0.034 C 
BRANCH   5   6
ATOM      6  C   UNL     1     -13.506 -33.237  27.340  1.00  0.00    -0.077 C 
ATOM      7  C   UNL     1     -14.646 -32.980  26.376  1.00  0.00     0.039 C 
ATOM      8  C   UNL     1     -12.925 -34.475  27.299  1.00  0.00    -0.023 CG0
ATOM      9  G   UNL     1     -11.786 -35.059  28.111  1.00  0.00     0.000 G0
ENDBRANCH   5   6
ENDBRANCH   4   5
ENDBRANCH   2   4
BRANCH   1  10
ATOM     10  C   UNL     1     -11.966 -33.351  30.912  1.00  0.00     0.111 C 
BRANCH  10  11
ATOM     11  C   UNL     1     -11.622 -34.785  30.642  1.00  0.00     0.163 C 
ATOM     12  O   UNL     1     -10.785 -35.363  31.387  1.00  0.00    -0.294 OA
BRANCH  11  13
ATOM     13  C   UNL     1     -12.226 -35.506  29.492  1.00  0.00    -0.002 C 
ATOM     14  C   UNL     1     -13.113 -36.525  29.675  1.00  0.00    -0.069 C 
ATOM     15  C   UNL     1     -13.619 -36.883  31.054  1.00  0.00     0.039 C 
ATOM     16  C   UNL     1     -13.645 -37.332  28.512  1.00  0.00     0.039 C 
BRANCH  13  17
ATOM     17  C   UNL     1     -11.778 -35.054  28.119  1.00  0.00     0.066 CG0
ATOM     18  G   UNL     1     -12.921 -34.488  27.299  1.00  0.00     0.000 G0
ENDBRANCH  13  17
ENDBRANCH  11  13
ENDBRANCH  10  11
ENDBRANCH   1  10
TORSDOF 0
ENDMDL
MODEL 4
REMARK VINA RESULT:    -4.950      1.962      4.421
REMARK INTER + INTRA:          -6.844
REMARK INTER:                  -6.846
REMARK INTRA:                   0.003
REMARK UNBOUND:                 0.131
REMARK SMILES CC1=CCC(=C(C)C)C(=O)CC(C)=CCC1
REMARK SMILES IDX 12 1 14 2 13 3 15 4 16 5 2 6 1 7 3 8 11 10 9 11 10 12 5 13
REMARK SMILES IDX 6 14 7 15 8 16 4 17
REMARK H PARENT
REMARK Flexibility Score: 60.00
ROOT
ATOM      1  C   UNL     1     -12.399 -36.755  30.327  1.00  0.00    -0.070 C 
ATOM      2  C   UNL     1     -13.366 -36.941  29.382  1.00  0.00    -0.027 C 
ATOM      3  C   UNL     1     -12.573 -37.503  31.628  1.00  0.00     0.039 C 
ENDROOT
BRANCH   2   4
ATOM      4  C   UNL     1     -13.562 -36.325  28.001  1.00  0.00     0.032 C 
BRANCH   4   5
ATOM      5  C   UNL     1     -13.526 -34.796  27.904  1.00  0.00     0.034 C 
BRANCH   5   6
ATOM      6  C   UNL     1     -12.221 -34.132  27.444  1.00  0.00    -0.077 C 
ATOM      7  C   UNL     1     -11.719 -34.623  26.102  1.00  0.00     0.039 C 
ATOM      8  C   UNL     1     -11.411 -33.271  28.132  1.00  0.00    -0.023 CG0
ATOM      9  G   UNL     1     -11.599 -32.601  29.480  1.00  0.00     0.000 G0
ENDBRANCH   5   6
ENDBRANCH   4   5
ENDBRANCH   2   4
BRANCH   1  10
ATOM     10  C   UNL     1     -11.158 -35.883  30.207  1.00  0.00     0.111 C 
BRANCH  10  11
ATOM     11  C   UNL     1     -11.287 -34.617  30.998  1.00  0.00     0.163 C 
ATOM     12  O   UNL     1     -10.659 -34.511  32.087  1.00  0.00    -0.294 OA
BRANCH  11  13
ATOM     13  C   UNL     1     -12.170 -33.518  30.533  1.00  0.00    -0.002 C 
ATOM     14  C   UNL     1     -13.435 -33.364  31.020  1.00  0.00    -0.069 C 
ATOM     15  C   UNL     1     -13.949 -34.230  32.148  1.00  0.00     0.039 C 
ATOM     16  C   UNL     1     -14.375 -32.314  30.470  1.00  0.00     0.039 C 
BRANCH  13  17
ATOM     17  C   UNL     1     -11.589 -32.603  29.477  1.00  0.00     0.066 CG0
ATOM     18  G   UNL     1     -11.431 -33.296  28.138  1.00  0.00     0.000 G0
ENDBRANCH  13  17
ENDBRANCH  11  13
ENDBRANCH  10  11
ENDBRANCH   1  10
TORSDOF 0
ENDMDL
MODEL 5
REMARK VINA RESULT:    -4.887      1.976      4.606
REMARK INTER + INTRA:          -6.756
REMARK INTER:                  -7.307
REMARK INTRA:                   0.552
REMARK UNBOUND:                 0.131
REMARK SMILES CC1=CCC(=C(C)C)C(=O)CC(C)=CCC1
REMARK SMILES IDX 12 1 14 2 13 3 15 4 16 5 2 6 1 7 3 8 11 10 9 11 10 12 5 13
REMARK SMILES IDX 6 14 7 15 8 16 4 17
REMARK H PARENT
REMARK Flexibility Score: 60.00
ROOT
ATOM      1  C   UNL     1     -11.161 -33.955  31.839  1.00  0.00    -0.070 C 
ATOM      2  C   UNL     1     -10.964 -35.211  31.342  1.00  0.00    -0.027 C 
ATOM      3  C   UNL     1      -9.935 -33.083  31.972  1.00  0.00     0.039 C 
ENDROOT
BRANCH   2   4
ATOM      4  C   UNL     1     -11.926 -36.374  31.124  1.00  0.00     0.032 C 
BRANCH   4   5
ATOM      5  C   UNL     1     -12.105 -36.875  29.686  1.00  0.00     0.034 C 
BRANCH   5   6
ATOM      6  C   UNL     1     -13.345 -36.412  28.908  1.00  0.00    -0.077 C 
ATOM      7  C   UNL     1     -14.201 -37.545  28.382  1.00  0.00     0.039 C 
ATOM      8  C   UNL     1     -13.693 -35.144  28.532  1.00  0.00    -0.023 CG0
ATOM      9  G   UNL     1     -13.063 -33.805  28.867  1.00  0.00     0.000 G0
ENDBRANCH   5   6
ENDBRANCH   4   5
ENDBRANCH   2   4
BRANCH   1  10
ATOM     10  C   UNL     1     -12.484 -33.335  32.262  1.00  0.00     0.111 C 
BRANCH  10  11
ATOM     11  C   UNL     1     -13.605 -33.740  31.354  1.00  0.00     0.163 C 
ATOM     12  O   UNL     1     -14.392 -34.653  31.723  1.00  0.00    -0.294 OA
BRANCH  11  13
ATOM     13  C   UNL     1     -13.766 -33.106  30.020  1.00  0.00    -0.002 C 
ATOM     14  C   UNL     1     -14.518 -31.981  29.851  1.00  0.00    -0.069 C 
ATOM     15  C   UNL     1     -15.117 -31.255  31.035  1.00  0.00     0.039 C 
ATOM     16  C   UNL     1     -14.774 -31.396  28.480  1.00  0.00     0.039 C 
BRANCH  13  17
ATOM     17  C   UNL     1     -13.067 -33.797  28.869  1.00  0.00     0.066 CG0
ATOM     18  G   UNL     1     -13.692 -35.139  28.539  1.00  0.00     0.000 G0
ENDBRANCH  13  17
ENDBRANCH  11  13
ENDBRANCH  10  11
ENDBRANCH   1  10
TORSDOF 0
ENDMDL
MODEL 6
REMARK VINA RESULT:    -4.850      1.775      3.885
REMARK INTER + INTRA:          -6.704
REMARK INTER:                  -7.140
REMARK INTRA:                   0.436
REMARK UNBOUND:                 0.131
REMARK SMILES CC1=CCC(=C(C)C)C(=O)CC(C)=CCC1
REMARK SMILES IDX 12 1 14 2 13 3 15 4 16 5 2 6 1 7 3 8 11 10 9 11 10 12 5 13
REMARK SMILES IDX 6 14 7 15 8 16 4 17
REMARK H PARENT
REMARK Flexibility Score: 60.00
ROOT
ATOM      1  C   UNL     1     -13.089 -34.123  31.405  1.00  0.00    -0.070 C 
ATOM      2  C   UNL     1     -13.704 -35.311  31.674  1.00  0.00    -0.027 C 
ATOM      3  C   UNL     1     -13.913 -32.874  31.609  1.00  0.00     0.039 C 
ENDROOT
BRANCH   2   4
ATOM      4  C   UNL     1     -13.227 -36.752  31.533  1.00  0.00     0.032 C 
BRANCH   4   5
ATOM      5  C   UNL     1     -12.536 -37.136  30.220  1.00  0.00     0.034 C 
BRANCH   5   6
ATOM      6  C   UNL     1     -13.298 -36.905  28.908  1.00  0.00    -0.077 C 
ATOM      7  C   UNL     1     -14.421 -37.893  28.665  1.00  0.00     0.039 C 
ATOM      8  C   UNL     1     -13.016 -36.025  27.900  1.00  0.00    -0.023 CG0
ATOM      9  G   UNL     1     -11.975 -34.926  27.809  1.00  0.00     0.000 G0
ENDBRANCH   5   6
ENDBRANCH   4   5
ENDBRANCH   2   4
BRANCH   1  10
ATOM     10  C   UNL     1     -11.658 -33.922  30.930  1.00  0.00     0.111 C 
BRANCH  10  11
ATOM     11  C   UNL     1     -11.601 -33.195  29.622  1.00  0.00     0.163 C 
ATOM     12  O   UNL     1     -10.870 -32.172  29.521  1.00  0.00    -0.294 OA
BRANCH  11  13
ATOM     13  C   UNL     1     -12.422 -33.643  28.468  1.00  0.00    -0.002 C 
ATOM     14  C   UNL     1     -13.521 -32.946  28.060  1.00  0.00    -0.069 C 
ATOM     15  C   UNL     1     -13.879 -31.617  28.684  1.00  0.00     0.039 C 
ATOM     16  C   UNL     1     -14.421 -33.458  26.958  1.00  0.00     0.039 C 
BRANCH  13  17
ATOM     17  C   UNL     1     -11.976 -34.925  27.797  1.00  0.00     0.066 CG0
ATOM     18  G   UNL     1     -13.019 -36.021  27.900  1.00  0.00     0.000 G0
ENDBRANCH  13  17
ENDBRANCH  11  13
ENDBRANCH  10  11
ENDBRANCH   1  10
TORSDOF 0
ENDMDL
MODEL 7
REMARK VINA RESULT:    -4.824      1.319      3.119
REMARK INTER + INTRA:          -6.667
REMARK INTER:                  -7.126
REMARK INTRA:                   0.460
REMARK UNBOUND:                 0.131
REMARK SMILES CC1=CCC(=C(C)C)C(=O)CC(C)=CCC1
REMARK SMILES IDX 12 1 14 2 13 3 15 4 16 5 2 6 1 7 3 8 11 10 9 11 10 12 5 13
REMARK SMILES IDX 6 14 7 15 8 16 4 17
REMARK H PARENT
REMARK Flexibility Score: 60.00
ROOT
ATOM      1  C   UNL     1     -13.439 -34.290  27.503  1.00  0.00    -0.070 C 
ATOM      2  C   UNL     1     -14.277 -35.284  27.919  1.00  0.00    -0.027 C 
ATOM      3  C   UNL     1     -14.055 -33.195  26.665  1.00  0.00     0.039 C 
ENDROOT
BRANCH   2   4
ATOM      4  C   UNL     1     -14.016 -36.560  28.712  1.00  0.00     0.032 C 
BRANCH   4   5
ATOM      5  C   UNL     1     -12.575 -36.824  29.162  1.00  0.00     0.034 C 
BRANCH   5   6
ATOM      6  C   UNL     1     -12.281 -36.851  30.668  1.00  0.00    -0.077 C 
ATOM      7  C   UNL     1     -12.788 -38.092  31.373  1.00  0.00     0.039 C 
ATOM      8  C   UNL     1     -11.750 -35.864  31.453  1.00  0.00    -0.023 CG0
ATOM      9  G   UNL     1     -11.165 -34.514  31.083  1.00  0.00     0.000 G0
ENDBRANCH   5   6
ENDBRANCH   4   5
ENDBRANCH   2   4
BRANCH   1  10
ATOM     10  C   UNL     1     -11.952 -34.162  27.801  1.00  0.00     0.111 C 
BRANCH  10  11
ATOM     11  C   UNL     1     -11.693 -33.246  28.957  1.00  0.00     0.163 C 
ATOM     12  O   UNL     1     -11.086 -32.160  28.752  1.00  0.00    -0.294 OA
BRANCH  11  13
ATOM     13  C   UNL     1     -12.106 -33.625  30.333  1.00  0.00    -0.002 C 
ATOM     14  C   UNL     1     -13.275 -33.178  30.876  1.00  0.00    -0.069 C 
ATOM     15  C   UNL     1     -14.263 -32.380  30.055  1.00  0.00     0.039 C 
ATOM     16  C   UNL     1     -13.646 -33.472  32.312  1.00  0.00     0.039 C 
BRANCH  13  17
ATOM     17  C   UNL     1     -11.144 -34.512  31.093  1.00  0.00     0.066 CG0
ATOM     18  G   UNL     1     -11.759 -35.850  31.455  1.00  0.00     0.000 G0
ENDBRANCH  13  17
ENDBRANCH  11  13
ENDBRANCH  10  11
ENDBRANCH   1  10
TORSDOF 0
ENDMDL
MODEL 8
REMARK VINA RESULT:    -4.811      1.570      3.664
REMARK INTER + INTRA:          -6.648
REMARK INTER:                  -6.870
REMARK INTRA:                   0.222
REMARK UNBOUND:                 0.131
REMARK SMILES CC1=CCC(=C(C)C)C(=O)CC(C)=CCC1
REMARK SMILES IDX 12 1 14 2 13 3 15 4 16 5 2 6 1 7 3 8 11 10 9 11 10 12 5 13
REMARK SMILES IDX 6 14 7 15 8 16 4 17
REMARK H PARENT
REMARK Flexibility Score: 60.00
ROOT
ATOM      1  C   UNL     1     -13.881 -37.099  29.136  1.00  0.00    -0.070 C 
ATOM      2  C   UNL     1     -13.393 -37.109  30.410  1.00  0.00    -0.027 C 
ATOM      3  C   UNL     1     -13.770 -38.390  28.360  1.00  0.00     0.039 C 
ENDROOT
BRANCH   2   4
ATOM      4  C   UNL     1     -13.276 -36.006  31.457  1.00  0.00     0.032 C 
BRANCH   4   5
ATOM      5  C   UNL     1     -11.873 -35.458  31.745  1.00  0.00     0.034 C 
BRANCH   5   6
ATOM      6  C   UNL     1     -11.529 -34.051  31.239  1.00  0.00    -0.077 C 
ATOM      7  C   UNL     1     -10.109 -33.618  31.542  1.00  0.00     0.039 C 
ATOM      8  C   UNL     1     -12.357 -33.117  30.680  1.00  0.00    -0.023 CG0
ATOM      9  G   UNL     1     -13.812 -33.211  30.261  1.00  0.00     0.000 G0
ENDBRANCH   5   6
ENDBRANCH   4   5
ENDBRANCH   2   4
BRANCH   1  10
ATOM     10  C   UNL     1     -14.536 -35.929  28.416  1.00  0.00     0.111 C 
BRANCH  10  11
ATOM     11  C   UNL     1     -13.597 -34.772  28.263  1.00  0.00     0.163 C 
ATOM     12  O   UNL     1     -12.469 -34.966  27.735  1.00  0.00    -0.294 OA
BRANCH  11  13
ATOM     13  C   UNL     1     -13.968 -33.423  28.762  1.00  0.00    -0.002 C 
ATOM     14  C   UNL     1     -14.407 -32.446  27.917  1.00  0.00    -0.069 C 
ATOM     15  C   UNL     1     -14.655 -32.731  26.453  1.00  0.00     0.039 C 
ATOM     16  C   UNL     1     -14.682 -31.041  28.404  1.00  0.00     0.039 C 
BRANCH  13  17
ATOM     17  C   UNL     1     -13.809 -33.200  30.250  1.00  0.00     0.066 CG0
ATOM     18  G   UNL     1     -12.353 -33.104  30.665  1.00  0.00     0.000 G0
ENDBRANCH  13  17
ENDBRANCH  11  13
ENDBRANCH  10  11
ENDBRANCH   1  10
TORSDOF 0
ENDMDL
MODEL 9
REMARK VINA RESULT:    -4.803      1.844      3.909
REMARK INTER + INTRA:          -6.638
REMARK INTER:                  -6.683
REMARK INTRA:                   0.045
REMARK UNBOUND:                 0.131
REMARK SMILES CC1=CCC(=C(C)C)C(=O)CC(C)=CCC1
REMARK SMILES IDX 12 1 14 2 13 3 15 4 16 5 2 6 1 7 3 8 11 10 9 11 10 12 5 13
REMARK SMILES IDX 6 14 7 15 8 16 4 17
REMARK H PARENT
REMARK Flexibility Score: 60.00
ROOT
ATOM      1  C   UNL     1     -14.412 -31.821  28.946  1.00  0.00    -0.070 C 
ATOM      2  C   UNL     1     -14.825 -32.104  27.676  1.00  0.00    -0.027 C 
ATOM      3  C   UNL     1     -15.373 -31.041  29.811  1.00  0.00     0.039 C 
ENDROOT
BRANCH   2   4
ATOM      4  C   UNL     1     -14.123 -32.804  26.517  1.00  0.00     0.032 C 
BRANCH   4   5
ATOM      5  C   UNL     1     -13.731 -34.272  26.718  1.00  0.00     0.034 C 
BRANCH   5   6
ATOM      6  C   UNL     1     -12.253 -34.596  26.974  1.00  0.00    -0.077 C 
ATOM      7  C   UNL     1     -11.352 -34.350  25.782  1.00  0.00     0.039 C 
ATOM      8  C   UNL     1     -11.685 -35.186  28.071  1.00  0.00    -0.023 CG0
ATOM      9  G   UNL     1     -12.286 -35.572  29.408  1.00  0.00     0.000 G0
ENDBRANCH   5   6
ENDBRANCH   4   5
ENDBRANCH   2   4
BRANCH   1  10
ATOM     10  C   UNL     1     -13.090 -32.217  29.587  1.00  0.00     0.111 C 
BRANCH  10  11
ATOM     11  C   UNL     1     -13.227 -33.446  30.433  1.00  0.00     0.163 C 
ATOM     12  O   UNL     1     -14.247 -33.577  31.161  1.00  0.00    -0.294 OA
BRANCH  11  13
ATOM     13  C   UNL     1     -12.159 -34.479  30.446  1.00  0.00    -0.002 C 
ATOM     14  C   UNL     1     -11.121 -34.422  31.329  1.00  0.00    -0.069 C 
ATOM     15  C   UNL     1     -11.078 -33.373  32.418  1.00  0.00     0.039 C 
ATOM     16  C   UNL     1      -9.977 -35.409  31.274  1.00  0.00     0.039 C 
BRANCH  13  17
ATOM     17  C   UNL     1     -12.286 -35.576  29.411  1.00  0.00     0.066 CG0
ATOM     18  G   UNL     1     -11.679 -35.183  28.078  1.00  0.00     0.000 G0
ENDBRANCH  13  17
ENDBRANCH  11  13
ENDBRANCH  10  11
ENDBRANCH   1  10
TORSDOF 0
ENDMDL
