MODEL 1
REMARK VINA RESULT:    -6.202      0.000      0.000
REMARK INTER + INTRA:         -13.000
REMARK INTER:                 -10.915
REMARK INTRA:                  -2.085
REMARK UNBOUND:                -2.085
REMARK SMILES COc1cc(-c2[o+]c3cc(O)cc(O[C@H]4O[C@@H](CO)[C@@H](O)[C@H](O)[C@@H]4O)c3cc2O[C@H]2O[C@H](CO)[C@H](O)[C@@H](O)[C@@H]2O)ccc1O
REMARK SMILES IDX 6 1 28 2 27 3 26 4 13 5 12 6 10 7 9 8 8 9 7 10 5 11 3 12
REMARK SMILES IDX 43 13 4 14 42 15 41 16 2 17 1 18 44 19 29 21 30 22 39 23
REMARK SMILES IDX 31 24 37 25 32 26 35 27 40 28 38 30 33 32 34 33 36 35 14 37
REMARK SMILES IDX 15 38 24 39 16 40 22 41 17 42 20 43 25 44 23 46 18 48 19 49
REMARK SMILES IDX 21 51 11 53
REMARK H PARENT 44 20 40 29 38 31 34 34 36 36 25 45 23 47 19 50 21 52 11 54
REMARK Flexibility Score: inf
ROOT
ATOM      1  C   UNL     1      -7.992  31.807   5.735  1.00  0.00     0.402 A 
ATOM      2  C   UNL     1      -9.033  31.761   6.680  1.00  0.00     0.229 A 
ATOM      3  C   UNL     1      -9.603  32.968   7.104  1.00  0.00     0.079 A 
ATOM      4  C   UNL     1      -9.152  34.178   6.566  1.00  0.00     0.126 A 
ATOM      5  C   UNL     1      -9.707  35.418   6.943  1.00  0.00     0.143 A 
ATOM      6  C   UNL     1      -9.182  36.601   6.410  1.00  0.00     0.094 A 
ATOM      7  C   UNL     1      -8.133  36.562   5.484  1.00  0.00     0.128 A 
ATOM      8  C   UNL     1      -7.590  35.331   5.098  1.00  0.00     0.162 A 
ATOM      9  C   UNL     1      -8.091  34.142   5.636  1.00  0.00     0.368 A 
ATOM     10  O   UNL     1      -7.562  32.978   5.267  1.00  0.00    -0.202 OA
ENDROOT
BRANCH   1  11
ATOM     11  C   UNL     1      -7.317  30.570   5.290  1.00  0.00     0.087 A 
ATOM     12  C   UNL     1      -5.648  28.828   5.680  1.00  0.00     0.161 A 
ATOM     13  C   UNL     1      -6.107  28.146   4.537  1.00  0.00     0.157 A 
ATOM     14  C   UNL     1      -6.250  30.052   6.039  1.00  0.00     0.068 A 
ATOM     15  C   UNL     1      -7.152  28.681   3.777  1.00  0.00     0.051 A 
ATOM     16  C   UNL     1      -7.755  29.882   4.150  1.00  0.00     0.022 A 
BRANCH  12  17
ATOM     17  O   UNL     1      -4.613  28.259   6.438  1.00  0.00    -0.493 OA
ATOM     18  C   UNL     1      -3.309  28.818   6.571  1.00  0.00     0.278 C 
ENDBRANCH  12  17
BRANCH  13  19
ATOM     19  O   UNL     1      -5.537  26.935   4.143  1.00  0.00    -0.504 OA
ATOM     20  H   UNL     1      -5.221  26.768   3.193  1.00  0.00     0.293 HD
ENDBRANCH  13  19
ENDBRANCH   1  11
BRANCH   2  21
ATOM     21  O   UNL     1      -9.449  30.516   7.178  1.00  0.00    -0.452 OA
BRANCH  21  22
ATOM     22  C   UNL     1     -10.796  30.135   7.481  1.00  0.00     0.339 C 
ATOM     23  C   UNL     1     -10.832  29.045   8.574  1.00  0.00     0.214 C 
ATOM     24  O   UNL     1     -11.456  29.697   6.304  1.00  0.00    -0.332 OA
ATOM     25  C   UNL     1     -10.255  27.712   8.037  1.00  0.00     0.180 C 
ATOM     26  C   UNL     1     -10.799  28.577   5.728  1.00  0.00     0.179 C 
ATOM     27  C   UNL     1     -10.883  27.357   6.675  1.00  0.00     0.177 C 
BRANCH  23  28
ATOM     28  O   UNL     1     -12.161  28.865   8.993  1.00  0.00    -0.384 OA
ATOM     29  H   UNL     1     -12.324  29.520   9.722  1.00  0.00     0.211 HD
ENDBRANCH  23  28
BRANCH  25  30
ATOM     30  O   UNL     1      -8.859  27.805   7.896  1.00  0.00    -0.387 OA
ATOM     31  H   UNL     1      -8.471  27.790   8.812  1.00  0.00     0.211 HD
ENDBRANCH  25  30
BRANCH  26  32
ATOM     32  C   UNL     1     -11.438  28.280   4.367  1.00  0.00     0.191 C 
BRANCH  32  33
ATOM     33  O   UNL     1     -10.593  28.718   3.335  1.00  0.00    -0.394 OA
ATOM     34  H   UNL     1      -9.911  29.295   3.772  1.00  0.00     0.210 HD
ENDBRANCH  32  33
ENDBRANCH  26  32
BRANCH  27  35
ATOM     35  O   UNL     1     -12.225  26.982   6.850  1.00  0.00    -0.387 OA
ATOM     36  H   UNL     1     -12.754  27.495   6.187  1.00  0.00     0.211 HD
ENDBRANCH  27  35
ENDBRANCH  21  22
ENDBRANCH   2  21
BRANCH   5  37
ATOM     37  O   UNL     1     -10.770  35.498   7.850  1.00  0.00    -0.461 OA
BRANCH  37  38
ATOM     38  C   UNL     1     -12.020  36.121   7.533  1.00  0.00     0.339 C 
ATOM     39  C   UNL     1     -11.985  37.619   7.872  1.00  0.00     0.214 C 
ATOM     40  O   UNL     1     -13.100  35.442   8.160  1.00  0.00    -0.332 OA
ATOM     41  C   UNL     1     -11.925  37.813   9.393  1.00  0.00     0.180 C 
ATOM     42  C   UNL     1     -13.125  35.558   9.578  1.00  0.00     0.179 C 
ATOM     43  C   UNL     1     -13.051  37.022  10.086  1.00  0.00     0.177 C 
BRANCH  39  44
ATOM     44  O   UNL     1     -13.123  38.252   7.342  1.00  0.00    -0.384 OA
ATOM     45  H   UNL     1     -12.800  38.913   6.675  1.00  0.00     0.211 HD
ENDBRANCH  39  44
BRANCH  41  46
ATOM     46  O   UNL     1     -11.976  39.178   9.731  1.00  0.00    -0.387 OA
ATOM     47  H   UNL     1     -12.147  39.253  10.708  1.00  0.00     0.211 HD
ENDBRANCH  41  46
BRANCH  42  48
ATOM     48  C   UNL     1     -12.187  34.545  10.278  1.00  0.00     0.191 C 
BRANCH  48  49
ATOM     49  O   UNL     1     -10.918  35.085  10.526  1.00  0.00    -0.394 OA
ATOM     50  H   UNL     1     -11.064  35.924  11.034  1.00  0.00     0.210 HD
ENDBRANCH  48  49
ENDBRANCH  42  48
BRANCH  43  51
ATOM     51  O   UNL     1     -12.856  37.044  11.480  1.00  0.00    -0.387 OA
ATOM     52  H   UNL     1     -12.055  37.601  11.656  1.00  0.00     0.211 HD
ENDBRANCH  43  51
ENDBRANCH  37  38
ENDBRANCH   5  37
BRANCH   7  53
ATOM     53  O   UNL     1      -7.629  37.737   4.932  1.00  0.00    -0.507 OA
ATOM     54  H   UNL     1      -7.495  37.841   3.933  1.00  0.00     0.293 HD
ENDBRANCH   7  53
TORSDOF 18
ENDMDL
MODEL 2
REMARK VINA RESULT:    -5.995     15.401     18.096
REMARK INTER + INTRA:         -12.636
REMARK INTER:                 -10.442
REMARK INTRA:                  -2.194
REMARK UNBOUND:                -2.085
REMARK SMILES COc1cc(-c2[o+]c3cc(O)cc(O[C@H]4O[C@@H](CO)[C@@H](O)[C@H](O)[C@@H]4O)c3cc2O[C@H]2O[C@H](CO)[C@H](O)[C@@H](O)[C@@H]2O)ccc1O
REMARK SMILES IDX 6 1 28 2 27 3 26 4 13 5 12 6 10 7 9 8 8 9 7 10 5 11 3 12
REMARK SMILES IDX 43 13 4 14 42 15 41 16 2 17 1 18 44 19 29 21 30 22 39 23
REMARK SMILES IDX 31 24 37 25 32 26 35 27 40 28 38 30 33 32 34 33 36 35 14 37
REMARK SMILES IDX 15 38 24 39 16 40 22 41 17 42 20 43 25 44 23 46 18 48 19 49
REMARK SMILES IDX 21 51 11 53
REMARK H PARENT 44 20 40 29 38 31 34 34 36 36 25 45 23 47 19 50 21 52 11 54
REMARK Flexibility Score: inf
ROOT
ATOM      1  C   UNL     1       4.857  43.334   1.330  1.00  0.00     0.402 A 
ATOM      2  C   UNL     1       3.489  43.634   1.465  1.00  0.00     0.229 A 
ATOM      3  C   UNL     1       3.109  44.605   2.401  1.00  0.00     0.079 A 
ATOM      4  C   UNL     1       4.084  45.270   3.151  1.00  0.00     0.126 A 
ATOM      5  C   UNL     1       3.755  46.270   4.089  1.00  0.00     0.143 A 
ATOM      6  C   UNL     1       4.769  46.866   4.847  1.00  0.00     0.094 A 
ATOM      7  C   UNL     1       6.107  46.500   4.662  1.00  0.00     0.128 A 
ATOM      8  C   UNL     1       6.437  45.518   3.721  1.00  0.00     0.162 A 
ATOM      9  C   UNL     1       5.434  44.900   2.969  1.00  0.00     0.368 A 
ATOM     10  O   UNL     1       5.759  43.961   2.083  1.00  0.00    -0.202 OA
ENDROOT
BRANCH   1  11
ATOM     11  C   UNL     1       5.314  42.282   0.398  1.00  0.00     0.087 A 
ATOM     12  C   UNL     1       6.268  40.061   0.038  1.00  0.00     0.161 A 
ATOM     13  C   UNL     1       6.066  40.210  -1.347  1.00  0.00     0.157 A 
ATOM     14  C   UNL     1       5.903  41.113   0.903  1.00  0.00     0.068 A 
ATOM     15  C   UNL     1       5.504  41.388  -1.850  1.00  0.00     0.051 A 
ATOM     16  C   UNL     1       5.128  42.416  -0.985  1.00  0.00     0.022 A 
BRANCH  12  17
ATOM     17  O   UNL     1       6.812  38.860   0.517  1.00  0.00    -0.493 OA
ATOM     18  C   UNL     1       7.112  38.601   1.886  1.00  0.00     0.278 C 
ENDBRANCH  12  17
BRANCH  13  19
ATOM     19  O   UNL     1       6.417  39.196  -2.240  1.00  0.00    -0.504 OA
ATOM     20  H   UNL     1       7.163  39.305  -2.919  1.00  0.00     0.293 HD
ENDBRANCH  13  19
ENDBRANCH   1  11
BRANCH   2  21
ATOM     21  O   UNL     1       2.556  42.939   0.679  1.00  0.00    -0.452 OA
BRANCH  21  22
ATOM     22  C   UNL     1       1.153  42.821   0.941  1.00  0.00     0.339 C 
ATOM     23  C   UNL     1       0.523  41.695   0.091  1.00  0.00     0.214 C 
ATOM     24  O   UNL     1       0.505  44.060   0.704  1.00  0.00    -0.332 OA
ATOM     25  C   UNL     1       0.519  42.079  -1.408  1.00  0.00     0.180 C 
ATOM     26  C   UNL     1       0.669  44.481  -0.643  1.00  0.00     0.179 C 
ATOM     27  C   UNL     1      -0.043  43.500  -1.605  1.00  0.00     0.177 C 
BRANCH  23  28
ATOM     28  O   UNL     1      -0.789  41.469   0.539  1.00  0.00    -0.384 OA
ATOM     29  H   UNL     1      -1.283  42.324   0.429  1.00  0.00     0.211 HD
ENDBRANCH  23  28
BRANCH  25  30
ATOM     30  O   UNL     1       1.821  42.017  -1.932  1.00  0.00    -0.387 OA
ATOM     31  H   UNL     1       1.895  42.734  -2.618  1.00  0.00     0.211 HD
ENDBRANCH  25  30
BRANCH  26  32
ATOM     32  C   UNL     1       0.122  45.905  -0.783  1.00  0.00     0.191 C 
BRANCH  32  33
ATOM     33  O   UNL     1      -0.007  46.238  -2.141  1.00  0.00    -0.394 OA
ATOM     34  H   UNL     1       0.893  46.094  -2.540  1.00  0.00     0.210 HD
ENDBRANCH  32  33
ENDBRANCH  26  32
BRANCH  27  35
ATOM     35  O   UNL     1      -1.425  43.508  -1.353  1.00  0.00    -0.387 OA
ATOM     36  H   UNL     1      -1.555  43.966  -0.483  1.00  0.00     0.211 HD
ENDBRANCH  27  35
ENDBRANCH  21  22
ENDBRANCH   2  21
BRANCH   5  37
ATOM     37  O   UNL     1       2.431  46.678   4.289  1.00  0.00    -0.461 OA
BRANCH  37  38
ATOM     38  C   UNL     1       1.859  46.854   5.589  1.00  0.00     0.339 C 
ATOM     39  C   UNL     1       2.172  45.649   6.491  1.00  0.00     0.214 C 
ATOM     40  O   UNL     1       0.466  47.122   5.500  1.00  0.00    -0.332 OA
ATOM     41  C   UNL     1       1.421  44.408   5.992  1.00  0.00     0.180 C 
ATOM     42  C   UNL     1      -0.317  46.029   5.036  1.00  0.00     0.179 C 
ATOM     43  C   UNL     1      -0.080  44.713   5.824  1.00  0.00     0.177 C 
BRANCH  39  44
ATOM     44  O   UNL     1       1.808  45.943   7.817  1.00  0.00    -0.384 OA
ATOM     45  H   UNL     1       2.177  46.841   8.025  1.00  0.00     0.211 HD
ENDBRANCH  39  44
BRANCH  41  46
ATOM     46  O   UNL     1       1.627  43.313   6.851  1.00  0.00    -0.387 OA
ATOM     47  H   UNL     1       1.714  43.656   7.781  1.00  0.00     0.211 HD
ENDBRANCH  41  46
BRANCH  42  48
ATOM     48  C   UNL     1      -0.323  45.907   3.493  1.00  0.00     0.191 C 
BRANCH  48  49
ATOM     49  O   UNL     1       0.185  47.056   2.872  1.00  0.00    -0.394 OA
ATOM     50  H   UNL     1      -0.272  47.126   1.994  1.00  0.00     0.210 HD
ENDBRANCH  48  49
ENDBRANCH  42  48
BRANCH  43  51
ATOM     51  O   UNL     1      -0.712  43.636   5.174  1.00  0.00    -0.387 OA
ATOM     52  H   UNL     1      -0.650  42.852   5.778  1.00  0.00     0.211 HD
ENDBRANCH  43  51
ENDBRANCH  37  38
ENDBRANCH   5  37
BRANCH   7  53
ATOM     53  O   UNL     1       7.119  47.113   5.397  1.00  0.00    -0.507 OA
ATOM     54  H   UNL     1       7.191  46.997   6.401  1.00  0.00     0.293 HD
ENDBRANCH   7  53
TORSDOF 18
ENDMDL
MODEL 3
REMARK VINA RESULT:    -3.870      1.968      7.639
REMARK INTER + INTRA:          -8.896
REMARK INTER:                  -6.069
REMARK INTRA:                  -2.827
REMARK UNBOUND:                -2.085
REMARK SMILES COc1cc(-c2[o+]c3cc(O)cc(O[C@H]4O[C@@H](CO)[C@@H](O)[C@H](O)[C@@H]4O)c3cc2O[C@H]2O[C@H](CO)[C@H](O)[C@@H](O)[C@@H]2O)ccc1O
REMARK SMILES IDX 6 1 28 2 27 3 26 4 13 5 12 6 10 7 9 8 8 9 7 10 5 11 3 12
REMARK SMILES IDX 43 13 4 14 42 15 41 16 2 17 1 18 44 19 29 21 30 22 39 23
REMARK SMILES IDX 31 24 37 25 32 26 35 27 40 28 38 30 33 32 34 33 36 35 14 37
REMARK SMILES IDX 15 38 24 39 16 40 22 41 17 42 20 43 25 44 23 46 18 48 19 49
REMARK SMILES IDX 21 51 11 53
REMARK H PARENT 44 20 40 29 38 31 34 34 36 36 25 45 23 47 19 50 21 52 11 54
REMARK Flexibility Score: inf
ROOT
ATOM      1  C   UNL     1      -8.628  33.596   5.991  1.00  0.00     0.402 A 
ATOM      2  C   UNL     1      -9.374  32.964   7.003  1.00  0.00     0.229 A 
ATOM      3  C   UNL     1      -9.461  31.566   6.994  1.00  0.00     0.079 A 
ATOM      4  C   UNL     1      -8.789  30.833   6.011  1.00  0.00     0.126 A 
ATOM      5  C   UNL     1      -8.826  29.424   5.971  1.00  0.00     0.143 A 
ATOM      6  C   UNL     1      -8.177  28.745   4.934  1.00  0.00     0.094 A 
ATOM      7  C   UNL     1      -7.467  29.450   3.955  1.00  0.00     0.128 A 
ATOM      8  C   UNL     1      -7.417  30.847   4.001  1.00  0.00     0.162 A 
ATOM      9  C   UNL     1      -8.076  31.541   5.020  1.00  0.00     0.368 A 
ATOM     10  O   UNL     1      -8.028  32.871   5.049  1.00  0.00    -0.202 OA
ENDROOT
BRANCH   1  11
ATOM     11  C   UNL     1      -8.545  35.070   5.918  1.00  0.00     0.087 A 
ATOM     12  C   UNL     1      -9.664  37.231   5.698  1.00  0.00     0.161 A 
ATOM     13  C   UNL     1      -8.433  37.879   5.911  1.00  0.00     0.157 A 
ATOM     14  C   UNL     1      -9.706  35.822   5.686  1.00  0.00     0.068 A 
ATOM     15  C   UNL     1      -7.272  37.126   6.114  1.00  0.00     0.051 A 
ATOM     16  C   UNL     1      -7.326  35.732   6.120  1.00  0.00     0.022 A 
BRANCH  12  17
ATOM     17  O   UNL     1     -10.817  38.010   5.520  1.00  0.00    -0.493 OA
ATOM     18  C   UNL     1     -11.438  38.777   6.548  1.00  0.00     0.278 C 
ENDBRANCH  12  17
BRANCH  13  19
ATOM     19  O   UNL     1      -8.344  39.271   5.925  1.00  0.00    -0.504 OA
ATOM     20  H   UNL     1      -7.574  39.771   5.492  1.00  0.00     0.293 HD
ENDBRANCH  13  19
ENDBRANCH   1  11
BRANCH   2  21
ATOM     21  O   UNL     1     -10.020  33.753   7.969  1.00  0.00    -0.452 OA
BRANCH  21  22
ATOM     22  C   UNL     1     -11.430  33.984   8.065  1.00  0.00     0.339 C 
ATOM     23  C   UNL     1     -11.734  35.488   8.248  1.00  0.00     0.214 C 
ATOM     24  O   UNL     1     -11.979  33.221   9.127  1.00  0.00    -0.332 OA
ATOM     25  C   UNL     1     -11.253  35.978   9.635  1.00  0.00     0.180 C 
ATOM     26  C   UNL     1     -11.389  33.567  10.372  1.00  0.00     0.179 C 
ATOM     27  C   UNL     1     -11.737  35.027  10.747  1.00  0.00     0.177 C 
BRANCH  23  28
ATOM     28  O   UNL     1     -13.118  35.690   8.114  1.00  0.00    -0.384 OA
ATOM     29  H   UNL     1     -13.462  35.938   9.012  1.00  0.00     0.211 HD
ENDBRANCH  23  28
BRANCH  25  30
ATOM     30  O   UNL     1      -9.850  36.055   9.666  1.00  0.00    -0.387 OA
ATOM     31  H   UNL     1      -9.503  35.299   9.120  1.00  0.00     0.211 HD
ENDBRANCH  25  30
BRANCH  26  32
ATOM     32  C   UNL     1     -11.878  32.580  11.438  1.00  0.00     0.191 C 
BRANCH  32  33
ATOM     33  O   UNL     1     -13.038  31.927  10.991  1.00  0.00    -0.394 OA
ATOM     34  H   UNL     1     -13.800  32.459  11.346  1.00  0.00     0.210 HD
ENDBRANCH  32  33
ENDBRANCH  26  32
BRANCH  27  35
ATOM     35  O   UNL     1     -13.125  35.156  10.917  1.00  0.00    -0.387 OA
ATOM     36  H   UNL     1     -13.528  34.291  10.651  1.00  0.00     0.211 HD
ENDBRANCH  27  35
ENDBRANCH  21  22
ENDBRANCH   2  21
BRANCH   5  37
ATOM     37  O   UNL     1      -9.509  28.683   6.943  1.00  0.00    -0.461 OA
BRANCH  37  38
ATOM     38  C   UNL     1     -10.822  28.152   6.737  1.00  0.00     0.339 C 
ATOM     39  C   UNL     1     -11.880  29.264   6.824  1.00  0.00     0.214 C 
ATOM     40  O   UNL     1     -11.083  27.078   7.631  1.00  0.00    -0.332 OA
ATOM     41  C   UNL     1     -11.982  29.782   8.265  1.00  0.00     0.180 C 
ATOM     42  C   UNL     1     -11.186  27.460   8.997  1.00  0.00     0.179 C 
ATOM     43  C   UNL     1     -12.193  28.615   9.247  1.00  0.00     0.177 C 
BRANCH  39  44
ATOM     44  O   UNL     1     -13.124  28.771   6.391  1.00  0.00    -0.384 OA
ATOM     45  H   UNL     1     -13.037  27.783   6.332  1.00  0.00     0.211 HD
ENDBRANCH  39  44
BRANCH  41  46
ATOM     46  O   UNL     1     -13.003  30.743   8.385  1.00  0.00    -0.387 OA
ATOM     47  H   UNL     1     -13.786  30.436   7.855  1.00  0.00     0.211 HD
ENDBRANCH  41  46
BRANCH  42  48
ATOM     48  C   UNL     1      -9.808  27.595   9.688  1.00  0.00     0.191 C 
BRANCH  48  49
ATOM     49  O   UNL     1      -9.892  27.406  11.074  1.00  0.00    -0.394 OA
ATOM     50  H   UNL     1      -9.348  28.124  11.489  1.00  0.00     0.210 HD
ENDBRANCH  48  49
ENDBRANCH  42  48
BRANCH  43  51
ATOM     51  O   UNL     1     -12.077  29.083  10.570  1.00  0.00    -0.387 OA
ATOM     52  H   UNL     1     -11.417  29.823  10.563  1.00  0.00     0.211 HD
ENDBRANCH  43  51
ENDBRANCH  37  38
ENDBRANCH   5  37
BRANCH   7  53
ATOM     53  O   UNL     1      -6.797  28.772   2.938  1.00  0.00    -0.507 OA
ATOM     54  H   UNL     1      -5.807  28.567   2.999  1.00  0.00     0.293 HD
ENDBRANCH   7  53
TORSDOF 18
ENDMDL
MODEL 4
REMARK VINA RESULT:    -3.863     15.182     19.296
REMARK INTER + INTRA:          -8.885
REMARK INTER:                  -8.172
REMARK INTRA:                  -0.713
REMARK UNBOUND:                -2.085
REMARK SMILES COc1cc(-c2[o+]c3cc(O)cc(O[C@H]4O[C@@H](CO)[C@@H](O)[C@H](O)[C@@H]4O)c3cc2O[C@H]2O[C@H](CO)[C@H](O)[C@@H](O)[C@@H]2O)ccc1O
REMARK SMILES IDX 6 1 28 2 27 3 26 4 13 5 12 6 10 7 9 8 8 9 7 10 5 11 3 12
REMARK SMILES IDX 43 13 4 14 42 15 41 16 2 17 1 18 44 19 29 21 30 22 39 23
REMARK SMILES IDX 31 24 37 25 32 26 35 27 40 28 38 30 33 32 34 33 36 35 14 37
REMARK SMILES IDX 15 38 24 39 16 40 22 41 17 42 20 43 25 44 23 46 18 48 19 49
REMARK SMILES IDX 21 51 11 53
REMARK H PARENT 44 20 40 29 38 31 34 34 36 36 25 45 23 47 19 50 21 52 11 54
REMARK Flexibility Score: inf
ROOT
ATOM      1  C   UNL     1       4.576  46.251   4.020  1.00  0.00     0.402 A 
ATOM      2  C   UNL     1       3.218  45.985   3.771  1.00  0.00     0.229 A 
ATOM      3  C   UNL     1       2.811  45.775   2.447  1.00  0.00     0.079 A 
ATOM      4  C   UNL     1       3.754  45.805   1.415  1.00  0.00     0.126 A 
ATOM      5  C   UNL     1       3.400  45.579   0.069  1.00  0.00     0.143 A 
ATOM      6  C   UNL     1       4.378  45.671  -0.927  1.00  0.00     0.094 A 
ATOM      7  C   UNL     1       5.708  45.956  -0.597  1.00  0.00     0.128 A 
ATOM      8  C   UNL     1       6.064  46.167   0.739  1.00  0.00     0.162 A 
ATOM      9  C   UNL     1       5.095  46.096   1.745  1.00  0.00     0.368 A 
ATOM     10  O   UNL     1       5.445  46.307   3.012  1.00  0.00    -0.202 OA
ENDROOT
BRANCH   1  11
ATOM     11  C   UNL     1       5.055  46.533   5.390  1.00  0.00     0.087 A 
ATOM     12  C   UNL     1       4.561  46.946   7.747  1.00  0.00     0.161 A 
ATOM     13  C   UNL     1       5.940  46.934   8.028  1.00  0.00     0.157 A 
ATOM     14  C   UNL     1       4.128  46.761   6.418  1.00  0.00     0.068 A 
ATOM     15  C   UNL     1       6.862  46.736   6.995  1.00  0.00     0.051 A 
ATOM     16  C   UNL     1       6.425  46.534   5.687  1.00  0.00     0.022 A 
BRANCH  12  17
ATOM     17  O   UNL     1       3.656  47.125   8.804  1.00  0.00    -0.493 OA
ATOM     18  C   UNL     1       2.266  46.814   8.738  1.00  0.00     0.278 C 
ENDBRANCH  12  17
BRANCH  13  19
ATOM     19  O   UNL     1       6.412  47.119   9.328  1.00  0.00    -0.504 OA
ATOM     20  H   UNL     1       5.792  47.306  10.109  1.00  0.00     0.293 HD
ENDBRANCH  13  19
ENDBRANCH   1  11
BRANCH   2  21
ATOM     21  O   UNL     1       2.318  45.959   4.848  1.00  0.00    -0.452 OA
BRANCH  21  22
ATOM     22  C   UNL     1       0.890  46.001   4.757  1.00  0.00     0.339 C 
ATOM     23  C   UNL     1       0.237  45.738   6.132  1.00  0.00     0.214 C 
ATOM     24  O   UNL     1       0.434  45.068   3.790  1.00  0.00    -0.332 OA
ATOM     25  C   UNL     1       0.467  44.273   6.574  1.00  0.00     0.180 C 
ATOM     26  C   UNL     1       0.815  43.743   4.130  1.00  0.00     0.179 C 
ATOM     27  C   UNL     1       0.113  43.297   5.434  1.00  0.00     0.177 C 
BRANCH  23  28
ATOM     28  O   UNL     1      -1.139  46.007   6.040  1.00  0.00    -0.384 OA
ATOM     29  H   UNL     1      -1.272  46.939   6.359  1.00  0.00     0.211 HD
ENDBRANCH  23  28
BRANCH  25  30
ATOM     30  O   UNL     1       1.808  44.081   6.951  1.00  0.00    -0.387 OA
ATOM     31  H   UNL     1       2.350  44.085   6.117  1.00  0.00     0.211 HD
ENDBRANCH  25  30
BRANCH  26  32
ATOM     32  C   UNL     1       0.469  42.817   2.959  1.00  0.00     0.191 C 
BRANCH  32  33
ATOM     33  O   UNL     1      -0.391  43.475   2.065  1.00  0.00    -0.394 OA
ATOM     34  H   UNL     1      -1.218  42.923   2.030  1.00  0.00     0.210 HD
ENDBRANCH  32  33
ENDBRANCH  26  32
BRANCH  27  35
ATOM     35  O   UNL     1      -1.277  43.272   5.240  1.00  0.00    -0.387 OA
ATOM     36  H   UNL     1      -1.630  42.527   5.791  1.00  0.00     0.211 HD
ENDBRANCH  27  35
ENDBRANCH  21  22
ENDBRANCH   2  21
BRANCH   5  37
ATOM     37  O   UNL     1       2.085  45.272  -0.299  1.00  0.00    -0.461 OA
BRANCH  37  38
ATOM     38  C   UNL     1       1.693  45.022  -1.653  1.00  0.00     0.339 C 
ATOM     39  C   UNL     1       0.191  45.284  -1.844  1.00  0.00     0.214 C 
ATOM     40  O   UNL     1       2.077  43.716  -2.061  1.00  0.00    -0.332 OA
ATOM     41  C   UNL     1      -0.627  44.228  -1.090  1.00  0.00     0.180 C 
ATOM     42  C   UNL     1       1.377  42.664  -1.407  1.00  0.00     0.179 C 
ATOM     43  C   UNL     1      -0.167  42.808  -1.474  1.00  0.00     0.177 C 
BRANCH  39  44
ATOM     44  O   UNL     1      -0.124  45.261  -3.214  1.00  0.00    -0.384 OA
ATOM     45  H   UNL     1       0.733  45.353  -3.708  1.00  0.00     0.211 HD
ENDBRANCH  39  44
BRANCH  41  46
ATOM     46  O   UNL     1      -2.005  44.398  -1.318  1.00  0.00    -0.387 OA
ATOM     47  H   UNL     1      -2.139  44.619  -2.279  1.00  0.00     0.211 HD
ENDBRANCH  41  46
BRANCH  42  48
ATOM     48  C   UNL     1       1.970  42.319  -0.020  1.00  0.00     0.191 C 
BRANCH  48  49
ATOM     49  O   UNL     1       3.371  42.318  -0.032  1.00  0.00    -0.394 OA
ATOM     50  H   UNL     1       3.651  41.372  -0.139  1.00  0.00     0.210 HD
ENDBRANCH  48  49
ENDBRANCH  42  48
BRANCH  43  51
ATOM     51  O   UNL     1      -0.781  41.866  -0.625  1.00  0.00    -0.387 OA
ATOM     52  H   UNL     1      -0.425  42.018   0.288  1.00  0.00     0.211 HD
ENDBRANCH  43  51
ENDBRANCH  37  38
ENDBRANCH   5  37
BRANCH   7  53
ATOM     53  O   UNL     1       6.687  46.021  -1.587  1.00  0.00    -0.507 OA
ATOM     54  H   UNL     1       7.204  46.873  -1.767  1.00  0.00     0.293 HD
ENDBRANCH   7  53
TORSDOF 18
ENDMDL
MODEL 5
REMARK VINA RESULT:    -3.828      1.999      5.756
REMARK INTER + INTRA:          -8.823
REMARK INTER:                  -6.503
REMARK INTRA:                  -2.320
REMARK UNBOUND:                -2.085
REMARK SMILES COc1cc(-c2[o+]c3cc(O)cc(O[C@H]4O[C@@H](CO)[C@@H](O)[C@H](O)[C@@H]4O)c3cc2O[C@H]2O[C@H](CO)[C@H](O)[C@@H](O)[C@@H]2O)ccc1O
REMARK SMILES IDX 6 1 28 2 27 3 26 4 13 5 12 6 10 7 9 8 8 9 7 10 5 11 3 12
REMARK SMILES IDX 43 13 4 14 42 15 41 16 2 17 1 18 44 19 29 21 30 22 39 23
REMARK SMILES IDX 31 24 37 25 32 26 35 27 40 28 38 30 33 32 34 33 36 35 14 37
REMARK SMILES IDX 15 38 24 39 16 40 22 41 17 42 20 43 25 44 23 46 18 48 19 49
REMARK SMILES IDX 21 51 11 53
REMARK H PARENT 44 20 40 29 38 31 34 34 36 36 25 45 23 47 19 50 21 52 11 54
REMARK Flexibility Score: inf
ROOT
ATOM      1  C   UNL     1     -11.329  32.376   9.040  1.00  0.00     0.402 A 
ATOM      2  C   UNL     1     -10.212  32.723   8.259  1.00  0.00     0.229 A 
ATOM      3  C   UNL     1      -9.891  34.080   8.120  1.00  0.00     0.079 A 
ATOM      4  C   UNL     1     -10.658  35.048   8.774  1.00  0.00     0.126 A 
ATOM      5  C   UNL     1     -10.363  36.424   8.685  1.00  0.00     0.143 A 
ATOM      6  C   UNL     1     -11.195  37.352   9.321  1.00  0.00     0.094 A 
ATOM      7  C   UNL     1     -12.299  36.925  10.069  1.00  0.00     0.128 A 
ATOM      8  C   UNL     1     -12.585  35.559  10.171  1.00  0.00     0.162 A 
ATOM      9  C   UNL     1     -11.773  34.621   9.526  1.00  0.00     0.368 A 
ATOM     10  O   UNL     1     -12.060  33.325   9.623  1.00  0.00    -0.202 OA
ENDROOT
BRANCH   1  11
ATOM     11  C   UNL     1     -11.748  30.966   9.180  1.00  0.00     0.087 A 
ATOM     12  C   UNL     1     -11.883  28.937  10.535  1.00  0.00     0.161 A 
ATOM     13  C   UNL     1     -12.651  28.326   9.526  1.00  0.00     0.157 A 
ATOM     14  C   UNL     1     -11.420  30.255  10.343  1.00  0.00     0.068 A 
ATOM     15  C   UNL     1     -12.952  29.028   8.354  1.00  0.00     0.051 A 
ATOM     16  C   UNL     1     -12.507  30.338   8.182  1.00  0.00     0.022 A 
BRANCH  12  17
ATOM     17  O   UNL     1     -11.614  28.218  11.709  1.00  0.00    -0.493 OA
ATOM     18  C   UNL     1     -10.559  28.523  12.618  1.00  0.00     0.278 C 
ENDBRANCH  12  17
BRANCH  13  19
ATOM     19  O   UNL     1     -13.125  27.022   9.671  1.00  0.00    -0.504 OA
ATOM     20  H   UNL     1     -13.608  26.533   8.924  1.00  0.00     0.293 HD
ENDBRANCH  13  19
ENDBRANCH   1  11
BRANCH   2  21
ATOM     21  O   UNL     1      -9.475  31.707   7.631  1.00  0.00    -0.452 OA
BRANCH  21  22
ATOM     22  C   UNL     1      -9.267  31.560   6.222  1.00  0.00     0.339 C 
ATOM     23  C   UNL     1      -9.686  30.153   5.743  1.00  0.00     0.214 C 
ATOM     24  O   UNL     1      -7.912  31.827   5.897  1.00  0.00    -0.332 OA
ATOM     25  C   UNL     1      -8.724  29.076   6.302  1.00  0.00     0.180 C 
ATOM     26  C   UNL     1      -7.034  30.934   6.568  1.00  0.00     0.179 C 
ATOM     27  C   UNL     1      -7.256  29.485   6.072  1.00  0.00     0.177 C 
BRANCH  23  28
ATOM     28  O   UNL     1      -9.676  30.130   4.338  1.00  0.00    -0.384 OA
ATOM     29  H   UNL     1      -9.001  30.797   4.043  1.00  0.00     0.211 HD
ENDBRANCH  23  28
BRANCH  25  30
ATOM     30  O   UNL     1      -8.945  28.891   7.678  1.00  0.00    -0.387 OA
ATOM     31  H   UNL     1      -9.870  29.204   7.870  1.00  0.00     0.211 HD
ENDBRANCH  25  30
BRANCH  26  32
ATOM     32  C   UNL     1      -5.592  31.395   6.333  1.00  0.00     0.191 C 
BRANCH  32  33
ATOM     33  O   UNL     1      -4.925  31.527   7.562  1.00  0.00    -0.394 OA
ATOM     34  H   UNL     1      -4.964  32.495   7.788  1.00  0.00     0.210 HD
ENDBRANCH  32  33
ENDBRANCH  26  32
BRANCH  27  35
ATOM     35  O   UNL     1      -6.943  29.398   4.706  1.00  0.00    -0.387 OA
ATOM     36  H   UNL     1      -5.955  29.344   4.641  1.00  0.00     0.211 HD
ENDBRANCH  27  35
ENDBRANCH  21  22
ENDBRANCH   2  21
BRANCH   5  37
ATOM     37  O   UNL     1      -9.257  36.889   7.963  1.00  0.00    -0.461 OA
BRANCH  37  38
ATOM     38  C   UNL     1      -9.379  37.631   6.745  1.00  0.00     0.339 C 
ATOM     39  C   UNL     1     -10.664  37.244   5.996  1.00  0.00     0.214 C 
ATOM     40  O   UNL     1      -8.214  37.487   5.943  1.00  0.00    -0.332 OA
ATOM     41  C   UNL     1     -10.554  35.807   5.470  1.00  0.00     0.180 C 
ATOM     42  C   UNL     1      -8.021  36.180   5.414  1.00  0.00     0.179 C 
ATOM     43  C   UNL     1      -9.257  35.624   4.659  1.00  0.00     0.177 C 
BRANCH  39  44
ATOM     44  O   UNL     1     -10.883  38.140   4.935  1.00  0.00    -0.384 OA
ATOM     45  H   UNL     1      -9.988  38.420   4.606  1.00  0.00     0.211 HD
ENDBRANCH  39  44
BRANCH  41  46
ATOM     46  O   UNL     1     -11.686  35.460   4.709  1.00  0.00    -0.387 OA
ATOM     47  H   UNL     1     -11.941  34.526   4.935  1.00  0.00     0.211 HD
ENDBRANCH  41  46
BRANCH  42  48
ATOM     48  C   UNL     1      -7.348  35.218   6.423  1.00  0.00     0.191 C 
BRANCH  48  49
ATOM     49  O   UNL     1      -6.458  34.336   5.796  1.00  0.00    -0.394 OA
ATOM     50  H   UNL     1      -5.822  34.896   5.281  1.00  0.00     0.210 HD
ENDBRANCH  48  49
ENDBRANCH  42  48
BRANCH  43  51
ATOM     51  O   UNL     1      -9.073  34.260   4.362  1.00  0.00    -0.387 OA
ATOM     52  H   UNL     1      -9.018  33.777   5.226  1.00  0.00     0.211 HD
ENDBRANCH  43  51
ENDBRANCH  37  38
ENDBRANCH   5  37
BRANCH   7  53
ATOM     53  O   UNL     1     -13.112  37.847  10.724  1.00  0.00    -0.507 OA
ATOM     54  H   UNL     1     -12.861  38.827  10.787  1.00  0.00     0.293 HD
ENDBRANCH   7  53
TORSDOF 18
ENDMDL
MODEL 6
REMARK VINA RESULT:    -3.510      1.915      9.238
REMARK INTER + INTRA:          -8.262
REMARK INTER:                  -7.644
REMARK INTRA:                  -0.619
REMARK UNBOUND:                -2.085
REMARK SMILES COc1cc(-c2[o+]c3cc(O)cc(O[C@H]4O[C@@H](CO)[C@@H](O)[C@H](O)[C@@H]4O)c3cc2O[C@H]2O[C@H](CO)[C@H](O)[C@@H](O)[C@@H]2O)ccc1O
REMARK SMILES IDX 6 1 28 2 27 3 26 4 13 5 12 6 10 7 9 8 8 9 7 10 5 11 3 12
REMARK SMILES IDX 43 13 4 14 42 15 41 16 2 17 1 18 44 19 29 21 30 22 39 23
REMARK SMILES IDX 31 24 37 25 32 26 35 27 40 28 38 30 33 32 34 33 36 35 14 37
REMARK SMILES IDX 15 38 24 39 16 40 22 41 17 42 20 43 25 44 23 46 18 48 19 49
REMARK SMILES IDX 21 51 11 53
REMARK H PARENT 44 20 40 29 38 31 34 34 36 36 25 45 23 47 19 50 21 52 11 54
REMARK Flexibility Score: inf
ROOT
ATOM      1  C   UNL     1     -11.963  34.279   9.273  1.00  0.00     0.402 A 
ATOM      2  C   UNL     1     -11.283  33.898   8.102  1.00  0.00     0.229 A 
ATOM      3  C   UNL     1     -11.098  32.532   7.851  1.00  0.00     0.079 A 
ATOM      4  C   UNL     1     -11.611  31.585   8.743  1.00  0.00     0.126 A 
ATOM      5  C   UNL     1     -11.471  30.199   8.527  1.00  0.00     0.143 A 
ATOM      6  C   UNL     1     -11.960  29.298   9.478  1.00  0.00     0.094 A 
ATOM      7  C   UNL     1     -12.614  29.759  10.628  1.00  0.00     0.128 A 
ATOM      8  C   UNL     1     -12.766  31.134  10.837  1.00  0.00     0.162 A 
ATOM      9  C   UNL     1     -12.266  32.047   9.905  1.00  0.00     0.368 A 
ATOM     10  O   UNL     1     -12.410  33.353  10.120  1.00  0.00    -0.202 OA
ENDROOT
BRANCH   1  11
ATOM     11  C   UNL     1     -12.143  35.705   9.616  1.00  0.00     0.087 A 
ATOM     12  C   UNL     1     -11.805  38.060   9.059  1.00  0.00     0.161 A 
ATOM     13  C   UNL     1     -12.585  38.425  10.173  1.00  0.00     0.157 A 
ATOM     14  C   UNL     1     -11.575  36.694   8.799  1.00  0.00     0.068 A 
ATOM     15  C   UNL     1     -13.125  37.437  11.003  1.00  0.00     0.051 A 
ATOM     16  C   UNL     1     -12.908  36.087  10.726  1.00  0.00     0.022 A 
BRANCH  12  17
ATOM     17  O   UNL     1     -11.294  39.071   8.231  1.00  0.00    -0.493 OA
ATOM     18  C   UNL     1     -11.987  39.627   7.117  1.00  0.00     0.278 C 
ENDBRANCH  12  17
BRANCH  13  19
ATOM     19  O   UNL     1     -12.833  39.765  10.471  1.00  0.00    -0.504 OA
ATOM     20  H   UNL     1     -13.773  40.131  10.584  1.00  0.00     0.293 HD
ENDBRANCH  13  19
ENDBRANCH   1  11
BRANCH   2  21
ATOM     21  O   UNL     1     -10.798  34.894   7.239  1.00  0.00    -0.452 OA
BRANCH  21  22
ATOM     22  C   UNL     1      -9.495  35.485   7.281  1.00  0.00     0.339 C 
ATOM     23  C   UNL     1      -9.374  36.636   6.257  1.00  0.00     0.214 C 
ATOM     24  O   UNL     1      -8.502  34.497   7.055  1.00  0.00    -0.332 OA
ATOM     25  C   UNL     1      -9.409  36.086   4.811  1.00  0.00     0.180 C 
ATOM     26  C   UNL     1      -8.665  33.879   5.787  1.00  0.00     0.179 C 
ATOM     27  C   UNL     1      -8.431  34.905   4.653  1.00  0.00     0.177 C 
BRANCH  23  28
ATOM     28  O   UNL     1      -8.170  37.323   6.487  1.00  0.00    -0.384 OA
ATOM     29  H   UNL     1      -8.254  37.762   7.375  1.00  0.00     0.211 HD
ENDBRANCH  23  28
BRANCH  25  30
ATOM     30  O   UNL     1     -10.708  35.663   4.480  1.00  0.00    -0.387 OA
ATOM     31  H   UNL     1     -11.324  36.414   4.696  1.00  0.00     0.211 HD
ENDBRANCH  25  30
BRANCH  26  32
ATOM     32  C   UNL     1      -7.695  32.698   5.687  1.00  0.00     0.191 C 
BRANCH  32  33
ATOM     33  O   UNL     1      -6.373  33.150   5.837  1.00  0.00    -0.394 OA
ATOM     34  H   UNL     1      -6.122  32.941   6.777  1.00  0.00     0.210 HD
ENDBRANCH  32  33
ENDBRANCH  26  32
BRANCH  27  35
ATOM     35  O   UNL     1      -7.107  35.370   4.699  1.00  0.00    -0.387 OA
ATOM     36  H   UNL     1      -6.531  34.625   4.391  1.00  0.00     0.211 HD
ENDBRANCH  27  35
ENDBRANCH  21  22
ENDBRANCH   2  21
BRANCH   5  37
ATOM     37  O   UNL     1     -10.842  29.698   7.380  1.00  0.00    -0.461 OA
BRANCH  37  38
ATOM     38  C   UNL     1      -9.961  28.570   7.406  1.00  0.00     0.339 C 
ATOM     39  C   UNL     1      -8.619  28.910   6.739  1.00  0.00     0.214 C 
ATOM     40  O   UNL     1     -10.582  27.427   6.834  1.00  0.00    -0.332 OA
ATOM     41  C   UNL     1      -8.816  29.110   5.230  1.00  0.00     0.180 C 
ATOM     42  C   UNL     1     -10.815  27.521   5.434  1.00  0.00     0.179 C 
ATOM     43  C   UNL     1      -9.553  27.904   4.616  1.00  0.00     0.177 C 
BRANCH  39  44
ATOM     44  O   UNL     1      -7.694  27.879   6.980  1.00  0.00    -0.384 OA
ATOM     45  H   UNL     1      -7.947  27.462   7.845  1.00  0.00     0.211 HD
ENDBRANCH  39  44
BRANCH  41  46
ATOM     46  O   UNL     1      -7.587  29.340   4.586  1.00  0.00    -0.387 OA
ATOM     47  H   UNL     1      -7.768  29.557   3.632  1.00  0.00     0.211 HD
ENDBRANCH  41  46
BRANCH  42  48
ATOM     48  C   UNL     1     -12.111  28.296   5.092  1.00  0.00     0.191 C 
BRANCH  48  49
ATOM     49  O   UNL     1     -13.098  28.131   6.073  1.00  0.00    -0.394 OA
ATOM     50  H   UNL     1     -12.710  27.536   6.765  1.00  0.00     0.210 HD
ENDBRANCH  48  49
ENDBRANCH  42  48
BRANCH  43  51
ATOM     51  O   UNL     1      -9.907  28.195   3.284  1.00  0.00    -0.387 OA
ATOM     52  H   UNL     1      -9.143  28.678   2.876  1.00  0.00     0.211 HD
ENDBRANCH  43  51
ENDBRANCH  37  38
ENDBRANCH   5  37
BRANCH   7  53
ATOM     53  O   UNL     1     -13.125  28.861  11.562  1.00  0.00    -0.507 OA
ATOM     54  H   UNL     1     -13.830  28.177  11.311  1.00  0.00     0.293 HD
ENDBRANCH   7  53
TORSDOF 18
ENDMDL
