MODEL 1
REMARK VINA RESULT:     6.078      0.000      0.000
REMARK INTER + INTRA:           7.100
REMARK INTER:                   6.789
REMARK INTRA:                   0.311
REMARK UNBOUND:                 0.311
REMARK SMILES CC1(C)CC[C@]2(C(=O)[O-])[C@H](O)C[C@@]3(C)C(=CC[C@H]4[C@@]5(C)CC[C@@H](O)C(C)(C)[C@@H]5CC[C@]43C)[C@@H]2C1
REMARK SMILES IDX 6 1 5 2 33 3 10 4 4 5 34 6 15 7 12 8 2 9 16 10 13 11 1 12
REMARK SMILES IDX 3 13 17 14 31 15 14 16 18 17 30 18 32 19 19 20 29 21 21 22
REMARK SMILES IDX 20 23 28 24 22 25 25 26 23 27 26 28 27 29 7 30 8 31 9 32
REMARK SMILES IDX 11 33 24 35
REMARK H PARENT 11 34 24 36
REMARK Flexibility Score: inf
ROOT
ATOM      1  C   UNL     1      10.202  -3.479 -25.112  1.00  0.00     0.042 C 
ATOM      2  C   UNL     1      11.306  -2.959 -24.128  1.00  0.00     0.017 C 
ATOM      3  C   UNL     1       9.073  -4.378 -24.416  1.00  0.00     0.030 C 
ATOM      4  C   UNL     1       9.555  -2.211 -25.827  1.00  0.00     0.127 C 
ATOM      5  C   UNL     1      11.621  -3.899 -22.967  1.00  0.00     0.007 C 
ATOM      6  C   UNL     1       9.332  -4.935 -22.972  1.00  0.00     0.015 C 
ATOM      7  C   UNL     1       7.675  -3.813 -24.690  1.00  0.00    -0.063 C 
ATOM      8  C   UNL     1       8.277  -2.493 -26.694  1.00  0.00     0.044 C 
ATOM      9  C   UNL     1      10.381  -4.199 -22.105  1.00  0.00    -0.035 C 
ATOM     10  C   UNL     1       7.068  -3.061 -23.755  1.00  0.00    -0.027 C 
ATOM     11  C   UNL     1       7.307  -3.608 -26.167  1.00  0.00    -0.003 C 
ATOM     12  C   UNL     1       9.792  -2.915 -21.472  1.00  0.00     0.011 C 
ATOM     13  C   UNL     1      10.810  -5.125 -20.943  1.00  0.00     0.011 C 
ATOM     14  C   UNL     1       6.177  -1.922 -24.130  1.00  0.00     0.032 C 
ATOM     15  C   UNL     1       5.722  -3.263 -26.331  1.00  0.00    -0.020 C 
ATOM     16  C   UNL     1       7.640  -4.915 -26.976  1.00  0.00     0.017 C 
ATOM     17  C   UNL     1       5.122  -2.296 -25.195  1.00  0.00     0.006 C 
ATOM     18  C   UNL     1       5.413  -2.740 -27.783  1.00  0.00     0.008 C 
ATOM     19  C   UNL     1       4.915  -4.599 -26.185  1.00  0.00     0.012 C 
ATOM     20  C   UNL     1       4.246  -1.063 -25.722  1.00  0.00    -0.025 C 
ATOM     21  C   UNL     1       5.424  -1.222 -28.038  1.00  0.00     0.005 C 
ATOM     22  C   UNL     1       3.930  -0.069 -24.550  1.00  0.00     0.010 C 
ATOM     23  C   UNL     1       2.875  -1.608 -26.250  1.00  0.00     0.012 C 
ATOM     24  C   UNL     1       5.065  -0.315 -26.831  1.00  0.00     0.003 C 
ATOM     25  C   UNL     1       3.340   1.275 -24.997  1.00  0.00     0.033 C 
ATOM     26  C   UNL     1       4.538   1.121 -27.255  1.00  0.00    -0.006 C 
ATOM     27  C   UNL     1       4.274   1.986 -25.982  1.00  0.00     0.120 C 
ATOM     28  C   UNL     1       5.624   1.831 -28.110  1.00  0.00     0.014 C 
ATOM     29  C   UNL     1       3.245   1.100 -28.124  1.00  0.00     0.014 C 
ENDROOT
BRANCH   1  30
ATOM     30  C   UNL     1      10.954  -4.318 -26.148  1.00  0.00     0.051 C 
ATOM     31  O   UNL     1      11.863  -5.113 -25.781  1.00  0.00    -0.549 OA
ATOM     32  O   UNL     1      10.746  -4.130 -27.514  1.00  0.00    -0.549 OA
ENDBRANCH   1  30
BRANCH   4  33
ATOM     33  O   UNL     1       9.220  -1.242 -24.860  1.00  0.00    -0.392 OA
ATOM     34  H   UNL     1       8.527  -0.651 -25.257  1.00  0.00     0.210 HD
ENDBRANCH   4  33
BRANCH  27  35
ATOM     35  O   UNL     1       5.480   2.283 -25.317  1.00  0.00    -0.393 OA
ATOM     36  H   UNL     1       5.298   3.020 -24.681  1.00  0.00     0.210 HD
ENDBRANCH  27  35
TORSDOF 3
ENDMDL
