MODEL 1
REMARK VINA RESULT:    -4.105      0.000      0.000
REMARK INTER + INTRA:          -6.510
REMARK INTER:                  -5.904
REMARK INTRA:                  -0.606
REMARK UNBOUND:                -0.606
REMARK SMILES CCCCCCCCCO
REMARK SMILES IDX 6 1 5 2 4 3 3 4 2 5 1 6 7 7 8 8 9 9 10 10
REMARK H PARENT 10 11
REMARK Flexibility Score: inf
ROOT
ATOM      1  C   UNL     1      15.489  -2.492  18.010  1.00  0.00     0.000 C 
ENDROOT
BRANCH   1   2
ATOM      2  C   UNL     1      16.684  -1.636  18.458  1.00  0.00     0.000 C 
BRANCH   2   3
ATOM      3  C   UNL     1      16.961  -1.751  19.966  1.00  0.00    -0.000 C 
BRANCH   3   4
ATOM      4  C   UNL     1      18.322  -2.395  20.271  1.00  0.00    -0.000 C 
BRANCH   4   5
ATOM      5  C   UNL     1      18.143  -3.792  20.876  1.00  0.00    -0.003 C 
ATOM      6  C   UNL     1      18.679  -4.870  19.938  1.00  0.00     0.004 C 
ENDBRANCH   4   5
ENDBRANCH   3   4
ENDBRANCH   2   3
ENDBRANCH   1   2
BRANCH   1   7
ATOM      7  C   UNL     1      15.965  -3.782  17.330  1.00  0.00     0.002 C 
BRANCH   7   8
ATOM      8  C   UNL     1      15.587  -5.013  18.162  1.00  0.00     0.028 C 
BRANCH   8   9
ATOM      9  C   UNL     1      14.249  -5.599  17.704  1.00  0.00     0.156 C 
BRANCH   9  10
ATOM     10  O   UNL     1      13.457  -5.924  18.814  1.00  0.00    -0.396 OA
ATOM     11  H   UNL     1      14.051  -6.390  19.459  1.00  0.00     0.210 HD
ENDBRANCH   9  10
ENDBRANCH   8   9
ENDBRANCH   7   8
ENDBRANCH   1   7
TORSDOF 8
ENDMDL
MODEL 2
REMARK VINA RESULT:    -4.020      1.475      2.544
REMARK INTER + INTRA:          -6.388
REMARK INTER:                  -5.935
REMARK INTRA:                  -0.454
REMARK UNBOUND:                -0.606
REMARK SMILES CCCCCCCCCO
REMARK SMILES IDX 6 1 5 2 4 3 3 4 2 5 1 6 7 7 8 8 9 9 10 10
REMARK H PARENT 10 11
REMARK Flexibility Score: inf
ROOT
ATOM      1  C   UNL     1      18.528  -4.145  18.573  1.00  0.00     0.000 C 
ENDROOT
BRANCH   1   2
ATOM      2  C   UNL     1      18.331  -4.996  19.836  1.00  0.00     0.000 C 
BRANCH   2   3
ATOM      3  C   UNL     1      18.834  -4.293  21.108  1.00  0.00    -0.000 C 
BRANCH   3   4
ATOM      4  C   UNL     1      18.573  -2.780  21.091  1.00  0.00    -0.000 C 
BRANCH   4   5
ATOM      5  C   UNL     1      19.753  -2.014  21.701  1.00  0.00    -0.003 C 
ATOM      6  C   UNL     1      20.654  -2.944  22.509  1.00  0.00     0.004 C 
ENDBRANCH   4   5
ENDBRANCH   3   4
ENDBRANCH   2   3
ENDBRANCH   1   2
BRANCH   1   7
ATOM      7  C   UNL     1      17.248  -4.113  17.728  1.00  0.00     0.002 C 
BRANCH   7   8
ATOM      8  C   UNL     1      16.011  -4.375  18.595  1.00  0.00     0.028 C 
BRANCH   8   9
ATOM      9  C   UNL     1      14.951  -5.162  17.820  1.00  0.00     0.156 C 
BRANCH   9  10
ATOM     10  O   UNL     1      13.957  -5.624  18.693  1.00  0.00    -0.396 OA
ATOM     11  H   UNL     1      14.068  -6.610  18.755  1.00  0.00     0.210 HD
ENDBRANCH   9  10
ENDBRANCH   8   9
ENDBRANCH   7   8
ENDBRANCH   1   7
TORSDOF 8
ENDMDL
MODEL 3
REMARK VINA RESULT:    -4.008      5.700      6.368
REMARK INTER + INTRA:          -6.372
REMARK INTER:                  -6.143
REMARK INTRA:                  -0.228
REMARK UNBOUND:                -0.606
REMARK SMILES CCCCCCCCCO
REMARK SMILES IDX 6 1 5 2 4 3 3 4 2 5 1 6 7 7 8 8 9 9 10 10
REMARK H PARENT 10 11
REMARK Flexibility Score: inf
ROOT
ATOM      1  C   UNL     1      21.131  -3.217  19.828  1.00  0.00     0.000 C 
ENDROOT
BRANCH   1   2
ATOM      2  C   UNL     1      21.791  -3.349  21.209  1.00  0.00     0.000 C 
BRANCH   2   3
ATOM      3  C   UNL     1      20.814  -3.063  22.361  1.00  0.00    -0.000 C 
BRANCH   3   4
ATOM      4  C   UNL     1      21.328  -1.977  23.318  1.00  0.00    -0.000 C 
BRANCH   4   5
ATOM      5  C   UNL     1      20.179  -1.085  23.802  1.00  0.00    -0.003 C 
ATOM      6  C   UNL     1      19.502  -0.375  22.634  1.00  0.00     0.004 C 
ENDBRANCH   4   5
ENDBRANCH   3   4
ENDBRANCH   2   3
ENDBRANCH   1   2
BRANCH   1   7
ATOM      7  C   UNL     1      21.341  -4.489  18.996  1.00  0.00     0.002 C 
BRANCH   7   8
ATOM      8  C   UNL     1      21.301  -4.177  17.495  1.00  0.00     0.028 C 
BRANCH   8   9
ATOM      9  C   UNL     1      22.505  -4.787  16.773  1.00  0.00     0.156 C 
BRANCH   9  10
ATOM     10  O   UNL     1      23.332  -3.774  16.268  1.00  0.00    -0.396 OA
ATOM     11  H   UNL     1      24.252  -3.974  16.584  1.00  0.00     0.210 HD
ENDBRANCH   9  10
ENDBRANCH   8   9
ENDBRANCH   7   8
ENDBRANCH   1   7
TORSDOF 8
ENDMDL
MODEL 4
REMARK VINA RESULT:    -3.982      1.518      2.958
REMARK INTER + INTRA:          -6.334
REMARK INTER:                  -5.674
REMARK INTRA:                  -0.660
REMARK UNBOUND:                -0.606
REMARK SMILES CCCCCCCCCO
REMARK SMILES IDX 6 1 5 2 4 3 3 4 2 5 1 6 7 7 8 8 9 9 10 10
REMARK H PARENT 10 11
REMARK Flexibility Score: inf
ROOT
ATOM      1  C   UNL     1      17.759  -3.654  18.912  1.00  0.00     0.000 C 
ENDROOT
BRANCH   1   2
ATOM      2  C   UNL     1      18.188  -3.363  17.465  1.00  0.00     0.000 C 
BRANCH   2   3
ATOM      3  C   UNL     1      18.369  -1.861  17.192  1.00  0.00    -0.000 C 
BRANCH   3   4
ATOM      4  C   UNL     1      18.013  -0.991  18.407  1.00  0.00    -0.000 C 
BRANCH   4   5
ATOM      5  C   UNL     1      16.873  -0.022  18.072  1.00  0.00    -0.003 C 
ATOM      6  C   UNL     1      15.514  -0.699  18.219  1.00  0.00     0.004 C 
ENDBRANCH   4   5
ENDBRANCH   3   4
ENDBRANCH   2   3
ENDBRANCH   1   2
BRANCH   1   7
ATOM      7  C   UNL     1      16.444  -4.443  18.945  1.00  0.00     0.002 C 
BRANCH   7   8
ATOM      8  C   UNL     1      15.714  -4.352  17.600  1.00  0.00     0.028 C 
BRANCH   8   9
ATOM      9  C   UNL     1      14.665  -5.458  17.466  1.00  0.00     0.156 C 
BRANCH   9  10
ATOM     10  O   UNL     1      13.970  -5.616  18.673  1.00  0.00    -0.396 OA
ATOM     11  H   UNL     1      14.624  -5.447  19.402  1.00  0.00     0.210 HD
ENDBRANCH   9  10
ENDBRANCH   8   9
ENDBRANCH   7   8
ENDBRANCH   1   7
TORSDOF 8
ENDMDL
MODEL 5
REMARK VINA RESULT:    -3.893      3.940      5.399
REMARK INTER + INTRA:          -6.206
REMARK INTER:                  -5.619
REMARK INTRA:                  -0.587
REMARK UNBOUND:                -0.606
REMARK SMILES CCCCCCCCCO
REMARK SMILES IDX 6 1 5 2 4 3 3 4 2 5 1 6 7 7 8 8 9 9 10 10
REMARK H PARENT 10 11
REMARK Flexibility Score: inf
ROOT
ATOM      1  C   UNL     1      20.682  -2.829  19.912  1.00  0.00     0.000 C 
ENDROOT
BRANCH   1   2
ATOM      2  C   UNL     1      19.827  -3.045  21.171  1.00  0.00     0.000 C 
BRANCH   2   3
ATOM      3  C   UNL     1      18.660  -4.018  20.933  1.00  0.00    -0.000 C 
BRANCH   3   4
ATOM      4  C   UNL     1      17.301  -3.306  20.860  1.00  0.00    -0.000 C 
BRANCH   4   5
ATOM      5  C   UNL     1      16.637  -3.533  19.497  1.00  0.00    -0.003 C 
ATOM      6  C   UNL     1      17.331  -4.651  18.725  1.00  0.00     0.004 C 
ENDBRANCH   4   5
ENDBRANCH   3   4
ENDBRANCH   2   3
ENDBRANCH   1   2
BRANCH   1   7
ATOM      7  C   UNL     1      21.057  -4.169  19.267  1.00  0.00     0.002 C 
BRANCH   7   8
ATOM      8  C   UNL     1      20.978  -4.085  17.739  1.00  0.00     0.028 C 
BRANCH   8   9
ATOM      9  C   UNL     1      22.077  -4.923  17.083  1.00  0.00     0.156 C 
BRANCH   9  10
ATOM     10  O   UNL     1      23.056  -4.088  16.526  1.00  0.00    -0.396 OA
ATOM     11  H   UNL     1      22.627  -3.617  15.764  1.00  0.00     0.210 HD
ENDBRANCH   9  10
ENDBRANCH   8   9
ENDBRANCH   7   8
ENDBRANCH   1   7
TORSDOF 8
ENDMDL
MODEL 6
REMARK VINA RESULT:    -3.864      5.410      6.562
REMARK INTER + INTRA:          -6.164
REMARK INTER:                  -5.527
REMARK INTRA:                  -0.637
REMARK UNBOUND:                -0.606
REMARK SMILES CCCCCCCCCO
REMARK SMILES IDX 6 1 5 2 4 3 3 4 2 5 1 6 7 7 8 8 9 9 10 10
REMARK H PARENT 10 11
REMARK Flexibility Score: inf
ROOT
ATOM      1  C   UNL     1      20.923  -3.402  22.866  1.00  0.00     0.000 C 
ENDROOT
BRANCH   1   2
ATOM      2  C   UNL     1      21.376  -2.046  23.429  1.00  0.00     0.000 C 
BRANCH   2   3
ATOM      3  C   UNL     1      20.196  -1.115  23.752  1.00  0.00    -0.000 C 
BRANCH   3   4
ATOM      4  C   UNL     1      20.278   0.226  23.007  1.00  0.00    -0.000 C 
BRANCH   4   5
ATOM      5  C   UNL     1      21.713   0.511  22.549  1.00  0.00    -0.003 C 
ATOM      6  C   UNL     1      21.766   0.806  21.053  1.00  0.00     0.004 C 
ENDBRANCH   4   5
ENDBRANCH   3   4
ENDBRANCH   2   3
ENDBRANCH   1   2
BRANCH   1   7
ATOM      7  C   UNL     1      20.042  -3.213  21.624  1.00  0.00     0.002 C 
BRANCH   7   8
ATOM      8  C   UNL     1      20.885  -2.817  20.407  1.00  0.00     0.028 C 
BRANCH   8   9
ATOM      9  C   UNL     1      21.296  -4.049  19.597  1.00  0.00     0.156 C 
BRANCH   9  10
ATOM     10  O   UNL     1      22.130  -3.674  18.534  1.00  0.00    -0.396 OA
ATOM     11  H   UNL     1      23.001  -4.127  18.683  1.00  0.00     0.210 HD
ENDBRANCH   9  10
ENDBRANCH   8   9
ENDBRANCH   7   8
ENDBRANCH   1   7
TORSDOF 8
ENDMDL
MODEL 7
REMARK VINA RESULT:    -3.844      4.509      5.171
REMARK INTER + INTRA:          -6.135
REMARK INTER:                  -5.453
REMARK INTRA:                  -0.682
REMARK UNBOUND:                -0.606
REMARK SMILES CCCCCCCCCO
REMARK SMILES IDX 6 1 5 2 4 3 3 4 2 5 1 6 7 7 8 8 9 9 10 10
REMARK H PARENT 10 11
REMARK Flexibility Score: inf
ROOT
ATOM      1  C   UNL     1      19.628  -2.902  17.661  1.00  0.00     0.000 C 
ENDROOT
BRANCH   1   2
ATOM      2  C   UNL     1      19.926  -1.909  18.795  1.00  0.00     0.000 C 
BRANCH   2   3
ATOM      3  C   UNL     1      18.952  -2.051  19.976  1.00  0.00    -0.000 C 
BRANCH   3   4
ATOM      4  C   UNL     1      19.650  -1.915  21.338  1.00  0.00    -0.000 C 
BRANCH   4   5
ATOM      5  C   UNL     1      20.172  -3.273  21.823  1.00  0.00    -0.003 C 
ATOM      6  C   UNL     1      21.698  -3.297  21.852  1.00  0.00     0.004 C 
ENDBRANCH   4   5
ENDBRANCH   3   4
ENDBRANCH   2   3
ENDBRANCH   1   2
BRANCH   1   7
ATOM      7  C   UNL     1      19.911  -4.343  18.106  1.00  0.00     0.002 C 
BRANCH   7   8
ATOM      8  C   UNL     1      21.413  -4.566  18.323  1.00  0.00     0.028 C 
BRANCH   8   9
ATOM      9  C   UNL     1      22.116  -4.902  17.005  1.00  0.00     0.156 C 
BRANCH   9  10
ATOM     10  O   UNL     1      22.861  -3.801  16.560  1.00  0.00    -0.396 OA
ATOM     11  H   UNL     1      22.225  -3.197  16.093  1.00  0.00     0.210 HD
ENDBRANCH   9  10
ENDBRANCH   8   9
ENDBRANCH   7   8
ENDBRANCH   1   7
TORSDOF 8
ENDMDL
MODEL 8
REMARK VINA RESULT:    -3.813      5.699      7.840
REMARK INTER + INTRA:          -6.091
REMARK INTER:                  -5.354
REMARK INTRA:                  -0.737
REMARK UNBOUND:                -0.606
REMARK SMILES CCCCCCCCCO
REMARK SMILES IDX 6 1 5 2 4 3 3 4 2 5 1 6 7 7 8 8 9 9 10 10
REMARK H PARENT 10 11
REMARK Flexibility Score: inf
ROOT
ATOM      1  C   UNL     1      20.706  -0.708  22.847  1.00  0.00     0.000 C 
ENDROOT
BRANCH   1   2
ATOM      2  C   UNL     1      21.041  -1.983  23.636  1.00  0.00     0.000 C 
BRANCH   2   3
ATOM      3  C   UNL     1      20.974  -3.250  22.769  1.00  0.00    -0.000 C 
BRANCH   3   4
ATOM      4  C   UNL     1      19.786  -3.239  21.794  1.00  0.00    -0.000 C 
BRANCH   4   5
ATOM      5  C   UNL     1      20.225  -3.676  20.392  1.00  0.00    -0.003 C 
ATOM      6  C   UNL     1      21.701  -3.369  20.156  1.00  0.00     0.004 C 
ENDBRANCH   4   5
ENDBRANCH   3   4
ENDBRANCH   2   3
ENDBRANCH   1   2
BRANCH   1   7
ATOM      7  C   UNL     1      21.945  -0.176  22.115  1.00  0.00     0.002 C 
BRANCH   7   8
ATOM      8  C   UNL     1      23.192  -0.275  23.000  1.00  0.00     0.028 C 
BRANCH   8   9
ATOM      9  C   UNL     1      24.396  -0.781  22.202  1.00  0.00     0.156 C 
BRANCH   9  10
ATOM     10  O   UNL     1      24.424  -2.182  22.203  1.00  0.00    -0.396 OA
ATOM     11  H   UNL     1      24.570  -2.464  21.262  1.00  0.00     0.210 HD
ENDBRANCH   9  10
ENDBRANCH   8   9
ENDBRANCH   7   8
ENDBRANCH   1   7
TORSDOF 8
ENDMDL
MODEL 9
REMARK VINA RESULT:    -3.784      3.467      5.243
REMARK INTER + INTRA:          -6.049
REMARK INTER:                  -5.224
REMARK INTRA:                  -0.825
REMARK UNBOUND:                -0.606
REMARK SMILES CCCCCCCCCO
REMARK SMILES IDX 6 1 5 2 4 3 3 4 2 5 1 6 7 7 8 8 9 9 10 10
REMARK H PARENT 10 11
REMARK Flexibility Score: inf
ROOT
ATOM      1  C   UNL     1      18.818  -4.175  20.776  1.00  0.00     0.000 C 
ENDROOT
BRANCH   1   2
ATOM      2  C   UNL     1      17.514  -3.366  20.689  1.00  0.00     0.000 C 
BRANCH   2   3
ATOM      3  C   UNL     1      17.564  -2.277  19.605  1.00  0.00    -0.000 C 
BRANCH   3   4
ATOM      4  C   UNL     1      17.509  -2.855  18.182  1.00  0.00    -0.000 C 
BRANCH   4   5
ATOM      5  C   UNL     1      18.685  -2.349  17.340  1.00  0.00    -0.003 C 
ATOM      6  C   UNL     1      19.348  -1.138  17.990  1.00  0.00     0.004 C 
ENDBRANCH   4   5
ENDBRANCH   3   4
ENDBRANCH   2   3
ENDBRANCH   1   2
BRANCH   1   7
ATOM      7  C   UNL     1      19.906  -3.383  21.512  1.00  0.00     0.002 C 
BRANCH   7   8
ATOM      8  C   UNL     1      21.118  -3.141  20.606  1.00  0.00     0.028 C 
BRANCH   8   9
ATOM      9  C   UNL     1      21.162  -4.155  19.460  1.00  0.00     0.156 C 
BRANCH   9  10
ATOM     10  O   UNL     1      22.094  -3.754  18.494  1.00  0.00    -0.396 OA
ATOM     11  H   UNL     1      22.186  -4.510  17.856  1.00  0.00     0.210 HD
ENDBRANCH   9  10
ENDBRANCH   8   9
ENDBRANCH   7   8
ENDBRANCH   1   7
TORSDOF 8
ENDMDL
