MODEL 1
REMARK VINA RESULT:    -5.767      0.000      0.000
REMARK INTER + INTRA:          -8.949
REMARK INTER:                  -8.126
REMARK INTRA:                  -0.822
REMARK UNBOUND:                -0.822
REMARK SMILES C=C(CC[C@@H](C(=O)[O-])[C@H]1[C@@H](O)C[C@@]2(C)C3=C(CC[C@@]12C)[C@]1(C)CC[C@@H](O)C(C)(C)[C@@H]1CC3)C(C)C
REMARK SMILES IDX 4 1 5 2 6 3 7 4 8 5 9 6 10 7 19 8 12 9 13 10 18 11 20 12
REMARK SMILES IDX 14 13 15 14 17 15 16 16 32 17 21 18 31 19 30 20 23 21 22 22
REMARK SMILES IDX 27 23 24 24 25 25 28 26 29 27 11 28 26 30 3 32 2 33 1 34
REMARK SMILES IDX 33 35 34 36 35 37
REMARK H PARENT 11 29 26 31
REMARK Flexibility Score: inf
ROOT
ATOM      1  C   UNL     1       7.259  -3.803  -7.249  1.00  0.00     0.014 C 
ENDROOT
BRANCH   1   2
ATOM      2  C   UNL     1       6.423  -2.530  -7.584  1.00  0.00     0.042 C 
BRANCH   2   3
ATOM      3  C   UNL     1       5.262  -2.996  -8.429  1.00  0.00     0.045 C 
ATOM      4  O   UNL     1       5.146  -2.614  -9.625  1.00  0.00    -0.550 OA
ATOM      5  O   UNL     1       4.369  -3.931  -7.925  1.00  0.00    -0.550 OA
ENDBRANCH   2   3
BRANCH   2   6
ATOM      6  C   UNL     1       5.908  -1.762  -6.304  1.00  0.00     0.033 C 
ATOM      7  C   UNL     1       7.022  -1.389  -5.318  1.00  0.00     0.119 C 
ATOM      8  C   UNL     1       5.083  -0.427  -6.488  1.00  0.00    -0.017 C 
ATOM      9  C   UNL     1       6.344  -0.462  -4.338  1.00  0.00     0.043 C 
ATOM     10  C   UNL     1       5.368   0.427  -5.159  1.00  0.00    -0.003 C 
ATOM     11  C   UNL     1       5.560   0.369  -7.737  1.00  0.00     0.012 C 
ATOM     12  C   UNL     1       3.572  -0.777  -6.683  1.00  0.00     0.013 C 
ATOM     13  C   UNL     1       4.118   0.669  -4.265  1.00  0.00     0.017 C 
ATOM     14  C   UNL     1       5.943   1.851  -5.451  1.00  0.00    -0.064 C 
ATOM     15  C   UNL     1       4.989   1.787  -7.726  1.00  0.00     0.032 C 
ATOM     16  C   UNL     1       5.472   2.568  -6.511  1.00  0.00    -0.064 C 
ATOM     17  C   UNL     1       6.862   2.512  -4.446  1.00  0.00     0.032 C 
ATOM     18  C   UNL     1       5.352   4.129  -6.492  1.00  0.00    -0.008 C 
ATOM     19  C   UNL     1       7.244   3.943  -4.803  1.00  0.00     0.009 C 
ATOM     20  C   UNL     1       5.988   4.756  -5.173  1.00  0.00     0.007 C 
ATOM     21  C   UNL     1       6.069   4.691  -7.761  1.00  0.00     0.014 C 
ATOM     22  C   UNL     1       3.827   4.464  -6.554  1.00  0.00     0.016 C 
ATOM     23  C   UNL     1       6.251   6.331  -5.217  1.00  0.00    -0.006 C 
ATOM     24  C   UNL     1       6.244   6.214  -7.781  1.00  0.00     0.033 C 
ATOM     25  C   UNL     1       6.980   6.719  -6.538  1.00  0.00     0.120 C 
ATOM     26  C   UNL     1       7.136   6.792  -4.018  1.00  0.00     0.014 C 
ATOM     27  C   UNL     1       4.918   7.118  -5.051  1.00  0.00     0.014 C 
BRANCH   7  28
ATOM     28  O   UNL     1       8.057  -0.691  -5.970  1.00  0.00    -0.393 OA
ATOM     29  H   UNL     1       7.646  -0.167  -6.710  1.00  0.00     0.210 HD
ENDBRANCH   7  28
BRANCH  25  30
ATOM     30  O   UNL     1       7.124   8.115  -6.637  1.00  0.00    -0.393 OA
ATOM     31  H   UNL     1       7.819   8.294  -7.325  1.00  0.00     0.210 HD
ENDBRANCH  25  30
ENDBRANCH   2   6
ENDBRANCH   1   2
BRANCH   1  32
ATOM     32  C   UNL     1       8.771  -3.679  -7.524  1.00  0.00     0.031 C 
BRANCH  32  33
ATOM     33  C   UNL     1       9.579  -4.320  -6.406  1.00  0.00    -0.075 C 
ATOM     34  C   UNL     1       9.927  -3.570  -5.351  1.00  0.00     0.008 C 
BRANCH  33  35
ATOM     35  C   UNL     1       9.887  -5.813  -6.409  1.00  0.00     0.008 C 
ATOM     36  C   UNL     1       9.834  -6.404  -7.825  1.00  0.00     0.012 C 
ATOM     37  C   UNL     1       8.950  -6.567  -5.459  1.00  0.00     0.012 C 
ENDBRANCH  33  35
ENDBRANCH  32  33
ENDBRANCH   1  32
TORSDOF 8
ENDMDL
MODEL 2
REMARK VINA RESULT:    -4.898     10.980     15.058
REMARK INTER + INTRA:          -7.725
REMARK INTER:                  -6.747
REMARK INTRA:                  -0.978
REMARK UNBOUND:                -0.822
REMARK SMILES C=C(CC[C@@H](C(=O)[O-])[C@H]1[C@@H](O)C[C@@]2(C)C3=C(CC[C@@]12C)[C@]1(C)CC[C@@H](O)C(C)(C)[C@@H]1CC3)C(C)C
REMARK SMILES IDX 4 1 5 2 6 3 7 4 8 5 9 6 10 7 19 8 12 9 13 10 18 11 20 12
REMARK SMILES IDX 14 13 15 14 17 15 16 16 32 17 21 18 31 19 30 20 23 21 22 22
REMARK SMILES IDX 27 23 24 24 25 25 28 26 29 27 11 28 26 30 3 32 2 33 1 34
REMARK SMILES IDX 33 35 34 36 35 37
REMARK H PARENT 11 29 26 31
REMARK Flexibility Score: inf
ROOT
ATOM      1  C   UNL     1       0.694   6.395   0.808  1.00  0.00     0.014 C 
ENDROOT
BRANCH   1   2
ATOM      2  C   UNL     1       1.322   5.654   2.027  1.00  0.00     0.042 C 
BRANCH   2   3
ATOM      3  C   UNL     1       2.609   6.378   2.346  1.00  0.00     0.045 C 
ATOM      4  O   UNL     1       3.715   5.778   2.278  1.00  0.00    -0.550 OA
ATOM      5  O   UNL     1       2.589   7.740   2.615  1.00  0.00    -0.550 OA
ENDBRANCH   2   3
BRANCH   2   6
ATOM      6  C   UNL     1       0.379   5.612   3.293  1.00  0.00     0.033 C 
ATOM      7  C   UNL     1      -1.053   5.161   2.981  1.00  0.00     0.119 C 
ATOM      8  C   UNL     1       0.803   4.740   4.541  1.00  0.00    -0.017 C 
ATOM      9  C   UNL     1      -1.673   4.952   4.342  1.00  0.00     0.043 C 
ATOM     10  C   UNL     1      -0.577   4.319   5.245  1.00  0.00    -0.003 C 
ATOM     11  C   UNL     1       1.581   3.466   4.105  1.00  0.00     0.012 C 
ATOM     12  C   UNL     1       1.735   5.585   5.469  1.00  0.00     0.013 C 
ATOM     13  C   UNL     1      -0.778   4.900   6.674  1.00  0.00     0.017 C 
ATOM     14  C   UNL     1      -0.741   2.772   5.406  1.00  0.00    -0.064 C 
ATOM     15  C   UNL     1       1.705   2.482   5.269  1.00  0.00     0.032 C 
ATOM     16  C   UNL     1       0.338   2.007   5.740  1.00  0.00    -0.064 C 
ATOM     17  C   UNL     1      -2.125   2.157   5.398  1.00  0.00     0.032 C 
ATOM     18  C   UNL     1       0.223   0.723   6.627  1.00  0.00    -0.008 C 
ATOM     19  C   UNL     1      -2.141   0.663   5.689  1.00  0.00     0.009 C 
ATOM     20  C   UNL     1      -1.295   0.352   6.939  1.00  0.00     0.007 C 
ATOM     21  C   UNL     1       0.926  -0.454   5.879  1.00  0.00     0.014 C 
ATOM     22  C   UNL     1       0.977   1.029   7.961  1.00  0.00     0.016 C 
ATOM     23  C   UNL     1      -1.540  -1.119   7.512  1.00  0.00    -0.006 C 
ATOM     24  C   UNL     1       0.708  -1.837   6.504  1.00  0.00     0.033 C 
ATOM     25  C   UNL     1      -0.780  -2.168   6.648  1.00  0.00     0.120 C 
ATOM     26  C   UNL     1      -3.056  -1.486   7.502  1.00  0.00     0.014 C 
ATOM     27  C   UNL     1      -1.122  -1.205   9.009  1.00  0.00     0.014 C 
BRANCH   7  28
ATOM     28  O   UNL     1      -1.053   3.936   2.284  1.00  0.00    -0.393 OA
ATOM     29  H   UNL     1      -0.280   3.947   1.657  1.00  0.00     0.210 HD
ENDBRANCH   7  28
BRANCH  25  30
ATOM     30  O   UNL     1      -0.901  -3.456   7.203  1.00  0.00    -0.393 OA
ATOM     31  H   UNL     1      -0.094  -3.616   7.760  1.00  0.00     0.210 HD
ENDBRANCH  25  30
ENDBRANCH   2   6
ENDBRANCH   1   2
BRANCH   1  32
ATOM     32  C   UNL     1       0.359   5.494  -0.398  1.00  0.00     0.031 C 
BRANCH  32  33
ATOM     33  C   UNL     1      -0.988   5.869  -0.997  1.00  0.00    -0.075 C 
ATOM     34  C   UNL     1      -1.059   6.935  -1.806  1.00  0.00     0.008 C 
BRANCH  33  35
ATOM     35  C   UNL     1      -2.216   4.989  -0.793  1.00  0.00     0.008 C 
ATOM     36  C   UNL     1      -2.751   4.439  -2.124  1.00  0.00     0.012 C 
ATOM     37  C   UNL     1      -3.308   5.743  -0.027  1.00  0.00     0.012 C 
ENDBRANCH  33  35
ENDBRANCH  32  33
ENDBRANCH   1  32
TORSDOF 8
ENDMDL
MODEL 3
REMARK VINA RESULT:    -4.891     11.950     15.686
REMARK INTER + INTRA:          -7.715
REMARK INTER:                  -6.805
REMARK INTRA:                  -0.909
REMARK UNBOUND:                -0.822
REMARK SMILES C=C(CC[C@@H](C(=O)[O-])[C@H]1[C@@H](O)C[C@@]2(C)C3=C(CC[C@@]12C)[C@]1(C)CC[C@@H](O)C(C)(C)[C@@H]1CC3)C(C)C
REMARK SMILES IDX 4 1 5 2 6 3 7 4 8 5 9 6 10 7 19 8 12 9 13 10 18 11 20 12
REMARK SMILES IDX 14 13 15 14 17 15 16 16 32 17 21 18 31 19 30 20 23 21 22 22
REMARK SMILES IDX 27 23 24 24 25 25 28 26 29 27 11 28 26 30 3 32 2 33 1 34
REMARK SMILES IDX 33 35 34 36 35 37
REMARK H PARENT 11 29 26 31
REMARK Flexibility Score: inf
ROOT
ATOM      1  C   UNL     1       1.259  -3.436   6.487  1.00  0.00     0.014 C 
ENDROOT
BRANCH   1   2
ATOM      2  C   UNL     1       1.933  -4.437   5.501  1.00  0.00     0.042 C 
BRANCH   2   3
ATOM      3  C   UNL     1       3.376  -4.550   5.931  1.00  0.00     0.045 C 
ATOM      4  O   UNL     1       3.669  -4.951   7.090  1.00  0.00    -0.550 OA
ATOM      5  O   UNL     1       4.392  -4.310   5.017  1.00  0.00    -0.550 OA
ENDBRANCH   2   3
BRANCH   2   6
ATOM      6  C   UNL     1       1.245  -5.858   5.480  1.00  0.00     0.033 C 
ATOM      7  C   UNL     1      -0.287  -5.804   5.512  1.00  0.00     0.119 C 
ATOM      8  C   UNL     1       1.579  -6.859   4.304  1.00  0.00    -0.017 C 
ATOM      9  C   UNL     1      -0.707  -7.226   5.227  1.00  0.00     0.043 C 
ATOM     10  C   UNL     1       0.273  -7.780   4.155  1.00  0.00    -0.003 C 
ATOM     11  C   UNL     1       1.843  -6.100   2.971  1.00  0.00     0.012 C 
ATOM     12  C   UNL     1       2.866  -7.670   4.664  1.00  0.00     0.013 C 
ATOM     13  C   UNL     1       0.499  -9.283   4.484  1.00  0.00     0.017 C 
ATOM     14  C   UNL     1      -0.332  -7.765   2.713  1.00  0.00    -0.064 C 
ATOM     15  C   UNL     1       1.847  -7.069   1.788  1.00  0.00     0.032 C 
ATOM     16  C   UNL     1       0.497  -7.755   1.630  1.00  0.00    -0.064 C 
ATOM     17  C   UNL     1      -1.819  -7.972   2.518  1.00  0.00     0.032 C 
ATOM     18  C   UNL     1       0.139  -8.467   0.282  1.00  0.00    -0.008 C 
ATOM     19  C   UNL     1      -2.248  -8.059   1.059  1.00  0.00     0.009 C 
ATOM     20  C   UNL     1      -1.345  -9.045   0.293  1.00  0.00     0.007 C 
ATOM     21  C   UNL     1       0.312  -7.436  -0.877  1.00  0.00     0.014 C 
ATOM     22  C   UNL     1       1.160  -9.637   0.107  1.00  0.00     0.016 C 
ATOM     23  C   UNL     1      -1.934  -9.456  -1.133  1.00  0.00    -0.006 C 
ATOM     24  C   UNL     1      -0.217  -7.902  -2.239  1.00  0.00     0.033 C 
ATOM     25  C   UNL     1      -1.689  -8.317  -2.167  1.00  0.00     0.120 C 
ATOM     26  C   UNL     1      -3.469  -9.723  -1.057  1.00  0.00     0.014 C 
ATOM     27  C   UNL     1      -1.322 -10.803  -1.615  1.00  0.00     0.014 C 
BRANCH   7  28
ATOM     28  O   UNL     1      -0.780  -4.967   4.492  1.00  0.00    -0.393 OA
ATOM     29  H   UNL     1      -1.361  -4.281   4.920  1.00  0.00     0.210 HD
ENDBRANCH   7  28
BRANCH  25  30
ATOM     30  O   UNL     1      -2.109  -8.709  -3.451  1.00  0.00    -0.393 OA
ATOM     31  H   UNL     1      -2.093  -9.702  -3.479  1.00  0.00     0.210 HD
ENDBRANCH  25  30
ENDBRANCH   2   6
ENDBRANCH   1   2
BRANCH   1  32
ATOM     32  C   UNL     1       0.821  -2.098   5.857  1.00  0.00     0.031 C 
BRANCH  32  33
ATOM     33  C   UNL     1      -0.543  -1.674   6.380  1.00  0.00    -0.075 C 
ATOM     34  C   UNL     1      -1.233  -2.530   7.147  1.00  0.00     0.008 C 
BRANCH  33  35
ATOM     35  C   UNL     1      -1.074  -0.263   6.152  1.00  0.00     0.008 C 
ATOM     36  C   UNL     1      -2.585  -0.173   6.417  1.00  0.00     0.012 C 
ATOM     37  C   UNL     1      -0.729   0.230   4.744  1.00  0.00     0.012 C 
ENDBRANCH  33  35
ENDBRANCH  32  33
ENDBRANCH   1  32
TORSDOF 8
ENDMDL
MODEL 4
REMARK VINA RESULT:    -4.617     11.362     13.767
REMARK INTER + INTRA:          -7.328
REMARK INTER:                  -6.492
REMARK INTRA:                  -0.836
REMARK UNBOUND:                -0.822
REMARK SMILES C=C(CC[C@@H](C(=O)[O-])[C@H]1[C@@H](O)C[C@@]2(C)C3=C(CC[C@@]12C)[C@]1(C)CC[C@@H](O)C(C)(C)[C@@H]1CC3)C(C)C
REMARK SMILES IDX 4 1 5 2 6 3 7 4 8 5 9 6 10 7 19 8 12 9 13 10 18 11 20 12
REMARK SMILES IDX 14 13 15 14 17 15 16 16 32 17 21 18 31 19 30 20 23 21 22 22
REMARK SMILES IDX 27 23 24 24 25 25 28 26 29 27 11 28 26 30 3 32 2 33 1 34
REMARK SMILES IDX 33 35 34 36 35 37
REMARK H PARENT 11 29 26 31
REMARK Flexibility Score: inf
ROOT
ATOM      1  C   UNL     1      -1.680  -8.403   1.048  1.00  0.00     0.014 C 
ENDROOT
BRANCH   1   2
ATOM      2  C   UNL     1      -0.871  -7.923   2.291  1.00  0.00     0.042 C 
BRANCH   2   3
ATOM      3  C   UNL     1      -1.691  -8.300   3.502  1.00  0.00     0.045 C 
ATOM      4  O   UNL     1      -2.112  -7.412   4.292  1.00  0.00    -0.550 OA
ATOM      5  O   UNL     1      -2.073  -9.620   3.696  1.00  0.00    -0.550 OA
ENDBRANCH   2   3
BRANCH   2   6
ATOM      6  C   UNL     1       0.576  -8.550   2.381  1.00  0.00     0.033 C 
ATOM      7  C   UNL     1       1.453  -8.256   1.159  1.00  0.00     0.119 C 
ATOM      8  C   UNL     1       1.493  -8.196   3.618  1.00  0.00    -0.017 C 
ATOM      9  C   UNL     1       2.828  -8.717   1.579  1.00  0.00     0.043 C 
ATOM     10  C   UNL     1       2.998  -8.329   3.075  1.00  0.00    -0.003 C 
ATOM     11  C   UNL     1       1.239  -6.744   4.116  1.00  0.00     0.012 C 
ATOM     12  C   UNL     1       1.175  -9.176   4.794  1.00  0.00     0.013 C 
ATOM     13  C   UNL     1       3.831  -9.459   3.744  1.00  0.00     0.017 C 
ATOM     14  C   UNL     1       3.842  -7.028   3.273  1.00  0.00    -0.064 C 
ATOM     15  C   UNL     1       2.336  -6.306   5.088  1.00  0.00     0.032 C 
ATOM     16  C   UNL     1       3.700  -6.294   4.414  1.00  0.00    -0.064 C 
ATOM     17  C   UNL     1       4.958  -6.700   2.302  1.00  0.00     0.032 C 
ATOM     18  C   UNL     1       4.887  -5.513   5.071  1.00  0.00    -0.008 C 
ATOM     19  C   UNL     1       5.775  -5.474   2.688  1.00  0.00     0.009 C 
ATOM     20  C   UNL     1       6.198  -5.556   4.168  1.00  0.00     0.007 C 
ATOM     21  C   UNL     1       4.434  -4.036   5.301  1.00  0.00     0.014 C 
ATOM     22  C   UNL     1       5.170  -6.199   6.446  1.00  0.00     0.016 C 
ATOM     23  C   UNL     1       7.335  -4.503   4.554  1.00  0.00    -0.006 C 
ATOM     24  C   UNL     1       5.552  -3.077   5.727  1.00  0.00     0.033 C 
ATOM     25  C   UNL     1       6.717  -3.084   4.735  1.00  0.00     0.120 C 
ATOM     26  C   UNL     1       8.430  -4.419   3.447  1.00  0.00     0.014 C 
ATOM     27  C   UNL     1       8.097  -4.957   5.832  1.00  0.00     0.014 C 
BRANCH   7  28
ATOM     28  O   UNL     1       1.495  -6.873   0.892  1.00  0.00    -0.393 OA
ATOM     29  H   UNL     1       1.956  -6.749   0.018  1.00  0.00     0.210 HD
ENDBRANCH   7  28
BRANCH  25  30
ATOM     30  O   UNL     1       7.689  -2.168   5.177  1.00  0.00    -0.393 OA
ATOM     31  H   UNL     1       7.579  -1.337   4.643  1.00  0.00     0.210 HD
ENDBRANCH  25  30
ENDBRANCH   2   6
ENDBRANCH   1   2
BRANCH   1  32
ATOM     32  C   UNL     1      -1.751  -7.390  -0.112  1.00  0.00     0.031 C 
BRANCH  32  33
ATOM     33  C   UNL     1      -1.912  -8.104  -1.446  1.00  0.00    -0.075 C 
ATOM     34  C   UNL     1      -3.150  -8.375  -1.885  1.00  0.00     0.008 C 
BRANCH  33  35
ATOM     35  C   UNL     1      -0.710  -8.400  -2.335  1.00  0.00     0.008 C 
ATOM     36  C   UNL     1      -0.044  -9.735  -1.968  1.00  0.00     0.012 C 
ATOM     37  C   UNL     1       0.299  -7.248  -2.292  1.00  0.00     0.012 C 
ENDBRANCH  33  35
ENDBRANCH  32  33
ENDBRANCH   1  32
TORSDOF 8
ENDMDL
MODEL 5
REMARK VINA RESULT:    -4.579     10.438     12.676
REMARK INTER + INTRA:          -7.274
REMARK INTER:                  -5.912
REMARK INTRA:                  -1.362
REMARK UNBOUND:                -0.822
REMARK SMILES C=C(CC[C@@H](C(=O)[O-])[C@H]1[C@@H](O)C[C@@]2(C)C3=C(CC[C@@]12C)[C@]1(C)CC[C@@H](O)C(C)(C)[C@@H]1CC3)C(C)C
REMARK SMILES IDX 4 1 5 2 6 3 7 4 8 5 9 6 10 7 19 8 12 9 13 10 18 11 20 12
REMARK SMILES IDX 14 13 15 14 17 15 16 16 32 17 21 18 31 19 30 20 23 21 22 22
REMARK SMILES IDX 27 23 24 24 25 25 28 26 29 27 11 28 26 30 3 32 2 33 1 34
REMARK SMILES IDX 33 35 34 36 35 37
REMARK H PARENT 11 29 26 31
REMARK Flexibility Score: inf
ROOT
ATOM      1  C   UNL     1       2.682  -9.015  -3.702  1.00  0.00     0.014 C 
ENDROOT
BRANCH   1   2
ATOM      2  C   UNL     1       2.507  -9.801  -2.367  1.00  0.00     0.042 C 
BRANCH   2   3
ATOM      3  C   UNL     1       2.010 -11.176  -2.748  1.00  0.00     0.045 C 
ATOM      4  O   UNL     1       2.565 -11.823  -3.677  1.00  0.00    -0.550 OA
ATOM      5  O   UNL     1       1.003 -11.778  -2.007  1.00  0.00    -0.550 OA
ENDBRANCH   2   3
BRANCH   2   6
ATOM      6  C   UNL     1       3.835  -9.904  -1.519  1.00  0.00     0.033 C 
ATOM      7  C   UNL     1       4.891  -8.859  -1.897  1.00  0.00     0.119 C 
ATOM      8  C   UNL     1       3.750  -9.826   0.057  1.00  0.00    -0.017 C 
ATOM      9  C   UNL     1       5.930  -8.983  -0.808  1.00  0.00     0.043 C 
ATOM     10  C   UNL     1       5.163  -9.224   0.522  1.00  0.00    -0.003 C 
ATOM     11  C   UNL     1       2.600  -8.884   0.517  1.00  0.00     0.012 C 
ATOM     12  C   UNL     1       3.468 -11.252   0.631  1.00  0.00     0.013 C 
ATOM     13  C   UNL     1       6.031 -10.195   1.374  1.00  0.00     0.017 C 
ATOM     14  C   UNL     1       5.029  -7.930   1.390  1.00  0.00    -0.064 C 
ATOM     15  C   UNL     1       2.726  -8.564   2.007  1.00  0.00     0.032 C 
ATOM     16  C   UNL     1       4.026  -7.831   2.309  1.00  0.00    -0.064 C 
ATOM     17  C   UNL     1       6.125  -6.886   1.358  1.00  0.00     0.032 C 
ATOM     18  C   UNL     1       4.189  -7.061   3.661  1.00  0.00    -0.008 C 
ATOM     19  C   UNL     1       5.920  -5.743   2.344  1.00  0.00     0.009 C 
ATOM     20  C   UNL     1       5.584  -6.295   3.743  1.00  0.00     0.007 C 
ATOM     21  C   UNL     1       3.006  -6.050   3.795  1.00  0.00     0.014 C 
ATOM     22  C   UNL     1       4.105  -8.127   4.800  1.00  0.00     0.016 C 
ATOM     23  C   UNL     1       5.699  -5.196   4.895  1.00  0.00    -0.006 C 
ATOM     24  C   UNL     1       3.138  -5.053   4.953  1.00  0.00     0.033 C 
ATOM     25  C   UNL     1       4.449  -4.267   4.882  1.00  0.00     0.120 C 
ATOM     26  C   UNL     1       6.968  -4.308   4.707  1.00  0.00     0.014 C 
ATOM     27  C   UNL     1       5.892  -5.871   6.284  1.00  0.00     0.014 C 
BRANCH   7  28
ATOM     28  O   UNL     1       4.347  -7.560  -1.865  1.00  0.00    -0.393 OA
ATOM     29  H   UNL     1       4.400  -7.235  -0.926  1.00  0.00     0.210 HD
ENDBRANCH   7  28
BRANCH  25  30
ATOM     30  O   UNL     1       4.488  -3.361   5.958  1.00  0.00    -0.393 OA
ATOM     31  H   UNL     1       4.527  -2.445   5.573  1.00  0.00     0.210 HD
ENDBRANCH  25  30
ENDBRANCH   2   6
ENDBRANCH   1   2
BRANCH   1  32
ATOM     32  C   UNL     1       1.400  -8.344  -4.235  1.00  0.00     0.031 C 
BRANCH  32  33
ATOM     33  C   UNL     1       0.665  -7.618  -3.118  1.00  0.00    -0.075 C 
ATOM     34  C   UNL     1       1.189  -6.484  -2.633  1.00  0.00     0.008 C 
BRANCH  33  35
ATOM     35  C   UNL     1      -0.703  -8.088  -2.635  1.00  0.00     0.008 C 
ATOM     36  C   UNL     1      -0.698  -8.410  -1.133  1.00  0.00     0.012 C 
ATOM     37  C   UNL     1      -1.190  -9.286  -3.456  1.00  0.00     0.012 C 
ENDBRANCH  33  35
ENDBRANCH  32  33
ENDBRANCH   1  32
TORSDOF 8
ENDMDL
MODEL 6
REMARK VINA RESULT:    -4.564     15.812     18.052
REMARK INTER + INTRA:          -7.254
REMARK INTER:                  -6.420
REMARK INTRA:                  -0.834
REMARK UNBOUND:                -0.822
REMARK SMILES C=C(CC[C@@H](C(=O)[O-])[C@H]1[C@@H](O)C[C@@]2(C)C3=C(CC[C@@]12C)[C@]1(C)CC[C@@H](O)C(C)(C)[C@@H]1CC3)C(C)C
REMARK SMILES IDX 4 1 5 2 6 3 7 4 8 5 9 6 10 7 19 8 12 9 13 10 18 11 20 12
REMARK SMILES IDX 14 13 15 14 17 15 16 16 32 17 21 18 31 19 30 20 23 21 22 22
REMARK SMILES IDX 27 23 24 24 25 25 28 26 29 27 11 28 26 30 3 32 2 33 1 34
REMARK SMILES IDX 33 35 34 36 35 37
REMARK H PARENT 11 29 26 31
REMARK Flexibility Score: inf
ROOT
ATOM      1  C   UNL     1      -3.151  -9.541   4.281  1.00  0.00     0.014 C 
ENDROOT
BRANCH   1   2
ATOM      2  C   UNL     1      -4.395  -8.818   4.882  1.00  0.00     0.042 C 
BRANCH   2   3
ATOM      3  C   UNL     1      -5.516  -9.831   4.879  1.00  0.00     0.045 C 
ATOM      4  O   UNL     1      -6.600  -9.585   4.284  1.00  0.00    -0.550 OA
ATOM      5  O   UNL     1      -5.319 -11.083   5.445  1.00  0.00    -0.550 OA
ENDBRANCH   2   3
BRANCH   2   6
ATOM      6  C   UNL     1      -4.155  -8.258   6.338  1.00  0.00     0.033 C 
ATOM      7  C   UNL     1      -2.814  -7.533   6.507  1.00  0.00     0.119 C 
ATOM      8  C   UNL     1      -5.217  -7.273   6.969  1.00  0.00    -0.017 C 
ATOM      9  C   UNL     1      -2.924  -6.878   7.863  1.00  0.00     0.043 C 
ATOM     10  C   UNL     1      -4.385  -6.366   8.001  1.00  0.00    -0.003 C 
ATOM     11  C   UNL     1      -5.870  -6.370   5.884  1.00  0.00     0.012 C 
ATOM     12  C   UNL     1      -6.349  -8.105   7.655  1.00  0.00     0.013 C 
ATOM     13  C   UNL     1      -4.788  -6.547   9.492  1.00  0.00     0.017 C 
ATOM     14  C   UNL     1      -4.522  -4.833   7.724  1.00  0.00    -0.064 C 
ATOM     15  C   UNL     1      -6.645  -5.221   6.529  1.00  0.00     0.032 C 
ATOM     16  C   UNL     1      -5.724  -4.318   7.338  1.00  0.00    -0.064 C 
ATOM     17  C   UNL     1      -3.385  -3.900   8.084  1.00  0.00     0.032 C 
ATOM     18  C   UNL     1      -6.202  -2.885   7.748  1.00  0.00    -0.008 C 
ATOM     19  C   UNL     1      -3.704  -2.425   7.876  1.00  0.00     0.009 C 
ATOM     20  C   UNL     1      -5.063  -2.076   8.514  1.00  0.00     0.007 C 
ATOM     21  C   UNL     1      -6.633  -2.124   6.455  1.00  0.00     0.014 C 
ATOM     22  C   UNL     1      -7.437  -3.075   8.687  1.00  0.00     0.016 C 
ATOM     23  C   UNL     1      -5.307  -0.504   8.648  1.00  0.00    -0.006 C 
ATOM     24  C   UNL     1      -6.912  -0.628   6.649  1.00  0.00     0.033 C 
ATOM     25  C   UNL     1      -5.717   0.098   7.271  1.00  0.00     0.120 C 
ATOM     26  C   UNL     1      -4.021   0.230   9.137  1.00  0.00     0.014 C 
ATOM     27  C   UNL     1      -6.374  -0.202   9.740  1.00  0.00     0.014 C 
BRANCH   7  28
ATOM     28  O   UNL     1      -2.657  -6.534   5.527  1.00  0.00    -0.393 OA
ATOM     29  H   UNL     1      -2.059  -6.898   4.819  1.00  0.00     0.210 HD
ENDBRANCH   7  28
BRANCH  25  30
ATOM     30  O   UNL     1      -6.037   1.462   7.397  1.00  0.00    -0.393 OA
ATOM     31  H   UNL     1      -7.024   1.529   7.491  1.00  0.00     0.210 HD
ENDBRANCH  25  30
ENDBRANCH   2   6
ENDBRANCH   1   2
BRANCH   1  32
ATOM     32  C   UNL     1      -3.210  -9.779   2.758  1.00  0.00     0.031 C 
BRANCH  32  33
ATOM     33  C   UNL     1      -2.236  -8.866   2.029  1.00  0.00    -0.075 C 
ATOM     34  C   UNL     1      -1.370  -8.141   2.752  1.00  0.00     0.008 C 
BRANCH  33  35
ATOM     35  C   UNL     1      -2.148  -8.856   0.508  1.00  0.00     0.008 C 
ATOM     36  C   UNL     1      -2.311  -7.440  -0.065  1.00  0.00     0.012 C 
ATOM     37  C   UNL     1      -3.168  -9.822  -0.105  1.00  0.00     0.012 C 
ENDBRANCH  33  35
ENDBRANCH  32  33
ENDBRANCH   1  32
TORSDOF 8
ENDMDL
MODEL 7
REMARK VINA RESULT:    -4.546     12.771     15.546
REMARK INTER + INTRA:          -7.228
REMARK INTER:                  -5.899
REMARK INTRA:                  -1.329
REMARK UNBOUND:                -0.822
REMARK SMILES C=C(CC[C@@H](C(=O)[O-])[C@H]1[C@@H](O)C[C@@]2(C)C3=C(CC[C@@]12C)[C@]1(C)CC[C@@H](O)C(C)(C)[C@@H]1CC3)C(C)C
REMARK SMILES IDX 4 1 5 2 6 3 7 4 8 5 9 6 10 7 19 8 12 9 13 10 18 11 20 12
REMARK SMILES IDX 14 13 15 14 17 15 16 16 32 17 21 18 31 19 30 20 23 21 22 22
REMARK SMILES IDX 27 23 24 24 25 25 28 26 29 27 11 28 26 30 3 32 2 33 1 34
REMARK SMILES IDX 33 35 34 36 35 37
REMARK H PARENT 11 29 26 31
REMARK Flexibility Score: inf
ROOT
ATOM      1  C   UNL     1       1.348  -8.085  -0.779  1.00  0.00     0.014 C 
ENDROOT
BRANCH   1   2
ATOM      2  C   UNL     1       0.831  -8.905   0.442  1.00  0.00     0.042 C 
BRANCH   2   3
ATOM      3  C   UNL     1       1.147 -10.352   0.144  1.00  0.00     0.045 C 
ATOM      4  O   UNL     1       2.310 -10.696  -0.199  1.00  0.00    -0.550 OA
ATOM      5  O   UNL     1       0.182 -11.328   0.348  1.00  0.00    -0.550 OA
ENDBRANCH   2   3
BRANCH   2   6
ATOM      6  C   UNL     1       1.477  -8.465   1.813  1.00  0.00     0.033 C 
ATOM      7  C   UNL     1       1.775  -6.963   1.902  1.00  0.00     0.119 C 
ATOM      8  C   UNL     1       0.722  -8.796   3.161  1.00  0.00    -0.017 C 
ATOM      9  C   UNL     1       2.130  -6.748   3.354  1.00  0.00     0.043 C 
ATOM     10  C   UNL     1       1.180  -7.651   4.189  1.00  0.00    -0.003 C 
ATOM     11  C   UNL     1      -0.821  -8.748   2.975  1.00  0.00     0.012 C 
ATOM     12  C   UNL     1       1.110 -10.236   3.631  1.00  0.00     0.013 C 
ATOM     13  C   UNL     1       2.001  -8.165   5.407  1.00  0.00     0.017 C 
ATOM     14  C   UNL     1      -0.019  -6.862   4.810  1.00  0.00    -0.064 C 
ATOM     15  C   UNL     1      -1.532  -8.751   4.329  1.00  0.00     0.032 C 
ATOM     16  C   UNL     1      -1.163  -7.524   5.150  1.00  0.00    -0.064 C 
ATOM     17  C   UNL     1       0.164  -5.417   5.222  1.00  0.00     0.032 C 
ATOM     18  C   UNL     1      -2.049  -7.109   6.371  1.00  0.00    -0.008 C 
ATOM     19  C   UNL     1      -1.047  -4.815   5.924  1.00  0.00     0.009 C 
ATOM     20  C   UNL     1      -1.541  -5.755   7.040  1.00  0.00     0.007 C 
ATOM     21  C   UNL     1      -3.522  -6.950   5.876  1.00  0.00     0.014 C 
ATOM     22  C   UNL     1      -1.962  -8.275   7.407  1.00  0.00     0.016 C 
ATOM     23  C   UNL     1      -2.569  -5.054   8.041  1.00  0.00    -0.006 C 
ATOM     24  C   UNL     1      -4.482  -6.325   6.895  1.00  0.00     0.033 C 
ATOM     25  C   UNL     1      -3.982  -4.966   7.390  1.00  0.00     0.120 C 
ATOM     26  C   UNL     1      -2.110  -3.608   8.405  1.00  0.00     0.014 C 
ATOM     27  C   UNL     1      -2.617  -5.808   9.402  1.00  0.00     0.014 C 
BRANCH   7  28
ATOM     28  O   UNL     1       0.628  -6.205   1.593  1.00  0.00    -0.393 OA
ATOM     29  H   UNL     1      -0.157  -6.676   1.983  1.00  0.00     0.210 HD
ENDBRANCH   7  28
BRANCH  25  30
ATOM     30  O   UNL     1      -4.921  -4.446   8.300  1.00  0.00    -0.393 OA
ATOM     31  H   UNL     1      -4.923  -3.458   8.192  1.00  0.00     0.210 HD
ENDBRANCH  25  30
ENDBRANCH   2   6
ENDBRANCH   1   2
BRANCH   1  32
ATOM     32  C   UNL     1       0.264  -7.284  -1.529  1.00  0.00     0.031 C 
BRANCH  32  33
ATOM     33  C   UNL     1      -0.833  -8.205  -2.042  1.00  0.00    -0.075 C 
ATOM     34  C   UNL     1      -0.537  -9.078  -3.015  1.00  0.00     0.008 C 
BRANCH  33  35
ATOM     35  C   UNL     1      -2.210  -8.234  -1.390  1.00  0.00     0.008 C 
ATOM     36  C   UNL     1      -2.274  -7.329  -0.150  1.00  0.00     0.012 C 
ATOM     37  C   UNL     1      -2.623  -9.670  -1.049  1.00  0.00     0.012 C 
ENDBRANCH  33  35
ENDBRANCH  32  33
ENDBRANCH   1  32
TORSDOF 8
ENDMDL
MODEL 8
REMARK VINA RESULT:    -4.515     13.464     15.703
REMARK INTER + INTRA:          -7.185
REMARK INTER:                  -6.381
REMARK INTRA:                  -0.803
REMARK UNBOUND:                -0.822
REMARK SMILES C=C(CC[C@@H](C(=O)[O-])[C@H]1[C@@H](O)C[C@@]2(C)C3=C(CC[C@@]12C)[C@]1(C)CC[C@@H](O)C(C)(C)[C@@H]1CC3)C(C)C
REMARK SMILES IDX 4 1 5 2 6 3 7 4 8 5 9 6 10 7 19 8 12 9 13 10 18 11 20 12
REMARK SMILES IDX 14 13 15 14 17 15 16 16 32 17 21 18 31 19 30 20 23 21 22 22
REMARK SMILES IDX 27 23 24 24 25 25 28 26 29 27 11 28 26 30 3 32 2 33 1 34
REMARK SMILES IDX 33 35 34 36 35 37
REMARK H PARENT 11 29 26 31
REMARK Flexibility Score: inf
ROOT
ATOM      1  C   UNL     1       1.072  -6.826   3.744  1.00  0.00     0.014 C 
ENDROOT
BRANCH   1   2
ATOM      2  C   UNL     1       0.442  -6.546   5.142  1.00  0.00     0.042 C 
BRANCH   2   3
ATOM      3  C   UNL     1       0.781  -7.738   6.005  1.00  0.00     0.045 C 
ATOM      4  O   UNL     1       1.969  -7.949   6.368  1.00  0.00    -0.550 OA
ATOM      5  O   UNL     1      -0.233  -8.552   6.490  1.00  0.00    -0.550 OA
ENDBRANCH   2   3
BRANCH   2   6
ATOM      6  C   UNL     1       0.959  -5.211   5.808  1.00  0.00     0.033 C 
ATOM      7  C   UNL     1       1.155  -4.060   4.814  1.00  0.00     0.119 C 
ATOM      8  C   UNL     1       0.132  -4.571   6.992  1.00  0.00    -0.017 C 
ATOM      9  C   UNL     1       1.391  -2.856   5.694  1.00  0.00     0.043 C 
ATOM     10  C   UNL     1       0.442  -2.998   6.917  1.00  0.00    -0.003 C 
ATOM     11  C   UNL     1      -1.394  -4.815   6.816  1.00  0.00     0.012 C 
ATOM     12  C   UNL     1       0.575  -5.222   8.343  1.00  0.00     0.013 C 
ATOM     13  C   UNL     1       1.205  -2.429   8.148  1.00  0.00     0.017 C 
ATOM     14  C   UNL     1      -0.845  -2.119   6.792  1.00  0.00    -0.064 C 
ATOM     15  C   UNL     1      -2.198  -3.935   7.773  1.00  0.00     0.032 C 
ATOM     16  C   UNL     1      -1.966  -2.456   7.493  1.00  0.00    -0.064 C 
ATOM     17  C   UNL     1      -0.783  -0.792   6.067  1.00  0.00     0.032 C 
ATOM     18  C   UNL     1      -2.963  -1.391   8.060  1.00  0.00    -0.008 C 
ATOM     19  C   UNL     1      -2.076   0.011   6.132  1.00  0.00     0.009 C 
ATOM     20  C   UNL     1      -2.590   0.083   7.583  1.00  0.00     0.007 C 
ATOM     21  C   UNL     1      -4.403  -1.766   7.586  1.00  0.00     0.014 C 
ATOM     22  C   UNL     1      -2.877  -1.479   9.617  1.00  0.00     0.016 C 
ATOM     23  C   UNL     1      -3.729   1.183   7.791  1.00  0.00    -0.006 C 
ATOM     24  C   UNL     1      -5.471  -0.701   7.863  1.00  0.00     0.033 C 
ATOM     25  C   UNL     1      -5.093   0.654   7.258  1.00  0.00     0.120 C 
ATOM     26  C   UNL     1      -3.388   2.502   7.033  1.00  0.00     0.014 C 
ATOM     27  C   UNL     1      -3.826   1.600   9.288  1.00  0.00     0.014 C 
BRANCH   7  28
ATOM     28  O   UNL     1      -0.011  -3.850   4.053  1.00  0.00    -0.393 OA
ATOM     29  H   UNL     1      -0.767  -3.725   4.689  1.00  0.00     0.210 HD
ENDBRANCH   7  28
BRANCH  25  30
ATOM     30  O   UNL     1      -6.126   1.570   7.530  1.00  0.00    -0.393 OA
ATOM     31  H   UNL     1      -6.884   1.351   6.926  1.00  0.00     0.210 HD
ENDBRANCH  25  30
ENDBRANCH   2   6
ENDBRANCH   1   2
BRANCH   1  32
ATOM     32  C   UNL     1       0.600  -8.130   3.068  1.00  0.00     0.031 C 
BRANCH  32  33
ATOM     33  C   UNL     1      -0.031  -7.840   1.714  1.00  0.00    -0.075 C 
ATOM     34  C   UNL     1       0.708  -7.228   0.777  1.00  0.00     0.008 C 
BRANCH  33  35
ATOM     35  C   UNL     1      -1.429  -8.339   1.370  1.00  0.00     0.008 C 
ATOM     36  C   UNL     1      -2.120  -7.435   0.337  1.00  0.00     0.012 C 
ATOM     37  C   UNL     1      -2.283  -8.489   2.633  1.00  0.00     0.012 C 
ENDBRANCH  33  35
ENDBRANCH  32  33
ENDBRANCH   1  32
TORSDOF 8
ENDMDL
MODEL 9
REMARK VINA RESULT:    -4.489     11.188     15.587
REMARK INTER + INTRA:          -7.148
REMARK INTER:                  -6.460
REMARK INTRA:                  -0.688
REMARK UNBOUND:                -0.822
REMARK SMILES C=C(CC[C@@H](C(=O)[O-])[C@H]1[C@@H](O)C[C@@]2(C)C3=C(CC[C@@]12C)[C@]1(C)CC[C@@H](O)C(C)(C)[C@@H]1CC3)C(C)C
REMARK SMILES IDX 4 1 5 2 6 3 7 4 8 5 9 6 10 7 19 8 12 9 13 10 18 11 20 12
REMARK SMILES IDX 14 13 15 14 17 15 16 16 32 17 21 18 31 19 30 20 23 21 22 22
REMARK SMILES IDX 27 23 24 24 25 25 28 26 29 27 11 28 26 30 3 32 2 33 1 34
REMARK SMILES IDX 33 35 34 36 35 37
REMARK H PARENT 11 29 26 31
REMARK Flexibility Score: inf
ROOT
ATOM      1  C   UNL     1      -0.340  -1.097   5.986  1.00  0.00     0.014 C 
ENDROOT
BRANCH   1   2
ATOM      2  C   UNL     1       1.003  -1.865   6.179  1.00  0.00     0.042 C 
BRANCH   2   3
ATOM      3  C   UNL     1       1.623  -1.321   7.445  1.00  0.00     0.045 C 
ATOM      4  O   UNL     1       2.778  -0.816   7.426  1.00  0.00    -0.550 OA
ATOM      5  O   UNL     1       0.882  -1.282   8.617  1.00  0.00    -0.550 OA
ENDBRANCH   2   3
BRANCH   2   6
ATOM      6  C   UNL     1       0.824  -3.431   6.274  1.00  0.00     0.033 C 
ATOM      7  C   UNL     1      -0.124  -4.009   5.217  1.00  0.00     0.119 C 
ATOM      8  C   UNL     1       2.103  -4.357   6.206  1.00  0.00    -0.017 C 
ATOM      9  C   UNL     1       0.066  -5.503   5.338  1.00  0.00     0.043 C 
ATOM     10  C   UNL     1       1.580  -5.746   5.594  1.00  0.00    -0.003 C 
ATOM     11  C   UNL     1       3.194  -3.752   5.278  1.00  0.00     0.012 C 
ATOM     12  C   UNL     1       2.711  -4.506   7.639  1.00  0.00     0.013 C 
ATOM     13  C   UNL     1       1.684  -6.960   6.562  1.00  0.00     0.017 C 
ATOM     14  C   UNL     1       2.352  -6.183   4.306  1.00  0.00    -0.064 C 
ATOM     15  C   UNL     1       4.276  -4.787   4.966  1.00  0.00     0.032 C 
ATOM     16  C   UNL     1       3.698  -5.983   4.222  1.00  0.00    -0.064 C 
ATOM     17  C   UNL     1       1.648  -7.011   3.251  1.00  0.00     0.032 C 
ATOM     18  C   UNL     1       4.654  -6.960   3.458  1.00  0.00    -0.008 C 
ATOM     19  C   UNL     1       2.554  -7.469   2.116  1.00  0.00     0.009 C 
ATOM     20  C   UNL     1       3.846  -8.091   2.680  1.00  0.00     0.007 C 
ATOM     21  C   UNL     1       5.513  -6.122   2.459  1.00  0.00     0.014 C 
ATOM     22  C   UNL     1       5.579  -7.615   4.532  1.00  0.00     0.016 C 
ATOM     23  C   UNL     1       4.680  -8.903   1.586  1.00  0.00    -0.006 C 
ATOM     24  C   UNL     1       6.340  -6.950   1.468  1.00  0.00     0.033 C 
ATOM     25  C   UNL     1       5.467  -7.920   0.669  1.00  0.00     0.120 C 
ATOM     26  C   UNL     1       3.744  -9.766   0.685  1.00  0.00     0.014 C 
ATOM     27  C   UNL     1       5.630  -9.930   2.267  1.00  0.00     0.014 C 
BRANCH   7  28
ATOM     28  O   UNL     1       0.258  -3.601   3.924  1.00  0.00    -0.393 OA
ATOM     29  H   UNL     1      -0.462  -3.012   3.570  1.00  0.00     0.210 HD
ENDBRANCH   7  28
BRANCH  25  30
ATOM     30  O   UNL     1       6.288  -8.625  -0.231  1.00  0.00    -0.393 OA
ATOM     31  H   UNL     1       6.331  -8.095  -1.070  1.00  0.00     0.210 HD
ENDBRANCH  25  30
ENDBRANCH   2   6
ENDBRANCH   1   2
BRANCH   1  32
ATOM     32  C   UNL     1      -0.421  -0.243   4.704  1.00  0.00     0.031 C 
BRANCH  32  33
ATOM     33  C   UNL     1      -1.216   1.030   4.952  1.00  0.00    -0.075 C 
ATOM     34  C   UNL     1      -1.107   2.038   4.075  1.00  0.00     0.008 C 
BRANCH  33  35
ATOM     35  C   UNL     1      -2.216   1.128   6.099  1.00  0.00     0.008 C 
ATOM     36  C   UNL     1      -3.530   0.402   5.774  1.00  0.00     0.012 C 
ATOM     37  C   UNL     1      -2.471   2.591   6.478  1.00  0.00     0.012 C 
ENDBRANCH  33  35
ENDBRANCH  32  33
ENDBRANCH   1  32
TORSDOF 8
ENDMDL
