MODEL 1
REMARK VINA RESULT:    -6.013      0.000      0.000
REMARK INTER + INTRA:          -7.394
REMARK INTER:                  -7.243
REMARK INTRA:                  -0.151
REMARK UNBOUND:                -0.151
REMARK SMILES O=c1c(O)c(-c2ccc(O)c(O)c2)oc2cc(O)cc(O)c12
REMARK SMILES IDX 5 1 3 2 2 3 1 4 22 5 20 6 19 7 17 8 16 9 15 10 14 11 6 12
REMARK SMILES IDX 7 13 8 14 9 15 13 16 11 17 10 18 12 20 4 22 21 24 18 26
REMARK H PARENT 10 19 12 21 4 23 21 25 18 27
REMARK Flexibility Score: inf
ROOT
ATOM      1  C   UNL     1     -11.266  -1.081  -9.688  1.00  0.00     0.180 A 
ATOM      2  C   UNL     1     -12.554  -1.051 -10.249  1.00  0.00     0.208 A 
ATOM      3  C   UNL     1     -13.245   0.169 -10.303  1.00  0.00     0.238 A 
ATOM      4  O   UNL     1     -14.366   0.202 -10.874  1.00  0.00    -0.285 OA
ATOM      5  C   UNL     1     -12.665   1.334  -9.746  1.00  0.00     0.111 A 
ATOM      6  C   UNL     1     -13.293   2.616  -9.705  1.00  0.00     0.134 A 
ATOM      7  C   UNL     1     -12.579   3.720  -9.224  1.00  0.00     0.093 A 
ATOM      8  C   UNL     1     -11.286   3.580  -8.724  1.00  0.00     0.123 A 
ATOM      9  C   UNL     1     -10.682   2.322  -8.708  1.00  0.00     0.094 A 
ATOM     10  C   UNL     1     -11.353   1.208  -9.216  1.00  0.00     0.146 A 
ATOM     11  O   UNL     1     -10.734   0.034  -9.202  1.00  0.00    -0.452 OA
ENDROOT
BRANCH   1  12
ATOM     12  C   UNL     1     -10.469  -2.326  -9.608  1.00  0.00     0.025 A 
ATOM     13  C   UNL     1     -10.069  -2.967 -10.791  1.00  0.00     0.016 A 
ATOM     14  C   UNL     1      -9.333  -4.154 -10.739  1.00  0.00     0.051 A 
ATOM     15  C   UNL     1      -9.000  -4.726  -9.508  1.00  0.00     0.157 A 
ATOM     16  C   UNL     1     -10.151  -2.914  -8.370  1.00  0.00     0.062 A 
ATOM     17  C   UNL     1      -9.414  -4.107  -8.316  1.00  0.00     0.158 A 
BRANCH  15  18
ATOM     18  O   UNL     1      -8.263  -5.909  -9.487  1.00  0.00    -0.504 OA
ATOM     19  H   UNL     1      -7.302  -5.951  -9.805  1.00  0.00     0.293 HD
ENDBRANCH  15  18
BRANCH  17  20
ATOM     20  O   UNL     1      -9.098  -4.680  -7.085  1.00  0.00    -0.504 OA
ATOM     21  H   UNL     1      -8.216  -4.492  -6.623  1.00  0.00     0.293 HD
ENDBRANCH  17  20
ENDBRANCH   1  12
BRANCH   2  22
ATOM     22  O   UNL     1     -13.142  -2.228 -10.724  1.00  0.00    -0.502 OA
ATOM     23  H   UNL     1     -13.780  -2.238 -11.510  1.00  0.00     0.293 HD
ENDBRANCH   2  22
BRANCH   6  24
ATOM     24  O   UNL     1     -14.615   2.853 -10.097  1.00  0.00    -0.507 OA
ATOM     25  H   UNL     1     -15.257   2.147 -10.421  1.00  0.00     0.293 HD
ENDBRANCH   6  24
BRANCH   8  26
ATOM     26  O   UNL     1     -10.612   4.698  -8.238  1.00  0.00    -0.508 OA
ATOM     27  H   UNL     1     -10.533   5.548  -8.784  1.00  0.00     0.293 HD
ENDBRANCH   8  26
TORSDOF 6
ENDMDL
MODEL 2
REMARK VINA RESULT:    -5.483     16.447     19.049
REMARK INTER + INTRA:          -6.756
REMARK INTER:                  -6.424
REMARK INTRA:                  -0.332
REMARK UNBOUND:                -0.151
REMARK SMILES O=c1c(O)c(-c2ccc(O)c(O)c2)oc2cc(O)cc(O)c12
REMARK SMILES IDX 5 1 3 2 2 3 1 4 22 5 20 6 19 7 17 8 16 9 15 10 14 11 6 12
REMARK SMILES IDX 7 13 8 14 9 15 13 16 11 17 10 18 12 20 4 22 21 24 18 26
REMARK H PARENT 10 19 12 21 4 23 21 25 18 27
REMARK Flexibility Score: inf
ROOT
ATOM      1  C   UNL     1      -8.945   9.264   5.894  1.00  0.00     0.180 A 
ATOM      2  C   UNL     1     -10.199   9.896   5.845  1.00  0.00     0.208 A 
ATOM      3  C   UNL     1     -11.358   9.106   5.781  1.00  0.00     0.238 A 
ATOM      4  O   UNL     1     -12.479   9.678   5.813  1.00  0.00    -0.285 OA
ATOM      5  C   UNL     1     -11.248   7.697   5.710  1.00  0.00     0.111 A 
ATOM      6  C   UNL     1     -12.353   6.800   5.597  1.00  0.00     0.134 A 
ATOM      7  C   UNL     1     -12.129   5.418   5.642  1.00  0.00     0.093 A 
ATOM      8  C   UNL     1     -10.839   4.900   5.731  1.00  0.00     0.123 A 
ATOM      9  C   UNL     1      -9.747   5.766   5.786  1.00  0.00     0.094 A 
ATOM     10  C   UNL     1      -9.939   7.150   5.782  1.00  0.00     0.146 A 
ATOM     11  O   UNL     1      -8.875   7.938   5.858  1.00  0.00    -0.452 OA
ENDROOT
BRANCH   1  12
ATOM     12  C   UNL     1      -7.679  10.027   5.977  1.00  0.00     0.025 A 
ATOM     13  C   UNL     1      -6.964  10.310   4.802  1.00  0.00     0.016 A 
ATOM     14  C   UNL     1      -5.758  11.010   4.859  1.00  0.00     0.051 A 
ATOM     15  C   UNL     1      -5.237  11.425   6.089  1.00  0.00     0.157 A 
ATOM     16  C   UNL     1      -7.144  10.426   7.215  1.00  0.00     0.062 A 
ATOM     17  C   UNL     1      -5.931  11.128   7.274  1.00  0.00     0.158 A 
BRANCH  15  18
ATOM     18  O   UNL     1      -4.032  12.125   6.114  1.00  0.00    -0.504 OA
ATOM     19  H   UNL     1      -3.997  13.137   6.123  1.00  0.00     0.293 HD
ENDBRANCH  15  18
BRANCH  17  20
ATOM     20  O   UNL     1      -5.410  11.526   8.505  1.00  0.00    -0.504 OA
ATOM     21  H   UNL     1      -5.986  11.559   9.339  1.00  0.00     0.293 HD
ENDBRANCH  17  20
ENDBRANCH   1  12
BRANCH   2  22
ATOM     22  O   UNL     1     -10.283  11.292   5.838  1.00  0.00    -0.502 OA
ATOM     23  H   UNL     1     -10.795  11.809   6.542  1.00  0.00     0.293 HD
ENDBRANCH   2  22
BRANCH   6  24
ATOM     24  O   UNL     1     -13.678   7.209   5.414  1.00  0.00    -0.507 OA
ATOM     25  H   UNL     1     -14.451   6.593   5.217  1.00  0.00     0.293 HD
ENDBRANCH   6  24
BRANCH   8  26
ATOM     26  O   UNL     1     -10.653   3.519   5.757  1.00  0.00    -0.508 OA
ATOM     27  H   UNL     1     -11.177   2.926   6.388  1.00  0.00     0.293 HD
ENDBRANCH   8  26
TORSDOF 6
ENDMDL
MODEL 3
REMARK VINA RESULT:    -4.401      1.385      6.668
REMARK INTER + INTRA:          -5.452
REMARK INTER:                  -5.908
REMARK INTRA:                   0.455
REMARK UNBOUND:                -0.151
REMARK SMILES O=c1c(O)c(-c2ccc(O)c(O)c2)oc2cc(O)cc(O)c12
REMARK SMILES IDX 5 1 3 2 2 3 1 4 22 5 20 6 19 7 17 8 16 9 15 10 14 11 6 12
REMARK SMILES IDX 7 13 8 14 9 15 13 16 11 17 10 18 12 20 4 22 21 24 18 26
REMARK H PARENT 10 19 12 21 4 23 21 25 18 27
REMARK Flexibility Score: inf
ROOT
ATOM      1  C   UNL     1     -11.942   0.112  -9.539  1.00  0.00     0.180 A 
ATOM      2  C   UNL     1     -12.750  -0.761 -10.287  1.00  0.00     0.208 A 
ATOM      3  C   UNL     1     -12.304  -2.072 -10.519  1.00  0.00     0.238 A 
ATOM      4  O   UNL     1     -13.065  -2.869 -11.125  1.00  0.00    -0.285 OA
ATOM      5  C   UNL     1     -11.031  -2.478 -10.048  1.00  0.00     0.111 A 
ATOM      6  C   UNL     1     -10.459  -3.768 -10.263  1.00  0.00     0.134 A 
ATOM      7  C   UNL     1      -9.238  -4.091  -9.659  1.00  0.00     0.093 A 
ATOM      8  C   UNL     1      -8.538  -3.154  -8.903  1.00  0.00     0.123 A 
ATOM      9  C   UNL     1      -9.061  -1.872  -8.731  1.00  0.00     0.094 A 
ATOM     10  C   UNL     1     -10.295  -1.530  -9.289  1.00  0.00     0.146 A 
ATOM     11  O   UNL     1     -10.767  -0.307  -9.083  1.00  0.00    -0.452 OA
ENDROOT
BRANCH   1  12
ATOM     12  C   UNL     1     -12.349   1.504  -9.241  1.00  0.00     0.025 A 
ATOM     13  C   UNL     1     -13.696   1.875  -9.382  1.00  0.00     0.016 A 
ATOM     14  C   UNL     1     -14.099   3.187  -9.126  1.00  0.00     0.051 A 
ATOM     15  C   UNL     1     -13.164   4.152  -8.740  1.00  0.00     0.157 A 
ATOM     16  C   UNL     1     -11.406   2.480  -8.874  1.00  0.00     0.062 A 
ATOM     17  C   UNL     1     -11.809   3.800  -8.618  1.00  0.00     0.158 A 
BRANCH  15  18
ATOM     18  O   UNL     1     -13.596   5.453  -8.488  1.00  0.00    -0.504 OA
ATOM     19  H   UNL     1     -14.059   6.012  -9.194  1.00  0.00     0.293 HD
ENDBRANCH  15  18
BRANCH  17  20
ATOM     20  O   UNL     1     -10.869   4.760  -8.248  1.00  0.00    -0.504 OA
ATOM     21  H   UNL     1     -11.081   5.475  -7.561  1.00  0.00     0.293 HD
ENDBRANCH  17  20
ENDBRANCH   1  12
BRANCH   2  22
ATOM     22  O   UNL     1     -13.969  -0.318 -10.809  1.00  0.00    -0.502 OA
ATOM     23  H   UNL     1     -14.844  -0.791 -10.623  1.00  0.00     0.293 HD
ENDBRANCH   2  22
BRANCH   6  24
ATOM     24  O   UNL     1     -11.030  -4.753 -11.076  1.00  0.00    -0.507 OA
ATOM     25  H   UNL     1     -11.180  -4.667 -12.069  1.00  0.00     0.293 HD
ENDBRANCH   6  24
BRANCH   8  26
ATOM     26  O   UNL     1      -7.317  -3.505  -8.330  1.00  0.00    -0.508 OA
ATOM     27  H   UNL     1      -7.165  -4.423  -7.928  1.00  0.00     0.293 HD
ENDBRANCH   8  26
TORSDOF 6
ENDMDL
MODEL 4
REMARK VINA RESULT:    -3.989     17.374     20.148
REMARK INTER + INTRA:          -4.956
REMARK INTER:                  -5.420
REMARK INTRA:                   0.464
REMARK UNBOUND:                -0.151
REMARK SMILES O=c1c(O)c(-c2ccc(O)c(O)c2)oc2cc(O)cc(O)c12
REMARK SMILES IDX 5 1 3 2 2 3 1 4 22 5 20 6 19 7 17 8 16 9 15 10 14 11 6 12
REMARK SMILES IDX 7 13 8 14 9 15 13 16 11 17 10 18 12 20 4 22 21 24 18 26
REMARK H PARENT 10 19 12 21 4 23 21 25 18 27
REMARK Flexibility Score: inf
ROOT
ATOM      1  C   UNL     1      -9.814  11.614   6.177  1.00  0.00     0.180 A 
ATOM      2  C   UNL     1     -10.690  11.873   7.244  1.00  0.00     0.208 A 
ATOM      3  C   UNL     1     -12.073  11.897   7.000  1.00  0.00     0.238 A 
ATOM      4  O   UNL     1     -12.854  12.056   7.974  1.00  0.00    -0.285 OA
ATOM      5  C   UNL     1     -12.560  11.718   5.683  1.00  0.00     0.111 A 
ATOM      6  C   UNL     1     -13.938  11.767   5.312  1.00  0.00     0.134 A 
ATOM      7  C   UNL     1     -14.310  11.468   3.995  1.00  0.00     0.093 A 
ATOM      8  C   UNL     1     -13.353  11.187   3.023  1.00  0.00     0.123 A 
ATOM      9  C   UNL     1     -11.999  11.190   3.361  1.00  0.00     0.094 A 
ATOM     10  C   UNL     1     -11.598  11.446   4.674  1.00  0.00     0.146 A 
ATOM     11  O   UNL     1     -10.302  11.418   4.957  1.00  0.00    -0.452 OA
ENDROOT
BRANCH   1  12
ATOM     12  C   UNL     1      -8.346  11.558   6.357  1.00  0.00     0.025 A 
ATOM     13  C   UNL     1      -7.525  11.276   5.254  1.00  0.00     0.016 A 
ATOM     14  C   UNL     1      -6.138  11.198   5.404  1.00  0.00     0.051 A 
ATOM     15  C   UNL     1      -5.551  11.385   6.659  1.00  0.00     0.157 A 
ATOM     16  C   UNL     1      -7.756  11.725   7.622  1.00  0.00     0.062 A 
ATOM     17  C   UNL     1      -6.363  11.645   7.776  1.00  0.00     0.158 A 
BRANCH  15  18
ATOM     18  O   UNL     1      -4.165  11.304   6.779  1.00  0.00    -0.504 OA
ATOM     19  H   UNL     1      -3.718  10.825   7.552  1.00  0.00     0.293 HD
ENDBRANCH  15  18
BRANCH  17  20
ATOM     20  O   UNL     1      -5.786  11.818   9.034  1.00  0.00    -0.504 OA
ATOM     21  H   UNL     1      -6.343  11.801   9.880  1.00  0.00     0.293 HD
ENDBRANCH  17  20
ENDBRANCH   1  12
BRANCH   2  22
ATOM     22  O   UNL     1     -10.185  12.124   8.523  1.00  0.00    -0.502 OA
ATOM     23  H   UNL     1      -9.197  12.253   8.702  1.00  0.00     0.293 HD
ENDBRANCH   2  22
BRANCH   6  24
ATOM     24  O   UNL     1     -14.971  12.125   6.184  1.00  0.00    -0.507 OA
ATOM     25  H   UNL     1     -14.842  12.524   7.101  1.00  0.00     0.293 HD
ENDBRANCH   6  24
BRANCH   8  26
ATOM     26  O   UNL     1     -13.759  10.911   1.718  1.00  0.00    -0.508 OA
ATOM     27  H   UNL     1     -14.692  11.139   1.395  1.00  0.00     0.293 HD
ENDBRANCH   8  26
TORSDOF 6
ENDMDL
MODEL 5
REMARK VINA RESULT:    -3.909     17.658     19.302
REMARK INTER + INTRA:          -4.860
REMARK INTER:                  -4.541
REMARK INTRA:                  -0.319
REMARK UNBOUND:                -0.151
REMARK SMILES O=c1c(O)c(-c2ccc(O)c(O)c2)oc2cc(O)cc(O)c12
REMARK SMILES IDX 5 1 3 2 2 3 1 4 22 5 20 6 19 7 17 8 16 9 15 10 14 11 6 12
REMARK SMILES IDX 7 13 8 14 9 15 13 16 11 17 10 18 12 20 4 22 21 24 18 26
REMARK H PARENT 10 19 12 21 4 23 21 25 18 27
REMARK Flexibility Score: inf
ROOT
ATOM      1  C   UNL     1      -9.113   9.879   5.888  1.00  0.00     0.180 A 
ATOM      2  C   UNL     1      -9.372   8.510   6.072  1.00  0.00     0.208 A 
ATOM      3  C   UNL     1     -10.672   8.028   5.858  1.00  0.00     0.238 A 
ATOM      4  O   UNL     1     -10.879   6.791   5.952  1.00  0.00    -0.285 OA
ATOM      5  C   UNL     1     -11.711   8.928   5.517  1.00  0.00     0.111 A 
ATOM      6  C   UNL     1     -13.076   8.557   5.319  1.00  0.00     0.134 A 
ATOM      7  C   UNL     1     -13.995   9.517   4.879  1.00  0.00     0.093 A 
ATOM      8  C   UNL     1     -13.618  10.844   4.692  1.00  0.00     0.123 A 
ATOM      9  C   UNL     1     -12.299  11.230   4.935  1.00  0.00     0.094 A 
ATOM     10  C   UNL     1     -11.349  10.289   5.337  1.00  0.00     0.146 A 
ATOM     11  O   UNL     1     -10.101  10.694   5.536  1.00  0.00    -0.452 OA
ENDROOT
BRANCH   1  12
ATOM     12  C   UNL     1      -7.765  10.461   6.080  1.00  0.00     0.025 A 
ATOM     13  C   UNL     1      -6.891  10.557   4.986  1.00  0.00     0.016 A 
ATOM     14  C   UNL     1      -5.608  11.083   5.148  1.00  0.00     0.051 A 
ATOM     15  C   UNL     1      -5.171  11.507   6.407  1.00  0.00     0.157 A 
ATOM     16  C   UNL     1      -7.317  10.867   7.350  1.00  0.00     0.062 A 
ATOM     17  C   UNL     1      -6.027  11.394   7.515  1.00  0.00     0.158 A 
BRANCH  15  18
ATOM     18  O   UNL     1      -3.886  12.030   6.538  1.00  0.00    -0.504 OA
ATOM     19  H   UNL     1      -3.700  12.877   7.061  1.00  0.00     0.293 HD
ENDBRANCH  15  18
BRANCH  17  20
ATOM     20  O   UNL     1      -5.593  11.800   8.777  1.00  0.00    -0.504 OA
ATOM     21  H   UNL     1      -5.700  12.758   9.092  1.00  0.00     0.293 HD
ENDBRANCH  17  20
ENDBRANCH   1  12
BRANCH   2  22
ATOM     22  O   UNL     1      -8.349   7.651   6.484  1.00  0.00    -0.502 OA
ATOM     23  H   UNL     1      -8.251   7.343   7.444  1.00  0.00     0.293 HD
ENDBRANCH   2  22
BRANCH   6  24
ATOM     24  O   UNL     1     -13.582   7.276   5.563  1.00  0.00    -0.507 OA
ATOM     25  H   UNL     1     -13.968   6.965   6.441  1.00  0.00     0.293 HD
ENDBRANCH   6  24
BRANCH   8  26
ATOM     26  O   UNL     1     -14.564  11.776   4.270  1.00  0.00    -0.508 OA
ATOM     27  H   UNL     1     -15.326  11.515   3.655  1.00  0.00     0.293 HD
ENDBRANCH   8  26
TORSDOF 6
ENDMDL
MODEL 6
REMARK VINA RESULT:    -3.639     17.116     18.755
REMARK INTER + INTRA:          -4.535
REMARK INTER:                  -4.294
REMARK INTRA:                  -0.241
REMARK UNBOUND:                -0.151
REMARK SMILES O=c1c(O)c(-c2ccc(O)c(O)c2)oc2cc(O)cc(O)c12
REMARK SMILES IDX 5 1 3 2 2 3 1 4 22 5 20 6 19 7 17 8 16 9 15 10 14 11 6 12
REMARK SMILES IDX 7 13 8 14 9 15 13 16 11 17 10 18 12 20 4 22 21 24 18 26
REMARK H PARENT 10 19 12 21 4 23 21 25 18 27
REMARK Flexibility Score: inf
ROOT
ATOM      1  C   UNL     1      -9.252   8.182   6.076  1.00  0.00     0.180 A 
ATOM      2  C   UNL     1      -9.038   6.853   6.479  1.00  0.00     0.208 A 
ATOM      3  C   UNL     1     -10.123   5.963   6.495  1.00  0.00     0.238 A 
ATOM      4  O   UNL     1      -9.909   4.757   6.786  1.00  0.00    -0.285 OA
ATOM      5  C   UNL     1     -11.419   6.425   6.162  1.00  0.00     0.111 A 
ATOM      6  C   UNL     1     -12.600   5.621   6.188  1.00  0.00     0.134 A 
ATOM      7  C   UNL     1     -13.811   6.159   5.735  1.00  0.00     0.093 A 
ATOM      8  C   UNL     1     -13.899   7.486   5.319  1.00  0.00     0.123 A 
ATOM      9  C   UNL     1     -12.764   8.297   5.342  1.00  0.00     0.094 A 
ATOM     10  C   UNL     1     -11.533   7.779   5.751  1.00  0.00     0.146 A 
ATOM     11  O   UNL     1     -10.474   8.578   5.737  1.00  0.00    -0.452 OA
ENDROOT
BRANCH   1  12
ATOM     12  C   UNL     1      -8.156   9.176   6.018  1.00  0.00     0.025 A 
ATOM     13  C   UNL     1      -7.633   9.556   4.772  1.00  0.00     0.016 A 
ATOM     14  C   UNL     1      -6.585  10.477   4.695  1.00  0.00     0.051 A 
ATOM     15  C   UNL     1      -6.034  11.020   5.859  1.00  0.00     0.157 A 
ATOM     16  C   UNL     1      -7.586   9.707   7.189  1.00  0.00     0.062 A 
ATOM     17  C   UNL     1      -6.533  10.630   7.114  1.00  0.00     0.158 A 
BRANCH  15  18
ATOM     18  O   UNL     1      -4.991  11.938   5.751  1.00  0.00    -0.504 OA
ATOM     19  H   UNL     1      -4.620  12.229   4.855  1.00  0.00     0.293 HD
ENDBRANCH  15  18
BRANCH  17  20
ATOM     20  O   UNL     1      -5.977  11.156   8.280  1.00  0.00    -0.504 OA
ATOM     21  H   UNL     1      -6.398  10.995   9.187  1.00  0.00     0.293 HD
ENDBRANCH  17  20
ENDBRANCH   1  12
BRANCH   2  22
ATOM     22  O   UNL     1      -7.764   6.436   6.878  1.00  0.00    -0.502 OA
ATOM     23  H   UNL     1      -7.389   5.528   6.636  1.00  0.00     0.293 HD
ENDBRANCH   2  22
BRANCH   6  24
ATOM     24  O   UNL     1     -12.643   4.309   6.668  1.00  0.00    -0.507 OA
ATOM     25  H   UNL     1     -13.289   3.600   6.356  1.00  0.00     0.293 HD
ENDBRANCH   6  24
BRANCH   8  26
ATOM     26  O   UNL     1     -15.125   7.992   4.891  1.00  0.00    -0.508 OA
ATOM     27  H   UNL     1     -15.201   8.911   4.471  1.00  0.00     0.293 HD
ENDBRANCH   8  26
TORSDOF 6
ENDMDL
MODEL 7
REMARK VINA RESULT:    -3.383     17.037     18.193
REMARK INTER + INTRA:          -4.227
REMARK INTER:                  -3.925
REMARK INTRA:                  -0.302
REMARK UNBOUND:                -0.151
REMARK SMILES O=c1c(O)c(-c2ccc(O)c(O)c2)oc2cc(O)cc(O)c12
REMARK SMILES IDX 5 1 3 2 2 3 1 4 22 5 20 6 19 7 17 8 16 9 15 10 14 11 6 12
REMARK SMILES IDX 7 13 8 14 9 15 13 16 11 17 10 18 12 20 4 22 21 24 18 26
REMARK H PARENT 10 19 12 21 4 23 21 25 18 27
REMARK Flexibility Score: inf
ROOT
ATOM      1  C   UNL     1     -10.946   7.632   6.468  1.00  0.00     0.180 A 
ATOM      2  C   UNL     1      -9.799   8.279   5.977  1.00  0.00     0.208 A 
ATOM      3  C   UNL     1      -9.932   9.540   5.375  1.00  0.00     0.238 A 
ATOM      4  O   UNL     1      -8.892  10.144   5.006  1.00  0.00    -0.285 OA
ATOM      5  C   UNL     1     -11.217  10.115   5.220  1.00  0.00     0.111 A 
ATOM      6  C   UNL     1     -11.475  11.368   4.585  1.00  0.00     0.134 A 
ATOM      7  C   UNL     1     -12.776  11.886   4.584  1.00  0.00     0.093 A 
ATOM      8  C   UNL     1     -13.837  11.172   5.136  1.00  0.00     0.123 A 
ATOM      9  C   UNL     1     -13.606   9.922   5.711  1.00  0.00     0.094 A 
ATOM     10  C   UNL     1     -12.314   9.394   5.762  1.00  0.00     0.146 A 
ATOM     11  O   UNL     1     -12.134   8.212   6.337  1.00  0.00    -0.452 OA
ENDROOT
BRANCH   1  12
ATOM     12  C   UNL     1     -10.885   6.309   7.128  1.00  0.00     0.025 A 
ATOM     13  C   UNL     1     -10.513   6.228   8.479  1.00  0.00     0.016 A 
ATOM     14  C   UNL     1     -10.429   4.988   9.117  1.00  0.00     0.051 A 
ATOM     15  C   UNL     1     -10.699   3.810   8.413  1.00  0.00     0.157 A 
ATOM     16  C   UNL     1     -11.135   5.122   6.416  1.00  0.00     0.062 A 
ATOM     17  C   UNL     1     -11.049   3.876   7.054  1.00  0.00     0.158 A 
BRANCH  15  18
ATOM     18  O   UNL     1     -10.609   2.588   9.077  1.00  0.00    -0.504 OA
ATOM     19  H   UNL     1     -11.377   2.214   9.622  1.00  0.00     0.293 HD
ENDBRANCH  15  18
BRANCH  17  20
ATOM     20  O   UNL     1     -11.305   2.705   6.342  1.00  0.00    -0.504 OA
ATOM     21  H   UNL     1     -11.780   1.918   6.768  1.00  0.00     0.293 HD
ENDBRANCH  17  20
ENDBRANCH   1  12
BRANCH   2  22
ATOM     22  O   UNL     1      -8.549   7.660   6.071  1.00  0.00    -0.502 OA
ATOM     23  H   UNL     1      -8.266   7.126   6.883  1.00  0.00     0.293 HD
ENDBRANCH   2  22
BRANCH   6  24
ATOM     24  O   UNL     1     -10.503  12.125   3.922  1.00  0.00    -0.507 OA
ATOM     25  H   UNL     1      -9.523  12.139   4.156  1.00  0.00     0.293 HD
ENDBRANCH   6  24
BRANCH   8  26
ATOM     26  O   UNL     1     -15.121  11.712   5.102  1.00  0.00    -0.508 OA
ATOM     27  H   UNL     1     -15.375  12.511   5.671  1.00  0.00     0.293 HD
ENDBRANCH   8  26
TORSDOF 6
ENDMDL
MODEL 8
REMARK VINA RESULT:    -3.203     17.139     20.027
REMARK INTER + INTRA:          -4.009
REMARK INTER:                  -4.274
REMARK INTRA:                   0.265
REMARK UNBOUND:                -0.151
REMARK SMILES O=c1c(O)c(-c2ccc(O)c(O)c2)oc2cc(O)cc(O)c12
REMARK SMILES IDX 5 1 3 2 2 3 1 4 22 5 20 6 19 7 17 8 16 9 15 10 14 11 6 12
REMARK SMILES IDX 7 13 8 14 9 15 13 16 11 17 10 18 12 20 4 22 21 24 18 26
REMARK H PARENT 10 19 12 21 4 23 21 25 18 27
REMARK Flexibility Score: inf
ROOT
ATOM      1  C   UNL     1     -10.339  11.514   5.297  1.00  0.00     0.180 A 
ATOM      2  C   UNL     1     -10.531  11.738   6.670  1.00  0.00     0.208 A 
ATOM      3  C   UNL     1      -9.409  11.851   7.506  1.00  0.00     0.238 A 
ATOM      4  O   UNL     1      -9.588  12.125   8.721  1.00  0.00    -0.285 OA
ATOM      5  C   UNL     1      -8.110  11.684   6.968  1.00  0.00     0.111 A 
ATOM      6  C   UNL     1      -6.903  11.734   7.730  1.00  0.00     0.134 A 
ATOM      7  C   UNL     1      -5.669  11.661   7.072  1.00  0.00     0.093 A 
ATOM      8  C   UNL     1      -5.596  11.476   5.694  1.00  0.00     0.123 A 
ATOM      9  C   UNL     1      -6.769  11.370   4.946  1.00  0.00     0.094 A 
ATOM     10  C   UNL     1      -8.016  11.478   5.567  1.00  0.00     0.146 A 
ATOM     11  O   UNL     1      -9.107  11.394   4.816  1.00  0.00    -0.452 OA
ENDROOT
BRANCH   1  12
ATOM     12  C   UNL     1     -11.471  11.398   4.350  1.00  0.00     0.025 A 
ATOM     13  C   UNL     1     -12.666  10.794   4.772  1.00  0.00     0.016 A 
ATOM     14  C   UNL     1     -13.740  10.655   3.890  1.00  0.00     0.051 A 
ATOM     15  C   UNL     1     -13.633  11.102   2.570  1.00  0.00     0.157 A 
ATOM     16  C   UNL     1     -11.358  11.828   3.016  1.00  0.00     0.062 A 
ATOM     17  C   UNL     1     -12.435  11.688   2.127  1.00  0.00     0.158 A 
BRANCH  15  18
ATOM     18  O   UNL     1     -14.722  10.953   1.713  1.00  0.00    -0.504 OA
ATOM     19  H   UNL     1     -15.587  10.521   2.012  1.00  0.00     0.293 HD
ENDBRANCH  15  18
BRANCH  17  20
ATOM     20  O   UNL     1     -12.316  12.123   0.808  1.00  0.00    -0.504 OA
ATOM     21  H   UNL     1     -11.490  12.611   0.482  1.00  0.00     0.293 HD
ENDBRANCH  17  20
ENDBRANCH   1  12
BRANCH   2  22
ATOM     22  O   UNL     1     -11.825  11.823   7.195  1.00  0.00    -0.502 OA
ATOM     23  H   UNL     1     -12.125  11.276   7.992  1.00  0.00     0.293 HD
ENDBRANCH   2  22
BRANCH   6  24
ATOM     24  O   UNL     1      -6.860  11.827   9.125  1.00  0.00    -0.507 OA
ATOM     25  H   UNL     1      -7.302  11.183   9.761  1.00  0.00     0.293 HD
ENDBRANCH   6  24
BRANCH   8  26
ATOM     26  O   UNL     1      -4.350  11.390   5.076  1.00  0.00    -0.508 OA
ATOM     27  H   UNL     1      -4.211  10.837   4.238  1.00  0.00     0.293 HD
ENDBRANCH   8  26
TORSDOF 6
ENDMDL
MODEL 9
REMARK VINA RESULT:    -3.095     14.996     17.496
REMARK INTER + INTRA:          -3.880
REMARK INTER:                  -3.935
REMARK INTRA:                   0.055
REMARK UNBOUND:                -0.151
REMARK SMILES O=c1c(O)c(-c2ccc(O)c(O)c2)oc2cc(O)cc(O)c12
REMARK SMILES IDX 5 1 3 2 2 3 1 4 22 5 20 6 19 7 17 8 16 9 15 10 14 11 6 12
REMARK SMILES IDX 7 13 8 14 9 15 13 16 11 17 10 18 12 20 4 22 21 24 18 26
REMARK H PARENT 10 19 12 21 4 23 21 25 18 27
REMARK Flexibility Score: inf
ROOT
ATOM      1  C   UNL     1     -12.627   7.710   5.724  1.00  0.00     0.180 A 
ATOM      2  C   UNL     1     -12.805   8.990   6.274  1.00  0.00     0.208 A 
ATOM      3  C   UNL     1     -13.283  10.024   5.452  1.00  0.00     0.238 A 
ATOM      4  O   UNL     1     -13.510  11.149   5.970  1.00  0.00    -0.285 OA
ATOM      5  C   UNL     1     -13.522   9.780   4.078  1.00  0.00     0.111 A 
ATOM      6  C   UNL     1     -13.964  10.764   3.143  1.00  0.00     0.134 A 
ATOM      7  C   UNL     1     -14.271  10.382   1.831  1.00  0.00     0.093 A 
ATOM      8  C   UNL     1     -14.091   9.069   1.403  1.00  0.00     0.123 A 
ATOM      9  C   UNL     1     -13.607   8.109   2.293  1.00  0.00     0.094 A 
ATOM     10  C   UNL     1     -13.329   8.450   3.619  1.00  0.00     0.146 A 
ATOM     11  O   UNL     1     -12.892   7.503   4.438  1.00  0.00    -0.452 OA
ENDROOT
BRANCH   1  12
ATOM     12  C   UNL     1     -12.142   6.566   6.528  1.00  0.00     0.025 A 
ATOM     13  C   UNL     1     -12.839   5.347   6.487  1.00  0.00     0.016 A 
ATOM     14  C   UNL     1     -12.411   4.261   7.253  1.00  0.00     0.051 A 
ATOM     15  C   UNL     1     -11.292   4.378   8.084  1.00  0.00     0.157 A 
ATOM     16  C   UNL     1     -11.030   6.688   7.380  1.00  0.00     0.062 A 
ATOM     17  C   UNL     1     -10.600   5.599   8.152  1.00  0.00     0.158 A 
BRANCH  15  18
ATOM     18  O   UNL     1     -10.887   3.276   8.835  1.00  0.00    -0.504 OA
ATOM     19  H   UNL     1     -10.970   2.328   8.488  1.00  0.00     0.293 HD
ENDBRANCH  15  18
BRANCH  17  20
ATOM     20  O   UNL     1      -9.493   5.727   8.990  1.00  0.00    -0.504 OA
ATOM     21  H   UNL     1      -9.230   6.620   9.390  1.00  0.00     0.293 HD
ENDBRANCH  17  20
ENDBRANCH   1  12
BRANCH   2  22
ATOM     22  O   UNL     1     -12.490   9.230   7.614  1.00  0.00    -0.502 OA
ATOM     23  H   UNL     1     -12.909   9.983   8.146  1.00  0.00     0.293 HD
ENDBRANCH   2  22
BRANCH   6  24
ATOM     24  O   UNL     1     -14.094  12.125   3.440  1.00  0.00    -0.507 OA
ATOM     25  H   UNL     1     -13.332  12.738   3.687  1.00  0.00     0.293 HD
ENDBRANCH   6  24
BRANCH   8  26
ATOM     26  O   UNL     1     -14.390   8.728   0.085  1.00  0.00    -0.508 OA
ATOM     27  H   UNL     1     -14.448   9.430  -0.643  1.00  0.00     0.293 HD
ENDBRANCH   8  26
TORSDOF 6
ENDMDL
