MODEL 1
REMARK VINA RESULT:    -4.786      0.000      0.000
REMARK INTER + INTRA:          -5.574
REMARK INTER:                  -5.485
REMARK INTRA:                  -0.089
REMARK UNBOUND:                -0.089
REMARK SMILES COc1cc(C(=O)[O-])ccc1O
REMARK SMILES IDX 5 1 9 2 4 3 10 4 3 5 11 6 6 7 7 8 8 9 2 10 1 11 12 12
REMARK H PARENT 12 13
REMARK Flexibility Score: inf
ROOT
ATOM      1  C   UNL     1     130.406 134.904 122.188  1.00  0.00     0.001 A 
ATOM      2  C   UNL     1     130.604 136.255 121.858  1.00  0.00     0.014 A 
ATOM      3  C   UNL     1     129.410 134.567 123.122  1.00  0.00     0.060 A 
ATOM      4  C   UNL     1     129.822 137.248 122.450  1.00  0.00     0.051 A 
ATOM      5  C   UNL     1     128.619 135.567 123.722  1.00  0.00     0.161 A 
ATOM      6  C   UNL     1     128.831 136.910 123.379  1.00  0.00     0.157 A 
ENDROOT
BRANCH   1   7
ATOM      7  C   UNL     1     131.234 133.847 121.562  1.00  0.00     0.072 C 
ATOM      8  O   UNL     1     131.473 133.871 120.326  1.00  0.00    -0.545 OA
ATOM      9  O   UNL     1     131.758 132.814 122.331  1.00  0.00    -0.545 OA
ENDBRANCH   1   7
BRANCH   5  10
ATOM     10  O   UNL     1     127.616 135.267 124.658  1.00  0.00    -0.493 OA
ATOM     11  C   UNL     1     127.808 134.463 125.818  1.00  0.00     0.278 C 
ENDBRANCH   5  10
BRANCH   6  12
ATOM     12  O   UNL     1     128.051 137.903 123.969  1.00  0.00    -0.504 OA
ATOM     13  H   UNL     1     128.433 138.816 124.188  1.00  0.00     0.293 HD
ENDBRANCH   6  12
TORSDOF 3
ENDMDL
MODEL 2
REMARK VINA RESULT:    -4.603      2.145      3.533
REMARK INTER + INTRA:          -5.365
REMARK INTER:                  -5.300
REMARK INTRA:                  -0.065
REMARK UNBOUND:                -0.089
REMARK SMILES COc1cc(C(=O)[O-])ccc1O
REMARK SMILES IDX 5 1 9 2 4 3 10 4 3 5 11 6 6 7 7 8 8 9 2 10 1 11 12 12
REMARK H PARENT 12 13
REMARK Flexibility Score: inf
ROOT
ATOM      1  C   UNL     1     131.582 132.397 122.034  1.00  0.00     0.001 A 
ATOM      2  C   UNL     1     131.315 131.968 123.345  1.00  0.00     0.014 A 
ATOM      3  C   UNL     1     131.162 133.679 121.637  1.00  0.00     0.060 A 
ATOM      4  C   UNL     1     130.643 132.802 124.239  1.00  0.00     0.051 A 
ATOM      5  C   UNL     1     130.482 134.525 122.537  1.00  0.00     0.161 A 
ATOM      6  C   UNL     1     130.226 134.078 123.840  1.00  0.00     0.157 A 
ENDROOT
BRANCH   1   7
ATOM      7  C   UNL     1     132.295 131.515 121.083  1.00  0.00     0.072 C 
ATOM      8  O   UNL     1     131.652 130.800 120.269  1.00  0.00    -0.545 OA
ATOM      9  O   UNL     1     133.684 131.463 121.075  1.00  0.00    -0.545 OA
ENDBRANCH   1   7
BRANCH   5  10
ATOM     10  O   UNL     1     130.049 135.810 122.174  1.00  0.00    -0.493 OA
ATOM     11  C   UNL     1     130.818 136.998 122.336  1.00  0.00     0.278 C 
ENDBRANCH   5  10
BRANCH   6  12
ATOM     12  O   UNL     1     129.556 134.910 124.735  1.00  0.00    -0.504 OA
ATOM     13  H   UNL     1     129.433 135.899 124.549  1.00  0.00     0.293 HD
ENDBRANCH   6  12
TORSDOF 3
ENDMDL
MODEL 3
REMARK VINA RESULT:    -4.577      1.733      4.001
REMARK INTER + INTRA:          -5.336
REMARK INTER:                  -5.259
REMARK INTRA:                  -0.077
REMARK UNBOUND:                -0.089
REMARK SMILES COc1cc(C(=O)[O-])ccc1O
REMARK SMILES IDX 5 1 9 2 4 3 10 4 3 5 11 6 6 7 7 8 8 9 2 10 1 11 12 12
REMARK H PARENT 12 13
REMARK Flexibility Score: inf
ROOT
ATOM      1  C   UNL     1     129.222 135.463 122.483  1.00  0.00     0.001 A 
ATOM      2  C   UNL     1     129.974 135.069 121.364  1.00  0.00     0.014 A 
ATOM      3  C   UNL     1     129.525 134.908 123.740  1.00  0.00     0.060 A 
ATOM      4  C   UNL     1     131.006 134.139 121.497  1.00  0.00     0.051 A 
ATOM      5  C   UNL     1     130.567 133.968 123.879  1.00  0.00     0.161 A 
ATOM      6  C   UNL     1     131.305 133.588 122.749  1.00  0.00     0.157 A 
ENDROOT
BRANCH   1   7
ATOM      7  C   UNL     1     128.126 136.449 122.345  1.00  0.00     0.072 C 
ATOM      8  O   UNL     1     128.086 137.468 123.085  1.00  0.00    -0.545 OA
ATOM      9  O   UNL     1     127.127 136.265 121.397  1.00  0.00    -0.545 OA
ENDBRANCH   1   7
BRANCH   5  10
ATOM     10  O   UNL     1     130.896 133.394 125.117  1.00  0.00    -0.493 OA
ATOM     11  C   UNL     1     130.321 133.776 126.363  1.00  0.00     0.278 C 
ENDBRANCH   5  10
BRANCH   6  12
ATOM     12  O   UNL     1     132.336 132.660 122.881  1.00  0.00    -0.504 OA
ATOM     13  H   UNL     1     133.171 132.711 122.309  1.00  0.00     0.293 HD
ENDBRANCH   6  12
TORSDOF 3
ENDMDL
MODEL 4
REMARK VINA RESULT:    -4.525      1.175      2.711
REMARK INTER + INTRA:          -5.276
REMARK INTER:                  -5.190
REMARK INTRA:                  -0.085
REMARK UNBOUND:                -0.089
REMARK SMILES COc1cc(C(=O)[O-])ccc1O
REMARK SMILES IDX 5 1 9 2 4 3 10 4 3 5 11 6 6 7 7 8 8 9 2 10 1 11 12 12
REMARK H PARENT 12 13
REMARK Flexibility Score: inf
ROOT
ATOM      1  C   UNL     1     130.001 133.547 122.878  1.00  0.00     0.001 A 
ATOM      2  C   UNL     1     129.441 132.872 123.975  1.00  0.00     0.014 A 
ATOM      3  C   UNL     1     129.701 134.908 122.688  1.00  0.00     0.060 A 
ATOM      4  C   UNL     1     128.598 133.542 124.863  1.00  0.00     0.051 A 
ATOM      5  C   UNL     1     128.850 135.589 123.581  1.00  0.00     0.161 A 
ATOM      6  C   UNL     1     128.301 134.897 124.670  1.00  0.00     0.157 A 
ENDROOT
BRANCH   1   7
ATOM      7  C   UNL     1     130.895 132.839 121.934  1.00  0.00     0.072 C 
ATOM      8  O   UNL     1     131.442 133.459 120.984  1.00  0.00    -0.545 OA
ATOM      9  O   UNL     1     131.144 131.480 122.085  1.00  0.00    -0.545 OA
ENDBRANCH   1   7
BRANCH   5  10
ATOM     10  O   UNL     1     128.529 136.947 123.422  1.00  0.00    -0.493 OA
ATOM     11  C   UNL     1     129.388 137.916 122.831  1.00  0.00     0.278 C 
ENDBRANCH   5  10
BRANCH   6  12
ATOM     12  O   UNL     1     127.460 135.566 125.558  1.00  0.00    -0.504 OA
ATOM     13  H   UNL     1     126.569 135.174 125.840  1.00  0.00     0.293 HD
ENDBRANCH   6  12
TORSDOF 3
ENDMDL
MODEL 5
REMARK VINA RESULT:    -4.507      1.668      4.473
REMARK INTER + INTRA:          -5.255
REMARK INTER:                  -5.154
REMARK INTRA:                  -0.101
REMARK UNBOUND:                -0.089
REMARK SMILES COc1cc(C(=O)[O-])ccc1O
REMARK SMILES IDX 5 1 9 2 4 3 10 4 3 5 11 6 6 7 7 8 8 9 2 10 1 11 12 12
REMARK H PARENT 12 13
REMARK Flexibility Score: inf
ROOT
ATOM      1  C   UNL     1     129.267 135.679 123.306  1.00  0.00     0.001 A 
ATOM      2  C   UNL     1     128.309 135.057 124.125  1.00  0.00     0.014 A 
ATOM      3  C   UNL     1     130.435 134.974 122.964  1.00  0.00     0.060 A 
ATOM      4  C   UNL     1     128.516 133.759 124.593  1.00  0.00     0.051 A 
ATOM      5  C   UNL     1     130.647 133.662 123.436  1.00  0.00     0.161 A 
ATOM      6  C   UNL     1     129.680 133.060 124.252  1.00  0.00     0.157 A 
ENDROOT
BRANCH   1   7
ATOM      7  C   UNL     1     129.051 137.056 122.807  1.00  0.00     0.072 C 
ATOM      8  O   UNL     1     127.884 137.499 122.637  1.00  0.00    -0.545 OA
ATOM      9  O   UNL     1     130.133 137.879 122.519  1.00  0.00    -0.545 OA
ENDBRANCH   1   7
BRANCH   5  10
ATOM     10  O   UNL     1     131.801 132.929 123.115  1.00  0.00    -0.493 OA
ATOM     11  C   UNL     1     131.997 132.225 121.893  1.00  0.00     0.278 C 
ENDBRANCH   5  10
BRANCH   6  12
ATOM     12  O   UNL     1     129.884 131.763 124.720  1.00  0.00    -0.504 OA
ATOM     13  H   UNL     1     129.832 130.962 124.101  1.00  0.00     0.293 HD
ENDBRANCH   6  12
TORSDOF 3
ENDMDL
MODEL 6
REMARK VINA RESULT:    -4.496     16.052     17.329
REMARK INTER + INTRA:          -5.242
REMARK INTER:                  -5.150
REMARK INTRA:                  -0.092
REMARK UNBOUND:                -0.089
REMARK SMILES COc1cc(C(=O)[O-])ccc1O
REMARK SMILES IDX 5 1 9 2 4 3 10 4 3 5 11 6 6 7 7 8 8 9 2 10 1 11 12 12
REMARK H PARENT 12 13
REMARK Flexibility Score: inf
ROOT
ATOM      1  C   UNL     1     136.894 147.520 131.787  1.00  0.00     0.001 A 
ATOM      2  C   UNL     1     135.991 146.475 131.529  1.00  0.00     0.014 A 
ATOM      3  C   UNL     1     137.261 147.794 133.117  1.00  0.00     0.060 A 
ATOM      4  C   UNL     1     135.465 145.721 132.579  1.00  0.00     0.051 A 
ATOM      5  C   UNL     1     136.731 147.036 134.180  1.00  0.00     0.161 A 
ATOM      6  C   UNL     1     135.831 145.997 133.902  1.00  0.00     0.157 A 
ENDROOT
BRANCH   1   7
ATOM      7  C   UNL     1     137.455 148.322 130.676  1.00  0.00     0.072 C 
ATOM      8  O   UNL     1     136.708 149.059 129.979  1.00  0.00    -0.545 OA
ATOM      9  O   UNL     1     138.813 148.272 130.385  1.00  0.00    -0.545 OA
ENDBRANCH   1   7
BRANCH   5  10
ATOM     10  O   UNL     1     137.074 147.282 135.519  1.00  0.00    -0.493 OA
ATOM     11  C   UNL     1     136.464 148.273 136.340  1.00  0.00     0.278 C 
ENDBRANCH   5  10
BRANCH   6  12
ATOM     12  O   UNL     1     135.305 145.243 134.949  1.00  0.00    -0.504 OA
ATOM     13  H   UNL     1     135.759 144.397 135.273  1.00  0.00     0.293 HD
ENDBRANCH   6  12
TORSDOF 3
ENDMDL
MODEL 7
REMARK VINA RESULT:    -4.484      2.534      3.181
REMARK INTER + INTRA:          -5.229
REMARK INTER:                  -5.139
REMARK INTRA:                  -0.090
REMARK UNBOUND:                -0.089
REMARK SMILES COc1cc(C(=O)[O-])ccc1O
REMARK SMILES IDX 5 1 9 2 4 3 10 4 3 5 11 6 6 7 7 8 8 9 2 10 1 11 12 12
REMARK H PARENT 12 13
REMARK Flexibility Score: inf
ROOT
ATOM      1  C   UNL     1     131.870 132.439 121.871  1.00  0.00     0.001 A 
ATOM      2  C   UNL     1     131.397 133.494 121.073  1.00  0.00     0.014 A 
ATOM      3  C   UNL     1     131.689 132.501 123.264  1.00  0.00     0.060 A 
ATOM      4  C   UNL     1     130.757 134.588 121.656  1.00  0.00     0.051 A 
ATOM      5  C   UNL     1     131.043 133.605 123.858  1.00  0.00     0.161 A 
ATOM      6  C   UNL     1     130.578 134.647 123.044  1.00  0.00     0.157 A 
ENDROOT
BRANCH   1   7
ATOM      7  C   UNL     1     132.550 131.276 121.256  1.00  0.00     0.072 C 
ATOM      8  O   UNL     1     131.888 130.409 120.625  1.00  0.00    -0.545 OA
ATOM      9  O   UNL     1     133.927 131.125 121.365  1.00  0.00    -0.545 OA
ENDBRANCH   1   7
BRANCH   5  10
ATOM     10  O   UNL     1     130.846 133.700 125.244  1.00  0.00    -0.493 OA
ATOM     11  C   UNL     1     131.891 133.686 126.212  1.00  0.00     0.278 C 
ENDBRANCH   5  10
BRANCH   6  12
ATOM     12  O   UNL     1     129.938 135.741 123.625  1.00  0.00    -0.504 OA
ATOM     13  H   UNL     1     129.360 136.368 123.078  1.00  0.00     0.293 HD
ENDBRANCH   6  12
TORSDOF 3
ENDMDL
MODEL 8
REMARK VINA RESULT:    -4.451      4.908      7.791
REMARK INTER + INTRA:          -5.191
REMARK INTER:                  -5.095
REMARK INTRA:                  -0.096
REMARK UNBOUND:                -0.089
REMARK SMILES COc1cc(C(=O)[O-])ccc1O
REMARK SMILES IDX 5 1 9 2 4 3 10 4 3 5 11 6 6 7 7 8 8 9 2 10 1 11 12 12
REMARK H PARENT 12 13
REMARK Flexibility Score: inf
ROOT
ATOM      1  C   UNL     1     127.491 133.406 130.097  1.00  0.00     0.001 A 
ATOM      2  C   UNL     1     126.372 133.849 129.373  1.00  0.00     0.014 A 
ATOM      3  C   UNL     1     128.763 133.477 129.500  1.00  0.00     0.060 A 
ATOM      4  C   UNL     1     126.520 134.350 128.079  1.00  0.00     0.051 A 
ATOM      5  C   UNL     1     128.917 133.983 128.194  1.00  0.00     0.161 A 
ATOM      6  C   UNL     1     127.787 134.419 127.488  1.00  0.00     0.157 A 
ENDROOT
BRANCH   1   7
ATOM      7  C   UNL     1     127.337 132.873 131.470  1.00  0.00     0.072 C 
ATOM      8  O   UNL     1     127.640 131.678 131.730  1.00  0.00    -0.545 OA
ATOM      9  O   UNL     1     126.856 133.684 132.491  1.00  0.00    -0.545 OA
ENDBRANCH   1   7
BRANCH   5  10
ATOM     10  O   UNL     1     130.170 134.068 127.567  1.00  0.00    -0.493 OA
ATOM     11  C   UNL     1     130.838 132.974 126.945  1.00  0.00     0.278 C 
ENDBRANCH   5  10
BRANCH   6  12
ATOM     12  O   UNL     1     127.934 134.922 126.196  1.00  0.00    -0.504 OA
ATOM     13  H   UNL     1     128.839 135.198 125.835  1.00  0.00     0.293 HD
ENDBRANCH   6  12
TORSDOF 3
ENDMDL
MODEL 9
REMARK VINA RESULT:    -4.409      4.003      6.593
REMARK INTER + INTRA:          -5.143
REMARK INTER:                  -5.061
REMARK INTRA:                  -0.082
REMARK UNBOUND:                -0.089
REMARK SMILES COc1cc(C(=O)[O-])ccc1O
REMARK SMILES IDX 5 1 9 2 4 3 10 4 3 5 11 6 6 7 7 8 8 9 2 10 1 11 12 12
REMARK H PARENT 12 13
REMARK Flexibility Score: inf
ROOT
ATOM      1  C   UNL     1     131.607 130.364 124.336  1.00  0.00     0.001 A 
ATOM      2  C   UNL     1     132.210 129.201 123.828  1.00  0.00     0.014 A 
ATOM      3  C   UNL     1     131.404 131.460 123.478  1.00  0.00     0.060 A 
ATOM      4  C   UNL     1     132.603 129.135 122.491  1.00  0.00     0.051 A 
ATOM      5  C   UNL     1     131.800 131.397 122.126  1.00  0.00     0.161 A 
ATOM      6  C   UNL     1     132.400 130.228 121.639  1.00  0.00     0.157 A 
ENDROOT
BRANCH   1   7
ATOM      7  C   UNL     1     131.190 130.437 125.755  1.00  0.00     0.072 C 
ATOM      8  O   UNL     1     130.850 131.537 126.266  1.00  0.00    -0.545 OA
ATOM      9  O   UNL     1     131.167 129.293 126.543  1.00  0.00    -0.545 OA
ENDBRANCH   1   7
BRANCH   5  10
ATOM     10  O   UNL     1     131.613 132.471 121.242  1.00  0.00    -0.493 OA
ATOM     11  C   UNL     1     131.073 133.736 121.610  1.00  0.00     0.278 C 
ENDBRANCH   5  10
BRANCH   6  12
ATOM     12  O   UNL     1     132.791 130.160 120.303  1.00  0.00    -0.504 OA
ATOM     13  H   UNL     1     133.743 130.364 120.019  1.00  0.00     0.293 HD
ENDBRANCH   6  12
TORSDOF 3
ENDMDL
