MODEL 1
REMARK VINA RESULT:    -2.926      0.000      0.000
REMARK INTER + INTRA:          -3.214
REMARK INTER:                  -3.183
REMARK INTRA:                  -0.031
REMARK UNBOUND:                -0.031
REMARK SMILES O=C([O-])c1ccc(O)cc1
REMARK SMILES IDX 4 1 5 2 10 3 6 4 9 5 7 6 2 7 1 8 3 9 8 10
REMARK H PARENT 8 11
REMARK Flexibility Score: inf
ROOT
ATOM      1  C   UNL     1     123.014 122.055 140.307  1.00  0.00    -0.003 A 
ATOM      2  C   UNL     1     123.623 122.831 139.306  1.00  0.00     0.014 A 
ATOM      3  C   UNL     1     123.821 121.241 141.124  1.00  0.00     0.014 A 
ATOM      4  C   UNL     1     125.009 122.793 139.124  1.00  0.00     0.047 A 
ATOM      5  C   UNL     1     125.207 121.206 140.940  1.00  0.00     0.047 A 
ATOM      6  C   UNL     1     125.805 121.983 139.939  1.00  0.00     0.115 A 
ENDROOT
BRANCH   1   7
ATOM      7  C   UNL     1     121.547 122.096 140.497  1.00  0.00     0.071 C 
ATOM      8  O   UNL     1     120.887 121.031 140.621  1.00  0.00    -0.545 OA
ATOM      9  O   UNL     1     120.878 123.314 140.543  1.00  0.00    -0.545 OA
ENDBRANCH   1   7
BRANCH   6  10
ATOM     10  O   UNL     1     127.183 121.956 139.748  1.00  0.00    -0.508 OA
ATOM     11  H   UNL     1     127.706 122.798 139.539  1.00  0.00     0.293 HD
ENDBRANCH   6  10
TORSDOF 2
ENDMDL
MODEL 2
REMARK VINA RESULT:    -2.819     17.269     18.121
REMARK INTER + INTRA:          -3.098
REMARK INTER:                  -3.067
REMARK INTRA:                  -0.031
REMARK UNBOUND:                -0.031
REMARK SMILES O=C([O-])c1ccc(O)cc1
REMARK SMILES IDX 4 1 5 2 10 3 6 4 9 5 7 6 2 7 1 8 3 9 8 10
REMARK H PARENT 8 11
REMARK Flexibility Score: inf
ROOT
ATOM      1  C   UNL     1     122.018 122.976 122.311  1.00  0.00    -0.003 A 
ATOM      2  C   UNL     1     122.729 124.079 121.807  1.00  0.00     0.014 A 
ATOM      3  C   UNL     1     121.088 123.181 123.347  1.00  0.00     0.014 A 
ATOM      4  C   UNL     1     122.514 125.359 122.328  1.00  0.00     0.047 A 
ATOM      5  C   UNL     1     120.875 124.462 123.866  1.00  0.00     0.047 A 
ATOM      6  C   UNL     1     121.589 125.555 123.357  1.00  0.00     0.115 A 
ENDROOT
BRANCH   1   7
ATOM      7  C   UNL     1     122.247 121.622 121.760  1.00  0.00     0.071 C 
ATOM      8  O   UNL     1     121.276 120.875 121.472  1.00  0.00    -0.545 OA
ATOM      9  O   UNL     1     123.541 121.158 121.551  1.00  0.00    -0.545 OA
ENDBRANCH   1   7
BRANCH   6  10
ATOM     10  O   UNL     1     121.384 126.835 123.865  1.00  0.00    -0.508 OA
ATOM     11  H   UNL     1     121.694 127.092 124.795  1.00  0.00     0.293 HD
ENDBRANCH   6  10
TORSDOF 2
ENDMDL
MODEL 3
REMARK VINA RESULT:    -2.814     17.234     18.130
REMARK INTER + INTRA:          -3.092
REMARK INTER:                  -3.061
REMARK INTRA:                  -0.030
REMARK UNBOUND:                -0.031
REMARK SMILES O=C([O-])c1ccc(O)cc1
REMARK SMILES IDX 4 1 5 2 10 3 6 4 9 5 7 6 2 7 1 8 3 9 8 10
REMARK H PARENT 8 11
REMARK Flexibility Score: inf
ROOT
ATOM      1  C   UNL     1     122.000 122.989 122.369  1.00  0.00    -0.003 A 
ATOM      2  C   UNL     1     121.084 123.232 123.407  1.00  0.00     0.014 A 
ATOM      3  C   UNL     1     122.702 124.073 121.812  1.00  0.00     0.014 A 
ATOM      4  C   UNL     1     120.875 124.532 123.878  1.00  0.00     0.047 A 
ATOM      5  C   UNL     1     122.491 125.372 122.284  1.00  0.00     0.047 A 
ATOM      6  C   UNL     1     121.576 125.605 123.319  1.00  0.00     0.115 A 
ENDROOT
BRANCH   1   7
ATOM      7  C   UNL     1     122.220 121.612 121.872  1.00  0.00     0.071 C 
ATOM      8  O   UNL     1     121.243 120.876 121.572  1.00  0.00    -0.545 OA
ATOM      9  O   UNL     1     123.510 121.113 121.730  1.00  0.00    -0.545 OA
ENDBRANCH   1   7
BRANCH   6  10
ATOM     10  O   UNL     1     121.358 126.894 123.798  1.00  0.00    -0.508 OA
ATOM     11  H   UNL     1     120.446 127.333 123.744  1.00  0.00     0.293 HD
ENDBRANCH   6  10
TORSDOF 2
ENDMDL
MODEL 4
REMARK VINA RESULT:    -2.806     17.098     17.873
REMARK INTER + INTRA:          -3.083
REMARK INTER:                  -3.052
REMARK INTRA:                  -0.031
REMARK UNBOUND:                -0.031
REMARK SMILES O=C([O-])c1ccc(O)cc1
REMARK SMILES IDX 4 1 5 2 10 3 6 4 9 5 7 6 2 7 1 8 3 9 8 10
REMARK H PARENT 8 11
REMARK Flexibility Score: inf
ROOT
ATOM      1  C   UNL     1     121.730 124.236 123.085  1.00  0.00    -0.003 A 
ATOM      2  C   UNL     1     121.264 122.950 123.409  1.00  0.00     0.014 A 
ATOM      3  C   UNL     1     122.628 124.385 122.012  1.00  0.00     0.014 A 
ATOM      4  C   UNL     1     121.687 121.837 122.676  1.00  0.00     0.047 A 
ATOM      5  C   UNL     1     123.050 123.270 121.281  1.00  0.00     0.047 A 
ATOM      6  C   UNL     1     122.580 121.992 121.612  1.00  0.00     0.115 A 
ENDROOT
BRANCH   1   7
ATOM      7  C   UNL     1     121.280 125.412 123.862  1.00  0.00     0.071 C 
ATOM      8  O   UNL     1     121.260 125.379 125.120  1.00  0.00    -0.545 OA
ATOM      9  O   UNL     1     120.875 126.572 123.211  1.00  0.00    -0.545 OA
ENDBRANCH   1   7
BRANCH   6  10
ATOM     10  O   UNL     1     122.993 120.875 120.890  1.00  0.00    -0.508 OA
ATOM     11  H   UNL     1     123.765 120.923 120.235  1.00  0.00     0.293 HD
ENDBRANCH   6  10
TORSDOF 2
ENDMDL
MODEL 5
REMARK VINA RESULT:    -2.766      8.473      9.376
REMARK INTER + INTRA:          -3.040
REMARK INTER:                  -3.006
REMARK INTRA:                  -0.033
REMARK UNBOUND:                -0.031
REMARK SMILES O=C([O-])c1ccc(O)cc1
REMARK SMILES IDX 4 1 5 2 10 3 6 4 9 5 7 6 2 7 1 8 3 9 8 10
REMARK H PARENT 8 11
REMARK Flexibility Score: inf
ROOT
ATOM      1  C   UNL     1     121.526 125.108 131.386  1.00  0.00    -0.003 A 
ATOM      2  C   UNL     1     122.327 124.007 131.038  1.00  0.00     0.014 A 
ATOM      3  C   UNL     1     121.159 125.285 132.733  1.00  0.00     0.014 A 
ATOM      4  C   UNL     1     122.751 123.101 132.015  1.00  0.00     0.047 A 
ATOM      5  C   UNL     1     121.584 124.378 133.708  1.00  0.00     0.047 A 
ATOM      6  C   UNL     1     122.382 123.283 133.351  1.00  0.00     0.115 A 
ENDROOT
BRANCH   1   7
ATOM      7  C   UNL     1     121.078 126.065 130.350  1.00  0.00     0.071 C 
ATOM      8  O   UNL     1     120.875 125.681 129.168  1.00  0.00    -0.545 OA
ATOM      9  O   UNL     1     120.875 127.403 130.669  1.00  0.00    -0.545 OA
ENDBRANCH   1   7
BRANCH   6  10
ATOM     10  O   UNL     1     122.812 122.374 134.314  1.00  0.00    -0.508 OA
ATOM     11  H   UNL     1     122.231 122.127 135.107  1.00  0.00     0.293 HD
ENDBRANCH   6  10
TORSDOF 2
ENDMDL
MODEL 6
REMARK VINA RESULT:    -2.747      8.447      9.551
REMARK INTER + INTRA:          -3.019
REMARK INTER:                  -2.984
REMARK INTRA:                  -0.035
REMARK UNBOUND:                -0.031
REMARK SMILES O=C([O-])c1ccc(O)cc1
REMARK SMILES IDX 4 1 5 2 10 3 6 4 9 5 7 6 2 7 1 8 3 9 8 10
REMARK H PARENT 8 11
REMARK Flexibility Score: inf
ROOT
ATOM      1  C   UNL     1     121.643 124.653 132.600  1.00  0.00    -0.003 A 
ATOM      2  C   UNL     1     122.219 124.070 131.457  1.00  0.00     0.014 A 
ATOM      3  C   UNL     1     120.970 125.882 132.472  1.00  0.00     0.014 A 
ATOM      4  C   UNL     1     122.122 124.703 130.214  1.00  0.00     0.047 A 
ATOM      5  C   UNL     1     120.875 126.512 131.227  1.00  0.00     0.047 A 
ATOM      6  C   UNL     1     121.452 125.924 130.094  1.00  0.00     0.115 A 
ENDROOT
BRANCH   1   7
ATOM      7  C   UNL     1     121.747 123.982 133.915  1.00  0.00     0.071 C 
ATOM      8  O   UNL     1     121.578 124.632 134.980  1.00  0.00    -0.545 OA
ATOM      9  O   UNL     1     122.031 122.624 133.990  1.00  0.00    -0.545 OA
ENDBRANCH   1   7
BRANCH   6  10
ATOM     10  O   UNL     1     121.363 126.542 128.850  1.00  0.00    -0.508 OA
ATOM     11  H   UNL     1     120.562 127.108 128.595  1.00  0.00     0.293 HD
ENDBRANCH   6  10
TORSDOF 2
ENDMDL
MODEL 7
REMARK VINA RESULT:    -2.743     16.645     17.294
REMARK INTER + INTRA:          -3.014
REMARK INTER:                  -2.980
REMARK INTRA:                  -0.034
REMARK UNBOUND:                -0.031
REMARK SMILES O=C([O-])c1ccc(O)cc1
REMARK SMILES IDX 4 1 5 2 10 3 6 4 9 5 7 6 2 7 1 8 3 9 8 10
REMARK H PARENT 8 11
REMARK Flexibility Score: inf
ROOT
ATOM      1  C   UNL     1     122.363 125.383 123.506  1.00  0.00    -0.003 A 
ATOM      2  C   UNL     1     121.116 124.879 123.097  1.00  0.00     0.014 A 
ATOM      3  C   UNL     1     123.363 124.481 123.912  1.00  0.00     0.014 A 
ATOM      4  C   UNL     1     120.875 123.501 123.095  1.00  0.00     0.047 A 
ATOM      5  C   UNL     1     123.120 123.104 123.908  1.00  0.00     0.047 A 
ATOM      6  C   UNL     1     121.874 122.610 123.499  1.00  0.00     0.115 A 
ENDROOT
BRANCH   1   7
ATOM      7  C   UNL     1     122.616 126.841 123.509  1.00  0.00     0.071 C 
ATOM      8  O   UNL     1     123.791 127.288 123.430  1.00  0.00    -0.545 OA
ATOM      9  O   UNL     1     121.558 127.738 123.599  1.00  0.00    -0.545 OA
ENDBRANCH   1   7
BRANCH   6  10
ATOM     10  O   UNL     1     121.620 121.242 123.490  1.00  0.00    -0.508 OA
ATOM     11  H   UNL     1     120.868 120.845 122.939  1.00  0.00     0.293 HD
ENDBRANCH   6  10
TORSDOF 2
ENDMDL
