MODEL 1
REMARK VINA RESULT:    -0.942      0.000      0.000
REMARK INTER + INTRA:          -1.927
REMARK INTER:                  -1.162
REMARK INTRA:                  -0.765
REMARK UNBOUND:                -0.765
REMARK SMILES CC(C)=CCC[C@@H](C)c1ccc(C)cc1
REMARK SMILES IDX 6 1 7 2 8 3 9 4 13 5 12 6 11 7 14 8 10 9 15 10 5 11 4 12
REMARK SMILES IDX 2 13 1 14 3 15
REMARK H PARENT
REMARK Flexibility Score: inf
ROOT
ATOM      1  C   UNL     1       0.551  19.065  10.726  1.00  0.00     0.012 C 
ENDROOT
BRANCH   1   2
ATOM      2  C   UNL     1       0.239  20.536  11.079  1.00  0.00     0.016 C 
ATOM      3  C   UNL     1      -0.794  21.121  10.108  1.00  0.00     0.013 C 
BRANCH   2   4
ATOM      4  C   UNL     1      -0.231  20.690  12.516  1.00  0.00    -0.045 A 
ATOM      5  C   UNL     1      -1.523  21.120  16.614  1.00  0.00     0.044 C 
ATOM      6  C   UNL     1      -1.074  20.941  15.195  1.00  0.00    -0.051 A 
ATOM      7  C   UNL     1      -2.018  20.833  14.163  1.00  0.00     0.004 A 
ATOM      8  C   UNL     1       0.291  20.947  14.879  1.00  0.00     0.004 A 
ATOM      9  C   UNL     1      -1.601  20.702  12.836  1.00  0.00     0.004 A 
ATOM     10  C   UNL     1       0.711  20.815  13.553  1.00  0.00     0.004 A 
ENDBRANCH   2   4
ENDBRANCH   1   2
BRANCH   1  11
ATOM     11  C   UNL     1       2.016  18.701  11.011  1.00  0.00     0.028 C 
BRANCH  11  12
ATOM     12  C   UNL     1       2.937  19.399  10.042  1.00  0.00    -0.028 C 
ATOM     13  C   UNL     1       3.658  20.504  10.334  1.00  0.00    -0.080 C 
ATOM     14  C   UNL     1       3.648  21.125  11.711  1.00  0.00     0.039 C 
ATOM     15  C   UNL     1       4.505  21.117   9.249  1.00  0.00     0.039 C 
ENDBRANCH  11  12
ENDBRANCH   1  11
TORSDOF 4
ENDMDL
MODEL 2
REMARK VINA RESULT:    -0.610      1.070      1.939
REMARK INTER + INTRA:          -1.518
REMARK INTER:                  -1.492
REMARK INTRA:                  -0.025
REMARK UNBOUND:                -0.765
REMARK SMILES CC(C)=CCC[C@@H](C)c1ccc(C)cc1
REMARK SMILES IDX 6 1 7 2 8 3 9 4 13 5 12 6 11 7 14 8 10 9 15 10 5 11 4 12
REMARK SMILES IDX 2 13 1 14 3 15
REMARK H PARENT
REMARK Flexibility Score: inf
ROOT
ATOM      1  C   UNL     1      -0.009  20.277  10.793  1.00  0.00     0.012 C 
ENDROOT
BRANCH   1   2
ATOM      2  C   UNL     1      -0.196  19.133  11.814  1.00  0.00     0.016 C 
ATOM      3  C   UNL     1       0.992  18.162  11.765  1.00  0.00     0.013 C 
BRANCH   2   4
ATOM      4  C   UNL     1      -0.401  19.656  13.225  1.00  0.00    -0.045 A 
ATOM      5  C   UNL     1      -1.026  21.125  17.238  1.00  0.00     0.044 C 
ATOM      6  C   UNL     1      -0.826  20.637  15.834  1.00  0.00    -0.051 A 
ATOM      7  C   UNL     1       0.277  21.074  15.085  1.00  0.00     0.004 A 
ATOM      8  C   UNL     1      -1.700  19.691  15.283  1.00  0.00     0.004 A 
ATOM      9  C   UNL     1       0.484  20.593  13.789  1.00  0.00     0.004 A 
ATOM     10  C   UNL     1      -1.495  19.209  13.987  1.00  0.00     0.004 A 
ENDBRANCH   2   4
ENDBRANCH   1   2
BRANCH   1  11
ATOM     11  C   UNL     1       1.236  21.124  11.095  1.00  0.00     0.028 C 
BRANCH  11  12
ATOM     12  C   UNL     1       2.324  20.852  10.086  1.00  0.00    -0.028 C 
ATOM     13  C   UNL     1       3.646  20.865  10.365  1.00  0.00    -0.080 C 
ATOM     14  C   UNL     1       4.166  21.106  11.762  1.00  0.00     0.039 C 
ATOM     15  C   UNL     1       4.619  20.614   9.242  1.00  0.00     0.039 C 
ENDBRANCH  11  12
ENDBRANCH   1  11
TORSDOF 4
ENDMDL
MODEL 3
REMARK VINA RESULT:    -0.429      1.097      5.592
REMARK INTER + INTRA:          -1.294
REMARK INTER:                  -1.512
REMARK INTRA:                   0.217
REMARK UNBOUND:                -0.765
REMARK SMILES CC(C)=CCC[C@@H](C)c1ccc(C)cc1
REMARK SMILES IDX 6 1 7 2 8 3 9 4 13 5 12 6 11 7 14 8 10 9 15 10 5 11 4 12
REMARK SMILES IDX 2 13 1 14 3 15
REMARK H PARENT
REMARK Flexibility Score: inf
ROOT
ATOM      1  C   UNL     1      -0.799  19.234  13.466  1.00  0.00     0.012 C 
ENDROOT
BRANCH   1   2
ATOM      2  C   UNL     1      -0.794  19.752  12.011  1.00  0.00     0.016 C 
ATOM      3  C   UNL     1      -1.529  21.095  11.910  1.00  0.00     0.013 C 
BRANCH   2   4
ATOM      4  C   UNL     1       0.614  19.871  11.454  1.00  0.00    -0.045 A 
ATOM      5  C   UNL     1       4.618  20.164   9.859  1.00  0.00     0.044 C 
ATOM      6  C   UNL     1       3.239  20.050  10.438  1.00  0.00    -0.051 A 
ATOM      7  C   UNL     1       2.681  21.123  11.150  1.00  0.00     0.004 A 
ATOM      8  C   UNL     1       2.471  18.899  10.216  1.00  0.00     0.004 A 
ATOM      9  C   UNL     1       1.383  21.032  11.660  1.00  0.00     0.004 A 
ATOM     10  C   UNL     1       1.173  18.807  10.725  1.00  0.00     0.004 A 
ENDBRANCH   2   4
ENDBRANCH   1   2
BRANCH   1  11
ATOM     11  C   UNL     1      -2.034  19.712  14.245  1.00  0.00     0.028 C 
BRANCH  11  12
ATOM     12  C   UNL     1      -1.656  20.111  15.650  1.00  0.00    -0.028 C 
ATOM     13  C   UNL     1      -0.498  20.721  15.985  1.00  0.00    -0.080 C 
ATOM     14  C   UNL     1       0.527  21.118  14.949  1.00  0.00     0.039 C 
ATOM     15  C   UNL     1      -0.240  21.024  17.439  1.00  0.00     0.039 C 
ENDBRANCH  11  12
ENDBRANCH   1  11
TORSDOF 4
ENDMDL
MODEL 4
REMARK VINA RESULT:    -0.243      1.346      6.129
REMARK INTER + INTRA:          -1.065
REMARK INTER:                  -0.372
REMARK INTRA:                  -0.693
REMARK UNBOUND:                -0.765
REMARK SMILES CC(C)=CCC[C@@H](C)c1ccc(C)cc1
REMARK SMILES IDX 6 1 7 2 8 3 9 4 13 5 12 6 11 7 14 8 10 9 15 10 5 11 4 12
REMARK SMILES IDX 2 13 1 14 3 15
REMARK H PARENT
REMARK Flexibility Score: inf
ROOT
ATOM      1  C   UNL     1       0.521  21.023  13.847  1.00  0.00     0.012 C 
ENDROOT
BRANCH   1   2
ATOM      2  C   UNL     1       0.196  20.327  12.507  1.00  0.00     0.016 C 
ATOM      3  C   UNL     1      -0.928  21.066  11.769  1.00  0.00     0.013 C 
BRANCH   2   4
ATOM      4  C   UNL     1       1.422  20.197  11.621  1.00  0.00    -0.045 A 
ATOM      5  C   UNL     1       4.896  19.785   9.088  1.00  0.00     0.044 C 
ATOM      6  C   UNL     1       3.704  19.911   9.988  1.00  0.00    -0.051 A 
ATOM      7  C   UNL     1       3.606  20.985  10.885  1.00  0.00     0.004 A 
ATOM      8  C   UNL     1       2.646  18.996   9.893  1.00  0.00     0.004 A 
ATOM      9  C   UNL     1       2.479  21.124  11.700  1.00  0.00     0.004 A 
ATOM     10  C   UNL     1       1.519  19.133  10.707  1.00  0.00     0.004 A 
ENDBRANCH   2   4
ENDBRANCH   1   2
BRANCH   1  11
ATOM     11  C   UNL     1      -0.639  20.918  14.849  1.00  0.00     0.028 C 
BRANCH  11  12
ATOM     12  C   UNL     1      -1.233  19.532  14.832  1.00  0.00    -0.028 C 
ATOM     13  C   UNL     1      -2.552  19.267  14.706  1.00  0.00    -0.080 C 
ATOM     14  C   UNL     1      -3.573  20.363  14.510  1.00  0.00     0.039 C 
ATOM     15  C   UNL     1      -3.004  17.829  14.748  1.00  0.00     0.039 C 
ENDBRANCH  11  12
ENDBRANCH   1  11
TORSDOF 4
ENDMDL
MODEL 5
REMARK VINA RESULT:     0.561      1.549      5.807
REMARK INTER + INTRA:          -0.074
REMARK INTER:                  -0.309
REMARK INTRA:                   0.236
REMARK UNBOUND:                -0.765
REMARK SMILES CC(C)=CCC[C@@H](C)c1ccc(C)cc1
REMARK SMILES IDX 6 1 7 2 8 3 9 4 13 5 12 6 11 7 14 8 10 9 15 10 5 11 4 12
REMARK SMILES IDX 2 13 1 14 3 15
REMARK H PARENT
REMARK Flexibility Score: inf
ROOT
ATOM      1  C   UNL     1      -2.831  19.771  14.352  1.00  0.00     0.012 C 
ENDROOT
BRANCH   1   2
ATOM      2  C   UNL     1      -1.696  18.753  14.103  1.00  0.00     0.016 C 
ATOM      3  C   UNL     1      -2.264  17.418  13.605  1.00  0.00     0.013 C 
BRANCH   2   4
ATOM      4  C   UNL     1      -0.655  19.287  13.135  1.00  0.00    -0.045 A 
ATOM      5  C   UNL     1       2.315  20.761  10.366  1.00  0.00     0.044 C 
ATOM      6  C   UNL     1       1.306  20.240  11.346  1.00  0.00    -0.051 A 
ATOM      7  C   UNL     1       0.780  21.085  12.335  1.00  0.00     0.004 A 
ATOM      8  C   UNL     1       0.830  18.926  11.240  1.00  0.00     0.004 A 
ATOM      9  C   UNL     1      -0.187  20.611  13.226  1.00  0.00     0.004 A 
ATOM     10  C   UNL     1      -0.136  18.450  12.131  1.00  0.00     0.004 A 
ENDBRANCH   2   4
ENDBRANCH   1   2
BRANCH   1  11
ATOM     11  C   UNL     1      -2.296  21.124  14.846  1.00  0.00     0.028 C 
BRANCH  11  12
ATOM     12  C   UNL     1      -2.136  21.118  16.345  1.00  0.00    -0.028 C 
ATOM     13  C   UNL     1      -0.947  21.093  16.987  1.00  0.00    -0.080 C 
ATOM     14  C   UNL     1       0.366  21.124  16.240  1.00  0.00     0.039 C 
ATOM     15  C   UNL     1      -0.944  21.049  18.493  1.00  0.00     0.039 C 
ENDBRANCH  11  12
ENDBRANCH   1  11
TORSDOF 4
ENDMDL
MODEL 6
REMARK VINA RESULT:     0.612      1.548      2.096
REMARK INTER + INTRA:          -0.010
REMARK INTER:                   0.542
REMARK INTRA:                  -0.553
REMARK UNBOUND:                -0.765
REMARK SMILES CC(C)=CCC[C@@H](C)c1ccc(C)cc1
REMARK SMILES IDX 6 1 7 2 8 3 9 4 13 5 12 6 11 7 14 8 10 9 15 10 5 11 4 12
REMARK SMILES IDX 2 13 1 14 3 15
REMARK H PARENT
REMARK Flexibility Score: inf
ROOT
ATOM      1  C   UNL     1       1.509  19.913  10.753  1.00  0.00     0.012 C 
ENDROOT
BRANCH   1   2
ATOM      2  C   UNL     1       0.291  20.771  11.161  1.00  0.00     0.016 C 
ATOM      3  C   UNL     1      -0.560  21.125   9.935  1.00  0.00     0.013 C 
BRANCH   2   4
ATOM      4  C   UNL     1      -0.557  20.089  12.221  1.00  0.00    -0.045 A 
ATOM      5  C   UNL     1      -2.961  18.109  15.213  1.00  0.00     0.044 C 
ATOM      6  C   UNL     1      -2.150  18.796  14.156  1.00  0.00    -0.051 A 
ATOM      7  C   UNL     1      -2.099  20.197  14.103  1.00  0.00     0.004 A 
ATOM      8  C   UNL     1      -1.383  18.046  13.254  1.00  0.00     0.004 A 
ATOM      9  C   UNL     1      -1.315  20.839  13.140  1.00  0.00     0.004 A 
ATOM     10  C   UNL     1      -0.599  18.685  12.290  1.00  0.00     0.004 A 
ENDBRANCH   2   4
ENDBRANCH   1   2
BRANCH   1  11
ATOM     11  C   UNL     1       2.838  20.563  11.168  1.00  0.00     0.028 C 
BRANCH  11  12
ATOM     12  C   UNL     1       3.566  21.103   9.962  1.00  0.00    -0.028 C 
ATOM     13  C   UNL     1       4.535  20.440   9.294  1.00  0.00    -0.080 C 
ATOM     14  C   UNL     1       4.952  19.038   9.673  1.00  0.00     0.039 C 
ATOM     15  C   UNL     1       5.203  21.125   8.130  1.00  0.00     0.039 C 
ENDBRANCH  11  12
ENDBRANCH   1  11
TORSDOF 4
ENDMDL
MODEL 7
REMARK VINA RESULT:     0.774      1.206      5.819
REMARK INTER + INTRA:           0.190
REMARK INTER:                   0.452
REMARK INTRA:                  -0.262
REMARK UNBOUND:                -0.765
REMARK SMILES CC(C)=CCC[C@@H](C)c1ccc(C)cc1
REMARK SMILES IDX 6 1 7 2 8 3 9 4 13 5 12 6 11 7 14 8 10 9 15 10 5 11 4 12
REMARK SMILES IDX 2 13 1 14 3 15
REMARK H PARENT
REMARK Flexibility Score: inf
ROOT
ATOM      1  C   UNL     1      -0.212  18.528  12.404  1.00  0.00     0.012 C 
ENDROOT
BRANCH   1   2
ATOM      2  C   UNL     1      -0.089  19.638  11.337  1.00  0.00     0.016 C 
ATOM      3  C   UNL     1      -0.673  20.958  11.856  1.00  0.00     0.013 C 
BRANCH   2   4
ATOM      4  C   UNL     1       1.346  19.831  10.879  1.00  0.00    -0.045 A 
ATOM      5  C   UNL     1       5.428  20.422   9.595  1.00  0.00     0.044 C 
ATOM      6  C   UNL     1       4.001  20.233  10.018  1.00  0.00    -0.051 A 
ATOM      7  C   UNL     1       3.266  19.133   9.553  1.00  0.00     0.004 A 
ATOM      8  C   UNL     1       3.412  21.117  10.933  1.00  0.00     0.004 A 
ATOM      9  C   UNL     1       1.948  18.937   9.974  1.00  0.00     0.004 A 
ATOM     10  C   UNL     1       2.094  20.922  11.355  1.00  0.00     0.004 A 
ENDBRANCH   2   4
ENDBRANCH   1   2
BRANCH   1  11
ATOM     11  C   UNL     1      -1.396  18.769  13.354  1.00  0.00     0.028 C 
BRANCH  11  12
ATOM     12  C   UNL     1      -0.928  19.401  14.640  1.00  0.00    -0.028 C 
ATOM     13  C   UNL     1      -1.511  20.473  15.221  1.00  0.00    -0.080 C 
ATOM     14  C   UNL     1      -2.750  21.118  14.648  1.00  0.00     0.039 C 
ATOM     15  C   UNL     1      -0.905  21.021  16.488  1.00  0.00     0.039 C 
ENDBRANCH  11  12
ENDBRANCH   1  11
TORSDOF 4
ENDMDL
