MODEL 1
REMARK VINA RESULT:    -3.378      0.000      0.000
REMARK INTER + INTRA:          -4.050
REMARK INTER:                  -3.970
REMARK INTRA:                  -0.080
REMARK UNBOUND:                -0.080
REMARK SMILES CCCCC(=O)[O-]
REMARK SMILES IDX 4 1 5 2 6 3 7 4 3 5 2 6 1 7
REMARK H PARENT
REMARK Flexibility Score: inf
ROOT
ATOM      1  C   UNL     1      31.375   6.109  48.048  1.00  0.00     0.053 C 
ENDROOT
BRANCH   1   2
ATOM      2  C   UNL     1      30.896   5.583  46.730  1.00  0.00     0.041 C 
ATOM      3  O   UNL     1      29.672   5.622  46.439  1.00  0.00    -0.550 OA
ATOM      4  O   UNL     1      31.799   5.020  45.836  1.00  0.00    -0.550 OA
ENDBRANCH   1   2
BRANCH   1   5
ATOM      5  C   UNL     1      30.867   5.258  49.219  1.00  0.00     0.006 C 
BRANCH   5   6
ATOM      6  C   UNL     1      32.000   4.486  49.910  1.00  0.00    -0.003 C 
ATOM      7  C   UNL     1      32.277   3.163  49.202  1.00  0.00     0.004 C 
ENDBRANCH   5   6
ENDBRANCH   1   5
TORSDOF 3
ENDMDL
MODEL 2
REMARK VINA RESULT:    -3.368      2.651      3.753
REMARK INTER + INTRA:          -4.038
REMARK INTER:                  -3.949
REMARK INTRA:                  -0.089
REMARK UNBOUND:                -0.080
REMARK SMILES CCCCC(=O)[O-]
REMARK SMILES IDX 4 1 5 2 6 3 7 4 3 5 2 6 1 7
REMARK H PARENT
REMARK Flexibility Score: inf
ROOT
ATOM      1  C   UNL     1      31.148   5.016  49.600  1.00  0.00     0.053 C 
ENDROOT
BRANCH   1   2
ATOM      2  C   UNL     1      32.155   3.979  49.994  1.00  0.00     0.041 C 
ATOM      3  O   UNL     1      32.529   3.110  49.162  1.00  0.00    -0.550 OA
ATOM      4  O   UNL     1      32.655   3.952  51.290  1.00  0.00    -0.550 OA
ENDBRANCH   1   2
BRANCH   1   5
ATOM      5  C   UNL     1      31.648   5.881  48.436  1.00  0.00     0.006 C 
BRANCH   5   6
ATOM      6  C   UNL     1      30.807   5.687  47.167  1.00  0.00    -0.003 C 
ATOM      7  C   UNL     1      31.666   5.181  46.011  1.00  0.00     0.004 C 
ENDBRANCH   5   6
ENDBRANCH   1   5
TORSDOF 3
ENDMDL
MODEL 3
REMARK VINA RESULT:    -3.307     10.248     11.443
REMARK INTER + INTRA:          -3.967
REMARK INTER:                  -3.883
REMARK INTRA:                  -0.084
REMARK UNBOUND:                -0.080
REMARK SMILES CCCCC(=O)[O-]
REMARK SMILES IDX 4 1 5 2 6 3 7 4 3 5 2 6 1 7
REMARK H PARENT
REMARK Flexibility Score: inf
ROOT
ATOM      1  C   UNL     1      23.351   2.433  39.867  1.00  0.00     0.053 C 
ENDROOT
BRANCH   1   2
ATOM      2  C   UNL     1      24.709   2.871  40.325  1.00  0.00     0.041 C 
ATOM      3  O   UNL     1      25.639   3.028  39.492  1.00  0.00    -0.550 OA
ATOM      4  O   UNL     1      24.955   3.072  41.678  1.00  0.00    -0.550 OA
ENDBRANCH   1   2
BRANCH   1   5
ATOM      5  C   UNL     1      23.398   1.068  39.170  1.00  0.00     0.006 C 
BRANCH   5   6
ATOM      6  C   UNL     1      23.792  -0.062  40.131  1.00  0.00    -0.003 C 
ATOM      7  C   UNL     1      23.835  -1.407  39.412  1.00  0.00     0.004 C 
ENDBRANCH   5   6
ENDBRANCH   1   5
TORSDOF 3
ENDMDL
MODEL 4
REMARK VINA RESULT:    -3.203     10.374     11.597
REMARK INTER + INTRA:          -3.845
REMARK INTER:                  -3.761
REMARK INTRA:                  -0.084
REMARK UNBOUND:                -0.080
REMARK SMILES CCCCC(=O)[O-]
REMARK SMILES IDX 4 1 5 2 6 3 7 4 3 5 2 6 1 7
REMARK H PARENT
REMARK Flexibility Score: inf
ROOT
ATOM      1  C   UNL     1      24.147   2.396  39.422  1.00  0.00     0.053 C 
ENDROOT
BRANCH   1   2
ATOM      2  C   UNL     1      23.866   2.933  40.792  1.00  0.00     0.041 C 
ATOM      3  O   UNL     1      24.801   3.066  41.625  1.00  0.00    -0.550 OA
ATOM      4  O   UNL     1      22.565   3.256  41.159  1.00  0.00    -0.550 OA
ENDBRANCH   1   2
BRANCH   1   5
ATOM      5  C   UNL     1      23.366   1.104  39.147  1.00  0.00     0.006 C 
BRANCH   5   6
ATOM      6  C   UNL     1      23.697  -0.002  40.159  1.00  0.00    -0.003 C 
ATOM      7  C   UNL     1      23.833  -1.356  39.469  1.00  0.00     0.004 C 
ENDBRANCH   5   6
ENDBRANCH   1   5
TORSDOF 3
ENDMDL
MODEL 5
REMARK VINA RESULT:    -3.012     13.104     13.838
REMARK INTER + INTRA:          -3.620
REMARK INTER:                  -3.534
REMARK INTRA:                  -0.086
REMARK UNBOUND:                -0.080
REMARK SMILES CCCCC(=O)[O-]
REMARK SMILES IDX 4 1 5 2 6 3 7 4 3 5 2 6 1 7
REMARK H PARENT
REMARK Flexibility Score: inf
ROOT
ATOM      1  C   UNL     1      22.426  -2.171  55.764  1.00  0.00     0.053 C 
ENDROOT
BRANCH   1   2
ATOM      2  C   UNL     1      21.902  -0.802  56.074  1.00  0.00     0.041 C 
ATOM      3  O   UNL     1      21.943  -0.358  57.251  1.00  0.00    -0.550 OA
ATOM      4  O   UNL     1      21.338  -0.029  55.065  1.00  0.00    -0.550 OA
ENDBRANCH   1   2
BRANCH   1   5
ATOM      5  C   UNL     1      23.956  -2.183  55.653  1.00  0.00     0.006 C 
BRANCH   5   6
ATOM      6  C   UNL     1      24.596  -3.241  56.563  1.00  0.00    -0.003 C 
ATOM      7  C   UNL     1      23.916  -3.277  57.929  1.00  0.00     0.004 C 
ENDBRANCH   5   6
ENDBRANCH   1   5
TORSDOF 3
ENDMDL
MODEL 6
REMARK VINA RESULT:    -3.010      9.307     10.765
REMARK INTER + INTRA:          -3.618
REMARK INTER:                  -3.603
REMARK INTRA:                  -0.015
REMARK UNBOUND:                -0.080
REMARK SMILES CCCCC(=O)[O-]
REMARK SMILES IDX 4 1 5 2 6 3 7 4 3 5 2 6 1 7
REMARK H PARENT
REMARK Flexibility Score: inf
ROOT
ATOM      1  C   UNL     1      25.466   3.072  39.642  1.00  0.00     0.053 C 
ENDROOT
BRANCH   1   2
ATOM      2  C   UNL     1      26.120   4.002  40.617  1.00  0.00     0.041 C 
ATOM      3  O   UNL     1      27.316   3.818  40.964  1.00  0.00    -0.550 OA
ATOM      4  O   UNL     1      25.397   5.053  41.168  1.00  0.00    -0.550 OA
ENDBRANCH   1   2
BRANCH   1   5
ATOM      5  C   UNL     1      24.255   2.360  40.258  1.00  0.00     0.006 C 
BRANCH   5   6
ATOM      6  C   UNL     1      23.769   1.187  39.396  1.00  0.00    -0.003 C 
ATOM      7  C   UNL     1      22.619   1.611  38.487  1.00  0.00     0.004 C 
ENDBRANCH   5   6
ENDBRANCH   1   5
TORSDOF 3
ENDMDL
MODEL 7
REMARK VINA RESULT:    -2.921     12.997     13.700
REMARK INTER + INTRA:          -3.514
REMARK INTER:                  -3.424
REMARK INTRA:                  -0.090
REMARK UNBOUND:                -0.080
REMARK SMILES CCCCC(=O)[O-]
REMARK SMILES IDX 4 1 5 2 6 3 7 4 3 5 2 6 1 7
REMARK H PARENT
REMARK Flexibility Score: inf
ROOT
ATOM      1  C   UNL     1      23.651  -2.095  55.625  1.00  0.00     0.053 C 
ENDROOT
BRANCH   1   2
ATOM      2  C   UNL     1      23.117  -2.643  54.337  1.00  0.00     0.041 C 
ATOM      3  O   UNL     1      23.450  -2.123  53.240  1.00  0.00    -0.550 OA
ATOM      4  O   UNL     1      22.223  -3.707  54.351  1.00  0.00    -0.550 OA
ENDBRANCH   1   2
BRANCH   1   5
ATOM      5  C   UNL     1      24.452  -3.148  56.402  1.00  0.00     0.006 C 
BRANCH   5   6
ATOM      6  C   UNL     1      23.999  -3.260  57.864  1.00  0.00    -0.003 C 
ATOM      7  C   UNL     1      22.566  -2.765  58.036  1.00  0.00     0.004 C 
ENDBRANCH   5   6
ENDBRANCH   1   5
TORSDOF 3
ENDMDL
MODEL 8
REMARK VINA RESULT:    -2.906      9.713     11.085
REMARK INTER + INTRA:          -3.495
REMARK INTER:                  -3.439
REMARK INTRA:                  -0.056
REMARK UNBOUND:                -0.080
REMARK SMILES CCCCC(=O)[O-]
REMARK SMILES IDX 4 1 5 2 6 3 7 4 3 5 2 6 1 7
REMARK H PARENT
REMARK Flexibility Score: inf
ROOT
ATOM      1  C   UNL     1      23.621   2.137  39.389  1.00  0.00     0.053 C 
ENDROOT
BRANCH   1   2
ATOM      2  C   UNL     1      23.636   0.867  40.182  1.00  0.00     0.041 C 
ATOM      3  O   UNL     1      24.010  -0.210  39.649  1.00  0.00    -0.550 OA
ATOM      4  O   UNL     1      23.206   0.868  41.504  1.00  0.00    -0.550 OA
ENDBRANCH   1   2
BRANCH   1   5
ATOM      5  C   UNL     1      24.984   2.840  39.413  1.00  0.00     0.006 C 
BRANCH   5   6
ATOM      6  C   UNL     1      25.190   3.665  40.691  1.00  0.00    -0.003 C 
ATOM      7  C   UNL     1      26.668   3.965  40.921  1.00  0.00     0.004 C 
ENDBRANCH   5   6
ENDBRANCH   1   5
TORSDOF 3
ENDMDL
MODEL 9
REMARK VINA RESULT:    -2.901      1.473      2.048
REMARK INTER + INTRA:          -3.490
REMARK INTER:                  -3.440
REMARK INTRA:                  -0.049
REMARK UNBOUND:                -0.080
REMARK SMILES CCCCC(=O)[O-]
REMARK SMILES IDX 4 1 5 2 6 3 7 4 3 5 2 6 1 7
REMARK H PARENT
REMARK Flexibility Score: inf
ROOT
ATOM      1  C   UNL     1      30.705   6.487  47.734  1.00  0.00     0.053 C 
ENDROOT
BRANCH   1   2
ATOM      2  C   UNL     1      29.250   6.210  47.506  1.00  0.00     0.041 C 
ATOM      3  O   UNL     1      28.843   5.856  46.368  1.00  0.00    -0.550 OA
ATOM      4  O   UNL     1      28.340   6.375  48.543  1.00  0.00    -0.550 OA
ENDBRANCH   1   2
BRANCH   1   5
ATOM      5  C   UNL     1      31.495   5.199  47.995  1.00  0.00     0.006 C 
BRANCH   5   6
ATOM      6  C   UNL     1      31.776   4.983  49.489  1.00  0.00    -0.003 C 
ATOM      7  C   UNL     1      31.822   3.497  49.832  1.00  0.00     0.004 C 
ENDBRANCH   5   6
ENDBRANCH   1   5
TORSDOF 3
ENDMDL
