MODEL 1
REMARK VINA RESULT:    -6.337      0.000      0.000
REMARK INTER + INTRA:         -10.709
REMARK INTER:                  -9.857
REMARK INTRA:                  -0.852
REMARK UNBOUND:                -0.852
REMARK SMILES COc1cc(CNC(=O)CCCCC=CC(C)C)ccc1O
REMARK SMILES IDX 11 1 12 2 13 3 14 4 15 5 16 6 17 7 18 8 10 9 8 10 9 11 7 12
REMARK SMILES IDX 6 14 5 15 4 16 19 17 3 18 20 19 21 20 2 21 1 22 22 23
REMARK H PARENT 7 13 22 24
REMARK Flexibility Score: inf
ROOT
ATOM      1  C   UNL     1       3.109  14.022  15.246  1.00  0.00     0.010 C 
ENDROOT
BRANCH   1   2
ATOM      2  C   UNL     1       2.811  15.423  14.691  1.00  0.00     0.005 C 
BRANCH   2   3
ATOM      3  C   UNL     1       3.973  16.404  14.902  1.00  0.00     0.027 C 
BRANCH   3   4
ATOM      4  C   UNL     1       4.070  17.373  13.754  1.00  0.00    -0.031 C 
ATOM      5  C   UNL     1       3.689  17.025  12.513  1.00  0.00    -0.028 C 
BRANCH   5   6
ATOM      6  C   UNL     1       3.759  17.974  11.339  1.00  0.00     0.005 C 
ATOM      7  C   UNL     1       5.159  17.992  10.707  1.00  0.00     0.012 C 
ATOM      8  C   UNL     1       3.313  19.386  11.741  1.00  0.00     0.012 C 
ENDBRANCH   5   6
ENDBRANCH   3   4
ENDBRANCH   2   3
ENDBRANCH   1   2
BRANCH   1   9
ATOM      9  C   UNL     1       4.457  13.467  14.768  1.00  0.00     0.100 C 
BRANCH   9  10
ATOM     10  C   UNL     1       5.275  13.022  15.942  1.00  0.00     0.220 C 
ATOM     11  O   UNL     1       5.701  11.835  15.990  1.00  0.00    -0.275 OA
ATOM     12  N   UNL     1       5.608  13.953  16.981  1.00  0.00    -0.352 N 
ATOM     13  H   UNL     1       5.145  14.891  16.991  1.00  0.00     0.163 HD
BRANCH  12  14
ATOM     14  C   UNL     1       6.675  13.695  17.944  1.00  0.00     0.151 C 
BRANCH  14  15
ATOM     15  C   UNL     1       6.231  14.113  19.319  1.00  0.00    -0.025 A 
ATOM     16  C   UNL     1       7.109  14.824  20.151  1.00  0.00     0.056 A 
ATOM     17  C   UNL     1       4.972  13.737  19.805  1.00  0.00     0.009 A 
ATOM     18  C   UNL     1       6.730  15.172  21.464  1.00  0.00     0.160 A 
ATOM     19  C   UNL     1       4.588  14.080  21.103  1.00  0.00     0.050 A 
ATOM     20  C   UNL     1       5.458  14.792  21.933  1.00  0.00     0.157 A 
BRANCH  18  21
ATOM     21  O   UNL     1       7.585  15.887  22.321  1.00  0.00    -0.493 OA
ATOM     22  C   UNL     1       8.697  15.322  23.009  1.00  0.00     0.278 C 
ENDBRANCH  18  21
BRANCH  20  23
ATOM     23  O   UNL     1       5.042  15.108  23.226  1.00  0.00    -0.504 OA
ATOM     24  H   UNL     1       5.626  15.632  23.866  1.00  0.00     0.293 HD
ENDBRANCH  20  23
ENDBRANCH  14  15
ENDBRANCH  12  14
ENDBRANCH   9  10
ENDBRANCH   1   9
TORSDOF 10
ENDMDL
MODEL 2
REMARK VINA RESULT:    -6.236      1.137      1.635
REMARK INTER + INTRA:         -10.552
REMARK INTER:                  -9.835
REMARK INTRA:                  -0.717
REMARK UNBOUND:                -0.852
REMARK SMILES COc1cc(CNC(=O)CCCCC=CC(C)C)ccc1O
REMARK SMILES IDX 11 1 12 2 13 3 14 4 15 5 16 6 17 7 18 8 10 9 8 10 9 11 7 12
REMARK SMILES IDX 6 14 5 15 4 16 19 17 3 18 20 19 21 20 2 21 1 22 22 23
REMARK H PARENT 7 13 22 24
REMARK Flexibility Score: inf
ROOT
ATOM      1  C   UNL     1       3.481  15.906  14.579  1.00  0.00     0.010 C 
ENDROOT
BRANCH   1   2
ATOM      2  C   UNL     1       4.183  17.265  14.728  1.00  0.00     0.005 C 
BRANCH   2   3
ATOM      3  C   UNL     1       3.678  18.307  13.720  1.00  0.00     0.027 C 
BRANCH   3   4
ATOM      4  C   UNL     1       4.405  18.180  12.409  1.00  0.00    -0.031 C 
ATOM      5  C   UNL     1       3.798  18.461  11.244  1.00  0.00    -0.028 C 
BRANCH   5   6
ATOM      6  C   UNL     1       4.499  18.358   9.909  1.00  0.00     0.005 C 
ATOM      7  C   UNL     1       3.741  17.438   8.940  1.00  0.00     0.012 C 
ATOM      8  C   UNL     1       5.955  17.903  10.082  1.00  0.00     0.012 C 
ENDBRANCH   5   6
ENDBRANCH   3   4
ENDBRANCH   2   3
ENDBRANCH   1   2
BRANCH   1   9
ATOM      9  C   UNL     1       4.463  14.751  14.347  1.00  0.00     0.100 C 
BRANCH   9  10
ATOM     10  C   UNL     1       4.537  13.886  15.569  1.00  0.00     0.220 C 
ATOM     11  O   UNL     1       3.623  13.045  15.792  1.00  0.00    -0.275 OA
ATOM     12  N   UNL     1       5.664  13.983  16.451  1.00  0.00    -0.352 N 
ATOM     13  H   UNL     1       6.344  14.767  16.323  1.00  0.00     0.163 HD
BRANCH  12  14
ATOM     14  C   UNL     1       5.973  12.948  17.433  1.00  0.00     0.151 C 
BRANCH  14  15
ATOM     15  C   UNL     1       5.675  13.455  18.818  1.00  0.00    -0.025 A 
ATOM     16  C   UNL     1       6.546  14.370  19.430  1.00  0.00     0.056 A 
ATOM     17  C   UNL     1       4.572  12.968  19.532  1.00  0.00     0.009 A 
ATOM     18  C   UNL     1       6.312  14.810  20.749  1.00  0.00     0.160 A 
ATOM     19  C   UNL     1       4.334  13.400  20.838  1.00  0.00     0.050 A 
ATOM     20  C   UNL     1       5.196  14.315  21.449  1.00  0.00     0.157 A 
BRANCH  18  21
ATOM     21  O   UNL     1       7.164  15.728  21.389  1.00  0.00    -0.493 OA
ATOM     22  C   UNL     1       8.360  15.377  22.077  1.00  0.00     0.278 C 
ENDBRANCH  18  21
BRANCH  20  23
ATOM     23  O   UNL     1       4.929  14.717  22.757  1.00  0.00    -0.504 OA
ATOM     24  H   UNL     1       5.416  15.489  23.193  1.00  0.00     0.293 HD
ENDBRANCH  20  23
ENDBRANCH  14  15
ENDBRANCH  12  14
ENDBRANCH   9  10
ENDBRANCH   1   9
TORSDOF 10
ENDMDL
MODEL 3
REMARK VINA RESULT:    -6.189      2.885      8.588
REMARK INTER + INTRA:         -10.478
REMARK INTER:                  -9.605
REMARK INTRA:                  -0.873
REMARK UNBOUND:                -0.852
REMARK SMILES COc1cc(CNC(=O)CCCCC=CC(C)C)ccc1O
REMARK SMILES IDX 11 1 12 2 13 3 14 4 15 5 16 6 17 7 18 8 10 9 8 10 9 11 7 12
REMARK SMILES IDX 6 14 5 15 4 16 19 17 3 18 20 19 21 20 2 21 1 22 22 23
REMARK H PARENT 7 13 22 24
REMARK Flexibility Score: inf
ROOT
ATOM      1  C   UNL     1       6.740  15.944  19.241  1.00  0.00     0.010 C 
ENDROOT
BRANCH   1   2
ATOM      2  C   UNL     1       7.068  16.507  20.633  1.00  0.00     0.005 C 
BRANCH   2   3
ATOM      3  C   UNL     1       6.780  15.505  21.761  1.00  0.00     0.027 C 
BRANCH   3   4
ATOM      4  C   UNL     1       8.003  15.296  22.614  1.00  0.00    -0.031 C 
ATOM      5  C   UNL     1       9.172  14.913  22.076  1.00  0.00    -0.028 C 
BRANCH   5   6
ATOM      6  C   UNL     1      10.424  14.706  22.897  1.00  0.00     0.005 C 
ATOM      7  C   UNL     1      10.190  15.037  24.379  1.00  0.00     0.012 C 
ATOM      8  C   UNL     1      11.599  15.512  22.327  1.00  0.00     0.012 C 
ENDBRANCH   5   6
ENDBRANCH   3   4
ENDBRANCH   2   3
ENDBRANCH   1   2
BRANCH   1   9
ATOM      9  C   UNL     1       6.691  14.410  19.216  1.00  0.00     0.100 C 
BRANCH   9  10
ATOM     10  C   UNL     1       6.058  13.937  17.943  1.00  0.00     0.220 C 
ATOM     11  O   UNL     1       5.780  12.713  17.804  1.00  0.00    -0.275 OA
ATOM     12  N   UNL     1       5.730  14.876  16.910  1.00  0.00    -0.352 N 
ATOM     13  H   UNL     1       6.080  15.859  16.987  1.00  0.00     0.163 HD
BRANCH  12  14
ATOM     14  C   UNL     1       4.807  14.549  15.827  1.00  0.00     0.151 C 
BRANCH  14  15
ATOM     15  C   UNL     1       4.494  15.790  15.035  1.00  0.00    -0.025 A 
ATOM     16  C   UNL     1       4.652  17.054  15.623  1.00  0.00     0.056 A 
ATOM     17  C   UNL     1       3.975  15.693  13.737  1.00  0.00     0.009 A 
ATOM     18  C   UNL     1       4.307  18.223  14.915  1.00  0.00     0.160 A 
ATOM     19  C   UNL     1       3.633  16.846  13.029  1.00  0.00     0.050 A 
ATOM     20  C   UNL     1       3.794  18.107  13.610  1.00  0.00     0.157 A 
BRANCH  18  21
ATOM     21  O   UNL     1       4.458  19.504  15.476  1.00  0.00    -0.493 OA
ATOM     22  C   UNL     1       3.465  20.169  16.251  1.00  0.00     0.278 C 
ENDBRANCH  18  21
BRANCH  20  23
ATOM     23  O   UNL     1       3.433  19.235  12.874  1.00  0.00    -0.504 OA
ATOM     24  H   UNL     1       4.093  19.971  12.659  1.00  0.00     0.293 HD
ENDBRANCH  20  23
ENDBRANCH  14  15
ENDBRANCH  12  14
ENDBRANCH   9  10
ENDBRANCH   1   9
TORSDOF 10
ENDMDL
MODEL 4
REMARK VINA RESULT:    -6.149      1.383      2.764
REMARK INTER + INTRA:         -10.416
REMARK INTER:                  -9.691
REMARK INTRA:                  -0.725
REMARK UNBOUND:                -0.852
REMARK SMILES COc1cc(CNC(=O)CCCCC=CC(C)C)ccc1O
REMARK SMILES IDX 11 1 12 2 13 3 14 4 15 5 16 6 17 7 18 8 10 9 8 10 9 11 7 12
REMARK SMILES IDX 6 14 5 15 4 16 19 17 3 18 20 19 21 20 2 21 1 22 22 23
REMARK H PARENT 7 13 22 24
REMARK Flexibility Score: inf
ROOT
ATOM      1  C   UNL     1       4.030  16.696  14.996  1.00  0.00     0.010 C 
ENDROOT
BRANCH   1   2
ATOM      2  C   UNL     1       4.524  17.929  14.223  1.00  0.00     0.005 C 
BRANCH   2   3
ATOM      3  C   UNL     1       3.392  18.661  13.489  1.00  0.00     0.027 C 
BRANCH   3   4
ATOM      4  C   UNL     1       3.764  18.917  12.053  1.00  0.00    -0.031 C 
ATOM      5  C   UNL     1       4.250  17.938  11.273  1.00  0.00    -0.028 C 
BRANCH   5   6
ATOM      6  C   UNL     1       4.622  18.153   9.824  1.00  0.00     0.005 C 
ATOM      7  C   UNL     1       3.620  17.475   8.875  1.00  0.00     0.012 C 
ATOM      8  C   UNL     1       6.056  17.682   9.545  1.00  0.00     0.012 C 
ENDBRANCH   5   6
ENDBRANCH   3   4
ENDBRANCH   2   3
ENDBRANCH   1   2
BRANCH   1   9
ATOM      9  C   UNL     1       3.953  15.437  14.122  1.00  0.00     0.100 C 
BRANCH   9  10
ATOM     10  C   UNL     1       4.520  14.263  14.860  1.00  0.00     0.220 C 
ATOM     11  O   UNL     1       4.779  13.200  14.232  1.00  0.00    -0.275 OA
ATOM     12  N   UNL     1       4.808  14.365  16.261  1.00  0.00    -0.352 N 
ATOM     13  H   UNL     1       4.472  15.202  16.790  1.00  0.00     0.163 HD
BRANCH  12  14
ATOM     14  C   UNL     1       5.675  13.412  16.948  1.00  0.00     0.151 C 
BRANCH  14  15
ATOM     15  C   UNL     1       5.800  13.792  18.398  1.00  0.00    -0.025 A 
ATOM     16  C   UNL     1       4.845  13.344  19.324  1.00  0.00     0.056 A 
ATOM     17  C   UNL     1       6.824  14.650  18.823  1.00  0.00     0.009 A 
ATOM     18  C   UNL     1       4.915  13.740  20.675  1.00  0.00     0.160 A 
ATOM     19  C   UNL     1       6.900  15.045  20.160  1.00  0.00     0.050 A 
ATOM     20  C   UNL     1       5.954  14.597  21.085  1.00  0.00     0.157 A 
BRANCH  18  21
ATOM     21  O   UNL     1       3.975  13.305  21.627  1.00  0.00    -0.493 OA
ATOM     22  C   UNL     1       3.119  12.179  21.462  1.00  0.00     0.278 C 
ENDBRANCH  18  21
BRANCH  20  23
ATOM     23  O   UNL     1       6.059  15.019  22.410  1.00  0.00    -0.504 OA
ATOM     24  H   UNL     1       5.929  15.987  22.678  1.00  0.00     0.293 HD
ENDBRANCH  20  23
ENDBRANCH  14  15
ENDBRANCH  12  14
ENDBRANCH   9  10
ENDBRANCH   1   9
TORSDOF 10
ENDMDL
MODEL 5
REMARK VINA RESULT:    -6.082      2.681      8.191
REMARK INTER + INTRA:         -10.312
REMARK INTER:                  -9.141
REMARK INTRA:                  -1.171
REMARK UNBOUND:                -0.852
REMARK SMILES COc1cc(CNC(=O)CCCCC=CC(C)C)ccc1O
REMARK SMILES IDX 11 1 12 2 13 3 14 4 15 5 16 6 17 7 18 8 10 9 8 10 9 11 7 12
REMARK SMILES IDX 6 14 5 15 4 16 19 17 3 18 20 19 21 20 2 21 1 22 22 23
REMARK H PARENT 7 13 22 24
REMARK Flexibility Score: inf
ROOT
ATOM      1  C   UNL     1       4.391  14.708  21.456  1.00  0.00     0.010 C 
ENDROOT
BRANCH   1   2
ATOM      2  C   UNL     1       5.678  14.897  22.273  1.00  0.00     0.005 C 
BRANCH   2   3
ATOM      3  C   UNL     1       6.721  15.759  21.546  1.00  0.00     0.027 C 
BRANCH   3   4
ATOM      4  C   UNL     1       8.115  15.284  21.855  1.00  0.00    -0.031 C 
ATOM      5  C   UNL     1       8.465  14.905  23.095  1.00  0.00    -0.028 C 
BRANCH   5   6
ATOM      6  C   UNL     1       9.851  14.410  23.440  1.00  0.00     0.005 C 
ATOM      7  C   UNL     1      10.513  15.284  24.517  1.00  0.00     0.012 C 
ATOM      8  C   UNL     1      10.731  14.311  22.187  1.00  0.00     0.012 C 
ENDBRANCH   5   6
ENDBRANCH   3   4
ENDBRANCH   2   3
ENDBRANCH   1   2
BRANCH   1   9
ATOM      9  C   UNL     1       4.110  13.238  21.119  1.00  0.00     0.100 C 
BRANCH   9  10
ATOM     10  C   UNL     1       4.273  13.006  19.648  1.00  0.00     0.220 C 
ATOM     11  O   UNL     1       3.314  12.524  18.984  1.00  0.00    -0.275 OA
ATOM     12  N   UNL     1       5.495  13.373  18.993  1.00  0.00    -0.352 N 
ATOM     13  H   UNL     1       6.319  13.650  19.574  1.00  0.00     0.163 HD
BRANCH  12  14
ATOM     14  C   UNL     1       5.588  13.511  17.542  1.00  0.00     0.151 C 
BRANCH  14  15
ATOM     15  C   UNL     1       5.551  14.967  17.167  1.00  0.00    -0.025 A 
ATOM     16  C   UNL     1       4.840  15.379  16.030  1.00  0.00     0.056 A 
ATOM     17  C   UNL     1       6.281  15.911  17.903  1.00  0.00     0.009 A 
ATOM     18  C   UNL     1       4.843  16.731  15.631  1.00  0.00     0.160 A 
ATOM     19  C   UNL     1       6.288  17.252  17.516  1.00  0.00     0.050 A 
ATOM     20  C   UNL     1       5.576  17.666  16.386  1.00  0.00     0.157 A 
BRANCH  18  21
ATOM     21  O   UNL     1       4.137  17.175  14.499  1.00  0.00    -0.493 OA
ATOM     22  C   UNL     1       3.539  16.317  13.531  1.00  0.00     0.278 C 
ENDBRANCH  18  21
BRANCH  20  23
ATOM     23  O   UNL     1       5.614  19.013  16.027  1.00  0.00    -0.504 OA
ATOM     24  H   UNL     1       6.168  19.690  16.535  1.00  0.00     0.293 HD
ENDBRANCH  20  23
ENDBRANCH  14  15
ENDBRANCH  12  14
ENDBRANCH   9  10
ENDBRANCH   1   9
TORSDOF 10
ENDMDL
MODEL 6
REMARK VINA RESULT:    -6.079      2.647      8.757
REMARK INTER + INTRA:         -10.308
REMARK INTER:                  -9.660
REMARK INTRA:                  -0.648
REMARK UNBOUND:                -0.852
REMARK SMILES COc1cc(CNC(=O)CCCCC=CC(C)C)ccc1O
REMARK SMILES IDX 11 1 12 2 13 3 14 4 15 5 16 6 17 7 18 8 10 9 8 10 9 11 7 12
REMARK SMILES IDX 6 14 5 15 4 16 19 17 3 18 20 19 21 20 2 21 1 22 22 23
REMARK H PARENT 7 13 22 24
REMARK Flexibility Score: inf
ROOT
ATOM      1  C   UNL     1       4.908  14.467  20.571  1.00  0.00     0.010 C 
ENDROOT
BRANCH   1   2
ATOM      2  C   UNL     1       6.276  15.001  21.023  1.00  0.00     0.005 C 
BRANCH   2   3
ATOM      3  C   UNL     1       6.354  15.225  22.540  1.00  0.00     0.027 C 
BRANCH   3   4
ATOM      4  C   UNL     1       7.764  15.048  23.034  1.00  0.00    -0.031 C 
ATOM      5  C   UNL     1       8.814  15.157  22.204  1.00  0.00    -0.028 C 
BRANCH   5   6
ATOM      6  C   UNL     1      10.245  15.000  22.666  1.00  0.00     0.005 C 
ATOM      7  C   UNL     1      10.890  13.731  22.089  1.00  0.00     0.012 C 
ATOM      8  C   UNL     1      10.337  15.021  24.198  1.00  0.00     0.012 C 
ENDBRANCH   5   6
ENDBRANCH   3   4
ENDBRANCH   2   3
ENDBRANCH   1   2
BRANCH   1   9
ATOM      9  C   UNL     1       5.021  13.230  19.671  1.00  0.00     0.100 C 
BRANCH   9  10
ATOM     10  C   UNL     1       5.510  13.625  18.310  1.00  0.00     0.220 C 
ATOM     11  O   UNL     1       6.723  13.452  18.011  1.00  0.00    -0.275 OA
ATOM     12  N   UNL     1       4.593  14.156  17.343  1.00  0.00    -0.352 N 
ATOM     13  H   UNL     1       3.626  14.411  17.646  1.00  0.00     0.163 HD
BRANCH  12  14
ATOM     14  C   UNL     1       4.916  14.220  15.920  1.00  0.00     0.151 C 
BRANCH  14  15
ATOM     15  C   UNL     1       4.527  15.565  15.371  1.00  0.00    -0.025 A 
ATOM     16  C   UNL     1       4.145  15.689  14.027  1.00  0.00     0.056 A 
ATOM     17  C   UNL     1       4.612  16.712  16.173  1.00  0.00     0.009 A 
ATOM     18  C   UNL     1       3.834  16.951  13.482  1.00  0.00     0.160 A 
ATOM     19  C   UNL     1       4.304  17.965  15.641  1.00  0.00     0.050 A 
ATOM     20  C   UNL     1       3.919  18.091  14.303  1.00  0.00     0.157 A 
BRANCH  18  21
ATOM     21  O   UNL     1       3.445  17.107  12.140  1.00  0.00    -0.493 OA
ATOM     22  C   UNL     1       4.324  17.474  11.080  1.00  0.00     0.278 C 
ENDBRANCH  18  21
BRANCH  20  23
ATOM     23  O   UNL     1       3.627  19.361  13.806  1.00  0.00    -0.504 OA
ATOM     24  H   UNL     1       2.757  19.566  13.331  1.00  0.00     0.293 HD
ENDBRANCH  20  23
ENDBRANCH  14  15
ENDBRANCH  12  14
ENDBRANCH   9  10
ENDBRANCH   1   9
TORSDOF 10
ENDMDL
MODEL 7
REMARK VINA RESULT:    -6.060      1.944      2.690
REMARK INTER + INTRA:         -10.277
REMARK INTER:                  -9.436
REMARK INTRA:                  -0.842
REMARK UNBOUND:                -0.852
REMARK SMILES COc1cc(CNC(=O)CCCCC=CC(C)C)ccc1O
REMARK SMILES IDX 11 1 12 2 13 3 14 4 15 5 16 6 17 7 18 8 10 9 8 10 9 11 7 12
REMARK SMILES IDX 6 14 5 15 4 16 19 17 3 18 20 19 21 20 2 21 1 22 22 23
REMARK H PARENT 7 13 22 24
REMARK Flexibility Score: inf
ROOT
ATOM      1  C   UNL     1       4.157  15.643  14.664  1.00  0.00     0.010 C 
ENDROOT
BRANCH   1   2
ATOM      2  C   UNL     1       3.737  16.377  13.381  1.00  0.00     0.005 C 
BRANCH   2   3
ATOM      3  C   UNL     1       4.145  17.857  13.383  1.00  0.00     0.027 C 
BRANCH   3   4
ATOM      4  C   UNL     1       4.346  18.354  14.789  1.00  0.00    -0.031 C 
ATOM      5  C   UNL     1       3.640  19.390  15.271  1.00  0.00    -0.028 C 
BRANCH   5   6
ATOM      6  C   UNL     1       3.804  19.910  16.681  1.00  0.00     0.005 C 
ATOM      7  C   UNL     1       2.668  19.429  17.597  1.00  0.00     0.012 C 
ATOM      8  C   UNL     1       3.918  21.440  16.697  1.00  0.00     0.012 C 
ENDBRANCH   5   6
ENDBRANCH   3   4
ENDBRANCH   2   3
ENDBRANCH   1   2
BRANCH   1   9
ATOM      9  C   UNL     1       4.402  14.145  14.440  1.00  0.00     0.100 C 
BRANCH   9  10
ATOM     10  C   UNL     1       4.586  13.452  15.756  1.00  0.00     0.220 C 
ATOM     11  O   UNL     1       3.726  12.613  16.143  1.00  0.00    -0.275 OA
ATOM     12  N   UNL     1       5.755  13.708  16.546  1.00  0.00    -0.352 N 
ATOM     13  H   UNL     1       6.390  14.493  16.276  1.00  0.00     0.163 HD
BRANCH  12  14
ATOM     14  C   UNL     1       6.168  12.823  17.632  1.00  0.00     0.151 C 
BRANCH  14  15
ATOM     15  C   UNL     1       5.732  13.400  18.951  1.00  0.00    -0.025 A 
ATOM     16  C   UNL     1       6.505  14.395  19.570  1.00  0.00     0.056 A 
ATOM     17  C   UNL     1       4.597  12.903  19.605  1.00  0.00     0.009 A 
ATOM     18  C   UNL     1       6.142  14.904  20.833  1.00  0.00     0.160 A 
ATOM     19  C   UNL     1       4.230  13.403  20.855  1.00  0.00     0.050 A 
ATOM     20  C   UNL     1       4.995  14.397  21.472  1.00  0.00     0.157 A 
BRANCH  18  21
ATOM     21  O   UNL     1       6.894  15.903  21.477  1.00  0.00    -0.493 OA
ATOM     22  C   UNL     1       8.097  15.668  22.203  1.00  0.00     0.278 C 
ENDBRANCH  18  21
BRANCH  20  23
ATOM     23  O   UNL     1       4.600  14.865  22.725  1.00  0.00    -0.504 OA
ATOM     24  H   UNL     1       4.107  15.741  22.841  1.00  0.00     0.293 HD
ENDBRANCH  20  23
ENDBRANCH  14  15
ENDBRANCH  12  14
ENDBRANCH   9  10
ENDBRANCH   1   9
TORSDOF 10
ENDMDL
MODEL 8
REMARK VINA RESULT:    -6.044      4.279      7.398
REMARK INTER + INTRA:         -10.253
REMARK INTER:                  -9.266
REMARK INTRA:                  -0.987
REMARK UNBOUND:                -0.852
REMARK SMILES COc1cc(CNC(=O)CCCCC=CC(C)C)ccc1O
REMARK SMILES IDX 11 1 12 2 13 3 14 4 15 5 16 6 17 7 18 8 10 9 8 10 9 11 7 12
REMARK SMILES IDX 6 14 5 15 4 16 19 17 3 18 20 19 21 20 2 21 1 22 22 23
REMARK H PARENT 7 13 22 24
REMARK Flexibility Score: inf
ROOT
ATOM      1  C   UNL     1       3.642   9.962  18.768  1.00  0.00     0.010 C 
ENDROOT
BRANCH   1   2
ATOM      2  C   UNL     1       3.067   8.551  18.972  1.00  0.00     0.005 C 
BRANCH   2   3
ATOM      3  C   UNL     1       3.162   8.077  20.429  1.00  0.00     0.027 C 
BRANCH   3   4
ATOM      4  C   UNL     1       2.651   9.135  21.370  1.00  0.00    -0.031 C 
ATOM      5  C   UNL     1       2.961   9.115  22.677  1.00  0.00    -0.028 C 
BRANCH   5   6
ATOM      6  C   UNL     1       2.480  10.167  23.650  1.00  0.00     0.005 C 
ATOM      7  C   UNL     1       2.798  11.586  23.154  1.00  0.00     0.012 C 
ATOM      8  C   UNL     1       3.055   9.927  25.052  1.00  0.00     0.012 C 
ENDBRANCH   5   6
ENDBRANCH   3   4
ENDBRANCH   2   3
ENDBRANCH   1   2
BRANCH   1   9
ATOM      9  C   UNL     1       3.416  10.497  17.348  1.00  0.00     0.100 C 
BRANCH   9  10
ATOM     10  C   UNL     1       4.251  11.721  17.121  1.00  0.00     0.220 C 
ATOM     11  O   UNL     1       3.820  12.636  16.367  1.00  0.00    -0.275 OA
ATOM     12  N   UNL     1       5.509  11.868  17.793  1.00  0.00    -0.352 N 
ATOM     13  H   UNL     1       5.908  11.052  18.310  1.00  0.00     0.163 HD
BRANCH  12  14
ATOM     14  C   UNL     1       6.186  13.157  17.902  1.00  0.00     0.151 C 
BRANCH  14  15
ATOM     15  C   UNL     1       5.933  13.752  19.260  1.00  0.00    -0.025 A 
ATOM     16  C   UNL     1       6.925  14.527  19.881  1.00  0.00     0.056 A 
ATOM     17  C   UNL     1       4.741  13.479  19.945  1.00  0.00     0.009 A 
ATOM     18  C   UNL     1       6.726  15.042  21.178  1.00  0.00     0.160 A 
ATOM     19  C   UNL     1       4.537  13.987  21.230  1.00  0.00     0.050 A 
ATOM     20  C   UNL     1       5.520  14.763  21.848  1.00  0.00     0.157 A 
BRANCH  18  21
ATOM     21  O   UNL     1       7.699  15.824  21.825  1.00  0.00    -0.493 OA
ATOM     22  C   UNL     1       8.907  15.315  22.382  1.00  0.00     0.278 C 
ENDBRANCH  18  21
BRANCH  20  23
ATOM     23  O   UNL     1       5.282  15.246  23.135  1.00  0.00    -0.504 OA
ATOM     24  H   UNL     1       5.456  14.686  23.960  1.00  0.00     0.293 HD
ENDBRANCH  20  23
ENDBRANCH  14  15
ENDBRANCH  12  14
ENDBRANCH   9  10
ENDBRANCH   1   9
TORSDOF 10
ENDMDL
MODEL 9
REMARK VINA RESULT:    -6.038      2.333      4.348
REMARK INTER + INTRA:         -10.244
REMARK INTER:                  -9.143
REMARK INTRA:                  -1.100
REMARK UNBOUND:                -0.852
REMARK SMILES COc1cc(CNC(=O)CCCCC=CC(C)C)ccc1O
REMARK SMILES IDX 11 1 12 2 13 3 14 4 15 5 16 6 17 7 18 8 10 9 8 10 9 11 7 12
REMARK SMILES IDX 6 14 5 15 4 16 19 17 3 18 20 19 21 20 2 21 1 22 22 23
REMARK H PARENT 7 13 22 24
REMARK Flexibility Score: inf
ROOT
ATOM      1  C   UNL     1       5.383  17.406  16.230  1.00  0.00     0.010 C 
ENDROOT
BRANCH   1   2
ATOM      2  C   UNL     1       5.036  15.963  15.835  1.00  0.00     0.005 C 
BRANCH   2   3
ATOM      3  C   UNL     1       3.799  15.877  14.930  1.00  0.00     0.027 C 
BRANCH   3   4
ATOM      4  C   UNL     1       3.800  16.988  13.915  1.00  0.00    -0.031 C 
ATOM      5  C   UNL     1       3.724  16.731  12.599  1.00  0.00    -0.028 C 
BRANCH   5   6
ATOM      6  C   UNL     1       3.708  17.820  11.550  1.00  0.00     0.005 C 
ATOM      7  C   UNL     1       5.033  17.877  10.773  1.00  0.00     0.012 C 
ATOM      8  C   UNL     1       3.372  19.182  12.172  1.00  0.00     0.012 C 
ENDBRANCH   5   6
ENDBRANCH   3   4
ENDBRANCH   2   3
ENDBRANCH   1   2
BRANCH   1   9
ATOM      9  C   UNL     1       6.448  17.481  17.333  1.00  0.00     0.100 C 
BRANCH   9  10
ATOM     10  C   UNL     1       6.011  16.684  18.524  1.00  0.00     0.220 C 
ATOM     11  O   UNL     1       4.957  17.009  19.138  1.00  0.00    -0.275 OA
ATOM     12  N   UNL     1       6.762  15.533  18.934  1.00  0.00    -0.352 N 
ATOM     13  H   UNL     1       7.695  15.353  18.497  1.00  0.00     0.163 HD
BRANCH  12  14
ATOM     14  C   UNL     1       6.211  14.526  19.835  1.00  0.00     0.151 C 
BRANCH  14  15
ATOM     15  C   UNL     1       5.621  13.396  19.035  1.00  0.00    -0.025 A 
ATOM     16  C   UNL     1       4.521  12.684  19.536  1.00  0.00     0.056 A 
ATOM     17  C   UNL     1       6.206  13.001  17.825  1.00  0.00     0.009 A 
ATOM     18  C   UNL     1       3.993  11.586  18.826  1.00  0.00     0.160 A 
ATOM     19  C   UNL     1       5.689  11.916  17.115  1.00  0.00     0.050 A 
ATOM     20  C   UNL     1       4.590  11.207  17.609  1.00  0.00     0.157 A 
BRANCH  18  21
ATOM     21  O   UNL     1       2.889  10.855  19.300  1.00  0.00    -0.493 OA
ATOM     22  C   UNL     1       2.974   9.759  20.206  1.00  0.00     0.278 C 
ENDBRANCH  18  21
BRANCH  20  23
ATOM     23  O   UNL     1       4.106  10.124  16.876  1.00  0.00    -0.504 OA
ATOM     24  H   UNL     1       4.178   9.172  17.212  1.00  0.00     0.293 HD
ENDBRANCH  20  23
ENDBRANCH  14  15
ENDBRANCH  12  14
ENDBRANCH   9  10
ENDBRANCH   1   9
TORSDOF 10
ENDMDL
