MODEL 1
REMARK VINA RESULT:    -3.161      0.000      0.000
REMARK INTER + INTRA:          -5.178
REMARK INTER:                  -4.455
REMARK INTRA:                  -0.723
REMARK UNBOUND:                -0.723
REMARK SMILES CCCCCCCCC(=O)[O-]
REMARK SMILES IDX 6 1 7 2 8 3 9 4 10 5 11 6 5 7 4 8 3 9 2 10 1 11
REMARK H PARENT
REMARK Flexibility Score: inf
ROOT
ATOM      1  C   UNL     1      69.826  16.220  76.599  1.00  0.00     0.000 C 
ENDROOT
BRANCH   1   2
ATOM      2  C   UNL     1      70.526  16.400  77.955  1.00  0.00     0.006 C 
BRANCH   2   3
ATOM      3  C   UNL     1      70.437  15.149  78.839  1.00  0.00     0.053 C 
BRANCH   3   4
ATOM      4  C   UNL     1      70.302  15.536  80.278  1.00  0.00     0.041 C 
ATOM      5  O   UNL     1      71.313  15.903  80.933  1.00  0.00    -0.550 OA
ATOM      6  O   UNL     1      69.051  15.538  80.883  1.00  0.00    -0.550 OA
ENDBRANCH   3   4
ENDBRANCH   2   3
ENDBRANCH   1   2
BRANCH   1   7
ATOM      7  C   UNL     1      69.598  14.741  76.244  1.00  0.00     0.000 C 
BRANCH   7   8
ATOM      8  C   UNL     1      68.120  14.423  75.962  1.00  0.00    -0.000 C 
BRANCH   8   9
ATOM      9  C   UNL     1      67.197  15.630  76.204  1.00  0.00    -0.000 C 
BRANCH   9  10
ATOM     10  C   UNL     1      66.318  15.458  77.452  1.00  0.00    -0.003 C 
ATOM     11  C   UNL     1      66.606  16.507  78.526  1.00  0.00     0.004 C 
ENDBRANCH   9  10
ENDBRANCH   8   9
ENDBRANCH   7   8
ENDBRANCH   1   7
TORSDOF 7
ENDMDL
MODEL 2
REMARK VINA RESULT:    -3.139      2.376      4.189
REMARK INTER + INTRA:          -5.146
REMARK INTER:                  -4.543
REMARK INTRA:                  -0.603
REMARK UNBOUND:                -0.723
REMARK SMILES CCCCCCCCC(=O)[O-]
REMARK SMILES IDX 6 1 7 2 8 3 9 4 10 5 11 6 5 7 4 8 3 9 2 10 1 11
REMARK H PARENT
REMARK Flexibility Score: inf
ROOT
ATOM      1  C   UNL     1      69.885  14.755  76.206  1.00  0.00     0.000 C 
ENDROOT
BRANCH   1   2
ATOM      2  C   UNL     1      68.394  14.385  76.240  1.00  0.00     0.006 C 
BRANCH   2   3
ATOM      3  C   UNL     1      67.484  15.604  76.436  1.00  0.00     0.053 C 
BRANCH   3   4
ATOM      4  C   UNL     1      66.200  15.198  77.088  1.00  0.00     0.041 C 
ATOM      5  O   UNL     1      65.852  15.717  78.181  1.00  0.00    -0.550 OA
ATOM      6  O   UNL     1      65.363  14.280  76.464  1.00  0.00    -0.550 OA
ENDBRANCH   3   4
ENDBRANCH   2   3
ENDBRANCH   1   2
BRANCH   1   7
ATOM      7  C   UNL     1      70.275  15.738  77.323  1.00  0.00     0.000 C 
BRANCH   7   8
ATOM      8  C   UNL     1      71.026  15.053  78.476  1.00  0.00    -0.000 C 
BRANCH   8   9
ATOM      9  C   UNL     1      70.486  15.458  79.859  1.00  0.00    -0.000 C 
BRANCH   9  10
ATOM     10  C   UNL     1      69.011  15.886  79.813  1.00  0.00    -0.003 C 
ATOM     11  C   UNL     1      68.255  15.538  81.095  1.00  0.00     0.004 C 
ENDBRANCH   9  10
ENDBRANCH   8   9
ENDBRANCH   7   8
ENDBRANCH   1   7
TORSDOF 7
ENDMDL
MODEL 3
REMARK VINA RESULT:    -3.035      1.632      2.763
REMARK INTER + INTRA:          -4.999
REMARK INTER:                  -4.397
REMARK INTRA:                  -0.602
REMARK UNBOUND:                -0.723
REMARK SMILES CCCCCCCCC(=O)[O-]
REMARK SMILES IDX 6 1 7 2 8 3 9 4 10 5 11 6 5 7 4 8 3 9 2 10 1 11
REMARK H PARENT
REMARK Flexibility Score: inf
ROOT
ATOM      1  C   UNL     1      70.781  15.426  79.807  1.00  0.00     0.000 C 
ENDROOT
BRANCH   1   2
ATOM      2  C   UNL     1      69.468  16.218  79.904  1.00  0.00     0.006 C 
BRANCH   2   3
ATOM      3  C   UNL     1      68.423  15.527  80.790  1.00  0.00     0.053 C 
BRANCH   3   4
ATOM      4  C   UNL     1      68.170  16.334  82.024  1.00  0.00     0.041 C 
ATOM      5  O   UNL     1      69.086  17.048  82.513  1.00  0.00    -0.550 OA
ATOM      6  O   UNL     1      66.909  16.338  82.608  1.00  0.00    -0.550 OA
ENDBRANCH   3   4
ENDBRANCH   2   3
ENDBRANCH   1   2
BRANCH   1   7
ATOM      7  C   UNL     1      71.059  14.917  78.382  1.00  0.00     0.000 C 
BRANCH   7   8
ATOM      8  C   UNL     1      70.275  15.696  77.314  1.00  0.00    -0.000 C 
BRANCH   8   9
ATOM      9  C   UNL     1      69.837  14.810  76.134  1.00  0.00    -0.000 C 
BRANCH   9  10
ATOM     10  C   UNL     1      68.369  14.371  76.241  1.00  0.00    -0.003 C 
ATOM     11  C   UNL     1      67.475  15.446  76.858  1.00  0.00     0.004 C 
ENDBRANCH   9  10
ENDBRANCH   8   9
ENDBRANCH   7   8
ENDBRANCH   1   7
TORSDOF 7
ENDMDL
MODEL 4
REMARK VINA RESULT:    -3.024      2.488      3.909
REMARK INTER + INTRA:          -4.985
REMARK INTER:                  -4.095
REMARK INTRA:                  -0.889
REMARK UNBOUND:                -0.723
REMARK SMILES CCCCCCCCC(=O)[O-]
REMARK SMILES IDX 6 1 7 2 8 3 9 4 10 5 11 6 5 7 4 8 3 9 2 10 1 11
REMARK H PARENT
REMARK Flexibility Score: inf
ROOT
ATOM      1  C   UNL     1      71.007  14.664  77.189  1.00  0.00     0.000 C 
ENDROOT
BRANCH   1   2
ATOM      2  C   UNL     1      69.939  15.250  76.253  1.00  0.00     0.006 C 
BRANCH   2   3
ATOM      3  C   UNL     1      68.632  14.446  76.269  1.00  0.00     0.053 C 
BRANCH   3   4
ATOM      4  C   UNL     1      67.462  15.357  76.468  1.00  0.00     0.041 C 
ATOM      5  O   UNL     1      66.316  14.880  76.681  1.00  0.00    -0.550 OA
ATOM      6  O   UNL     1      67.644  16.734  76.466  1.00  0.00    -0.550 OA
ENDBRANCH   3   4
ENDBRANCH   2   3
ENDBRANCH   1   2
BRANCH   1   7
ATOM      7  C   UNL     1      70.951  15.269  78.602  1.00  0.00     0.000 C 
BRANCH   7   8
ATOM      8  C   UNL     1      70.531  16.748  78.594  1.00  0.00    -0.000 C 
BRANCH   8   9
ATOM      9  C   UNL     1      69.415  17.055  79.608  1.00  0.00    -0.000 C 
BRANCH   9  10
ATOM     10  C   UNL     1      68.629  15.799  80.014  1.00  0.00    -0.003 C 
ATOM     11  C   UNL     1      67.124  16.050  80.108  1.00  0.00     0.004 C 
ENDBRANCH   9  10
ENDBRANCH   8   9
ENDBRANCH   7   8
ENDBRANCH   1   7
TORSDOF 7
ENDMDL
MODEL 5
REMARK VINA RESULT:    -3.016      1.957      2.676
REMARK INTER + INTRA:          -4.972
REMARK INTER:                  -4.610
REMARK INTRA:                  -0.362
REMARK UNBOUND:                -0.723
REMARK SMILES CCCCCCCCC(=O)[O-]
REMARK SMILES IDX 6 1 7 2 8 3 9 4 10 5 11 6 5 7 4 8 3 9 2 10 1 11
REMARK H PARENT
REMARK Flexibility Score: inf
ROOT
ATOM      1  C   UNL     1      68.113  14.370  76.050  1.00  0.00     0.000 C 
ENDROOT
BRANCH   1   2
ATOM      2  C   UNL     1      69.576  14.806  76.228  1.00  0.00     0.006 C 
BRANCH   2   3
ATOM      3  C   UNL     1      69.757  15.827  77.357  1.00  0.00     0.053 C 
BRANCH   3   4
ATOM      4  C   UNL     1      70.424  15.189  78.535  1.00  0.00     0.041 C 
ATOM      5  O   UNL     1      71.441  14.465  78.372  1.00  0.00    -0.550 OA
ATOM      6  O   UNL     1      69.953  15.434  79.819  1.00  0.00    -0.550 OA
ENDBRANCH   3   4
ENDBRANCH   2   3
ENDBRANCH   1   2
BRANCH   1   7
ATOM      7  C   UNL     1      67.117  15.489  76.402  1.00  0.00     0.000 C 
BRANCH   7   8
ATOM      8  C   UNL     1      65.678  15.152  75.978  1.00  0.00    -0.000 C 
BRANCH   8   9
ATOM      9  C   UNL     1      65.407  13.638  75.946  1.00  0.00    -0.000 C 
BRANCH   9  10
ATOM     10  C   UNL     1      63.964  13.290  76.341  1.00  0.00    -0.003 C 
ATOM     11  C   UNL     1      63.558  13.894  77.684  1.00  0.00     0.004 C 
ENDBRANCH   9  10
ENDBRANCH   8   9
ENDBRANCH   7   8
ENDBRANCH   1   7
TORSDOF 7
ENDMDL
MODEL 6
REMARK VINA RESULT:    -3.014      1.472      2.104
REMARK INTER + INTRA:          -4.969
REMARK INTER:                  -4.423
REMARK INTRA:                  -0.547
REMARK UNBOUND:                -0.723
REMARK SMILES CCCCCCCCC(=O)[O-]
REMARK SMILES IDX 6 1 7 2 8 3 9 4 10 5 11 6 5 7 4 8 3 9 2 10 1 11
REMARK H PARENT
REMARK Flexibility Score: inf
ROOT
ATOM      1  C   UNL     1      71.195  14.746  78.058  1.00  0.00     0.000 C 
ENDROOT
BRANCH   1   2
ATOM      2  C   UNL     1      71.133  16.067  78.841  1.00  0.00     0.006 C 
BRANCH   2   3
ATOM      3  C   UNL     1      70.682  15.874  80.294  1.00  0.00     0.053 C 
BRANCH   3   4
ATOM      4  C   UNL     1      69.199  16.041  80.406  1.00  0.00     0.041 C 
ATOM      5  O   UNL     1      68.516  15.217  81.070  1.00  0.00    -0.550 OA
ATOM      6  O   UNL     1      68.576  17.135  79.818  1.00  0.00    -0.550 OA
ENDBRANCH   3   4
ENDBRANCH   2   3
ENDBRANCH   1   2
BRANCH   1   7
ATOM      7  C   UNL     1      70.419  14.811  76.731  1.00  0.00     0.000 C 
BRANCH   7   8
ATOM      8  C   UNL     1      69.569  16.085  76.605  1.00  0.00    -0.000 C 
BRANCH   8   9
ATOM      9  C   UNL     1      68.058  15.794  76.610  1.00  0.00    -0.000 C 
BRANCH   9  10
ATOM     10  C   UNL     1      67.708  14.491  75.875  1.00  0.00    -0.003 C 
ATOM     11  C   UNL     1      66.217  14.160  75.938  1.00  0.00     0.004 C 
ENDBRANCH   9  10
ENDBRANCH   8   9
ENDBRANCH   7   8
ENDBRANCH   1   7
TORSDOF 7
ENDMDL
MODEL 7
REMARK VINA RESULT:    -2.989      2.152      3.888
REMARK INTER + INTRA:          -4.935
REMARK INTER:                  -4.161
REMARK INTRA:                  -0.774
REMARK UNBOUND:                -0.723
REMARK SMILES CCCCCCCCC(=O)[O-]
REMARK SMILES IDX 6 1 7 2 8 3 9 4 10 5 11 6 5 7 4 8 3 9 2 10 1 11
REMARK H PARENT
REMARK Flexibility Score: inf
ROOT
ATOM      1  C   UNL     1      68.718  14.373  76.346  1.00  0.00     0.000 C 
ENDROOT
BRANCH   1   2
ATOM      2  C   UNL     1      67.595  15.415  76.225  1.00  0.00     0.006 C 
BRANCH   2   3
ATOM      3  C   UNL     1      67.132  15.948  77.587  1.00  0.00     0.053 C 
BRANCH   3   4
ATOM      4  C   UNL     1      67.497  17.392  77.733  1.00  0.00     0.041 C 
ATOM      5  O   UNL     1      67.022  18.073  78.680  1.00  0.00    -0.550 OA
ATOM      6  O   UNL     1      68.400  17.974  76.852  1.00  0.00    -0.550 OA
ENDBRANCH   3   4
ENDBRANCH   2   3
ENDBRANCH   1   2
BRANCH   1   7
ATOM      7  C   UNL     1      70.114  14.980  76.125  1.00  0.00     0.000 C 
BRANCH   7   8
ATOM      8  C   UNL     1      71.031  14.811  77.347  1.00  0.00    -0.000 C 
BRANCH   8   9
ATOM      9  C   UNL     1      70.890  15.962  78.359  1.00  0.00    -0.000 C 
BRANCH   9  10
ATOM     10  C   UNL     1      70.806  15.462  79.809  1.00  0.00    -0.003 C 
ATOM     11  C   UNL     1      69.437  15.713  80.441  1.00  0.00     0.004 C 
ENDBRANCH   9  10
ENDBRANCH   8   9
ENDBRANCH   7   8
ENDBRANCH   1   7
TORSDOF 7
ENDMDL
MODEL 8
REMARK VINA RESULT:    -2.984      2.547      3.906
REMARK INTER + INTRA:          -4.927
REMARK INTER:                  -4.053
REMARK INTRA:                  -0.875
REMARK UNBOUND:                -0.723
REMARK SMILES CCCCCCCCC(=O)[O-]
REMARK SMILES IDX 6 1 7 2 8 3 9 4 10 5 11 6 5 7 4 8 3 9 2 10 1 11
REMARK H PARENT
REMARK Flexibility Score: inf
ROOT
ATOM      1  C   UNL     1      67.781  15.470  77.111  1.00  0.00     0.000 C 
ENDROOT
BRANCH   1   2
ATOM      2  C   UNL     1      67.805  16.924  76.613  1.00  0.00     0.006 C 
BRANCH   2   3
ATOM      3  C   UNL     1      68.185  17.921  77.715  1.00  0.00     0.053 C 
BRANCH   3   4
ATOM      4  C   UNL     1      69.471  18.607  77.377  1.00  0.00     0.041 C 
ATOM      5  O   UNL     1      69.766  18.845  76.176  1.00  0.00    -0.550 OA
ATOM      6  O   UNL     1      70.322  19.029  78.391  1.00  0.00    -0.550 OA
ENDBRANCH   3   4
ENDBRANCH   2   3
ENDBRANCH   1   2
BRANCH   1   7
ATOM      7  C   UNL     1      68.740  14.561  76.323  1.00  0.00     0.000 C 
BRANCH   7   8
ATOM      8  C   UNL     1      70.165  15.132  76.248  1.00  0.00    -0.000 C 
BRANCH   8   9
ATOM      9  C   UNL     1      71.083  14.586  77.357  1.00  0.00    -0.000 C 
BRANCH   9  10
ATOM     10  C   UNL     1      71.390  15.636  78.435  1.00  0.00    -0.003 C 
ATOM     11  C   UNL     1      70.483  15.508  79.659  1.00  0.00     0.004 C 
ENDBRANCH   9  10
ENDBRANCH   8   9
ENDBRANCH   7   8
ENDBRANCH   1   7
TORSDOF 7
ENDMDL
MODEL 9
REMARK VINA RESULT:    -2.967      2.511      4.057
REMARK INTER + INTRA:          -4.904
REMARK INTER:                  -4.154
REMARK INTRA:                  -0.750
REMARK UNBOUND:                -0.723
REMARK SMILES CCCCCCCCC(=O)[O-]
REMARK SMILES IDX 6 1 7 2 8 3 9 4 10 5 11 6 5 7 4 8 3 9 2 10 1 11
REMARK H PARENT
REMARK Flexibility Score: inf
ROOT
ATOM      1  C   UNL     1      70.268  17.469  78.362  1.00  0.00     0.000 C 
ENDROOT
BRANCH   1   2
ATOM      2  C   UNL     1      69.794  17.118  76.943  1.00  0.00     0.006 C 
BRANCH   2   3
ATOM      3  C   UNL     1      68.577  16.185  76.939  1.00  0.00     0.053 C 
BRANCH   3   4
ATOM      4  C   UNL     1      68.951  14.841  76.397  1.00  0.00     0.041 C 
ATOM      5  O   UNL     1      68.061  13.985  76.153  1.00  0.00    -0.550 OA
ATOM      6  O   UNL     1      70.280  14.551  76.113  1.00  0.00    -0.550 OA
ENDBRANCH   3   4
ENDBRANCH   2   3
ENDBRANCH   1   2
BRANCH   1   7
ATOM      7  C   UNL     1      71.280  16.450  78.915  1.00  0.00     0.000 C 
BRANCH   7   8
ATOM      8  C   UNL     1      70.669  15.538  79.993  1.00  0.00    -0.000 C 
BRANCH   8   9
ATOM      9  C   UNL     1      69.660  16.275  80.891  1.00  0.00    -0.000 C 
BRANCH   9  10
ATOM     10  C   UNL     1      68.344  15.501  81.056  1.00  0.00    -0.003 C 
ATOM     11  C   UNL     1      67.165  16.188  80.369  1.00  0.00     0.004 C 
ENDBRANCH   9  10
ENDBRANCH   8   9
ENDBRANCH   7   8
ENDBRANCH   1   7
TORSDOF 7
ENDMDL
