MODEL 1
REMARK VINA RESULT:    -3.419      0.000      0.000
REMARK INTER + INTRA:          -6.150
REMARK INTER:                  -5.218
REMARK INTRA:                  -0.932
REMARK UNBOUND:                -0.932
REMARK SMILES CCCCCCCCCCC(=O)[O-]
REMARK SMILES IDX 7 1 8 2 9 3 10 4 11 5 12 6 13 7 6 8 5 9 4 10 3 11 2 12 1 13
REMARK H PARENT
REMARK Flexibility Score: inf
ROOT
ATOM      1  C   UNL     1      -4.845  -2.821   7.942  1.00  0.00     0.000 C 
ENDROOT
BRANCH   1   2
ATOM      2  C   UNL     1      -4.198  -4.140   7.491  1.00  0.00     0.000 C 
BRANCH   2   3
ATOM      3  C   UNL     1      -3.077  -3.926   6.459  1.00  0.00     0.006 C 
BRANCH   3   4
ATOM      4  C   UNL     1      -1.831  -3.283   7.082  1.00  0.00     0.053 C 
BRANCH   4   5
ATOM      5  C   UNL     1      -1.413  -2.048   6.345  1.00  0.00     0.041 C 
ATOM      6  O   UNL     1      -0.410  -2.073   5.583  1.00  0.00    -0.550 OA
ATOM      7  O   UNL     1      -2.113  -0.861   6.522  1.00  0.00    -0.550 OA
ENDBRANCH   4   5
ENDBRANCH   3   4
ENDBRANCH   2   3
ENDBRANCH   1   2
BRANCH   1   8
ATOM      8  C   UNL     1      -6.086  -3.042   8.825  1.00  0.00     0.000 C 
BRANCH   8   9
ATOM      9  C   UNL     1      -5.760  -3.800  10.122  1.00  0.00    -0.000 C 
BRANCH   9  10
ATOM     10  C   UNL     1      -5.607  -2.862  11.333  1.00  0.00    -0.000 C 
BRANCH  10  11
ATOM     11  C   UNL     1      -4.129  -2.646  11.719  1.00  0.00    -0.000 C 
BRANCH  11  12
ATOM     12  C   UNL     1      -3.595  -1.251  11.351  1.00  0.00    -0.003 C 
ATOM     13  C   UNL     1      -2.456  -1.294  10.335  1.00  0.00     0.004 C 
ENDBRANCH  11  12
ENDBRANCH  10  11
ENDBRANCH   9  10
ENDBRANCH   8   9
ENDBRANCH   1   8
TORSDOF 9
ENDMDL
MODEL 2
REMARK VINA RESULT:    -3.330      2.929      5.920
REMARK INTER + INTRA:          -6.014
REMARK INTER:                  -5.463
REMARK INTRA:                  -0.551
REMARK UNBOUND:                -0.932
REMARK SMILES CCCCCCCCCCC(=O)[O-]
REMARK SMILES IDX 7 1 8 2 9 3 10 4 11 5 12 6 13 7 6 8 5 9 4 10 3 11 2 12 1 13
REMARK H PARENT
REMARK Flexibility Score: inf
ROOT
ATOM      1  C   UNL     1      -3.343  -0.605   9.558  1.00  0.00     0.000 C 
ENDROOT
BRANCH   1   2
ATOM      2  C   UNL     1      -2.777  -1.019  10.925  1.00  0.00     0.000 C 
BRANCH   2   3
ATOM      3  C   UNL     1      -3.613  -2.118  11.603  1.00  0.00     0.006 C 
BRANCH   3   4
ATOM      4  C   UNL     1      -5.108  -1.772  11.633  1.00  0.00     0.053 C 
BRANCH   4   5
ATOM      5  C   UNL     1      -5.956  -2.923  11.185  1.00  0.00     0.041 C 
ATOM      6  O   UNL     1      -7.076  -3.132  11.721  1.00  0.00    -0.550 OA
ATOM      7  O   UNL     1      -5.496  -3.783  10.195  1.00  0.00    -0.550 OA
ENDBRANCH   4   5
ENDBRANCH   3   4
ENDBRANCH   2   3
ENDBRANCH   1   2
BRANCH   1   8
ATOM      8  C   UNL     1      -2.511  -1.150   8.384  1.00  0.00     0.000 C 
BRANCH   8   9
ATOM      9  C   UNL     1      -2.896  -2.589   8.006  1.00  0.00    -0.000 C 
BRANCH   9  10
ATOM     10  C   UNL     1      -1.899  -3.231   7.026  1.00  0.00    -0.000 C 
BRANCH  10  11
ATOM     11  C   UNL     1      -1.737  -2.402   5.733  1.00  0.00    -0.000 C 
BRANCH  11  12
ATOM     12  C   UNL     1      -0.291  -1.951   5.471  1.00  0.00    -0.003 C 
ATOM     13  C   UNL     1      -0.010  -1.667   3.997  1.00  0.00     0.004 C 
ENDBRANCH  11  12
ENDBRANCH  10  11
ENDBRANCH   9  10
ENDBRANCH   8   9
ENDBRANCH   1   8
TORSDOF 9
ENDMDL
MODEL 3
REMARK VINA RESULT:    -3.297      1.868      4.632
REMARK INTER + INTRA:          -5.963
REMARK INTER:                  -5.411
REMARK INTRA:                  -0.551
REMARK UNBOUND:                -0.932
REMARK SMILES CCCCCCCCCCC(=O)[O-]
REMARK SMILES IDX 7 1 8 2 9 3 10 4 11 5 12 6 13 7 6 8 5 9 4 10 3 11 2 12 1 13
REMARK H PARENT
REMARK Flexibility Score: inf
ROOT
ATOM      1  C   UNL     1      -6.082  -3.225   9.067  1.00  0.00     0.000 C 
ENDROOT
BRANCH   1   2
ATOM      2  C   UNL     1      -5.796  -3.665  10.511  1.00  0.00     0.000 C 
BRANCH   2   3
ATOM      3  C   UNL     1      -5.437  -2.483  11.429  1.00  0.00     0.006 C 
BRANCH   3   4
ATOM      4  C   UNL     1      -3.954  -2.486  11.825  1.00  0.00     0.053 C 
BRANCH   4   5
ATOM      5  C   UNL     1      -3.190  -1.398  11.135  1.00  0.00     0.041 C 
ATOM      6  O   UNL     1      -2.436  -1.671  10.164  1.00  0.00    -0.550 OA
ATOM      7  O   UNL     1      -3.287  -0.087  11.584  1.00  0.00    -0.550 OA
ENDBRANCH   4   5
ENDBRANCH   3   4
ENDBRANCH   2   3
ENDBRANCH   1   2
BRANCH   1   8
ATOM      8  C   UNL     1      -4.850  -3.356   8.154  1.00  0.00     0.000 C 
BRANCH   8   9
ATOM      9  C   UNL     1      -4.623  -4.798   7.672  1.00  0.00    -0.000 C 
BRANCH   9  10
ATOM     10  C   UNL     1      -3.406  -4.926   6.739  1.00  0.00    -0.000 C 
BRANCH  10  11
ATOM     11  C   UNL     1      -2.957  -3.560   6.177  1.00  0.00    -0.000 C 
BRANCH  11  12
ATOM     12  C   UNL     1      -1.601  -3.086   6.727  1.00  0.00    -0.003 C 
ATOM     13  C   UNL     1      -0.969  -1.978   5.889  1.00  0.00     0.004 C 
ENDBRANCH  11  12
ENDBRANCH  10  11
ENDBRANCH   9  10
ENDBRANCH   8   9
ENDBRANCH   1   8
TORSDOF 9
ENDMDL
MODEL 4
REMARK VINA RESULT:    -3.288      2.957      5.733
REMARK INTER + INTRA:          -5.950
REMARK INTER:                  -5.208
REMARK INTRA:                  -0.741
REMARK UNBOUND:                -0.932
REMARK SMILES CCCCCCCCCCC(=O)[O-]
REMARK SMILES IDX 7 1 8 2 9 3 10 4 11 5 12 6 13 7 6 8 5 9 4 10 3 11 2 12 1 13
REMARK H PARENT
REMARK Flexibility Score: inf
ROOT
ATOM      1  C   UNL     1      -3.085  -1.884  10.639  1.00  0.00     0.000 C 
ENDROOT
BRANCH   1   2
ATOM      2  C   UNL     1      -3.803  -2.172  11.967  1.00  0.00     0.000 C 
BRANCH   2   3
ATOM      3  C   UNL     1      -5.288  -1.772  11.934  1.00  0.00     0.006 C 
BRANCH   3   4
ATOM      4  C   UNL     1      -5.960  -2.146  10.606  1.00  0.00     0.053 C 
BRANCH   4   5
ATOM      5  C   UNL     1      -6.404  -3.577  10.589  1.00  0.00     0.041 C 
ATOM      6  O   UNL     1      -7.340  -3.959  11.340  1.00  0.00    -0.550 OA
ATOM      7  O   UNL     1      -5.764  -4.495   9.765  1.00  0.00    -0.550 OA
ENDBRANCH   4   5
ENDBRANCH   3   4
ENDBRANCH   2   3
ENDBRANCH   1   2
BRANCH   1   8
ATOM      8  C   UNL     1      -2.324  -0.546  10.656  1.00  0.00     0.000 C 
BRANCH   8   9
ATOM      9  C   UNL     1      -1.938  -0.070   9.247  1.00  0.00    -0.000 C 
BRANCH   9  10
ATOM     10  C   UNL     1      -2.592  -0.911   8.137  1.00  0.00    -0.000 C 
BRANCH  10  11
ATOM     11  C   UNL     1      -1.775  -0.886   6.828  1.00  0.00    -0.000 C 
BRANCH  11  12
ATOM     12  C   UNL     1      -1.452  -2.285   6.278  1.00  0.00    -0.003 C 
ATOM     13  C   UNL     1      -1.893  -3.412   7.211  1.00  0.00     0.004 C 
ENDBRANCH  11  12
ENDBRANCH  10  11
ENDBRANCH   9  10
ENDBRANCH   8   9
ENDBRANCH   1   8
TORSDOF 9
ENDMDL
MODEL 5
REMARK VINA RESULT:    -3.280      1.871      3.241
REMARK INTER + INTRA:          -5.937
REMARK INTER:                  -5.242
REMARK INTRA:                  -0.696
REMARK UNBOUND:                -0.932
REMARK SMILES CCCCCCCCCCC(=O)[O-]
REMARK SMILES IDX 7 1 8 2 9 3 10 4 11 5 12 6 13 7 6 8 5 9 4 10 3 11 2 12 1 13
REMARK H PARENT
REMARK Flexibility Score: inf
ROOT
ATOM      1  C   UNL     1      -3.133  -1.566   8.956  1.00  0.00     0.000 C 
ENDROOT
BRANCH   1   2
ATOM      2  C   UNL     1      -2.194  -1.040   7.860  1.00  0.00     0.000 C 
BRANCH   2   3
ATOM      3  C   UNL     1      -2.114  -1.982   6.646  1.00  0.00     0.006 C 
BRANCH   3   4
ATOM      4  C   UNL     1      -2.045  -3.458   7.062  1.00  0.00     0.053 C 
BRANCH   4   5
ATOM      5  C   UNL     1      -3.105  -4.276   6.390  1.00  0.00     0.041 C 
ATOM      6  O   UNL     1      -3.522  -3.958   5.245  1.00  0.00    -0.550 OA
ATOM      7  O   UNL     1      -3.655  -5.373   7.042  1.00  0.00    -0.550 OA
ENDBRANCH   4   5
ENDBRANCH   3   4
ENDBRANCH   2   3
ENDBRANCH   1   2
BRANCH   1   8
ATOM      8  C   UNL     1      -2.479  -1.559  10.349  1.00  0.00     0.000 C 
BRANCH   8   9
ATOM      9  C   UNL     1      -3.472  -1.197  11.465  1.00  0.00    -0.000 C 
BRANCH   9  10
ATOM     10  C   UNL     1      -4.298  -2.406  11.938  1.00  0.00    -0.000 C 
BRANCH  10  11
ATOM     11  C   UNL     1      -5.800  -2.245  11.620  1.00  0.00    -0.000 C 
BRANCH  11  12
ATOM     12  C   UNL     1      -6.441  -3.510  11.025  1.00  0.00    -0.003 C 
ATOM     13  C   UNL     1      -5.717  -4.020   9.781  1.00  0.00     0.004 C 
ENDBRANCH  11  12
ENDBRANCH  10  11
ENDBRANCH   9  10
ENDBRANCH   8   9
ENDBRANCH   1   8
TORSDOF 9
ENDMDL
MODEL 6
REMARK VINA RESULT:    -3.266      2.668      5.632
REMARK INTER + INTRA:          -5.915
REMARK INTER:                  -5.154
REMARK INTRA:                  -0.761
REMARK UNBOUND:                -0.932
REMARK SMILES CCCCCCCCCCC(=O)[O-]
REMARK SMILES IDX 7 1 8 2 9 3 10 4 11 5 12 6 13 7 6 8 5 9 4 10 3 11 2 12 1 13
REMARK H PARENT
REMARK Flexibility Score: inf
ROOT
ATOM      1  C   UNL     1      -2.957  -0.288   8.897  1.00  0.00     0.000 C 
ENDROOT
BRANCH   1   2
ATOM      2  C   UNL     1      -2.483  -1.252   9.995  1.00  0.00     0.000 C 
BRANCH   2   3
ATOM      3  C   UNL     1      -3.302  -1.121  11.291  1.00  0.00     0.006 C 
BRANCH   3   4
ATOM      4  C   UNL     1      -3.850  -2.473  11.769  1.00  0.00     0.053 C 
BRANCH   4   5
ATOM      5  C   UNL     1      -5.208  -2.756  11.203  1.00  0.00     0.041 C 
ATOM      6  O   UNL     1      -6.236  -2.277  11.749  1.00  0.00    -0.550 OA
ATOM      7  O   UNL     1      -5.339  -3.575  10.088  1.00  0.00    -0.550 OA
ENDBRANCH   4   5
ENDBRANCH   3   4
ENDBRANCH   2   3
ENDBRANCH   1   2
BRANCH   1   8
ATOM      8  C   UNL     1      -1.944  -0.159   7.746  1.00  0.00     0.000 C 
BRANCH   8   9
ATOM      9  C   UNL     1      -2.329  -1.006   6.523  1.00  0.00    -0.000 C 
BRANCH   9  10
ATOM     10  C   UNL     1      -1.373  -2.192   6.299  1.00  0.00    -0.000 C 
BRANCH  10  11
ATOM     11  C   UNL     1      -1.774  -3.428   7.133  1.00  0.00    -0.000 C 
BRANCH  11  12
ATOM     12  C   UNL     1      -3.285  -3.713   7.120  1.00  0.00    -0.003 C 
ATOM     13  C   UNL     1      -3.647  -4.995   6.373  1.00  0.00     0.004 C 
ENDBRANCH  11  12
ENDBRANCH  10  11
ENDBRANCH   9  10
ENDBRANCH   8   9
ENDBRANCH   1   8
TORSDOF 9
ENDMDL
MODEL 7
REMARK VINA RESULT:    -3.258      3.103      5.514
REMARK INTER + INTRA:          -5.904
REMARK INTER:                  -5.159
REMARK INTRA:                  -0.745
REMARK UNBOUND:                -0.932
REMARK SMILES CCCCCCCCCCC(=O)[O-]
REMARK SMILES IDX 7 1 8 2 9 3 10 4 11 5 12 6 13 7 6 8 5 9 4 10 3 11 2 12 1 13
REMARK H PARENT
REMARK Flexibility Score: inf
ROOT
ATOM      1  C   UNL     1      -3.038  -0.660   7.838  1.00  0.00     0.000 C 
ENDROOT
BRANCH   1   2
ATOM      2  C   UNL     1      -1.984   0.158   8.601  1.00  0.00     0.000 C 
BRANCH   2   3
ATOM      3  C   UNL     1      -1.908  -0.220  10.091  1.00  0.00     0.006 C 
BRANCH   3   4
ATOM      4  C   UNL     1      -2.531  -1.594  10.373  1.00  0.00     0.053 C 
BRANCH   4   5
ATOM      5  C   UNL     1      -3.603  -1.517  11.417  1.00  0.00     0.041 C 
ATOM      6  O   UNL     1      -3.835  -0.429  12.008  1.00  0.00    -0.550 OA
ATOM      7  O   UNL     1      -4.325  -2.653  11.759  1.00  0.00    -0.550 OA
ENDBRANCH   4   5
ENDBRANCH   3   4
ENDBRANCH   2   3
ENDBRANCH   1   2
BRANCH   1   8
ATOM      8  C   UNL     1      -2.560  -1.076   6.435  1.00  0.00     0.000 C 
BRANCH   8   9
ATOM      9  C   UNL     1      -1.472  -2.160   6.480  1.00  0.00    -0.000 C 
BRANCH   9  10
ATOM     10  C   UNL     1      -1.987  -3.494   7.050  1.00  0.00    -0.000 C 
BRANCH  10  11
ATOM     11  C   UNL     1      -3.153  -4.070   6.219  1.00  0.00    -0.000 C 
BRANCH  11  12
ATOM     12  C   UNL     1      -4.059  -5.027   7.013  1.00  0.00    -0.003 C 
ATOM     13  C   UNL     1      -3.963  -6.475   6.538  1.00  0.00     0.004 C 
ENDBRANCH  11  12
ENDBRANCH  10  11
ENDBRANCH   9  10
ENDBRANCH   8   9
ENDBRANCH   1   8
TORSDOF 9
ENDMDL
MODEL 8
REMARK VINA RESULT:    -3.256      2.745      4.847
REMARK INTER + INTRA:          -5.900
REMARK INTER:                  -5.013
REMARK INTRA:                  -0.888
REMARK UNBOUND:                -0.932
REMARK SMILES CCCCCCCCCCC(=O)[O-]
REMARK SMILES IDX 7 1 8 2 9 3 10 4 11 5 12 6 13 7 6 8 5 9 4 10 3 11 2 12 1 13
REMARK H PARENT
REMARK Flexibility Score: inf
ROOT
ATOM      1  C   UNL     1      -5.294  -3.534   7.356  1.00  0.00     0.000 C 
ENDROOT
BRANCH   1   2
ATOM      2  C   UNL     1      -5.362  -2.911   8.759  1.00  0.00     0.000 C 
BRANCH   2   3
ATOM      3  C   UNL     1      -5.711  -3.941   9.847  1.00  0.00     0.006 C 
BRANCH   3   4
ATOM      4  C   UNL     1      -6.075  -3.275  11.180  1.00  0.00     0.053 C 
BRANCH   4   5
ATOM      5  C   UNL     1      -5.060  -2.251  11.588  1.00  0.00     0.041 C 
ATOM      6  O   UNL     1      -3.903  -2.609  11.936  1.00  0.00    -0.550 OA
ATOM      7  O   UNL     1      -5.399  -0.905  11.612  1.00  0.00    -0.550 OA
ENDBRANCH   4   5
ENDBRANCH   3   4
ENDBRANCH   2   3
ENDBRANCH   1   2
BRANCH   1   8
ATOM      8  C   UNL     1      -4.241  -4.652   7.256  1.00  0.00     0.000 C 
BRANCH   8   9
ATOM      9  C   UNL     1      -3.030  -4.246   6.401  1.00  0.00    -0.000 C 
BRANCH   9  10
ATOM     10  C   UNL     1      -1.990  -3.436   7.195  1.00  0.00    -0.000 C 
BRANCH  10  11
ATOM     11  C   UNL     1      -1.636  -2.103   6.501  1.00  0.00    -0.000 C 
BRANCH  11  12
ATOM     12  C   UNL     1      -2.244  -0.871   7.191  1.00  0.00    -0.003 C 
ATOM     13  C   UNL     1      -2.348  -1.024   8.707  1.00  0.00     0.004 C 
ENDBRANCH  11  12
ENDBRANCH  10  11
ENDBRANCH   9  10
ENDBRANCH   8   9
ENDBRANCH   1   8
TORSDOF 9
ENDMDL
MODEL 9
REMARK VINA RESULT:    -3.233      3.542      5.822
REMARK INTER + INTRA:          -5.866
REMARK INTER:                  -4.827
REMARK INTRA:                  -1.040
REMARK UNBOUND:                -0.932
REMARK SMILES CCCCCCCCCCC(=O)[O-]
REMARK SMILES IDX 7 1 8 2 9 3 10 4 11 5 12 6 13 7 6 8 5 9 4 10 3 11 2 12 1 13
REMARK H PARENT
REMARK Flexibility Score: inf
ROOT
ATOM      1  C   UNL     1      -4.382  -1.011   8.549  1.00  0.00     0.000 C 
ENDROOT
BRANCH   1   2
ATOM      2  C   UNL     1      -5.400  -2.143   8.754  1.00  0.00     0.000 C 
BRANCH   2   3
ATOM      3  C   UNL     1      -5.057  -3.036   9.960  1.00  0.00     0.006 C 
BRANCH   3   4
ATOM      4  C   UNL     1      -6.106  -4.133  10.185  1.00  0.00     0.053 C 
BRANCH   4   5
ATOM      5  C   UNL     1      -7.262  -3.639  11.000  1.00  0.00     0.041 C 
ATOM      6  O   UNL     1      -7.090  -2.741  11.866  1.00  0.00    -0.550 OA
ATOM      7  O   UNL     1      -8.524  -4.193  10.824  1.00  0.00    -0.550 OA
ENDBRANCH   4   5
ENDBRANCH   3   4
ENDBRANCH   2   3
ENDBRANCH   1   2
BRANCH   1   8
ATOM      8  C   UNL     1      -2.926  -1.495   8.671  1.00  0.00     0.000 C 
BRANCH   8   9
ATOM      9  C   UNL     1      -2.048  -1.026   7.499  1.00  0.00    -0.000 C 
BRANCH   9  10
ATOM     10  C   UNL     1      -1.709  -2.165   6.521  1.00  0.00    -0.000 C 
BRANCH  10  11
ATOM     11  C   UNL     1      -2.093  -3.550   7.084  1.00  0.00    -0.000 C 
BRANCH  11  12
ATOM     12  C   UNL     1      -3.177  -4.267   6.263  1.00  0.00    -0.003 C 
ATOM     13  C   UNL     1      -3.915  -5.344   7.055  1.00  0.00     0.004 C 
ENDBRANCH  11  12
ENDBRANCH  10  11
ENDBRANCH   9  10
ENDBRANCH   8   9
ENDBRANCH   1   8
TORSDOF 9
ENDMDL
