MODEL 1
REMARK VINA RESULT:    -3.499      0.000      0.000
REMARK INTER + INTRA:         -10.526
REMARK INTER:                  -7.589
REMARK INTRA:                  -2.937
REMARK UNBOUND:                -2.937
REMARK SMILES CCCCCCCCCCCCCCCCCCCCCC(=O)[O-]
REMARK SMILES IDX 12 1 11 2 10 3 9 4 8 5 7 6 6 7 5 8 4 9 3 10 2 11 1 12 13 13
REMARK SMILES IDX 14 14 15 15 16 16 17 17 18 18 19 19 20 20 21 21 22 22 23 23
REMARK SMILES IDX 24 24
REMARK H PARENT
REMARK Flexibility Score: inf
ROOT
ATOM      1  C   UNL     1     -48.174 -49.183  68.309  1.00  0.00     0.000 C 
ENDROOT
BRANCH   1   2
ATOM      2  C   UNL     1     -47.315 -48.492  67.239  1.00  0.00     0.000 C 
BRANCH   2   3
ATOM      3  C   UNL     1     -45.811 -48.767  67.412  1.00  0.00     0.000 C 
BRANCH   3   4
ATOM      4  C   UNL     1     -45.036 -48.681  66.080  1.00  0.00    -0.000 C 
BRANCH   4   5
ATOM      5  C   UNL     1     -43.548 -48.317  66.250  1.00  0.00    -0.000 C 
BRANCH   5   6
ATOM      6  C   UNL     1     -43.071 -48.199  67.708  1.00  0.00    -0.000 C 
BRANCH   6   7
ATOM      7  C   UNL     1     -41.994 -47.123  67.956  1.00  0.00    -0.000 C 
BRANCH   7   8
ATOM      8  C   UNL     1     -42.370 -45.704  67.492  1.00  0.00    -0.000 C 
BRANCH   8   9
ATOM      9  C   UNL     1     -41.261 -44.647  67.662  1.00  0.00    -0.000 C 
BRANCH   9  10
ATOM     10  C   UNL     1     -41.672 -43.393  68.461  1.00  0.00    -0.000 C 
BRANCH  10  11
ATOM     11  C   UNL     1     -43.124 -43.397  68.970  1.00  0.00    -0.003 C 
ATOM     12  C   UNL     1     -43.404 -42.289  69.985  1.00  0.00     0.004 C 
ENDBRANCH  10  11
ENDBRANCH   9  10
ENDBRANCH   8   9
ENDBRANCH   7   8
ENDBRANCH   6   7
ENDBRANCH   5   6
ENDBRANCH   4   5
ENDBRANCH   3   4
ENDBRANCH   2   3
ENDBRANCH   1   2
BRANCH   1  13
ATOM     13  C   UNL     1     -47.362 -50.150  69.184  1.00  0.00     0.000 C 
BRANCH  13  14
ATOM     14  C   UNL     1     -47.297 -49.654  70.635  1.00  0.00     0.000 C 
BRANCH  14  15
ATOM     15  C   UNL     1     -47.935 -48.264  70.770  1.00  0.00     0.000 C 
BRANCH  15  16
ATOM     16  C   UNL     1     -46.905 -47.181  71.155  1.00  0.00     0.000 C 
BRANCH  16  17
ATOM     17  C   UNL     1     -45.451 -47.564  70.822  1.00  0.00     0.000 C 
BRANCH  17  18
ATOM     18  C   UNL     1     -44.474 -46.380  70.748  1.00  0.00     0.000 C 
BRANCH  18  19
ATOM     19  C   UNL     1     -43.099 -46.703  71.350  1.00  0.00     0.000 C 
BRANCH  19  20
ATOM     20  C   UNL     1     -42.644 -45.593  72.309  1.00  0.00     0.006 C 
BRANCH  20  21
ATOM     21  C   UNL     1     -43.780 -45.111  73.223  1.00  0.00     0.053 C 
BRANCH  21  22
ATOM     22  C   UNL     1     -43.440 -45.283  74.673  1.00  0.00     0.041 C 
ATOM     23  O   UNL     1     -42.447 -45.978  75.012  1.00  0.00    -0.550 OA
ATOM     24  O   UNL     1     -44.245 -44.709  75.648  1.00  0.00    -0.550 OA
ENDBRANCH  21  22
ENDBRANCH  20  21
ENDBRANCH  19  20
ENDBRANCH  18  19
ENDBRANCH  17  18
ENDBRANCH  16  17
ENDBRANCH  15  16
ENDBRANCH  14  15
ENDBRANCH  13  14
ENDBRANCH   1  13
TORSDOF 20
ENDMDL
MODEL 2
REMARK VINA RESULT:    -3.406      1.344      5.476
REMARK INTER + INTRA:         -10.324
REMARK INTER:                  -6.784
REMARK INTRA:                  -3.540
REMARK UNBOUND:                -2.937
REMARK SMILES CCCCCCCCCCCCCCCCCCCCCC(=O)[O-]
REMARK SMILES IDX 12 1 11 2 10 3 9 4 8 5 7 6 6 7 5 8 4 9 3 10 2 11 1 12 13 13
REMARK SMILES IDX 14 14 15 15 16 16 17 17 18 18 19 19 20 20 21 21 22 22 23 23
REMARK SMILES IDX 24 24
REMARK H PARENT
REMARK Flexibility Score: inf
ROOT
ATOM      1  C   UNL     1     -42.590 -46.852  70.743  1.00  0.00     0.000 C 
ENDROOT
BRANCH   1   2
ATOM      2  C   UNL     1     -44.012 -46.275  70.803  1.00  0.00     0.000 C 
BRANCH   2   3
ATOM      3  C   UNL     1     -45.071 -47.334  71.156  1.00  0.00     0.000 C 
BRANCH   3   4
ATOM      4  C   UNL     1     -46.504 -46.879  70.804  1.00  0.00    -0.000 C 
BRANCH   4   5
ATOM      5  C   UNL     1     -47.527 -48.030  70.761  1.00  0.00    -0.000 C 
BRANCH   5   6
ATOM      6  C   UNL     1     -46.927 -49.423  70.500  1.00  0.00    -0.000 C 
BRANCH   6   7
ATOM      7  C   UNL     1     -47.106 -49.951  69.062  1.00  0.00    -0.000 C 
BRANCH   7   8
ATOM      8  C   UNL     1     -46.791 -48.933  67.949  1.00  0.00    -0.000 C 
BRANCH   8   9
ATOM      9  C   UNL     1     -45.291 -48.677  67.706  1.00  0.00    -0.000 C 
BRANCH   9  10
ATOM     10  C   UNL     1     -44.390 -49.925  67.814  1.00  0.00    -0.000 C 
BRANCH  10  11
ATOM     11  C   UNL     1     -43.191 -49.778  68.768  1.00  0.00    -0.003 C 
ATOM     12  C   UNL     1     -43.390 -50.512  70.094  1.00  0.00     0.004 C 
ENDBRANCH  10  11
ENDBRANCH   9  10
ENDBRANCH   8   9
ENDBRANCH   7   8
ENDBRANCH   6   7
ENDBRANCH   5   6
ENDBRANCH   4   5
ENDBRANCH   3   4
ENDBRANCH   2   3
ENDBRANCH   1   2
BRANCH   1  13
ATOM     13  C   UNL     1     -41.682 -46.086  69.768  1.00  0.00     0.000 C 
BRANCH  13  14
ATOM     14  C   UNL     1     -42.281 -46.074  68.355  1.00  0.00     0.000 C 
BRANCH  14  15
ATOM     15  C   UNL     1     -42.497 -44.636  67.861  1.00  0.00     0.000 C 
BRANCH  15  16
ATOM     16  C   UNL     1     -41.321 -43.708  68.230  1.00  0.00     0.000 C 
BRANCH  16  17
ATOM     17  C   UNL     1     -41.741 -42.469  69.044  1.00  0.00     0.000 C 
BRANCH  17  18
ATOM     18  C   UNL     1     -43.048 -42.633  69.837  1.00  0.00     0.000 C 
BRANCH  18  19
ATOM     19  C   UNL     1     -42.926 -42.156  71.292  1.00  0.00     0.000 C 
BRANCH  19  20
ATOM     20  C   UNL     1     -42.528 -43.314  72.218  1.00  0.00     0.006 C 
BRANCH  20  21
ATOM     21  C   UNL     1     -43.354 -43.335  73.512  1.00  0.00     0.053 C 
BRANCH  21  22
ATOM     22  C   UNL     1     -43.357 -44.691  74.150  1.00  0.00     0.041 C 
ATOM     23  O   UNL     1     -42.454 -45.524  73.872  1.00  0.00    -0.550 OA
ATOM     24  O   UNL     1     -44.380 -45.049  75.018  1.00  0.00    -0.550 OA
ENDBRANCH  21  22
ENDBRANCH  20  21
ENDBRANCH  19  20
ENDBRANCH  18  19
ENDBRANCH  17  18
ENDBRANCH  16  17
ENDBRANCH  15  16
ENDBRANCH  14  15
ENDBRANCH  13  14
ENDBRANCH   1  13
TORSDOF 20
ENDMDL
MODEL 3
REMARK VINA RESULT:    -3.399      4.134      6.639
REMARK INTER + INTRA:         -10.310
REMARK INTER:                  -6.775
REMARK INTRA:                  -3.535
REMARK UNBOUND:                -2.937
REMARK SMILES CCCCCCCCCCCCCCCCCCCCCC(=O)[O-]
REMARK SMILES IDX 12 1 11 2 10 3 9 4 8 5 7 6 6 7 5 8 4 9 3 10 2 11 1 12 13 13
REMARK SMILES IDX 14 14 15 15 16 16 17 17 18 18 19 19 20 20 21 21 22 22 23 23
REMARK SMILES IDX 24 24
REMARK H PARENT
REMARK Flexibility Score: inf
ROOT
ATOM      1  C   UNL     1     -46.945 -51.310  70.388  1.00  0.00     0.000 C 
ENDROOT
BRANCH   1   2
ATOM      2  C   UNL     1     -46.696 -49.832  70.726  1.00  0.00     0.000 C 
BRANCH   2   3
ATOM      3  C   UNL     1     -47.949 -48.958  70.537  1.00  0.00     0.000 C 
BRANCH   3   4
ATOM      4  C   UNL     1     -47.638 -47.449  70.632  1.00  0.00    -0.000 C 
BRANCH   4   5
ATOM      5  C   UNL     1     -46.331 -47.131  71.384  1.00  0.00    -0.000 C 
BRANCH   5   6
ATOM      6  C   UNL     1     -45.203 -46.553  70.511  1.00  0.00    -0.000 C 
BRANCH   6   7
ATOM      7  C   UNL     1     -43.775 -46.904  70.976  1.00  0.00    -0.000 C 
BRANCH   7   8
ATOM      8  C   UNL     1     -43.303 -48.326  70.618  1.00  0.00    -0.000 C 
BRANCH   8   9
ATOM      9  C   UNL     1     -42.549 -48.445  69.279  1.00  0.00    -0.000 C 
BRANCH   9  10
ATOM     10  C   UNL     1     -42.078 -47.106  68.675  1.00  0.00    -0.000 C 
BRANCH  10  11
ATOM     11  C   UNL     1     -42.533 -46.854  67.226  1.00  0.00    -0.003 C 
ATOM     12  C   UNL     1     -42.188 -45.451  66.727  1.00  0.00     0.004 C 
ENDBRANCH  10  11
ENDBRANCH   9  10
ENDBRANCH   8   9
ENDBRANCH   7   8
ENDBRANCH   6   7
ENDBRANCH   5   6
ENDBRANCH   4   5
ENDBRANCH   3   4
ENDBRANCH   2   3
ENDBRANCH   1   2
BRANCH   1  13
ATOM     13  C   UNL     1     -46.484 -51.677  68.970  1.00  0.00     0.000 C 
BRANCH  13  14
ATOM     14  C   UNL     1     -45.174 -50.960  68.616  1.00  0.00     0.000 C 
BRANCH  14  15
ATOM     15  C   UNL     1     -45.291 -50.236  67.267  1.00  0.00     0.000 C 
BRANCH  15  16
ATOM     16  C   UNL     1     -45.743 -48.769  67.427  1.00  0.00     0.000 C 
BRANCH  16  17
ATOM     17  C   UNL     1     -47.067 -48.446  66.709  1.00  0.00     0.000 C 
BRANCH  17  18
ATOM     18  C   UNL     1     -48.196 -49.461  66.954  1.00  0.00     0.000 C 
BRANCH  18  19
ATOM     19  C   UNL     1     -49.579 -48.800  67.056  1.00  0.00     0.000 C 
BRANCH  19  20
ATOM     20  C   UNL     1     -49.463 -47.270  66.980  1.00  0.00     0.006 C 
BRANCH  20  21
ATOM     21  C   UNL     1     -50.607 -46.640  66.172  1.00  0.00     0.053 C 
BRANCH  21  22
ATOM     22  C   UNL     1     -50.183 -46.307  64.773  1.00  0.00     0.041 C 
ATOM     23  O   UNL     1     -49.057 -46.677  64.347  1.00  0.00    -0.550 OA
ATOM     24  O   UNL     1     -51.015 -45.553  63.956  1.00  0.00    -0.550 OA
ENDBRANCH  21  22
ENDBRANCH  20  21
ENDBRANCH  19  20
ENDBRANCH  18  19
ENDBRANCH  17  18
ENDBRANCH  16  17
ENDBRANCH  15  16
ENDBRANCH  14  15
ENDBRANCH  13  14
ENDBRANCH   1  13
TORSDOF 20
ENDMDL
MODEL 4
REMARK VINA RESULT:    -3.397      1.203      5.554
REMARK INTER + INTRA:         -10.305
REMARK INTER:                  -6.829
REMARK INTRA:                  -3.476
REMARK UNBOUND:                -2.937
REMARK SMILES CCCCCCCCCCCCCCCCCCCCCC(=O)[O-]
REMARK SMILES IDX 12 1 11 2 10 3 9 4 8 5 7 6 6 7 5 8 4 9 3 10 2 11 1 12 13 13
REMARK SMILES IDX 14 14 15 15 16 16 17 17 18 18 19 19 20 20 21 21 22 22 23 23
REMARK SMILES IDX 24 24
REMARK H PARENT
REMARK Flexibility Score: inf
ROOT
ATOM      1  C   UNL     1     -43.449 -47.476  68.009  1.00  0.00     0.000 C 
ENDROOT
BRANCH   1   2
ATOM      2  C   UNL     1     -43.331 -48.498  69.150  1.00  0.00     0.000 C 
BRANCH   2   3
ATOM      3  C   UNL     1     -43.544 -47.870  70.538  1.00  0.00     0.000 C 
BRANCH   3   4
ATOM      4  C   UNL     1     -44.595 -46.739  70.521  1.00  0.00    -0.000 C 
BRANCH   4   5
ATOM      5  C   UNL     1     -45.817 -47.015  71.419  1.00  0.00    -0.000 C 
BRANCH   5   6
ATOM      6  C   UNL     1     -47.154 -47.154  70.670  1.00  0.00    -0.000 C 
BRANCH   6   7
ATOM      7  C   UNL     1     -47.749 -48.578  70.657  1.00  0.00    -0.000 C 
BRANCH   7   8
ATOM      8  C   UNL     1     -46.734 -49.706  70.393  1.00  0.00    -0.000 C 
BRANCH   8   9
ATOM      9  C   UNL     1     -46.724 -50.248  68.950  1.00  0.00    -0.000 C 
BRANCH   9  10
ATOM     10  C   UNL     1     -46.753 -49.170  67.848  1.00  0.00    -0.000 C 
BRANCH  10  11
ATOM     11  C   UNL     1     -47.912 -49.303  66.843  1.00  0.00    -0.003 C 
ATOM     12  C   UNL     1     -49.186 -49.867  67.472  1.00  0.00     0.004 C 
ENDBRANCH  10  11
ENDBRANCH   9  10
ENDBRANCH   8   9
ENDBRANCH   7   8
ENDBRANCH   6   7
ENDBRANCH   5   6
ENDBRANCH   4   5
ENDBRANCH   3   4
ENDBRANCH   2   3
ENDBRANCH   1   2
BRANCH   1  13
ATOM     13  C   UNL     1     -42.086 -47.099  67.410  1.00  0.00     0.000 C 
BRANCH  13  14
ATOM     14  C   UNL     1     -41.520 -45.841  68.082  1.00  0.00     0.000 C 
BRANCH  14  15
ATOM     15  C   UNL     1     -42.424 -44.626  67.825  1.00  0.00     0.000 C 
BRANCH  15  16
ATOM     16  C   UNL     1     -42.787 -43.880  69.127  1.00  0.00     0.000 C 
BRANCH  16  17
ATOM     17  C   UNL     1     -41.726 -44.017  70.235  1.00  0.00     0.000 C 
BRANCH  17  18
ATOM     18  C   UNL     1     -42.295 -44.212  71.650  1.00  0.00     0.000 C 
BRANCH  18  19
ATOM     19  C   UNL     1     -41.522 -45.260  72.464  1.00  0.00     0.000 C 
BRANCH  19  20
ATOM     20  C   UNL     1     -42.434 -45.932  73.501  1.00  0.00     0.006 C 
BRANCH  20  21
ATOM     21  C   UNL     1     -43.692 -45.101  73.795  1.00  0.00     0.053 C 
BRANCH  21  22
ATOM     22  C   UNL     1     -43.887 -44.886  75.265  1.00  0.00     0.041 C 
ATOM     23  O   UNL     1     -43.622 -45.809  76.081  1.00  0.00    -0.550 OA
ATOM     24  O   UNL     1     -44.401 -43.683  75.730  1.00  0.00    -0.550 OA
ENDBRANCH  21  22
ENDBRANCH  20  21
ENDBRANCH  19  20
ENDBRANCH  18  19
ENDBRANCH  17  18
ENDBRANCH  16  17
ENDBRANCH  15  16
ENDBRANCH  14  15
ENDBRANCH  13  14
ENDBRANCH   1  13
TORSDOF 20
ENDMDL
MODEL 5
REMARK VINA RESULT:    -3.361      4.848      8.858
REMARK INTER + INTRA:         -10.227
REMARK INTER:                  -7.182
REMARK INTRA:                  -3.045
REMARK UNBOUND:                -2.937
REMARK SMILES CCCCCCCCCCCCCCCCCCCCCC(=O)[O-]
REMARK SMILES IDX 12 1 11 2 10 3 9 4 8 5 7 6 6 7 5 8 4 9 3 10 2 11 1 12 13 13
REMARK SMILES IDX 14 14 15 15 16 16 17 17 18 18 19 19 20 20 21 21 22 22 23 23
REMARK SMILES IDX 24 24
REMARK H PARENT
REMARK Flexibility Score: inf
ROOT
ATOM      1  C   UNL     1     -45.984 -47.121  71.170  1.00  0.00     0.000 C 
ENDROOT
BRANCH   1   2
ATOM      2  C   UNL     1     -47.277 -47.084  70.341  1.00  0.00     0.000 C 
BRANCH   2   3
ATOM      3  C   UNL     1     -48.448 -47.808  71.030  1.00  0.00     0.000 C 
BRANCH   3   4
ATOM      4  C   UNL     1     -48.575 -49.281  70.585  1.00  0.00    -0.000 C 
BRANCH   4   5
ATOM      5  C   UNL     1     -49.953 -49.633  69.990  1.00  0.00    -0.000 C 
BRANCH   5   6
ATOM      6  C   UNL     1     -50.650 -50.842  70.638  1.00  0.00    -0.000 C 
BRANCH   6   7
ATOM      7  C   UNL     1     -51.144 -50.614  72.082  1.00  0.00    -0.000 C 
BRANCH   7   8
ATOM      8  C   UNL     1     -52.115 -49.432  72.260  1.00  0.00    -0.000 C 
BRANCH   8   9
ATOM      9  C   UNL     1     -51.518 -48.198  72.965  1.00  0.00    -0.000 C 
BRANCH   9  10
ATOM     10  C   UNL     1     -51.709 -48.165  74.495  1.00  0.00    -0.000 C 
BRANCH  10  11
ATOM     11  C   UNL     1     -52.890 -49.003  75.018  1.00  0.00    -0.003 C 
ATOM     12  C   UNL     1     -52.623 -49.618  76.392  1.00  0.00     0.004 C 
ENDBRANCH  10  11
ENDBRANCH   9  10
ENDBRANCH   8   9
ENDBRANCH   7   8
ENDBRANCH   6   7
ENDBRANCH   5   6
ENDBRANCH   4   5
ENDBRANCH   3   4
ENDBRANCH   2   3
ENDBRANCH   1   2
BRANCH   1  13
ATOM     13  C   UNL     1     -44.821 -47.790  70.420  1.00  0.00     0.000 C 
BRANCH  13  14
ATOM     14  C   UNL     1     -44.936 -49.318  70.483  1.00  0.00     0.000 C 
BRANCH  14  15
ATOM     15  C   UNL     1     -45.050 -49.919  69.074  1.00  0.00     0.000 C 
BRANCH  15  16
ATOM     16  C   UNL     1     -44.852 -48.862  67.968  1.00  0.00     0.000 C 
BRANCH  16  17
ATOM     17  C   UNL     1     -46.102 -48.635  67.097  1.00  0.00     0.000 C 
BRANCH  17  18
ATOM     18  C   UNL     1     -47.122 -49.784  67.122  1.00  0.00     0.000 C 
BRANCH  18  19
ATOM     19  C   UNL     1     -48.553 -49.318  66.816  1.00  0.00     0.000 C 
BRANCH  19  20
ATOM     20  C   UNL     1     -48.676 -47.793  66.961  1.00  0.00     0.006 C 
BRANCH  20  21
ATOM     21  C   UNL     1     -50.112 -47.301  66.731  1.00  0.00     0.053 C 
BRANCH  21  22
ATOM     22  C   UNL     1     -50.266 -46.637  65.397  1.00  0.00     0.041 C 
ATOM     23  O   UNL     1     -51.391 -46.205  65.030  1.00  0.00    -0.550 OA
ATOM     24  O   UNL     1     -49.176 -46.531  64.542  1.00  0.00    -0.550 OA
ENDBRANCH  21  22
ENDBRANCH  20  21
ENDBRANCH  19  20
ENDBRANCH  18  19
ENDBRANCH  17  18
ENDBRANCH  16  17
ENDBRANCH  15  16
ENDBRANCH  14  15
ENDBRANCH  13  14
ENDBRANCH   1  13
TORSDOF 20
ENDMDL
MODEL 6
REMARK VINA RESULT:    -3.350      3.811      6.101
REMARK INTER + INTRA:         -10.204
REMARK INTER:                  -7.492
REMARK INTRA:                  -2.712
REMARK UNBOUND:                -2.937
REMARK SMILES CCCCCCCCCCCCCCCCCCCCCC(=O)[O-]
REMARK SMILES IDX 12 1 11 2 10 3 9 4 8 5 7 6 6 7 5 8 4 9 3 10 2 11 1 12 13 13
REMARK SMILES IDX 14 14 15 15 16 16 17 17 18 18 19 19 20 20 21 21 22 22 23 23
REMARK SMILES IDX 24 24
REMARK H PARENT
REMARK Flexibility Score: inf
ROOT
ATOM      1  C   UNL     1     -44.530 -47.776  70.753  1.00  0.00     0.000 C 
ENDROOT
BRANCH   1   2
ATOM      2  C   UNL     1     -44.412 -46.276  71.061  1.00  0.00     0.000 C 
BRANCH   2   3
ATOM      3  C   UNL     1     -43.902 -45.998  72.486  1.00  0.00     0.000 C 
BRANCH   3   4
ATOM      4  C   UNL     1     -42.361 -45.918  72.557  1.00  0.00    -0.000 C 
BRANCH   4   5
ATOM      5  C   UNL     1     -41.710 -45.347  71.283  1.00  0.00    -0.000 C 
BRANCH   5   6
ATOM      6  C   UNL     1     -40.705 -46.285  70.591  1.00  0.00    -0.000 C 
BRANCH   6   7
ATOM      7  C   UNL     1     -40.722 -46.236  69.050  1.00  0.00    -0.000 C 
BRANCH   7   8
ATOM      8  C   UNL     1     -42.116 -46.063  68.417  1.00  0.00    -0.000 C 
BRANCH   8   9
ATOM      9  C   UNL     1     -42.360 -44.700  67.742  1.00  0.00    -0.000 C 
BRANCH   9  10
ATOM     10  C   UNL     1     -41.382 -43.582  68.157  1.00  0.00    -0.000 C 
BRANCH  10  11
ATOM     11  C   UNL     1     -41.982 -42.505  69.079  1.00  0.00    -0.003 C 
ATOM     12  C   UNL     1     -43.488 -42.666  69.282  1.00  0.00     0.004 C 
ENDBRANCH  10  11
ENDBRANCH   9  10
ENDBRANCH   8   9
ENDBRANCH   7   8
ENDBRANCH   6   7
ENDBRANCH   5   6
ENDBRANCH   4   5
ENDBRANCH   3   4
ENDBRANCH   2   3
ENDBRANCH   1   2
BRANCH   1  13
ATOM     13  C   UNL     1     -45.967 -48.198  70.410  1.00  0.00     0.000 C 
BRANCH  13  14
ATOM     14  C   UNL     1     -46.980 -47.171  70.931  1.00  0.00     0.000 C 
BRANCH  14  15
ATOM     15  C   UNL     1     -48.367 -47.805  71.108  1.00  0.00     0.000 C 
BRANCH  15  16
ATOM     16  C   UNL     1     -48.382 -49.298  70.717  1.00  0.00     0.000 C 
BRANCH  16  17
ATOM     17  C   UNL     1     -49.710 -49.761  70.090  1.00  0.00     0.000 C 
BRANCH  17  18
ATOM     18  C   UNL     1     -49.834 -49.504  68.580  1.00  0.00     0.000 C 
BRANCH  18  19
ATOM     19  C   UNL     1     -48.484 -49.574  67.851  1.00  0.00     0.000 C 
BRANCH  19  20
ATOM     20  C   UNL     1     -48.123 -48.216  67.232  1.00  0.00     0.006 C 
BRANCH  20  21
ATOM     21  C   UNL     1     -49.236 -47.175  67.421  1.00  0.00     0.053 C 
BRANCH  21  22
ATOM     22  C   UNL     1     -49.976 -46.912  66.144  1.00  0.00     0.041 C 
ATOM     23  O   UNL     1     -51.232 -46.820  66.148  1.00  0.00    -0.550 OA
ATOM     24  O   UNL     1     -49.281 -46.809  64.946  1.00  0.00    -0.550 OA
ENDBRANCH  21  22
ENDBRANCH  20  21
ENDBRANCH  19  20
ENDBRANCH  18  19
ENDBRANCH  17  18
ENDBRANCH  16  17
ENDBRANCH  15  16
ENDBRANCH  14  15
ENDBRANCH  13  14
ENDBRANCH   1  13
TORSDOF 20
ENDMDL
MODEL 7
REMARK VINA RESULT:    -3.343      3.716      6.083
REMARK INTER + INTRA:         -10.189
REMARK INTER:                  -7.120
REMARK INTRA:                  -3.069
REMARK UNBOUND:                -2.937
REMARK SMILES CCCCCCCCCCCCCCCCCCCCCC(=O)[O-]
REMARK SMILES IDX 12 1 11 2 10 3 9 4 8 5 7 6 6 7 5 8 4 9 3 10 2 11 1 12 13 13
REMARK SMILES IDX 14 14 15 15 16 16 17 17 18 18 19 19 20 20 21 21 22 22 23 23
REMARK SMILES IDX 24 24
REMARK H PARENT
REMARK Flexibility Score: inf
ROOT
ATOM      1  C   UNL     1     -42.347 -48.414  68.539  1.00  0.00     0.000 C 
ENDROOT
BRANCH   1   2
ATOM      2  C   UNL     1     -43.118 -47.866  67.329  1.00  0.00     0.000 C 
BRANCH   2   3
ATOM      3  C   UNL     1     -42.446 -46.629  66.705  1.00  0.00     0.000 C 
BRANCH   3   4
ATOM      4  C   UNL     1     -41.100 -46.284  67.378  1.00  0.00    -0.000 C 
BRANCH   4   5
ATOM      5  C   UNL     1     -41.034 -44.849  67.934  1.00  0.00    -0.000 C 
BRANCH   5   6
ATOM      6  C   UNL     1     -42.397 -44.154  68.102  1.00  0.00    -0.000 C 
BRANCH   6   7
ATOM      7  C   UNL     1     -42.815 -43.885  69.563  1.00  0.00    -0.000 C 
BRANCH   7   8
ATOM      8  C   UNL     1     -43.342 -45.114  70.327  1.00  0.00    -0.000 C 
BRANCH   8   9
ATOM      9  C   UNL     1     -42.292 -45.848  71.184  1.00  0.00    -0.000 C 
BRANCH   9  10
ATOM     10  C   UNL     1     -42.717 -46.126  72.641  1.00  0.00    -0.000 C 
BRANCH  10  11
ATOM     11  C   UNL     1     -43.058 -44.872  73.466  1.00  0.00    -0.003 C 
ATOM     12  C   UNL     1     -44.310 -45.045  74.326  1.00  0.00     0.004 C 
ENDBRANCH  10  11
ENDBRANCH   9  10
ENDBRANCH   8   9
ENDBRANCH   7   8
ENDBRANCH   6   7
ENDBRANCH   5   6
ENDBRANCH   4   5
ENDBRANCH   3   4
ENDBRANCH   2   3
ENDBRANCH   1   2
BRANCH   1  13
ATOM     13  C   UNL     1     -43.277 -48.949  69.639  1.00  0.00     0.000 C 
BRANCH  13  14
ATOM     14  C   UNL     1     -44.686 -48.357  69.502  1.00  0.00     0.000 C 
BRANCH  14  15
ATOM     15  C   UNL     1     -45.378 -48.260  70.869  1.00  0.00     0.000 C 
BRANCH  15  16
ATOM     16  C   UNL     1     -46.354 -47.068  70.948  1.00  0.00     0.000 C 
BRANCH  16  17
ATOM     17  C   UNL     1     -47.828 -47.484  71.114  1.00  0.00     0.000 C 
BRANCH  17  18
ATOM     18  C   UNL     1     -48.168 -48.880  70.567  1.00  0.00     0.000 C 
BRANCH  18  19
ATOM     19  C   UNL     1     -49.092 -48.831  69.341  1.00  0.00     0.000 C 
BRANCH  19  20
ATOM     20  C   UNL     1     -48.362 -48.237  68.127  1.00  0.00     0.006 C 
BRANCH  20  21
ATOM     21  C   UNL     1     -49.196 -47.162  67.415  1.00  0.00     0.053 C 
BRANCH  21  22
ATOM     22  C   UNL     1     -49.652 -47.615  66.062  1.00  0.00     0.041 C 
ATOM     23  O   UNL     1     -49.242 -47.028  65.025  1.00  0.00    -0.550 OA
ATOM     24  O   UNL     1     -50.560 -48.660  65.948  1.00  0.00    -0.550 OA
ENDBRANCH  21  22
ENDBRANCH  20  21
ENDBRANCH  19  20
ENDBRANCH  18  19
ENDBRANCH  17  18
ENDBRANCH  16  17
ENDBRANCH  15  16
ENDBRANCH  14  15
ENDBRANCH  13  14
ENDBRANCH   1  13
TORSDOF 20
ENDMDL
MODEL 8
REMARK VINA RESULT:    -3.340      1.149      5.101
REMARK INTER + INTRA:         -10.182
REMARK INTER:                  -7.333
REMARK INTRA:                  -2.849
REMARK UNBOUND:                -2.937
REMARK SMILES CCCCCCCCCCCCCCCCCCCCCC(=O)[O-]
REMARK SMILES IDX 12 1 11 2 10 3 9 4 8 5 7 6 6 7 5 8 4 9 3 10 2 11 1 12 13 13
REMARK SMILES IDX 14 14 15 15 16 16 17 17 18 18 19 19 20 20 21 21 22 22 23 23
REMARK SMILES IDX 24 24
REMARK H PARENT
REMARK Flexibility Score: inf
ROOT
ATOM      1  C   UNL     1     -42.434 -47.034  66.688  1.00  0.00     0.000 C 
ENDROOT
BRANCH   1   2
ATOM      2  C   UNL     1     -42.820 -47.814  67.954  1.00  0.00     0.000 C 
BRANCH   2   3
ATOM      3  C   UNL     1     -43.828 -48.943  67.675  1.00  0.00     0.000 C 
BRANCH   3   4
ATOM      4  C   UNL     1     -45.050 -48.458  66.866  1.00  0.00    -0.000 C 
BRANCH   4   5
ATOM      5  C   UNL     1     -46.323 -49.294  67.104  1.00  0.00    -0.000 C 
BRANCH   5   6
ATOM      6  C   UNL     1     -47.632 -48.629  66.643  1.00  0.00    -0.000 C 
BRANCH   6   7
ATOM      7  C   UNL     1     -48.414 -47.893  67.750  1.00  0.00    -0.000 C 
BRANCH   7   8
ATOM      8  C   UNL     1     -48.893 -48.783  68.912  1.00  0.00    -0.000 C 
BRANCH   8   9
ATOM      9  C   UNL     1     -48.463 -48.310  70.314  1.00  0.00    -0.000 C 
BRANCH   9  10
ATOM     10  C   UNL     1     -47.520 -47.089  70.331  1.00  0.00    -0.000 C 
BRANCH  10  11
ATOM     11  C   UNL     1     -46.206 -47.297  71.104  1.00  0.00    -0.003 C 
ATOM     12  C   UNL     1     -45.507 -48.611  70.753  1.00  0.00     0.004 C 
ENDBRANCH  10  11
ENDBRANCH   9  10
ENDBRANCH   8   9
ENDBRANCH   7   8
ENDBRANCH   6   7
ENDBRANCH   5   6
ENDBRANCH   4   5
ENDBRANCH   3   4
ENDBRANCH   2   3
ENDBRANCH   1   2
BRANCH   1  13
ATOM     13  C   UNL     1     -41.550 -45.814  66.992  1.00  0.00     0.000 C 
BRANCH  13  14
ATOM     14  C   UNL     1     -42.399 -44.622  67.450  1.00  0.00     0.000 C 
BRANCH  14  15
ATOM     15  C   UNL     1     -41.875 -44.049  68.775  1.00  0.00     0.000 C 
BRANCH  15  16
ATOM     16  C   UNL     1     -43.008 -43.791  69.790  1.00  0.00     0.000 C 
BRANCH  16  17
ATOM     17  C   UNL     1     -43.517 -45.067  70.487  1.00  0.00     0.000 C 
BRANCH  17  18
ATOM     18  C   UNL     1     -42.420 -45.930  71.132  1.00  0.00     0.000 C 
BRANCH  18  19
ATOM     19  C   UNL     1     -42.608 -46.098  72.647  1.00  0.00     0.000 C 
BRANCH  19  20
ATOM     20  C   UNL     1     -43.815 -45.288  73.144  1.00  0.00     0.006 C 
BRANCH  20  21
ATOM     21  C   UNL     1     -43.401 -44.133  74.067  1.00  0.00     0.053 C 
BRANCH  21  22
ATOM     22  C   UNL     1     -43.212 -44.590  75.482  1.00  0.00     0.041 C 
ATOM     23  O   UNL     1     -42.481 -43.932  76.268  1.00  0.00    -0.550 OA
ATOM     24  O   UNL     1     -43.811 -45.765  75.918  1.00  0.00    -0.550 OA
ENDBRANCH  21  22
ENDBRANCH  20  21
ENDBRANCH  19  20
ENDBRANCH  18  19
ENDBRANCH  17  18
ENDBRANCH  16  17
ENDBRANCH  15  16
ENDBRANCH  14  15
ENDBRANCH  13  14
ENDBRANCH   1  13
TORSDOF 20
ENDMDL
MODEL 9
REMARK VINA RESULT:    -3.336      3.194      6.584
REMARK INTER + INTRA:         -10.174
REMARK INTER:                  -6.600
REMARK INTRA:                  -3.573
REMARK UNBOUND:                -2.937
REMARK SMILES CCCCCCCCCCCCCCCCCCCCCC(=O)[O-]
REMARK SMILES IDX 12 1 11 2 10 3 9 4 8 5 7 6 6 7 5 8 4 9 3 10 2 11 1 12 13 13
REMARK SMILES IDX 14 14 15 15 16 16 17 17 18 18 19 19 20 20 21 21 22 22 23 23
REMARK SMILES IDX 24 24
REMARK H PARENT
REMARK Flexibility Score: inf
ROOT
ATOM      1  C   UNL     1     -43.387 -48.385  69.979  1.00  0.00     0.000 C 
ENDROOT
BRANCH   1   2
ATOM      2  C   UNL     1     -44.328 -49.526  70.396  1.00  0.00     0.000 C 
BRANCH   2   3
ATOM      3  C   UNL     1     -45.746 -49.034  70.737  1.00  0.00     0.000 C 
BRANCH   3   4
ATOM      4  C   UNL     1     -45.966 -47.554  70.359  1.00  0.00    -0.000 C 
BRANCH   4   5
ATOM      5  C   UNL     1     -47.428 -47.088  70.499  1.00  0.00    -0.000 C 
BRANCH   5   6
ATOM      6  C   UNL     1     -48.415 -48.176  70.959  1.00  0.00    -0.000 C 
BRANCH   6   7
ATOM      7  C   UNL     1     -49.237 -48.831  69.830  1.00  0.00    -0.000 C 
BRANCH   7   8
ATOM      8  C   UNL     1     -49.019 -48.228  68.430  1.00  0.00    -0.000 C 
BRANCH   8   9
ATOM      9  C   UNL     1     -48.287 -49.146  67.432  1.00  0.00    -0.000 C 
BRANCH   9  10
ATOM     10  C   UNL     1     -47.093 -48.497  66.701  1.00  0.00    -0.000 C 
BRANCH  10  11
ATOM     11  C   UNL     1     -45.735 -49.175  66.954  1.00  0.00    -0.003 C 
ATOM     12  C   UNL     1     -45.860 -50.664  67.274  1.00  0.00     0.004 C 
ENDBRANCH  10  11
ENDBRANCH   9  10
ENDBRANCH   8   9
ENDBRANCH   7   8
ENDBRANCH   6   7
ENDBRANCH   5   6
ENDBRANCH   4   5
ENDBRANCH   3   4
ENDBRANCH   2   3
ENDBRANCH   1   2
BRANCH   1  13
ATOM     13  C   UNL     1     -42.039 -48.431  70.715  1.00  0.00     0.000 C 
BRANCH  13  14
ATOM     14  C   UNL     1     -41.649 -47.041  71.232  1.00  0.00     0.000 C 
BRANCH  14  15
ATOM     15  C   UNL     1     -42.811 -46.393  72.000  1.00  0.00     0.000 C 
BRANCH  15  16
ATOM     16  C   UNL     1     -43.040 -44.924  71.586  1.00  0.00     0.000 C 
BRANCH  16  17
ATOM     17  C   UNL     1     -43.467 -44.754  70.116  1.00  0.00     0.000 C 
BRANCH  17  18
ATOM     18  C   UNL     1     -42.786 -43.592  69.377  1.00  0.00     0.000 C 
BRANCH  18  19
ATOM     19  C   UNL     1     -42.008 -44.050  68.134  1.00  0.00     0.000 C 
BRANCH  19  20
ATOM     20  C   UNL     1     -42.438 -45.461  67.707  1.00  0.00     0.006 C 
BRANCH  20  21
ATOM     21  C   UNL     1     -41.237 -46.384  67.455  1.00  0.00     0.053 C 
BRANCH  21  22
ATOM     22  C   UNL     1     -40.420 -45.929  66.285  1.00  0.00     0.041 C 
ATOM     23  O   UNL     1     -40.960 -45.769  65.159  1.00  0.00    -0.550 OA
ATOM     24  O   UNL     1     -39.054 -45.721  66.429  1.00  0.00    -0.550 OA
ENDBRANCH  21  22
ENDBRANCH  20  21
ENDBRANCH  19  20
ENDBRANCH  18  19
ENDBRANCH  17  18
ENDBRANCH  16  17
ENDBRANCH  15  16
ENDBRANCH  14  15
ENDBRANCH  13  14
ENDBRANCH   1  13
TORSDOF 20
ENDMDL
