MODEL 1
REMARK VINA RESULT:    -4.685      0.000      0.000
REMARK INTER + INTRA:          -7.228
REMARK INTER:                  -6.875
REMARK INTRA:                  -0.352
REMARK UNBOUND:                -0.352
REMARK SMILES O=C([O-])CCCCCCCC(=O)[O-]
REMARK SMILES IDX 7 1 6 2 5 3 4 4 2 5 1 6 3 7 8 8 9 9 10 10 11 11 12 12 13 13
REMARK H PARENT
REMARK Flexibility Score: inf
ROOT
ATOM      1  C   UNL     1     -14.749  -5.719  38.051  1.00  0.00     0.000 C 
ENDROOT
BRANCH   1   2
ATOM      2  C   UNL     1     -16.141  -6.354  38.227  1.00  0.00     0.000 C 
BRANCH   2   3
ATOM      3  C   UNL     1     -16.993  -5.634  39.289  1.00  0.00     0.006 C 
BRANCH   3   4
ATOM      4  C   UNL     1     -17.785  -6.579  40.208  1.00  0.00     0.053 C 
BRANCH   4   5
ATOM      5  C   UNL     1     -17.125  -6.747  41.542  1.00  0.00     0.041 C 
ATOM      6  O   UNL     1     -17.665  -7.458  42.430  1.00  0.00    -0.550 OA
ATOM      7  O   UNL     1     -15.897  -6.148  41.791  1.00  0.00    -0.550 OA
ENDBRANCH   4   5
ENDBRANCH   3   4
ENDBRANCH   2   3
ENDBRANCH   1   2
BRANCH   1   8
ATOM      8  C   UNL     1     -13.699  -6.327  38.993  1.00  0.00     0.000 C 
BRANCH   8   9
ATOM      9  C   UNL     1     -12.763  -7.312  38.276  1.00  0.00     0.006 C 
BRANCH   9  10
ATOM     10  C   UNL     1     -11.747  -7.912  39.252  1.00  0.00     0.053 C 
BRANCH  10  11
ATOM     11  C   UNL     1     -11.118  -9.137  38.666  1.00  0.00     0.041 C 
ATOM     12  O   UNL     1     -11.344  -9.454  37.470  1.00  0.00    -0.550 OA
ATOM     13  O   UNL     1     -10.243  -9.901  39.428  1.00  0.00    -0.550 OA
ENDBRANCH  10  11
ENDBRANCH   9  10
ENDBRANCH   8   9
ENDBRANCH   1   8
TORSDOF 8
ENDMDL
MODEL 2
REMARK VINA RESULT:    -4.677      1.216      6.040
REMARK INTER + INTRA:          -7.217
REMARK INTER:                  -6.889
REMARK INTRA:                  -0.328
REMARK UNBOUND:                -0.352
REMARK SMILES O=C([O-])CCCCCCCC(=O)[O-]
REMARK SMILES IDX 7 1 6 2 5 3 4 4 2 5 1 6 3 7 8 8 9 9 10 10 11 11 12 12 13 13
REMARK H PARENT
REMARK Flexibility Score: inf
ROOT
ATOM      1  C   UNL     1     -15.511  -5.970  38.807  1.00  0.00     0.000 C 
ENDROOT
BRANCH   1   2
ATOM      2  C   UNL     1     -14.891  -5.819  37.406  1.00  0.00     0.000 C 
BRANCH   2   3
ATOM      3  C   UNL     1     -13.758  -6.829  37.145  1.00  0.00     0.006 C 
BRANCH   3   4
ATOM      4  C   UNL     1     -12.892  -7.136  38.377  1.00  0.00     0.053 C 
BRANCH   4   5
ATOM      5  C   UNL     1     -11.691  -7.960  38.029  1.00  0.00     0.041 C 
ATOM      6  O   UNL     1     -10.591  -7.751  38.604  1.00  0.00    -0.550 OA
ATOM      7  O   UNL     1     -11.797  -8.983  37.094  1.00  0.00    -0.550 OA
ENDBRANCH   4   5
ENDBRANCH   3   4
ENDBRANCH   2   3
ENDBRANCH   1   2
BRANCH   1   8
ATOM      8  C   UNL     1     -17.036  -6.149  38.762  1.00  0.00     0.000 C 
BRANCH   8   9
ATOM      9  C   UNL     1     -17.618  -6.590  40.114  1.00  0.00     0.006 C 
BRANCH   9  10
ATOM     10  C   UNL     1     -16.588  -6.422  41.235  1.00  0.00     0.053 C 
BRANCH  10  11
ATOM     11  C   UNL     1     -17.140  -6.922  42.532  1.00  0.00     0.041 C 
ATOM     12  O   UNL     1     -17.560  -8.105  42.629  1.00  0.00    -0.550 OA
ATOM     13  O   UNL     1     -17.146  -6.096  43.649  1.00  0.00    -0.550 OA
ENDBRANCH  10  11
ENDBRANCH   9  10
ENDBRANCH   8   9
ENDBRANCH   1   8
TORSDOF 8
ENDMDL
MODEL 3
REMARK VINA RESULT:    -4.599      2.123      6.777
REMARK INTER + INTRA:          -7.102
REMARK INTER:                  -6.711
REMARK INTRA:                  -0.391
REMARK UNBOUND:                -0.352
REMARK SMILES O=C([O-])CCCCCCCC(=O)[O-]
REMARK SMILES IDX 7 1 6 2 5 3 4 4 2 5 1 6 3 7 8 8 9 9 10 10 11 11 12 12 13 13
REMARK H PARENT
REMARK Flexibility Score: inf
ROOT
ATOM      1  C   UNL     1     -13.124  -6.884  38.802  1.00  0.00     0.000 C 
ENDROOT
BRANCH   1   2
ATOM      2  C   UNL     1     -11.947  -7.876  38.754  1.00  0.00     0.000 C 
BRANCH   2   3
ATOM      3  C   UNL     1     -11.862  -8.633  37.416  1.00  0.00     0.006 C 
BRANCH   3   4
ATOM      4  C   UNL     1     -10.506  -9.313  37.163  1.00  0.00     0.053 C 
BRANCH   4   5
ATOM      5  C   UNL     1      -9.477  -8.347  36.663  1.00  0.00     0.041 C 
ATOM      6  O   UNL     1      -9.416  -8.063  35.439  1.00  0.00    -0.550 OA
ATOM      7  O   UNL     1      -8.608  -7.733  37.558  1.00  0.00    -0.550 OA
ENDBRANCH   4   5
ENDBRANCH   3   4
ENDBRANCH   2   3
ENDBRANCH   1   2
BRANCH   1   8
ATOM      8  C   UNL     1     -13.800  -6.704  37.435  1.00  0.00     0.000 C 
BRANCH   8   9
ATOM      9  C   UNL     1     -15.203  -6.088  37.547  1.00  0.00     0.006 C 
BRANCH   9  10
ATOM     10  C   UNL     1     -15.613  -5.924  39.014  1.00  0.00     0.053 C 
BRANCH  10  11
ATOM     11  C   UNL     1     -17.007  -6.424  39.227  1.00  0.00     0.041 C 
ATOM     12  O   UNL     1     -17.488  -7.303  38.466  1.00  0.00    -0.550 OA
ATOM     13  O   UNL     1     -17.758  -5.954  40.297  1.00  0.00    -0.550 OA
ENDBRANCH  10  11
ENDBRANCH   9  10
ENDBRANCH   8   9
ENDBRANCH   1   8
TORSDOF 8
ENDMDL
MODEL 4
REMARK VINA RESULT:    -4.592      1.924      3.102
REMARK INTER + INTRA:          -7.091
REMARK INTER:                  -6.731
REMARK INTRA:                  -0.360
REMARK UNBOUND:                -0.352
REMARK SMILES O=C([O-])CCCCCCCC(=O)[O-]
REMARK SMILES IDX 7 1 6 2 5 3 4 4 2 5 1 6 3 7 8 8 9 9 10 10 11 11 12 12 13 13
REMARK H PARENT
REMARK Flexibility Score: inf
ROOT
ATOM      1  C   UNL     1     -12.156  -8.095  37.444  1.00  0.00     0.000 C 
ENDROOT
BRANCH   1   2
ATOM      2  C   UNL     1     -13.302  -7.174  36.987  1.00  0.00     0.000 C 
BRANCH   2   3
ATOM      3  C   UNL     1     -14.054  -6.530  38.166  1.00  0.00     0.006 C 
BRANCH   3   4
ATOM      4  C   UNL     1     -15.452  -6.000  37.807  1.00  0.00     0.053 C 
BRANCH   4   5
ATOM      5  C   UNL     1     -16.464  -6.322  38.864  1.00  0.00     0.041 C 
ATOM      6  O   UNL     1     -16.432  -5.728  39.974  1.00  0.00    -0.550 OA
ATOM      7  O   UNL     1     -17.464  -7.253  38.609  1.00  0.00    -0.550 OA
ENDBRANCH   4   5
ENDBRANCH   3   4
ENDBRANCH   2   3
ENDBRANCH   1   2
BRANCH   1   8
ATOM      8  C   UNL     1     -11.863  -7.970  38.947  1.00  0.00     0.000 C 
BRANCH   8   9
ATOM      9  C   UNL     1     -10.767  -8.940  39.417  1.00  0.00     0.006 C 
BRANCH   9  10
ATOM     10  C   UNL     1     -10.346  -9.880  38.284  1.00  0.00     0.053 C 
BRANCH  10  11
ATOM     11  C   UNL     1      -8.871  -9.792  38.051  1.00  0.00     0.041 C 
ATOM     12  O   UNL     1      -8.152 -10.821  38.145  1.00  0.00    -0.550 OA
ATOM     13  O   UNL     1      -8.296  -8.582  37.682  1.00  0.00    -0.550 OA
ENDBRANCH  10  11
ENDBRANCH   9  10
ENDBRANCH   8   9
ENDBRANCH   1   8
TORSDOF 8
ENDMDL
MODEL 5
REMARK VINA RESULT:    -4.591      2.705      6.169
REMARK INTER + INTRA:          -7.090
REMARK INTER:                  -6.864
REMARK INTRA:                  -0.226
REMARK UNBOUND:                -0.352
REMARK SMILES O=C([O-])CCCCCCCC(=O)[O-]
REMARK SMILES IDX 7 1 6 2 5 3 4 4 2 5 1 6 3 7 8 8 9 9 10 10 11 11 12 12 13 13
REMARK H PARENT
REMARK Flexibility Score: inf
ROOT
ATOM      1  C   UNL     1     -17.740  -6.884  40.587  1.00  0.00     0.000 C 
ENDROOT
BRANCH   1   2
ATOM      2  C   UNL     1     -17.338  -5.798  39.572  1.00  0.00     0.000 C 
BRANCH   2   3
ATOM      3  C   UNL     1     -16.451  -6.344  38.437  1.00  0.00     0.006 C 
BRANCH   3   4
ATOM      4  C   UNL     1     -15.047  -5.721  38.381  1.00  0.00     0.053 C 
BRANCH   4   5
ATOM      5  C   UNL     1     -14.125  -6.494  37.489  1.00  0.00     0.041 C 
ATOM      6  O   UNL     1     -14.251  -6.429  36.238  1.00  0.00    -0.550 OA
ATOM      7  O   UNL     1     -13.102  -7.257  38.040  1.00  0.00    -0.550 OA
ENDBRANCH   4   5
ENDBRANCH   3   4
ENDBRANCH   2   3
ENDBRANCH   1   2
BRANCH   1   8
ATOM      8  C   UNL     1     -17.013  -6.733  41.932  1.00  0.00     0.000 C 
BRANCH   8   9
ATOM      9  C   UNL     1     -17.819  -7.309  43.106  1.00  0.00     0.006 C 
BRANCH   9  10
ATOM     10  C   UNL     1     -17.811  -8.841  43.077  1.00  0.00     0.053 C 
BRANCH  10  11
ATOM     11  C   UNL     1     -17.305  -9.386  44.375  1.00  0.00     0.041 C 
ATOM     12  O   UNL     1     -16.419 -10.280  44.385  1.00  0.00    -0.550 OA
ATOM     13  O   UNL     1     -17.778  -8.873  45.576  1.00  0.00    -0.550 OA
ENDBRANCH  10  11
ENDBRANCH   9  10
ENDBRANCH   8   9
ENDBRANCH   1   8
TORSDOF 8
ENDMDL
MODEL 6
REMARK VINA RESULT:    -4.521      1.953      2.707
REMARK INTER + INTRA:          -6.988
REMARK INTER:                  -6.710
REMARK INTRA:                  -0.278
REMARK UNBOUND:                -0.352
REMARK SMILES O=C([O-])CCCCCCCC(=O)[O-]
REMARK SMILES IDX 7 1 6 2 5 3 4 4 2 5 1 6 3 7 8 8 9 9 10 10 11 11 12 12 13 13
REMARK H PARENT
REMARK Flexibility Score: inf
ROOT
ATOM      1  C   UNL     1     -16.375  -5.971  39.629  1.00  0.00     0.000 C 
ENDROOT
BRANCH   1   2
ATOM      2  C   UNL     1     -17.853  -6.191  39.999  1.00  0.00     0.000 C 
BRANCH   2   3
ATOM      3  C   UNL     1     -18.039  -7.244  41.107  1.00  0.00     0.006 C 
BRANCH   3   4
ATOM      4  C   UNL     1     -17.131  -7.037  42.331  1.00  0.00     0.053 C 
BRANCH   4   5
ATOM      5  C   UNL     1     -17.459  -7.985  43.442  1.00  0.00     0.041 C 
ATOM      6  O   UNL     1     -17.528  -9.222  43.219  1.00  0.00    -0.550 OA
ATOM      7  O   UNL     1     -17.654  -7.505  44.731  1.00  0.00    -0.550 OA
ENDBRANCH   4   5
ENDBRANCH   3   4
ENDBRANCH   2   3
ENDBRANCH   1   2
BRANCH   1   8
ATOM      8  C   UNL     1     -16.088  -6.257  38.147  1.00  0.00     0.000 C 
BRANCH   8   9
ATOM      9  C   UNL     1     -14.717  -5.728  37.699  1.00  0.00     0.006 C 
BRANCH   9  10
ATOM     10  C   UNL     1     -14.000  -6.749  36.811  1.00  0.00     0.053 C 
BRANCH  10  11
ATOM     11  C   UNL     1     -12.876  -7.395  37.559  1.00  0.00     0.041 C 
ATOM     12  O   UNL     1     -12.024  -8.090  36.946  1.00  0.00    -0.550 OA
ATOM     13  O   UNL     1     -12.741  -7.189  38.926  1.00  0.00    -0.550 OA
ENDBRANCH  10  11
ENDBRANCH   9  10
ENDBRANCH   8   9
ENDBRANCH   1   8
TORSDOF 8
ENDMDL
MODEL 7
REMARK VINA RESULT:    -4.509      1.638      2.459
REMARK INTER + INTRA:          -6.969
REMARK INTER:                  -6.646
REMARK INTRA:                  -0.323
REMARK UNBOUND:                -0.352
REMARK SMILES O=C([O-])CCCCCCCC(=O)[O-]
REMARK SMILES IDX 7 1 6 2 5 3 4 4 2 5 1 6 3 7 8 8 9 9 10 10 11 11 12 12 13 13
REMARK H PARENT
REMARK Flexibility Score: inf
ROOT
ATOM      1  C   UNL     1     -12.940  -7.099  38.713  1.00  0.00     0.000 C 
ENDROOT
BRANCH   1   2
ATOM      2  C   UNL     1     -13.933  -6.090  39.317  1.00  0.00     0.000 C 
BRANCH   2   3
ATOM      3  C   UNL     1     -15.137  -5.817  38.396  1.00  0.00     0.006 C 
BRANCH   3   4
ATOM      4  C   UNL     1     -16.401  -5.347  39.134  1.00  0.00     0.053 C 
BRANCH   4   5
ATOM      5  C   UNL     1     -17.176  -6.494  39.707  1.00  0.00     0.041 C 
ATOM      6  O   UNL     1     -17.704  -7.345  38.945  1.00  0.00    -0.550 OA
ATOM      7  O   UNL     1     -17.283  -6.641  41.085  1.00  0.00    -0.550 OA
ENDBRANCH   4   5
ENDBRANCH   3   4
ENDBRANCH   2   3
ENDBRANCH   1   2
BRANCH   1   8
ATOM      8  C   UNL     1     -11.865  -7.542  39.718  1.00  0.00     0.000 C 
BRANCH   8   9
ATOM      9  C   UNL     1     -11.075  -8.768  39.234  1.00  0.00     0.006 C 
BRANCH   9  10
ATOM     10  C   UNL     1     -11.303  -9.012  37.740  1.00  0.00     0.053 C 
BRANCH  10  11
ATOM     11  C   UNL     1     -10.071  -8.677  36.960  1.00  0.00     0.041 C 
ATOM     12  O   UNL     1      -9.297  -7.768  37.358  1.00  0.00    -0.550 OA
ATOM     13  O   UNL     1      -9.751  -9.403  35.819  1.00  0.00    -0.550 OA
ENDBRANCH  10  11
ENDBRANCH   9  10
ENDBRANCH   8   9
ENDBRANCH   1   8
TORSDOF 8
ENDMDL
MODEL 8
REMARK VINA RESULT:    -4.427      2.450      3.882
REMARK INTER + INTRA:          -6.850
REMARK INTER:                  -6.508
REMARK INTRA:                  -0.342
REMARK UNBOUND:                -0.352
REMARK SMILES O=C([O-])CCCCCCCC(=O)[O-]
REMARK SMILES IDX 7 1 6 2 5 3 4 4 2 5 1 6 3 7 8 8 9 9 10 10 11 11 12 12 13 13
REMARK H PARENT
REMARK Flexibility Score: inf
ROOT
ATOM      1  C   UNL     1     -16.771  -6.448  40.779  1.00  0.00     0.000 C 
ENDROOT
BRANCH   1   2
ATOM      2  C   UNL     1     -18.085  -6.805  41.497  1.00  0.00     0.000 C 
BRANCH   2   3
ATOM      3  C   UNL     1     -17.980  -6.677  43.028  1.00  0.00     0.006 C 
BRANCH   3   4
ATOM      4  C   UNL     1     -16.870  -7.536  43.657  1.00  0.00     0.053 C 
BRANCH   4   5
ATOM      5  C   UNL     1     -17.389  -8.850  44.152  1.00  0.00     0.041 C 
ATOM      6  O   UNL     1     -17.405  -9.853  43.391  1.00  0.00    -0.550 OA
ATOM      7  O   UNL     1     -17.821  -8.977  45.467  1.00  0.00    -0.550 OA
ENDBRANCH   4   5
ENDBRANCH   3   4
ENDBRANCH   2   3
ENDBRANCH   1   2
BRANCH   1   8
ATOM      8  C   UNL     1     -17.006  -5.742  39.435  1.00  0.00     0.000 C 
BRANCH   8   9
ATOM      9  C   UNL     1     -16.376  -6.497  38.254  1.00  0.00     0.006 C 
BRANCH   9  10
ATOM     10  C   UNL     1     -15.140  -5.759  37.730  1.00  0.00     0.053 C 
BRANCH  10  11
ATOM     11  C   UNL     1     -13.897  -6.529  38.045  1.00  0.00     0.041 C 
ATOM     12  O   UNL     1     -13.448  -6.554  39.220  1.00  0.00    -0.550 OA
ATOM     13  O   UNL     1     -13.261  -7.261  37.049  1.00  0.00    -0.550 OA
ENDBRANCH  10  11
ENDBRANCH   9  10
ENDBRANCH   8   9
ENDBRANCH   1   8
TORSDOF 8
ENDMDL
MODEL 9
REMARK VINA RESULT:    -4.368      5.201      7.935
REMARK INTER + INTRA:          -6.764
REMARK INTER:                  -6.222
REMARK INTRA:                  -0.542
REMARK UNBOUND:                -0.352
REMARK SMILES O=C([O-])CCCCCCCC(=O)[O-]
REMARK SMILES IDX 7 1 6 2 5 3 4 4 2 5 1 6 3 7 8 8 9 9 10 10 11 11 12 12 13 13
REMARK H PARENT
REMARK Flexibility Score: inf
ROOT
ATOM      1  C   UNL     1     -17.047  -9.938  44.151  1.00  0.00     0.000 C 
ENDROOT
BRANCH   1   2
ATOM      2  C   UNL     1     -16.156 -10.991  44.835  1.00  0.00     0.000 C 
BRANCH   2   3
ATOM      3  C   UNL     1     -15.229 -10.383  45.904  1.00  0.00     0.006 C 
BRANCH   3   4
ATOM      4  C   UNL     1     -15.019 -11.276  47.137  1.00  0.00     0.053 C 
BRANCH   4   5
ATOM      5  C   UNL     1     -15.457 -10.602  48.401  1.00  0.00     0.041 C 
ATOM      6  O   UNL     1     -14.758 -10.693  49.443  1.00  0.00    -0.550 OA
ATOM      7  O   UNL     1     -16.621  -9.842  48.416  1.00  0.00    -0.550 OA
ENDBRANCH   4   5
ENDBRANCH   3   4
ENDBRANCH   2   3
ENDBRANCH   1   2
BRANCH   1   8
ATOM      8  C   UNL     1     -17.682  -8.961  45.153  1.00  0.00     0.000 C 
BRANCH   8   9
ATOM      9  C   UNL     1     -17.540  -7.494  44.718  1.00  0.00     0.006 C 
BRANCH   9  10
ATOM     10  C   UNL     1     -16.424  -7.337  43.681  1.00  0.00     0.053 C 
BRANCH  10  11
ATOM     11  C   UNL     1     -16.904  -6.535  42.513  1.00  0.00     0.041 C 
ATOM     12  O   UNL     1     -18.111  -6.187  42.436  1.00  0.00    -0.550 OA
ATOM     13  O   UNL     1     -16.008  -6.130  41.531  1.00  0.00    -0.550 OA
ENDBRANCH  10  11
ENDBRANCH   9  10
ENDBRANCH   8   9
ENDBRANCH   1   8
TORSDOF 8
ENDMDL
