MODEL 1
REMARK VINA RESULT:    -4.693      0.000      0.000
REMARK INTER + INTRA:          -5.353
REMARK INTER:                  -5.104
REMARK INTRA:                  -0.249
REMARK UNBOUND:                -0.249
REMARK SMILES O=C([O-])c1ccccc1O
REMARK SMILES IDX 4 1 9 2 5 3 8 4 6 5 7 6 2 7 1 8 3 9 10 10
REMARK H PARENT 10 11
REMARK Flexibility Score: inf
ROOT
ATOM      1  C   UNL     1      12.155 -15.659   7.508  1.00  0.00     0.039 A 
ATOM      2  C   UNL     1      12.152 -16.957   6.936  1.00  0.00     0.124 A 
ATOM      3  C   UNL     1      13.339 -15.181   8.100  1.00  0.00     0.014 A 
ATOM      4  C   UNL     1      13.334 -17.709   6.915  1.00  0.00     0.047 A 
ATOM      5  C   UNL     1      14.503 -15.951   8.089  1.00  0.00     0.001 A 
ATOM      6  C   UNL     1      14.504 -17.209   7.488  1.00  0.00     0.004 A 
ENDROOT
BRANCH   1   7
ATOM      7  C   UNL     1      10.974 -14.767   7.482  1.00  0.00     0.075 C 
ATOM      8  O   UNL     1       9.827 -15.204   7.758  1.00  0.00    -0.545 OA
ATOM      9  O   UNL     1      11.112 -13.443   7.080  1.00  0.00    -0.545 OA
ENDBRANCH   1   7
BRANCH   2  10
ATOM     10  O   UNL     1      10.999 -17.549   6.412  1.00  0.00    -0.507 OA
ATOM     11  H   UNL     1      10.076 -17.144   6.497  1.00  0.00     0.293 HD
ENDBRANCH   2  10
TORSDOF 2
ENDMDL
MODEL 2
REMARK VINA RESULT:    -4.659      0.956      2.173
REMARK INTER + INTRA:          -5.317
REMARK INTER:                  -5.065
REMARK INTRA:                  -0.251
REMARK UNBOUND:                -0.249
REMARK SMILES O=C([O-])c1ccccc1O
REMARK SMILES IDX 4 1 9 2 5 3 8 4 6 5 7 6 2 7 1 8 3 9 10 10
REMARK H PARENT 10 11
REMARK Flexibility Score: inf
ROOT
ATOM      1  C   UNL     1      12.186 -15.702   7.424  1.00  0.00     0.039 A 
ATOM      2  C   UNL     1      13.490 -15.263   7.770  1.00  0.00     0.124 A 
ATOM      3  C   UNL     1      12.002 -17.040   7.028  1.00  0.00     0.014 A 
ATOM      4  C   UNL     1      14.551 -16.178   7.771  1.00  0.00     0.047 A 
ATOM      5  C   UNL     1      13.074 -17.934   7.015  1.00  0.00     0.001 A 
ATOM      6  C   UNL     1      14.346 -17.506   7.396  1.00  0.00     0.004 A 
ENDROOT
BRANCH   1   7
ATOM      7  C   UNL     1      10.998 -14.821   7.493  1.00  0.00     0.075 C 
ATOM      8  O   UNL     1       9.880 -15.269   7.856  1.00  0.00    -0.545 OA
ATOM      9  O   UNL     1      11.093 -13.495   7.088  1.00  0.00    -0.545 OA
ENDBRANCH   1   7
BRANCH   2  10
ATOM     10  O   UNL     1      13.781 -13.933   8.082  1.00  0.00    -0.507 OA
ATOM     11  H   UNL     1      13.227 -13.150   7.763  1.00  0.00     0.293 HD
ENDBRANCH   2  10
TORSDOF 2
ENDMDL
MODEL 3
REMARK VINA RESULT:    -4.499      1.105      2.558
REMARK INTER + INTRA:          -5.143
REMARK INTER:                  -4.902
REMARK INTRA:                  -0.241
REMARK UNBOUND:                -0.249
REMARK SMILES O=C([O-])c1ccccc1O
REMARK SMILES IDX 4 1 9 2 5 3 8 4 6 5 7 6 2 7 1 8 3 9 10 10
REMARK H PARENT 10 11
REMARK Flexibility Score: inf
ROOT
ATOM      1  C   UNL     1      11.524 -15.848   7.731  1.00  0.00     0.039 A 
ATOM      2  C   UNL     1      11.844 -14.485   7.500  1.00  0.00     0.124 A 
ATOM      3  C   UNL     1      12.570 -16.764   7.948  1.00  0.00     0.014 A 
ATOM      4  C   UNL     1      13.180 -14.067   7.555  1.00  0.00     0.047 A 
ATOM      5  C   UNL     1      13.899 -16.335   7.979  1.00  0.00     0.001 A 
ATOM      6  C   UNL     1      14.203 -14.987   7.792  1.00  0.00     0.004 A 
ENDROOT
BRANCH   1   7
ATOM      7  C   UNL     1      10.132 -16.348   7.787  1.00  0.00     0.075 C 
ATOM      8  O   UNL     1       9.770 -17.335   7.096  1.00  0.00    -0.545 OA
ATOM      9  O   UNL     1       9.186 -15.681   8.558  1.00  0.00    -0.545 OA
ENDBRANCH   1   7
BRANCH   2  10
ATOM     10  O   UNL     1      10.878 -13.526   7.182  1.00  0.00    -0.507 OA
ATOM     11  H   UNL     1      10.840 -13.046   6.294  1.00  0.00     0.293 HD
ENDBRANCH   2  10
TORSDOF 2
ENDMDL
MODEL 4
REMARK VINA RESULT:    -4.428      2.106      3.553
REMARK INTER + INTRA:          -5.065
REMARK INTER:                  -4.835
REMARK INTRA:                  -0.230
REMARK UNBOUND:                -0.249
REMARK SMILES O=C([O-])c1ccccc1O
REMARK SMILES IDX 4 1 9 2 5 3 8 4 6 5 7 6 2 7 1 8 3 9 10 10
REMARK H PARENT 10 11
REMARK Flexibility Score: inf
ROOT
ATOM      1  C   UNL     1      11.698 -15.706   8.197  1.00  0.00     0.039 A 
ATOM      2  C   UNL     1      10.685 -15.016   7.483  1.00  0.00     0.124 A 
ATOM      3  C   UNL     1      11.466 -17.038   8.589  1.00  0.00     0.014 A 
ATOM      4  C   UNL     1       9.507 -15.686   7.129  1.00  0.00     0.047 A 
ATOM      5  C   UNL     1      10.277 -17.685   8.246  1.00  0.00     0.001 A 
ATOM      6  C   UNL     1       9.302 -17.013   7.509  1.00  0.00     0.004 A 
ENDROOT
BRANCH   1   7
ATOM      7  C   UNL     1      13.008 -15.098   8.521  1.00  0.00     0.075 C 
ATOM      8  O   UNL     1      13.705 -15.531   9.474  1.00  0.00    -0.545 OA
ATOM      9  O   UNL     1      13.453 -13.988   7.811  1.00  0.00    -0.545 OA
ENDBRANCH   1   7
BRANCH   2  10
ATOM     10  O   UNL     1      10.791 -13.666   7.137  1.00  0.00    -0.507 OA
ATOM     11  H   UNL     1      10.220 -12.939   7.546  1.00  0.00     0.293 HD
ENDBRANCH   2  10
TORSDOF 2
ENDMDL
MODEL 5
REMARK VINA RESULT:    -4.398      1.319      1.871
REMARK INTER + INTRA:          -5.033
REMARK INTER:                  -4.793
REMARK INTRA:                  -0.240
REMARK UNBOUND:                -0.249
REMARK SMILES O=C([O-])c1ccccc1O
REMARK SMILES IDX 4 1 9 2 5 3 8 4 6 5 7 6 2 7 1 8 3 9 10 10
REMARK H PARENT 10 11
REMARK Flexibility Score: inf
ROOT
ATOM      1  C   UNL     1      11.733 -16.401   7.653  1.00  0.00     0.039 A 
ATOM      2  C   UNL     1      12.690 -16.968   6.772  1.00  0.00     0.124 A 
ATOM      3  C   UNL     1      12.184 -15.625   8.737  1.00  0.00     0.014 A 
ATOM      4  C   UNL     1      14.051 -16.695   6.958  1.00  0.00     0.047 A 
ATOM      5  C   UNL     1      13.546 -15.378   8.920  1.00  0.00     0.001 A 
ATOM      6  C   UNL     1      14.478 -15.905   8.026  1.00  0.00     0.004 A 
ENDROOT
BRANCH   1   7
ATOM      7  C   UNL     1      10.274 -16.563   7.465  1.00  0.00     0.075 C 
ATOM      8  O   UNL     1       9.467 -15.696   7.890  1.00  0.00    -0.545 OA
ATOM      9  O   UNL     1       9.774 -17.717   6.873  1.00  0.00    -0.545 OA
ENDBRANCH   1   7
BRANCH   2  10
ATOM     10  O   UNL     1      12.339 -17.828   5.728  1.00  0.00    -0.507 OA
ATOM     11  H   UNL     1      12.420 -17.583   4.751  1.00  0.00     0.293 HD
ENDBRANCH   2  10
TORSDOF 2
ENDMDL
MODEL 6
REMARK VINA RESULT:    -4.220      2.323      3.482
REMARK INTER + INTRA:          -4.840
REMARK INTER:                  -4.621
REMARK INTRA:                  -0.219
REMARK UNBOUND:                -0.249
REMARK SMILES O=C([O-])c1ccccc1O
REMARK SMILES IDX 4 1 9 2 5 3 8 4 6 5 7 6 2 7 1 8 3 9 10 10
REMARK H PARENT 10 11
REMARK Flexibility Score: inf
ROOT
ATOM      1  C   UNL     1      12.363 -15.575   8.023  1.00  0.00     0.039 A 
ATOM      2  C   UNL     1      12.019 -16.858   8.522  1.00  0.00     0.124 A 
ATOM      3  C   UNL     1      11.349 -14.761   7.484  1.00  0.00     0.014 A 
ATOM      4  C   UNL     1      10.678 -17.264   8.525  1.00  0.00     0.047 A 
ATOM      5  C   UNL     1      10.020 -15.189   7.476  1.00  0.00     0.001 A 
ATOM      6  C   UNL     1       9.683 -16.435   8.005  1.00  0.00     0.004 A 
ENDROOT
BRANCH   1   7
ATOM      7  C   UNL     1      13.741 -15.037   8.076  1.00  0.00     0.075 C 
ATOM      8  O   UNL     1      13.966 -13.814   7.883  1.00  0.00    -0.545 OA
ATOM      9  O   UNL     1      14.816 -15.897   8.271  1.00  0.00    -0.545 OA
ENDBRANCH   1   7
BRANCH   2  10
ATOM     10  O   UNL     1      12.972 -17.768   8.987  1.00  0.00    -0.507 OA
ATOM     11  H   UNL     1      12.875 -18.286   9.849  1.00  0.00     0.293 HD
ENDBRANCH   2  10
TORSDOF 2
ENDMDL
MODEL 7
REMARK VINA RESULT:    -4.160      2.069      3.959
REMARK INTER + INTRA:          -4.774
REMARK INTER:                  -4.522
REMARK INTRA:                  -0.252
REMARK UNBOUND:                -0.249
REMARK SMILES O=C([O-])c1ccccc1O
REMARK SMILES IDX 4 1 9 2 5 3 8 4 6 5 7 6 2 7 1 8 3 9 10 10
REMARK H PARENT 10 11
REMARK Flexibility Score: inf
ROOT
ATOM      1  C   UNL     1      12.308 -16.543   7.357  1.00  0.00     0.039 A 
ATOM      2  C   UNL     1      11.824 -15.220   7.527  1.00  0.00     0.124 A 
ATOM      3  C   UNL     1      11.382 -17.594   7.223  1.00  0.00     0.014 A 
ATOM      4  C   UNL     1      10.444 -14.978   7.496  1.00  0.00     0.047 A 
ATOM      5  C   UNL     1      10.009 -17.337   7.214  1.00  0.00     0.001 A 
ATOM      6  C   UNL     1       9.541 -16.030   7.341  1.00  0.00     0.004 A 
ENDROOT
BRANCH   1   7
ATOM      7  C   UNL     1      13.751 -16.866   7.279  1.00  0.00     0.075 C 
ATOM      8  O   UNL     1      14.176 -17.740   6.482  1.00  0.00    -0.545 OA
ATOM      9  O   UNL     1      14.647 -16.249   8.144  1.00  0.00    -0.545 OA
ENDBRANCH   1   7
BRANCH   2  10
ATOM     10  O   UNL     1      12.668 -14.131   7.762  1.00  0.00    -0.507 OA
ATOM     11  H   UNL     1      12.424 -13.177   7.534  1.00  0.00     0.293 HD
ENDBRANCH   2  10
TORSDOF 2
ENDMDL
MODEL 8
REMARK VINA RESULT:    -4.055      1.853      2.786
REMARK INTER + INTRA:          -4.660
REMARK INTER:                  -4.407
REMARK INTRA:                  -0.253
REMARK UNBOUND:                -0.249
REMARK SMILES O=C([O-])c1ccccc1O
REMARK SMILES IDX 4 1 9 2 5 3 8 4 6 5 7 6 2 7 1 8 3 9 10 10
REMARK H PARENT 10 11
REMARK Flexibility Score: inf
ROOT
ATOM      1  C   UNL     1      11.606 -15.421   7.430  1.00  0.00     0.039 A 
ATOM      2  C   UNL     1      12.380 -16.546   7.042  1.00  0.00     0.124 A 
ATOM      3  C   UNL     1      10.268 -15.618   7.818  1.00  0.00     0.014 A 
ATOM      4  C   UNL     1      11.821 -17.828   7.110  1.00  0.00     0.047 A 
ATOM      5  C   UNL     1       9.720 -16.902   7.860  1.00  0.00     0.001 A 
ATOM      6  C   UNL     1      10.498 -18.007   7.516  1.00  0.00     0.004 A 
ENDROOT
BRANCH   1   7
ATOM      7  C   UNL     1      12.156 -14.048   7.480  1.00  0.00     0.075 C 
ATOM      8  O   UNL     1      11.471 -13.063   7.102  1.00  0.00    -0.545 OA
ATOM      9  O   UNL     1      13.470 -13.840   7.883  1.00  0.00    -0.545 OA
ENDBRANCH   1   7
BRANCH   2  10
ATOM     10  O   UNL     1      13.684 -16.433   6.553  1.00  0.00    -0.507 OA
ATOM     11  H   UNL     1      14.469 -16.140   7.119  1.00  0.00     0.293 HD
ENDBRANCH   2  10
TORSDOF 2
ENDMDL
MODEL 9
REMARK VINA RESULT:    -3.975      1.852      2.869
REMARK INTER + INTRA:          -4.573
REMARK INTER:                  -4.324
REMARK INTRA:                  -0.249
REMARK UNBOUND:                -0.249
REMARK SMILES O=C([O-])c1ccccc1O
REMARK SMILES IDX 4 1 9 2 5 3 8 4 6 5 7 6 2 7 1 8 3 9 10 10
REMARK H PARENT 10 11
REMARK Flexibility Score: inf
ROOT
ATOM      1  C   UNL     1      11.640 -17.261   7.588  1.00  0.00     0.039 A 
ATOM      2  C   UNL     1      12.191 -16.462   8.624  1.00  0.00     0.124 A 
ATOM      3  C   UNL     1      12.445 -17.587   6.481  1.00  0.00     0.014 A 
ATOM      4  C   UNL     1      13.534 -16.069   8.556  1.00  0.00     0.047 A 
ATOM      5  C   UNL     1      13.776 -17.170   6.419  1.00  0.00     0.001 A 
ATOM      6  C   UNL     1      14.323 -16.420   7.459  1.00  0.00     0.004 A 
ENDROOT
BRANCH   1   7
ATOM      7  C   UNL     1      10.261 -17.797   7.635  1.00  0.00     0.075 C 
ATOM      8  O   UNL     1       9.732 -18.125   8.729  1.00  0.00    -0.545 OA
ATOM      9  O   UNL     1       9.557 -18.009   6.456  1.00  0.00    -0.545 OA
ENDBRANCH   1   7
BRANCH   2  10
ATOM     10  O   UNL     1      11.439 -16.012   9.711  1.00  0.00    -0.507 OA
ATOM     11  H   UNL     1      10.428 -16.028   9.736  1.00  0.00     0.293 HD
ENDBRANCH   2  10
TORSDOF 2
ENDMDL
