MODEL 1
REMARK VINA RESULT:    68.633      0.000      0.000
REMARK INTER + INTRA:          92.860
REMARK INTER:                  92.707
REMARK INTRA:                   0.153
REMARK UNBOUND:                 0.153
REMARK SMILES CC[C@@H](CC[C@H](C)[C@@H]1CC[C@H]2[C@H]3CC(=O)C4=CC(=O)CC[C@@]4(C)[C@@H]3CC[C@]21C)C(C)C
REMARK SMILES IDX 4 1 3 2 2 3 1 4 29 5 30 6 31 7 5 8 6 9 7 10 8 11 9 12 27 13
REMARK SMILES IDX 10 14 11 15 26 16 28 17 12 18 25 19 24 20 13 21 22 22 14 23
REMARK SMILES IDX 16 24 21 25 23 26 15 27 17 28 20 29 18 30 19 31
REMARK H PARENT
REMARK Flexibility Score: inf
ROOT
ATOM      1  C   UNL     1     -14.716  27.635 -13.462  1.00  0.00     0.004 C 
ENDROOT
BRANCH   1   2
ATOM      2  C   UNL     1     -14.303  29.132 -13.601  1.00  0.00    -0.009 C 
BRANCH   2   3
ATOM      3  C   UNL     1     -15.339  30.032 -14.340  1.00  0.00     0.000 C 
ATOM      4  C   UNL     1     -16.111  29.378 -15.488  1.00  0.00     0.004 C 
ENDBRANCH   2   3
BRANCH   2   5
ATOM      5  C   UNL     1     -12.799  29.377 -13.979  1.00  0.00    -0.014 C 
ATOM      6  C   UNL     1     -11.876  29.172 -12.765  1.00  0.00     0.007 C 
ATOM      7  C   UNL     1     -12.510  30.754 -14.604  1.00  0.00     0.007 C 
ENDBRANCH   2   5
ENDBRANCH   1   2
BRANCH   1   8
ATOM      8  C   UNL     1     -14.698  27.051 -12.028  1.00  0.00     0.004 C 
BRANCH   8   9
ATOM      9  C   UNL     1     -16.068  26.994 -11.268  1.00  0.00    -0.011 C 
ATOM     10  C   UNL     1     -15.984  26.329  -9.879  1.00  0.00     0.008 C 
BRANCH   9  11
ATOM     11  C   UNL     1     -17.264  26.390 -12.097  1.00  0.00    -0.002 C 
ATOM     12  C   UNL     1     -17.136  26.635 -13.615  1.00  0.00     0.005 C 
ATOM     13  C   UNL     1     -18.735  26.810 -11.713  1.00  0.00    -0.026 C 
ATOM     14  C   UNL     1     -18.459  27.220 -14.100  1.00  0.00     0.005 C 
ATOM     15  C   UNL     1     -19.169  27.758 -12.854  1.00  0.00    -0.001 C 
ATOM     16  C   UNL     1     -19.622  25.523 -11.725  1.00  0.00     0.007 C 
ATOM     17  C   UNL     1     -18.860  27.507 -10.333  1.00  0.00     0.012 C 
ATOM     18  C   UNL     1     -20.711  27.971 -12.994  1.00  0.00     0.004 C 
ATOM     19  C   UNL     1     -21.125  25.804 -11.750  1.00  0.00     0.005 C 
ATOM     20  C   UNL     1     -21.529  26.646 -12.984  1.00  0.00     0.003 C 
ATOM     21  C   UNL     1     -21.023  28.815 -14.243  1.00  0.00     0.085 C 
ATOM     22  C   UNL     1     -23.095  26.877 -13.083  1.00  0.00    -0.000 C 
ATOM     23  C   UNL     1     -22.490  29.022 -14.413  1.00  0.00     0.159 C 
ATOM     24  C   UNL     1     -23.415  27.895 -14.186  1.00  0.00     0.005 C 
ATOM     25  C   UNL     1     -23.790  25.518 -13.423  1.00  0.00     0.020 C 
ATOM     26  C   UNL     1     -23.679  27.434 -11.757  1.00  0.00     0.017 C 
ATOM     27  O   UNL     1     -22.915  30.131 -14.836  1.00  0.00    -0.295 OA
ATOM     28  C   UNL     1     -24.571  27.849 -14.874  1.00  0.00     0.055 C 
ATOM     29  C   UNL     1     -25.289  25.661 -13.715  1.00  0.00     0.081 C 
ATOM     30  C   UNL     1     -25.542  26.760 -14.696  1.00  0.00     0.156 C 
ATOM     31  O   UNL     1     -26.617  26.772 -15.353  1.00  0.00    -0.295 OA
ENDBRANCH   9  11
ENDBRANCH   8   9
ENDBRANCH   1   8
TORSDOF 6
ENDMDL
MODEL 2
REMARK VINA RESULT:    69.381      0.559      1.384
REMARK INTER + INTRA:          93.870
REMARK INTER:                  92.145
REMARK INTRA:                   1.725
REMARK UNBOUND:                 0.153
REMARK SMILES CC[C@@H](CC[C@H](C)[C@@H]1CC[C@H]2[C@H]3CC(=O)C4=CC(=O)CC[C@@]4(C)[C@@H]3CC[C@]21C)C(C)C
REMARK SMILES IDX 4 1 3 2 2 3 1 4 29 5 30 6 31 7 5 8 6 9 7 10 8 11 9 12 27 13
REMARK SMILES IDX 10 14 11 15 26 16 28 17 12 18 25 19 24 20 13 21 22 22 14 23
REMARK SMILES IDX 16 24 21 25 23 26 15 27 17 28 20 29 18 30 19 31
REMARK H PARENT
REMARK Flexibility Score: inf
ROOT
ATOM      1  C   UNL     1     -14.710  27.594 -13.570  1.00  0.00     0.004 C 
ENDROOT
BRANCH   1   2
ATOM      2  C   UNL     1     -13.648  28.606 -14.097  1.00  0.00    -0.009 C 
BRANCH   2   3
ATOM      3  C   UNL     1     -12.345  28.691 -13.247  1.00  0.00     0.000 C 
ATOM      4  C   UNL     1     -11.875  30.095 -12.860  1.00  0.00     0.004 C 
ENDBRANCH   2   3
BRANCH   2   5
ATOM      5  C   UNL     1     -14.225  29.979 -14.595  1.00  0.00    -0.014 C 
ATOM      6  C   UNL     1     -13.097  30.957 -14.972  1.00  0.00     0.007 C 
ATOM      7  C   UNL     1     -15.180  30.671 -13.606  1.00  0.00     0.007 C 
ENDBRANCH   2   5
ENDBRANCH   1   2
BRANCH   1   8
ATOM      8  C   UNL     1     -14.581  27.179 -12.084  1.00  0.00     0.004 C 
BRANCH   8   9
ATOM      9  C   UNL     1     -15.913  27.016 -11.275  1.00  0.00    -0.011 C 
ATOM     10  C   UNL     1     -15.740  26.285  -9.927  1.00  0.00     0.008 C 
BRANCH   9  11
ATOM     11  C   UNL     1     -17.114  26.399 -12.086  1.00  0.00    -0.002 C 
ATOM     12  C   UNL     1     -17.004  26.634 -13.608  1.00  0.00     0.005 C 
ATOM     13  C   UNL     1     -18.584  26.811 -11.690  1.00  0.00    -0.026 C 
ATOM     14  C   UNL     1     -18.336  27.207 -14.082  1.00  0.00     0.005 C 
ATOM     15  C   UNL     1     -19.036  27.749 -12.832  1.00  0.00    -0.001 C 
ATOM     16  C   UNL     1     -19.462  25.519 -11.683  1.00  0.00     0.007 C 
ATOM     17  C   UNL     1     -18.698  27.517 -10.313  1.00  0.00     0.012 C 
ATOM     18  C   UNL     1     -20.581  27.950 -12.957  1.00  0.00     0.004 C 
ATOM     19  C   UNL     1     -20.967  25.788 -11.694  1.00  0.00     0.005 C 
ATOM     20  C   UNL     1     -21.390  26.619 -12.929  1.00  0.00     0.003 C 
ATOM     21  C   UNL     1     -20.912  28.784 -14.208  1.00  0.00     0.085 C 
ATOM     22  C   UNL     1     -22.959  26.839 -13.013  1.00  0.00    -0.000 C 
ATOM     23  C   UNL     1     -22.382  28.979 -14.364  1.00  0.00     0.159 C 
ATOM     24  C   UNL     1     -23.297  27.848 -14.119  1.00  0.00     0.005 C 
ATOM     25  C   UNL     1     -23.647  25.473 -13.336  1.00  0.00     0.020 C 
ATOM     26  C   UNL     1     -23.532  27.401 -11.684  1.00  0.00     0.017 C 
ATOM     27  O   UNL     1     -22.819  30.083 -14.790  1.00  0.00    -0.295 OA
ATOM     28  C   UNL     1     -24.460  27.789 -14.795  1.00  0.00     0.055 C 
ATOM     29  C   UNL     1     -25.150  25.604 -13.613  1.00  0.00     0.081 C 
ATOM     30  C   UNL     1     -25.421  26.695 -14.599  1.00  0.00     0.156 C 
ATOM     31  O   UNL     1     -26.503  26.695 -15.245  1.00  0.00    -0.295 OA
ENDBRANCH   9  11
ENDBRANCH   8   9
ENDBRANCH   1   8
TORSDOF 6
ENDMDL
MODEL 3
REMARK VINA RESULT:    69.533      2.054      3.984
REMARK INTER + INTRA:          94.075
REMARK INTER:                  93.462
REMARK INTRA:                   0.614
REMARK UNBOUND:                 0.153
REMARK SMILES CC[C@@H](CC[C@H](C)[C@@H]1CC[C@H]2[C@H]3CC(=O)C4=CC(=O)CC[C@@]4(C)[C@@H]3CC[C@]21C)C(C)C
REMARK SMILES IDX 4 1 3 2 2 3 1 4 29 5 30 6 31 7 5 8 6 9 7 10 8 11 9 12 27 13
REMARK SMILES IDX 10 14 11 15 26 16 28 17 12 18 25 19 24 20 13 21 22 22 14 23
REMARK SMILES IDX 16 24 21 25 23 26 15 27 17 28 20 29 18 30 19 31
REMARK H PARENT
REMARK Flexibility Score: inf
ROOT
ATOM      1  C   UNL     1     -12.234  30.433 -13.608  1.00  0.00     0.004 C 
ENDROOT
BRANCH   1   2
ATOM      2  C   UNL     1     -12.218  31.363 -14.858  1.00  0.00    -0.009 C 
BRANCH   2   3
ATOM      3  C   UNL     1     -12.513  32.865 -14.562  1.00  0.00     0.000 C 
ATOM      4  C   UNL     1     -11.875  33.447 -13.299  1.00  0.00     0.004 C 
ENDBRANCH   2   3
BRANCH   2   5
ATOM      5  C   UNL     1     -12.915  30.774 -16.137  1.00  0.00    -0.014 C 
ATOM      6  C   UNL     1     -11.878  30.327 -17.183  1.00  0.00     0.007 C 
ATOM      7  C   UNL     1     -13.930  31.717 -16.807  1.00  0.00     0.007 C 
ENDBRANCH   2   5
ENDBRANCH   1   2
BRANCH   1   8
ATOM      8  C   UNL     1     -12.091  28.915 -13.883  1.00  0.00     0.004 C 
BRANCH   8   9
ATOM      9  C   UNL     1     -13.144  27.971 -13.208  1.00  0.00    -0.011 C 
ATOM     10  C   UNL     1     -12.849  26.469 -13.399  1.00  0.00     0.008 C 
BRANCH   9  11
ATOM     11  C   UNL     1     -14.647  28.286 -13.563  1.00  0.00    -0.002 C 
ATOM     12  C   UNL     1     -15.157  29.600 -12.935  1.00  0.00     0.005 C 
ATOM     13  C   UNL     1     -15.742  27.198 -13.242  1.00  0.00    -0.026 C 
ATOM     14  C   UNL     1     -16.474  29.290 -12.230  1.00  0.00     0.005 C 
ATOM     15  C   UNL     1     -16.503  27.773 -12.026  1.00  0.00    -0.001 C 
ATOM     16  C   UNL     1     -16.701  27.102 -14.472  1.00  0.00     0.007 C 
ATOM     17  C   UNL     1     -15.170  25.791 -12.926  1.00  0.00     0.012 C 
ATOM     18  C   UNL     1     -17.914  27.153 -11.769  1.00  0.00     0.004 C 
ATOM     19  C   UNL     1     -18.019  26.384 -14.180  1.00  0.00     0.005 C 
ATOM     20  C   UNL     1     -18.807  27.077 -13.042  1.00  0.00     0.003 C 
ATOM     21  C   UNL     1     -18.626  27.899 -10.626  1.00  0.00     0.085 C 
ATOM     22  C   UNL     1     -20.220  26.407 -12.777  1.00  0.00    -0.000 C 
ATOM     23  C   UNL     1     -19.984  27.340 -10.367  1.00  0.00     0.159 C 
ATOM     24  C   UNL     1     -20.853  26.984 -11.504  1.00  0.00     0.005 C 
ATOM     25  C   UNL     1     -21.158  26.697 -13.994  1.00  0.00     0.020 C 
ATOM     26  C   UNL     1     -20.098  24.872 -12.577  1.00  0.00     0.017 C 
ATOM     27  O   UNL     1     -20.407  27.262  -9.182  1.00  0.00    -0.295 OA
ATOM     28  C   UNL     1     -22.189  27.070 -11.358  1.00  0.00     0.055 C 
ATOM     29  C   UNL     1     -22.604  26.243 -13.765  1.00  0.00     0.081 C 
ATOM     30  C   UNL     1     -23.116  26.727 -12.446  1.00  0.00     0.156 C 
ATOM     31  O   UNL     1     -24.358  26.809 -12.253  1.00  0.00    -0.295 OA
ENDBRANCH   9  11
ENDBRANCH   8   9
ENDBRANCH   1   8
TORSDOF 6
ENDMDL
