MODEL 1
REMARK VINA RESULT:    -4.619      0.000      0.000
REMARK INTER + INTRA:         -15.970
REMARK INTER:                 -12.180
REMARK INTRA:                  -3.789
REMARK UNBOUND:                -3.789
REMARK SMILES CCCCCCCCCCCCCCCCCCCCCCCCCCCCCC(=O)[O-]
REMARK SMILES IDX 16 1 17 2 18 3 19 4 20 5 21 6 22 7 23 8 24 9 25 10 26 11
REMARK SMILES IDX 27 12 28 13 29 14 30 15 31 16 32 17 15 18 14 19 13 20 12 21
REMARK SMILES IDX 11 22 10 23 9 24 8 25 7 26 6 27 5 28 4 29 3 30 2 31 1 32
REMARK H PARENT
REMARK Flexibility Score: inf
ROOT
ATOM      1  C   UNL     1       3.698  43.599   9.047  1.00  0.00     0.000 C 
ENDROOT
BRANCH   1   2
ATOM      2  C   UNL     1       2.305  42.975   8.872  1.00  0.00     0.000 C 
BRANCH   2   3
ATOM      3  C   UNL     1       1.186  44.031   8.861  1.00  0.00     0.000 C 
BRANCH   3   4
ATOM      4  C   UNL     1       0.368  44.013   7.561  1.00  0.00     0.000 C 
BRANCH   4   5
ATOM      5  C   UNL     1      -0.483  45.282   7.375  1.00  0.00     0.000 C 
BRANCH   5   6
ATOM      6  C   UNL     1      -0.509  46.169   8.631  1.00  0.00     0.000 C 
BRANCH   6   7
ATOM      7  C   UNL     1      -0.007  47.598   8.356  1.00  0.00     0.000 C 
BRANCH   7   8
ATOM      8  C   UNL     1       1.379  47.612   7.693  1.00  0.00     0.000 C 
BRANCH   8   9
ATOM      9  C   UNL     1       2.240  48.803   8.150  1.00  0.00     0.000 C 
BRANCH   9  10
ATOM     10  C   UNL     1       2.470  48.818   9.672  1.00  0.00     0.000 C 
BRANCH  10  11
ATOM     11  C   UNL     1       2.800  50.204  10.266  1.00  0.00     0.000 C 
BRANCH  11  12
ATOM     12  C   UNL     1       4.161  50.786   9.843  1.00  0.00     0.000 C 
BRANCH  12  13
ATOM     13  C   UNL     1       5.346  50.086  10.530  1.00  0.00     0.006 C 
BRANCH  13  14
ATOM     14  C   UNL     1       6.478  49.759   9.546  1.00  0.00     0.053 C 
BRANCH  14  15
ATOM     15  C   UNL     1       6.529  48.301   9.207  1.00  0.00     0.041 C 
ATOM     16  O   UNL     1       5.588  47.765   8.562  1.00  0.00    -0.550 OA
ATOM     17  O   UNL     1       7.619  47.532   9.601  1.00  0.00    -0.550 OA
ENDBRANCH  14  15
ENDBRANCH  13  14
ENDBRANCH  12  13
ENDBRANCH  11  12
ENDBRANCH  10  11
ENDBRANCH   9  10
ENDBRANCH   8   9
ENDBRANCH   7   8
ENDBRANCH   6   7
ENDBRANCH   5   6
ENDBRANCH   4   5
ENDBRANCH   3   4
ENDBRANCH   2   3
ENDBRANCH   1   2
BRANCH   1  18
ATOM     18  C   UNL     1       3.643  45.123   9.241  1.00  0.00     0.000 C 
BRANCH  18  19
ATOM     19  C   UNL     1       3.823  45.545  10.710  1.00  0.00     0.000 C 
BRANCH  19  20
ATOM     20  C   UNL     1       4.448  44.447  11.597  1.00  0.00     0.000 C 
BRANCH  20  21
ATOM     21  C   UNL     1       3.511  44.013  12.738  1.00  0.00     0.000 C 
BRANCH  21  22
ATOM     22  C   UNL     1       2.044  43.887  12.295  1.00  0.00     0.000 C 
BRANCH  22  23
ATOM     23  C   UNL     1       1.456  42.465  12.380  1.00  0.00     0.000 C 
BRANCH  23  24
ATOM     24  C   UNL     1       0.052  42.375  13.011  1.00  0.00    -0.000 C 
BRANCH  24  25
ATOM     25  C   UNL     1      -0.023  41.578  14.329  1.00  0.00    -0.000 C 
BRANCH  25  26
ATOM     26  C   UNL     1      -0.761  40.232  14.230  1.00  0.00    -0.000 C 
BRANCH  26  27
ATOM     27  C   UNL     1      -0.105  39.262  13.233  1.00  0.00    -0.000 C 
BRANCH  27  28
ATOM     28  C   UNL     1       1.348  38.927  13.606  1.00  0.00    -0.000 C 
BRANCH  28  29
ATOM     29  C   UNL     1       2.335  39.220  12.462  1.00  0.00    -0.000 C 
BRANCH  29  30
ATOM     30  C   UNL     1       3.667  38.460  12.636  1.00  0.00    -0.000 C 
BRANCH  30  31
ATOM     31  C   UNL     1       4.773  39.298  13.298  1.00  0.00    -0.003 C 
ATOM     32  C   UNL     1       4.813  40.740  12.794  1.00  0.00     0.004 C 
ENDBRANCH  30  31
ENDBRANCH  29  30
ENDBRANCH  28  29
ENDBRANCH  27  28
ENDBRANCH  26  27
ENDBRANCH  25  26
ENDBRANCH  24  25
ENDBRANCH  23  24
ENDBRANCH  22  23
ENDBRANCH  21  22
ENDBRANCH  20  21
ENDBRANCH  19  20
ENDBRANCH  18  19
ENDBRANCH   1  18
TORSDOF 28
ENDMDL
MODEL 2
REMARK VINA RESULT:    -4.578      2.363      8.648
REMARK INTER + INTRA:         -15.862
REMARK INTER:                 -11.634
REMARK INTRA:                  -4.228
REMARK UNBOUND:                -3.789
REMARK SMILES CCCCCCCCCCCCCCCCCCCCCCCCCCCCCC(=O)[O-]
REMARK SMILES IDX 16 1 17 2 18 3 19 4 20 5 21 6 22 7 23 8 24 9 25 10 26 11
REMARK SMILES IDX 27 12 28 13 29 14 30 15 31 16 32 17 15 18 14 19 13 20 12 21
REMARK SMILES IDX 11 22 10 23 9 24 8 25 7 26 6 27 5 28 4 29 3 30 2 31 1 32
REMARK H PARENT
REMARK Flexibility Score: inf
ROOT
ATOM      1  C   UNL     1       3.642  46.723   9.738  1.00  0.00     0.000 C 
ENDROOT
BRANCH   1   2
ATOM      2  C   UNL     1       4.477  46.003  10.808  1.00  0.00     0.000 C 
BRANCH   2   3
ATOM      3  C   UNL     1       3.790  44.728  11.329  1.00  0.00     0.000 C 
BRANCH   3   4
ATOM      4  C   UNL     1       3.697  43.628  10.260  1.00  0.00     0.000 C 
BRANCH   4   5
ATOM      5  C   UNL     1       2.417  42.782  10.386  1.00  0.00     0.000 C 
BRANCH   5   6
ATOM      6  C   UNL     1       1.428  43.352  11.416  1.00  0.00     0.000 C 
BRANCH   6   7
ATOM      7  C   UNL     1       1.339  42.491  12.688  1.00  0.00     0.000 C 
BRANCH   7   8
ATOM      8  C   UNL     1      -0.112  42.256  13.134  1.00  0.00     0.000 C 
BRANCH   8   9
ATOM      9  C   UNL     1      -0.205  41.535  14.491  1.00  0.00     0.000 C 
BRANCH   9  10
ATOM     10  C   UNL     1      -0.673  40.074  14.354  1.00  0.00     0.000 C 
BRANCH  10  11
ATOM     11  C   UNL     1      -0.022  39.288  13.197  1.00  0.00     0.000 C 
BRANCH  11  12
ATOM     12  C   UNL     1       1.408  38.789  13.473  1.00  0.00     0.000 C 
BRANCH  12  13
ATOM     13  C   UNL     1       2.410  39.230  12.391  1.00  0.00     0.006 C 
BRANCH  13  14
ATOM     14  C   UNL     1       3.836  38.746  12.688  1.00  0.00     0.053 C 
BRANCH  14  15
ATOM     15  C   UNL     1       4.736  39.865  13.114  1.00  0.00     0.041 C 
ATOM     16  O   UNL     1       5.543  39.703  14.068  1.00  0.00    -0.550 OA
ATOM     17  O   UNL     1       4.685  41.088  12.454  1.00  0.00    -0.550 OA
ENDBRANCH  14  15
ENDBRANCH  13  14
ENDBRANCH  12  13
ENDBRANCH  11  12
ENDBRANCH  10  11
ENDBRANCH   9  10
ENDBRANCH   8   9
ENDBRANCH   7   8
ENDBRANCH   6   7
ENDBRANCH   5   6
ENDBRANCH   4   5
ENDBRANCH   3   4
ENDBRANCH   2   3
ENDBRANCH   1   2
BRANCH   1  18
ATOM     18  C   UNL     1       4.510  47.358   8.639  1.00  0.00     0.000 C 
BRANCH  18  19
ATOM     19  C   UNL     1       6.001  47.415   9.015  1.00  0.00     0.000 C 
BRANCH  19  20
ATOM     20  C   UNL     1       6.560  48.851   9.118  1.00  0.00     0.000 C 
BRANCH  20  21
ATOM     21  C   UNL     1       5.930  49.642  10.278  1.00  0.00     0.000 C 
BRANCH  21  22
ATOM     22  C   UNL     1       5.265  50.951   9.821  1.00  0.00     0.000 C 
BRANCH  22  23
ATOM     23  C   UNL     1       5.021  51.064   8.303  1.00  0.00     0.000 C 
BRANCH  23  24
ATOM     24  C   UNL     1       3.553  50.898   7.864  1.00  0.00    -0.000 C 
BRANCH  24  25
ATOM     25  C   UNL     1       2.530  50.823   9.016  1.00  0.00    -0.000 C 
BRANCH  25  26
ATOM     26  C   UNL     1       1.728  49.512   9.083  1.00  0.00    -0.000 C 
BRANCH  26  27
ATOM     27  C   UNL     1       1.186  49.072   7.712  1.00  0.00    -0.000 C 
BRANCH  27  28
ATOM     28  C   UNL     1       0.114  47.977   7.826  1.00  0.00    -0.000 C 
BRANCH  28  29
ATOM     29  C   UNL     1      -0.038  47.444   9.262  1.00  0.00    -0.000 C 
BRANCH  29  30
ATOM     30  C   UNL     1      -0.106  45.902   9.305  1.00  0.00    -0.000 C 
BRANCH  30  31
ATOM     31  C   UNL     1       0.746  45.218   8.222  1.00  0.00    -0.003 C 
ATOM     32  C   UNL     1      -0.071  44.308   7.307  1.00  0.00     0.004 C 
ENDBRANCH  30  31
ENDBRANCH  29  30
ENDBRANCH  28  29
ENDBRANCH  27  28
ENDBRANCH  26  27
ENDBRANCH  25  26
ENDBRANCH  24  25
ENDBRANCH  23  24
ENDBRANCH  22  23
ENDBRANCH  21  22
ENDBRANCH  20  21
ENDBRANCH  19  20
ENDBRANCH  18  19
ENDBRANCH   1  18
TORSDOF 28
ENDMDL
MODEL 3
REMARK VINA RESULT:    -4.572      2.072      4.630
REMARK INTER + INTRA:         -15.846
REMARK INTER:                 -12.085
REMARK INTRA:                  -3.761
REMARK UNBOUND:                -3.789
REMARK SMILES CCCCCCCCCCCCCCCCCCCCCCCCCCCCCC(=O)[O-]
REMARK SMILES IDX 16 1 17 2 18 3 19 4 20 5 21 6 22 7 23 8 24 9 25 10 26 11
REMARK SMILES IDX 27 12 28 13 29 14 30 15 31 16 32 17 15 18 14 19 13 20 12 21
REMARK SMILES IDX 11 22 10 23 9 24 8 25 7 26 6 27 5 28 4 29 3 30 2 31 1 32
REMARK H PARENT
REMARK Flexibility Score: inf
ROOT
ATOM      1  C   UNL     1       3.974  46.797  10.506  1.00  0.00     0.000 C 
ENDROOT
BRANCH   1   2
ATOM      2  C   UNL     1       5.351  46.643   9.841  1.00  0.00     0.000 C 
BRANCH   2   3
ATOM      3  C   UNL     1       5.586  47.683   8.732  1.00  0.00     0.000 C 
BRANCH   3   4
ATOM      4  C   UNL     1       6.794  48.589   9.018  1.00  0.00     0.000 C 
BRANCH   4   5
ATOM      5  C   UNL     1       6.406  50.073   9.150  1.00  0.00     0.000 C 
BRANCH   5   6
ATOM      6  C   UNL     1       5.666  50.379  10.463  1.00  0.00     0.000 C 
BRANCH   6   7
ATOM      7  C   UNL     1       4.138  50.408  10.286  1.00  0.00     0.000 C 
BRANCH   7   8
ATOM      8  C   UNL     1       3.721  50.872   8.882  1.00  0.00     0.000 C 
BRANCH   8   9
ATOM      9  C   UNL     1       2.209  50.727   8.636  1.00  0.00     0.000 C 
BRANCH   9  10
ATOM     10  C   UNL     1       1.698  49.300   8.910  1.00  0.00     0.000 C 
BRANCH  10  11
ATOM     11  C   UNL     1       2.038  48.267   7.815  1.00  0.00     0.000 C 
BRANCH  11  12
ATOM     12  C   UNL     1       0.880  47.333   7.419  1.00  0.00     0.000 C 
BRANCH  12  13
ATOM     13  C   UNL     1       0.120  46.780   8.637  1.00  0.00     0.006 C 
BRANCH  13  14
ATOM     14  C   UNL     1      -0.872  45.674   8.250  1.00  0.00     0.053 C 
BRANCH  14  15
ATOM     15  C   UNL     1      -0.250  44.644   7.357  1.00  0.00     0.041 C 
ATOM     16  O   UNL     1       0.628  43.860   7.806  1.00  0.00    -0.550 OA
ATOM     17  O   UNL     1      -0.644  44.547   6.027  1.00  0.00    -0.550 OA
ENDBRANCH  14  15
ENDBRANCH  13  14
ENDBRANCH  12  13
ENDBRANCH  11  12
ENDBRANCH  10  11
ENDBRANCH   9  10
ENDBRANCH   8   9
ENDBRANCH   7   8
ENDBRANCH   6   7
ENDBRANCH   5   6
ENDBRANCH   4   5
ENDBRANCH   3   4
ENDBRANCH   2   3
ENDBRANCH   1   2
BRANCH   1  18
ATOM     18  C   UNL     1       3.031  45.625  10.191  1.00  0.00     0.000 C 
BRANCH  18  19
ATOM     19  C   UNL     1       3.733  44.478   9.443  1.00  0.00     0.000 C 
BRANCH  19  20
ATOM     20  C   UNL     1       3.801  43.163  10.249  1.00  0.00     0.000 C 
BRANCH  20  21
ATOM     21  C   UNL     1       2.412  42.535  10.462  1.00  0.00     0.000 C 
BRANCH  21  22
ATOM     22  C   UNL     1       2.022  42.429  11.946  1.00  0.00     0.000 C 
BRANCH  22  23
ATOM     23  C   UNL     1       0.773  43.235  12.352  1.00  0.00     0.000 C 
BRANCH  23  24
ATOM     24  C   UNL     1      -0.354  42.409  13.003  1.00  0.00    -0.000 C 
BRANCH  24  25
ATOM     25  C   UNL     1       0.029  41.703  14.320  1.00  0.00    -0.000 C 
BRANCH  25  26
ATOM     26  C   UNL     1      -0.455  40.247  14.436  1.00  0.00    -0.000 C 
BRANCH  26  27
ATOM     27  C   UNL     1       0.168  39.323  13.376  1.00  0.00    -0.000 C 
BRANCH  27  28
ATOM     28  C   UNL     1       1.704  39.339  13.409  1.00  0.00    -0.000 C 
BRANCH  28  29
ATOM     29  C   UNL     1       2.324  38.160  12.637  1.00  0.00    -0.000 C 
BRANCH  29  30
ATOM     30  C   UNL     1       3.796  38.426  12.256  1.00  0.00    -0.000 C 
BRANCH  30  31
ATOM     31  C   UNL     1       4.553  39.284  13.284  1.00  0.00    -0.003 C 
ATOM     32  C   UNL     1       4.968  40.647  12.734  1.00  0.00     0.004 C 
ENDBRANCH  30  31
ENDBRANCH  29  30
ENDBRANCH  28  29
ENDBRANCH  27  28
ENDBRANCH  26  27
ENDBRANCH  25  26
ENDBRANCH  24  25
ENDBRANCH  23  24
ENDBRANCH  22  23
ENDBRANCH  21  22
ENDBRANCH  20  21
ENDBRANCH  19  20
ENDBRANCH  18  19
ENDBRANCH   1  18
TORSDOF 28
ENDMDL
MODEL 4
REMARK VINA RESULT:    -4.453      1.149      1.885
REMARK INTER + INTRA:         -15.532
REMARK INTER:                 -11.621
REMARK INTRA:                  -3.911
REMARK UNBOUND:                -3.789
REMARK SMILES CCCCCCCCCCCCCCCCCCCCCCCCCCCCCC(=O)[O-]
REMARK SMILES IDX 16 1 17 2 18 3 19 4 20 5 21 6 22 7 23 8 24 9 25 10 26 11
REMARK SMILES IDX 27 12 28 13 29 14 30 15 31 16 32 17 15 18 14 19 13 20 12 21
REMARK SMILES IDX 11 22 10 23 9 24 8 25 7 26 6 27 5 28 4 29 3 30 2 31 1 32
REMARK H PARENT
REMARK Flexibility Score: inf
ROOT
ATOM      1  C   UNL     1       2.492  46.730  10.024  1.00  0.00     0.000 C 
ENDROOT
BRANCH   1   2
ATOM      2  C   UNL     1       1.217  46.094  10.601  1.00  0.00     0.000 C 
BRANCH   2   3
ATOM      3  C   UNL     1       0.124  45.899   9.535  1.00  0.00     0.000 C 
BRANCH   3   4
ATOM      4  C   UNL     1       0.700  45.762   8.117  1.00  0.00     0.000 C 
BRANCH   4   5
ATOM      5  C   UNL     1       0.156  46.827   7.148  1.00  0.00     0.000 C 
BRANCH   5   6
ATOM      6  C   UNL     1      -1.077  47.560   7.702  1.00  0.00     0.000 C 
BRANCH   6   7
ATOM      7  C   UNL     1      -0.809  49.052   7.964  1.00  0.00     0.000 C 
BRANCH   7   8
ATOM      8  C   UNL     1       0.565  49.499   7.441  1.00  0.00     0.000 C 
BRANCH   8   9
ATOM      9  C   UNL     1       1.600  49.668   8.568  1.00  0.00     0.000 C 
BRANCH   9  10
ATOM     10  C   UNL     1       3.024  49.904   8.032  1.00  0.00     0.000 C 
BRANCH  10  11
ATOM     11  C   UNL     1       3.910  50.805   8.918  1.00  0.00     0.000 C 
BRANCH  11  12
ATOM     12  C   UNL     1       4.294  50.204  10.282  1.00  0.00     0.000 C 
BRANCH  12  13
ATOM     13  C   UNL     1       5.817  50.134  10.492  1.00  0.00     0.006 C 
BRANCH  13  14
ATOM     14  C   UNL     1       6.558  49.685   9.225  1.00  0.00     0.053 C 
BRANCH  14  15
ATOM     15  C   UNL     1       6.624  48.193   9.108  1.00  0.00     0.041 C 
ATOM     16  O   UNL     1       5.663  47.551   8.606  1.00  0.00    -0.550 OA
ATOM     17  O   UNL     1       7.752  47.509   9.551  1.00  0.00    -0.550 OA
ENDBRANCH  14  15
ENDBRANCH  13  14
ENDBRANCH  12  13
ENDBRANCH  11  12
ENDBRANCH  10  11
ENDBRANCH   9  10
ENDBRANCH   8   9
ENDBRANCH   7   8
ENDBRANCH   6   7
ENDBRANCH   5   6
ENDBRANCH   4   5
ENDBRANCH   3   4
ENDBRANCH   2   3
ENDBRANCH   1   2
BRANCH   1  18
ATOM     18  C   UNL     1       3.745  46.388  10.846  1.00  0.00     0.000 C 
BRANCH  18  19
ATOM     19  C   UNL     1       4.225  44.943  10.629  1.00  0.00     0.000 C 
BRANCH  19  20
ATOM     20  C   UNL     1       4.235  44.508   9.148  1.00  0.00     0.000 C 
BRANCH  20  21
ATOM     21  C   UNL     1       3.643  43.102   8.947  1.00  0.00     0.000 C 
BRANCH  21  22
ATOM     22  C   UNL     1       2.337  42.883   9.728  1.00  0.00     0.000 C 
BRANCH  22  23
ATOM     23  C   UNL     1       2.503  42.197  11.099  1.00  0.00     0.000 C 
BRANCH  23  24
ATOM     24  C   UNL     1       1.895  42.962  12.290  1.00  0.00    -0.000 C 
BRANCH  24  25
ATOM     25  C   UNL     1       0.385  42.735  12.512  1.00  0.00    -0.000 C 
BRANCH  25  26
ATOM     26  C   UNL     1       0.040  41.645  13.540  1.00  0.00    -0.000 C 
BRANCH  26  27
ATOM     27  C   UNL     1       1.162  40.607  13.712  1.00  0.00    -0.000 C 
BRANCH  27  28
ATOM     28  C   UNL     1       0.711  39.184  13.350  1.00  0.00    -0.000 C 
BRANCH  28  29
ATOM     29  C   UNL     1       1.889  38.267  12.979  1.00  0.00    -0.000 C 
BRANCH  29  30
ATOM     30  C   UNL     1       3.007  39.029  12.236  1.00  0.00    -0.000 C 
BRANCH  30  31
ATOM     31  C   UNL     1       4.374  38.957  12.938  1.00  0.00    -0.003 C 
ATOM     32  C   UNL     1       4.979  40.333  13.210  1.00  0.00     0.004 C 
ENDBRANCH  30  31
ENDBRANCH  29  30
ENDBRANCH  28  29
ENDBRANCH  27  28
ENDBRANCH  26  27
ENDBRANCH  25  26
ENDBRANCH  24  25
ENDBRANCH  23  24
ENDBRANCH  22  23
ENDBRANCH  21  22
ENDBRANCH  20  21
ENDBRANCH  19  20
ENDBRANCH  18  19
ENDBRANCH   1  18
TORSDOF 28
ENDMDL
MODEL 5
REMARK VINA RESULT:    -4.436      2.553      8.432
REMARK INTER + INTRA:         -15.487
REMARK INTER:                 -11.752
REMARK INTRA:                  -3.735
REMARK UNBOUND:                -3.789
REMARK SMILES CCCCCCCCCCCCCCCCCCCCCCCCCCCCCC(=O)[O-]
REMARK SMILES IDX 16 1 17 2 18 3 19 4 20 5 21 6 22 7 23 8 24 9 25 10 26 11
REMARK SMILES IDX 27 12 28 13 29 14 30 15 31 16 32 17 15 18 14 19 13 20 12 21
REMARK SMILES IDX 11 22 10 23 9 24 8 25 7 26 6 27 5 28 4 29 3 30 2 31 1 32
REMARK H PARENT
REMARK Flexibility Score: inf
ROOT
ATOM      1  C   UNL     1       6.512  48.361   9.039  1.00  0.00     0.000 C 
ENDROOT
BRANCH   1   2
ATOM      2  C   UNL     1       5.609  47.329   9.733  1.00  0.00     0.000 C 
BRANCH   2   3
ATOM      3  C   UNL     1       4.439  46.878   8.840  1.00  0.00     0.000 C 
BRANCH   3   4
ATOM      4  C   UNL     1       3.540  45.838   9.525  1.00  0.00     0.000 C 
BRANCH   4   5
ATOM      5  C   UNL     1       4.062  44.399   9.362  1.00  0.00     0.000 C 
BRANCH   5   6
ATOM      6  C   UNL     1       3.986  43.588  10.665  1.00  0.00     0.000 C 
BRANCH   6   7
ATOM      7  C   UNL     1       2.625  42.894  10.850  1.00  0.00     0.000 C 
BRANCH   7   8
ATOM      8  C   UNL     1       1.891  43.375  12.111  1.00  0.00     0.000 C 
BRANCH   8   9
ATOM      9  C   UNL     1       0.832  42.370  12.599  1.00  0.00     0.000 C 
BRANCH   9  10
ATOM     10  C   UNL     1       1.392  41.373  13.631  1.00  0.00     0.000 C 
BRANCH  10  11
ATOM     11  C   UNL     1       0.599  40.056  13.758  1.00  0.00     0.000 C 
BRANCH  11  12
ATOM     12  C   UNL     1       1.243  38.839  13.070  1.00  0.00     0.000 C 
BRANCH  12  13
ATOM     13  C   UNL     1       2.535  39.198  12.317  1.00  0.00     0.006 C 
BRANCH  13  14
ATOM     14  C   UNL     1       3.791  38.703  13.048  1.00  0.00     0.053 C 
BRANCH  14  15
ATOM     15  C   UNL     1       4.809  39.789  13.219  1.00  0.00     0.041 C 
ATOM     16  O   UNL     1       4.880  40.731  12.386  1.00  0.00    -0.550 OA
ATOM     17  O   UNL     1       5.679  39.763  14.305  1.00  0.00    -0.550 OA
ENDBRANCH  14  15
ENDBRANCH  13  14
ENDBRANCH  12  13
ENDBRANCH  11  12
ENDBRANCH  10  11
ENDBRANCH   9  10
ENDBRANCH   8   9
ENDBRANCH   7   8
ENDBRANCH   6   7
ENDBRANCH   5   6
ENDBRANCH   4   5
ENDBRANCH   3   4
ENDBRANCH   2   3
ENDBRANCH   1   2
BRANCH   1  18
ATOM     18  C   UNL     1       6.363  49.770   9.634  1.00  0.00     0.000 C 
BRANCH  18  19
ATOM     19  C   UNL     1       5.053  49.951  10.420  1.00  0.00     0.000 C 
BRANCH  19  20
ATOM     20  C   UNL     1       4.083  50.969   9.783  1.00  0.00     0.000 C 
BRANCH  20  21
ATOM     21  C   UNL     1       4.221  51.028   8.251  1.00  0.00     0.000 C 
BRANCH  21  22
ATOM     22  C   UNL     1       3.243  50.090   7.524  1.00  0.00     0.000 C 
BRANCH  22  23
ATOM     23  C   UNL     1       1.838  49.997   8.152  1.00  0.00     0.000 C 
BRANCH  23  24
ATOM     24  C   UNL     1       0.762  50.868   7.476  1.00  0.00    -0.000 C 
BRANCH  24  25
ATOM     25  C   UNL     1      -0.569  50.147   7.174  1.00  0.00    -0.000 C 
BRANCH  25  26
ATOM     26  C   UNL     1      -0.813  48.870   7.995  1.00  0.00    -0.000 C 
BRANCH  26  27
ATOM     27  C   UNL     1      -0.693  47.587   7.155  1.00  0.00    -0.000 C 
BRANCH  27  28
ATOM     28  C   UNL     1       0.501  46.716   7.573  1.00  0.00    -0.000 C 
BRANCH  28  29
ATOM     29  C   UNL     1       0.113  45.242   7.785  1.00  0.00    -0.000 C 
BRANCH  29  30
ATOM     30  C   UNL     1       0.060  44.865   9.281  1.00  0.00    -0.000 C 
BRANCH  30  31
ATOM     31  C   UNL     1      -0.527  45.971  10.174  1.00  0.00    -0.003 C 
ATOM     32  C   UNL     1      -0.993  45.455  11.535  1.00  0.00     0.004 C 
ENDBRANCH  30  31
ENDBRANCH  29  30
ENDBRANCH  28  29
ENDBRANCH  27  28
ENDBRANCH  26  27
ENDBRANCH  25  26
ENDBRANCH  24  25
ENDBRANCH  23  24
ENDBRANCH  22  23
ENDBRANCH  21  22
ENDBRANCH  20  21
ENDBRANCH  19  20
ENDBRANCH  18  19
ENDBRANCH   1  18
TORSDOF 28
ENDMDL
MODEL 6
REMARK VINA RESULT:    -4.364      2.153      8.379
REMARK INTER + INTRA:         -15.298
REMARK INTER:                 -11.594
REMARK INTRA:                  -3.704
REMARK UNBOUND:                -3.789
REMARK SMILES CCCCCCCCCCCCCCCCCCCCCCCCCCCCCC(=O)[O-]
REMARK SMILES IDX 16 1 17 2 18 3 19 4 20 5 21 6 22 7 23 8 24 9 25 10 26 11
REMARK SMILES IDX 27 12 28 13 29 14 30 15 31 16 32 17 15 18 14 19 13 20 12 21
REMARK SMILES IDX 11 22 10 23 9 24 8 25 7 26 6 27 5 28 4 29 3 30 2 31 1 32
REMARK H PARENT
REMARK Flexibility Score: inf
ROOT
ATOM      1  C   UNL     1       4.041  43.192  11.321  1.00  0.00     0.000 C 
ENDROOT
BRANCH   1   2
ATOM      2  C   UNL     1       3.790  42.069  12.341  1.00  0.00     0.000 C 
BRANCH   2   3
ATOM      3  C   UNL     1       4.873  40.977  12.289  1.00  0.00     0.000 C 
BRANCH   3   4
ATOM      4  C   UNL     1       4.685  39.906  13.375  1.00  0.00     0.000 C 
BRANCH   4   5
ATOM      5  C   UNL     1       3.934  38.664  12.862  1.00  0.00     0.000 C 
BRANCH   5   6
ATOM      6  C   UNL     1       2.590  39.014  12.201  1.00  0.00     0.000 C 
BRANCH   6   7
ATOM      7  C   UNL     1       1.402  38.881  13.170  1.00  0.00     0.000 C 
BRANCH   7   8
ATOM      8  C   UNL     1       1.119  40.187  13.928  1.00  0.00     0.000 C 
BRANCH   8   9
ATOM      9  C   UNL     1      -0.372  40.568  13.914  1.00  0.00     0.000 C 
BRANCH   9  10
ATOM     10  C   UNL     1      -0.603  42.042  13.534  1.00  0.00     0.000 C 
BRANCH  10  11
ATOM     11  C   UNL     1       0.488  42.660  12.635  1.00  0.00     0.000 C 
BRANCH  11  12
ATOM     12  C   UNL     1       0.118  44.011  11.997  1.00  0.00     0.000 C 
BRANCH  12  13
ATOM     13  C   UNL     1       0.759  44.209  10.612  1.00  0.00     0.006 C 
BRANCH  13  14
ATOM     14  C   UNL     1       0.351  45.541   9.968  1.00  0.00     0.053 C 
BRANCH  14  15
ATOM     15  C   UNL     1       0.137  45.412   8.491  1.00  0.00     0.041 C 
ATOM     16  O   UNL     1       0.320  44.306   7.916  1.00  0.00    -0.550 OA
ATOM     17  O   UNL     1      -0.271  46.515   7.748  1.00  0.00    -0.550 OA
ENDBRANCH  14  15
ENDBRANCH  13  14
ENDBRANCH  12  13
ENDBRANCH  11  12
ENDBRANCH  10  11
ENDBRANCH   9  10
ENDBRANCH   8   9
ENDBRANCH   7   8
ENDBRANCH   6   7
ENDBRANCH   5   6
ENDBRANCH   4   5
ENDBRANCH   3   4
ENDBRANCH   2   3
ENDBRANCH   1   2
BRANCH   1  18
ATOM     18  C   UNL     1       4.165  44.573  11.984  1.00  0.00     0.000 C 
BRANCH  18  19
ATOM     19  C   UNL     1       3.969  45.732  10.990  1.00  0.00     0.000 C 
BRANCH  19  20
ATOM     20  C   UNL     1       4.033  45.297   9.511  1.00  0.00     0.000 C 
BRANCH  20  21
ATOM     21  C   UNL     1       4.456  46.448   8.581  1.00  0.00     0.000 C 
BRANCH  21  22
ATOM     22  C   UNL     1       3.270  47.309   8.114  1.00  0.00     0.000 C 
BRANCH  22  23
ATOM     23  C   UNL     1       3.637  48.473   7.172  1.00  0.00     0.000 C 
BRANCH  23  24
ATOM     24  C   UNL     1       2.623  49.632   7.139  1.00  0.00    -0.000 C 
BRANCH  24  25
ATOM     25  C   UNL     1       1.773  49.794   8.417  1.00  0.00    -0.000 C 
BRANCH  25  26
ATOM     26  C   UNL     1       2.529  50.368   9.627  1.00  0.00    -0.000 C 
BRANCH  26  27
ATOM     27  C   UNL     1       2.925  49.291  10.651  1.00  0.00    -0.000 C 
BRANCH  27  28
ATOM     28  C   UNL     1       4.379  49.435  11.126  1.00  0.00    -0.000 C 
BRANCH  28  29
ATOM     29  C   UNL     1       5.178  50.447  10.285  1.00  0.00    -0.000 C 
BRANCH  29  30
ATOM     30  C   UNL     1       6.627  49.976  10.033  1.00  0.00    -0.000 C 
BRANCH  30  31
ATOM     31  C   UNL     1       6.738  48.869   8.971  1.00  0.00    -0.003 C 
ATOM     32  C   UNL     1       7.488  47.636   9.470  1.00  0.00     0.004 C 
ENDBRANCH  30  31
ENDBRANCH  29  30
ENDBRANCH  28  29
ENDBRANCH  27  28
ENDBRANCH  26  27
ENDBRANCH  25  26
ENDBRANCH  24  25
ENDBRANCH  23  24
ENDBRANCH  22  23
ENDBRANCH  21  22
ENDBRANCH  20  21
ENDBRANCH  19  20
ENDBRANCH  18  19
ENDBRANCH   1  18
TORSDOF 28
ENDMDL
MODEL 7
REMARK VINA RESULT:    -4.338      1.389      2.666
REMARK INTER + INTRA:         -15.229
REMARK INTER:                 -11.523
REMARK INTRA:                  -3.706
REMARK UNBOUND:                -3.789
REMARK SMILES CCCCCCCCCCCCCCCCCCCCCCCCCCCCCC(=O)[O-]
REMARK SMILES IDX 16 1 17 2 18 3 19 4 20 5 21 6 22 7 23 8 24 9 25 10 26 11
REMARK SMILES IDX 27 12 28 13 29 14 30 15 31 16 32 17 15 18 14 19 13 20 12 21
REMARK SMILES IDX 11 22 10 23 9 24 8 25 7 26 6 27 5 28 4 29 3 30 2 31 1 32
REMARK H PARENT
REMARK Flexibility Score: inf
ROOT
ATOM      1  C   UNL     1       0.721  44.055   8.415  1.00  0.00     0.000 C 
ENDROOT
BRANCH   1   2
ATOM      2  C   UNL     1      -0.104  45.332   8.188  1.00  0.00     0.000 C 
BRANCH   2   3
ATOM      3  C   UNL     1      -0.092  46.264   9.412  1.00  0.00     0.000 C 
BRANCH   3   4
ATOM      4  C   UNL     1      -0.059  47.750   9.024  1.00  0.00     0.000 C 
BRANCH   4   5
ATOM      5  C   UNL     1       0.989  48.059   7.941  1.00  0.00     0.000 C 
BRANCH   5   6
ATOM      6  C   UNL     1       1.374  49.547   7.894  1.00  0.00     0.000 C 
BRANCH   6   7
ATOM      7  C   UNL     1       2.716  49.789   7.181  1.00  0.00     0.000 C 
BRANCH   7   8
ATOM      8  C   UNL     1       3.451  51.024   7.723  1.00  0.00     0.000 C 
BRANCH   8   9
ATOM      9  C   UNL     1       3.485  51.065   9.261  1.00  0.00     0.000 C 
BRANCH   9  10
ATOM     10  C   UNL     1       4.870  50.707   9.832  1.00  0.00     0.000 C 
BRANCH  10  11
ATOM     11  C   UNL     1       5.811  49.980   8.848  1.00  0.00     0.000 C 
BRANCH  11  12
ATOM     12  C   UNL     1       6.747  48.941   9.490  1.00  0.00     0.000 C 
BRANCH  12  13
ATOM     13  C   UNL     1       6.366  47.495   9.129  1.00  0.00     0.006 C 
BRANCH  13  14
ATOM     14  C   UNL     1       4.855  47.329   8.913  1.00  0.00     0.053 C 
BRANCH  14  15
ATOM     15  C   UNL     1       4.132  47.022  10.189  1.00  0.00     0.041 C 
ATOM     16  O   UNL     1       3.168  47.741  10.563  1.00  0.00    -0.550 OA
ATOM     17  O   UNL     1       4.523  45.935  10.965  1.00  0.00    -0.550 OA
ENDBRANCH  14  15
ENDBRANCH  13  14
ENDBRANCH  12  13
ENDBRANCH  11  12
ENDBRANCH  10  11
ENDBRANCH   9  10
ENDBRANCH   8   9
ENDBRANCH   7   8
ENDBRANCH   6   7
ENDBRANCH   5   6
ENDBRANCH   4   5
ENDBRANCH   3   4
ENDBRANCH   2   3
ENDBRANCH   1   2
BRANCH   1  18
ATOM     18  C   UNL     1       2.107  44.346   9.012  1.00  0.00     0.000 C 
BRANCH  18  19
ATOM     19  C   UNL     1       2.983  43.087   9.129  1.00  0.00     0.000 C 
BRANCH  19  20
ATOM     20  C   UNL     1       2.708  42.256  10.400  1.00  0.00     0.000 C 
BRANCH  20  21
ATOM     21  C   UNL     1       3.151  42.984  11.682  1.00  0.00     0.000 C 
BRANCH  21  22
ATOM     22  C   UNL     1       1.983  43.281  12.637  1.00  0.00     0.000 C 
BRANCH  22  23
ATOM     23  C   UNL     1       0.587  43.281  11.982  1.00  0.00     0.000 C 
BRANCH  23  24
ATOM     24  C   UNL     1      -0.596  43.358  12.967  1.00  0.00    -0.000 C 
BRANCH  24  25
ATOM     25  C   UNL     1      -1.079  41.999  13.516  1.00  0.00    -0.000 C 
BRANCH  25  26
ATOM     26  C   UNL     1      -0.141  41.348  14.546  1.00  0.00    -0.000 C 
BRANCH  26  27
ATOM     27  C   UNL     1       0.279  39.921  14.155  1.00  0.00    -0.000 C 
BRANCH  27  28
ATOM     28  C   UNL     1       1.450  39.903  13.160  1.00  0.00    -0.000 C 
BRANCH  28  29
ATOM     29  C   UNL     1       1.926  38.477  12.832  1.00  0.00    -0.000 C 
BRANCH  29  30
ATOM     30  C   UNL     1       3.415  38.440  12.429  1.00  0.00    -0.000 C 
BRANCH  30  31
ATOM     31  C   UNL     1       4.182  39.724  12.789  1.00  0.00    -0.003 C 
ATOM     32  C   UNL     1       5.193  39.520  13.916  1.00  0.00     0.004 C 
ENDBRANCH  30  31
ENDBRANCH  29  30
ENDBRANCH  28  29
ENDBRANCH  27  28
ENDBRANCH  26  27
ENDBRANCH  25  26
ENDBRANCH  24  25
ENDBRANCH  23  24
ENDBRANCH  22  23
ENDBRANCH  21  22
ENDBRANCH  20  21
ENDBRANCH  19  20
ENDBRANCH  18  19
ENDBRANCH   1  18
TORSDOF 28
ENDMDL
MODEL 8
REMARK VINA RESULT:    -4.269      1.131      2.834
REMARK INTER + INTRA:         -15.045
REMARK INTER:                 -11.273
REMARK INTRA:                  -3.772
REMARK UNBOUND:                -3.789
REMARK SMILES CCCCCCCCCCCCCCCCCCCCCCCCCCCCCC(=O)[O-]
REMARK SMILES IDX 16 1 17 2 18 3 19 4 20 5 21 6 22 7 23 8 24 9 25 10 26 11
REMARK SMILES IDX 27 12 28 13 29 14 30 15 31 16 32 17 15 18 14 19 13 20 12 21
REMARK SMILES IDX 11 22 10 23 9 24 8 25 7 26 6 27 5 28 4 29 3 30 2 31 1 32
REMARK H PARENT
REMARK Flexibility Score: inf
ROOT
ATOM      1  C   UNL     1       1.435  43.825   9.685  1.00  0.00     0.000 C 
ENDROOT
BRANCH   1   2
ATOM      2  C   UNL     1       1.054  43.631   8.208  1.00  0.00     0.000 C 
BRANCH   2   3
ATOM      3  C   UNL     1      -0.340  44.194   7.883  1.00  0.00     0.000 C 
BRANCH   3   4
ATOM      4  C   UNL     1      -0.436  44.747   6.452  1.00  0.00     0.000 C 
BRANCH   4   5
ATOM      5  C   UNL     1      -0.762  46.251   6.416  1.00  0.00     0.000 C 
BRANCH   5   6
ATOM      6  C   UNL     1       0.217  47.092   7.253  1.00  0.00     0.000 C 
BRANCH   6   7
ATOM      7  C   UNL     1      -0.451  48.329   7.877  1.00  0.00     0.000 C 
BRANCH   7   8
ATOM      8  C   UNL     1       0.405  49.595   7.723  1.00  0.00     0.000 C 
BRANCH   8   9
ATOM      9  C   UNL     1       1.892  49.278   7.485  1.00  0.00     0.000 C 
BRANCH   9  10
ATOM     10  C   UNL     1       2.782  50.534   7.544  1.00  0.00     0.000 C 
BRANCH  10  11
ATOM     11  C   UNL     1       4.087  50.368   8.351  1.00  0.00     0.000 C 
BRANCH  11  12
ATOM     12  C   UNL     1       3.893  50.060   9.846  1.00  0.00     0.000 C 
BRANCH  12  13
ATOM     13  C   UNL     1       5.208  49.678  10.548  1.00  0.00     0.006 C 
BRANCH  13  14
ATOM     14  C   UNL     1       6.374  49.532   9.559  1.00  0.00     0.053 C 
BRANCH  14  15
ATOM     15  C   UNL     1       6.733  48.098   9.317  1.00  0.00     0.041 C 
ATOM     16  O   UNL     1       7.824  47.635   9.744  1.00  0.00    -0.550 OA
ATOM     17  O   UNL     1       5.858  47.270   8.622  1.00  0.00    -0.550 OA
ENDBRANCH  14  15
ENDBRANCH  13  14
ENDBRANCH  12  13
ENDBRANCH  11  12
ENDBRANCH  10  11
ENDBRANCH   9  10
ENDBRANCH   8   9
ENDBRANCH   7   8
ENDBRANCH   6   7
ENDBRANCH   5   6
ENDBRANCH   4   5
ENDBRANCH   3   4
ENDBRANCH   2   3
ENDBRANCH   1   2
BRANCH   1  18
ATOM     18  C   UNL     1       0.772  45.064  10.307  1.00  0.00     0.000 C 
BRANCH  18  19
ATOM     19  C   UNL     1       1.608  46.343  10.126  1.00  0.00     0.000 C 
BRANCH  19  20
ATOM     20  C   UNL     1       3.099  46.073   9.830  1.00  0.00     0.000 C 
BRANCH  20  21
ATOM     21  C   UNL     1       3.946  46.002  11.112  1.00  0.00     0.000 C 
BRANCH  21  22
ATOM     22  C   UNL     1       4.630  44.638  11.306  1.00  0.00     0.000 C 
BRANCH  22  23
ATOM     23  C   UNL     1       3.968  43.719  12.352  1.00  0.00     0.000 C 
BRANCH  23  24
ATOM     24  C   UNL     1       3.682  42.283  11.870  1.00  0.00    -0.000 C 
BRANCH  24  25
ATOM     25  C   UNL     1       4.637  41.205  12.424  1.00  0.00    -0.000 C 
BRANCH  25  26
ATOM     26  C   UNL     1       3.941  39.976  13.034  1.00  0.00    -0.000 C 
BRANCH  26  27
ATOM     27  C   UNL     1       2.668  39.570  12.271  1.00  0.00    -0.000 C 
BRANCH  27  28
ATOM     28  C   UNL     1       1.581  39.004  13.197  1.00  0.00    -0.000 C 
BRANCH  28  29
ATOM     29  C   UNL     1       1.019  40.061  14.165  1.00  0.00    -0.000 C 
BRANCH  29  30
ATOM     30  C   UNL     1      -0.500  40.267  13.983  1.00  0.00    -0.000 C 
BRANCH  30  31
ATOM     31  C   UNL     1      -0.877  41.680  13.507  1.00  0.00    -0.003 C 
ATOM     32  C   UNL     1       0.332  42.504  13.067  1.00  0.00     0.004 C 
ENDBRANCH  30  31
ENDBRANCH  29  30
ENDBRANCH  28  29
ENDBRANCH  27  28
ENDBRANCH  26  27
ENDBRANCH  25  26
ENDBRANCH  24  25
ENDBRANCH  23  24
ENDBRANCH  22  23
ENDBRANCH  21  22
ENDBRANCH  20  21
ENDBRANCH  19  20
ENDBRANCH  18  19
ENDBRANCH   1  18
TORSDOF 28
ENDMDL
MODEL 9
REMARK VINA RESULT:    -4.144      1.478      3.034
REMARK INTER + INTRA:         -14.717
REMARK INTER:                 -10.670
REMARK INTRA:                  -4.047
REMARK UNBOUND:                -3.789
REMARK SMILES CCCCCCCCCCCCCCCCCCCCCCCCCCCCCC(=O)[O-]
REMARK SMILES IDX 16 1 17 2 18 3 19 4 20 5 21 6 22 7 23 8 24 9 25 10 26 11
REMARK SMILES IDX 27 12 28 13 29 14 30 15 31 16 32 17 15 18 14 19 13 20 12 21
REMARK SMILES IDX 11 22 10 23 9 24 8 25 7 26 6 27 5 28 4 29 3 30 2 31 1 32
REMARK H PARENT
REMARK Flexibility Score: inf
ROOT
ATOM      1  C   UNL     1       1.881  46.636   9.714  1.00  0.00     0.000 C 
ENDROOT
BRANCH   1   2
ATOM      2  C   UNL     1       0.798  45.880  10.500  1.00  0.00     0.000 C 
BRANCH   2   3
ATOM      3  C   UNL     1      -0.215  45.180   9.577  1.00  0.00     0.000 C 
BRANCH   3   4
ATOM      4  C   UNL     1       0.376  44.841   8.200  1.00  0.00     0.000 C 
BRANCH   4   5
ATOM      5  C   UNL     1      -0.685  44.823   7.085  1.00  0.00     0.000 C 
BRANCH   5   6
ATOM      6  C   UNL     1      -0.994  46.226   6.536  1.00  0.00     0.000 C 
BRANCH   6   7
ATOM      7  C   UNL     1      -0.072  47.307   7.125  1.00  0.00     0.000 C 
BRANCH   7   8
ATOM      8  C   UNL     1      -0.831  48.596   7.473  1.00  0.00     0.000 C 
BRANCH   8   9
ATOM      9  C   UNL     1       0.048  49.619   8.214  1.00  0.00     0.000 C 
BRANCH   9  10
ATOM     10  C   UNL     1       0.700  50.639   7.262  1.00  0.00     0.000 C 
BRANCH  10  11
ATOM     11  C   UNL     1       2.232  50.510   7.122  1.00  0.00     0.000 C 
BRANCH  11  12
ATOM     12  C   UNL     1       3.044  51.105   8.287  1.00  0.00     0.000 C 
BRANCH  12  13
ATOM     13  C   UNL     1       3.550  50.032   9.266  1.00  0.00     0.006 C 
BRANCH  13  14
ATOM     14  C   UNL     1       4.748  50.519  10.094  1.00  0.00     0.053 C 
BRANCH  14  15
ATOM     15  C   UNL     1       6.057  50.165   9.456  1.00  0.00     0.041 C 
ATOM     16  O   UNL     1       6.606  49.059   9.703  1.00  0.00    -0.550 OA
ATOM     17  O   UNL     1       6.669  51.058   8.582  1.00  0.00    -0.550 OA
ENDBRANCH  14  15
ENDBRANCH  13  14
ENDBRANCH  12  13
ENDBRANCH  11  12
ENDBRANCH  10  11
ENDBRANCH   9  10
ENDBRANCH   8   9
ENDBRANCH   7   8
ENDBRANCH   6   7
ENDBRANCH   5   6
ENDBRANCH   4   5
ENDBRANCH   3   4
ENDBRANCH   2   3
ENDBRANCH   1   2
BRANCH   1  18
ATOM     18  C   UNL     1       3.130  46.927  10.562  1.00  0.00     0.000 C 
BRANCH  18  19
ATOM     19  C   UNL     1       4.287  45.955  10.272  1.00  0.00     0.000 C 
BRANCH  19  20
ATOM     20  C   UNL     1       4.076  45.100   9.005  1.00  0.00     0.000 C 
BRANCH  20  21
ATOM     21  C   UNL     1       4.124  43.591   9.303  1.00  0.00     0.000 C 
BRANCH  21  22
ATOM     22  C   UNL     1       2.733  42.935   9.309  1.00  0.00     0.000 C 
BRANCH  22  23
ATOM     23  C   UNL     1       2.287  42.360  10.668  1.00  0.00     0.000 C 
BRANCH  23  24
ATOM     24  C   UNL     1       2.699  43.194  11.896  1.00  0.00    -0.000 C 
BRANCH  24  25
ATOM     25  C   UNL     1       3.905  42.644  12.686  1.00  0.00    -0.000 C 
BRANCH  25  26
ATOM     26  C   UNL     1       4.542  41.376  12.094  1.00  0.00    -0.000 C 
BRANCH  26  27
ATOM     27  C   UNL     1       4.795  40.285  13.148  1.00  0.00    -0.000 C 
BRANCH  27  28
ATOM     28  C   UNL     1       4.038  38.983  12.844  1.00  0.00    -0.000 C 
BRANCH  28  29
ATOM     29  C   UNL     1       2.551  39.224  12.528  1.00  0.00    -0.000 C 
BRANCH  29  30
ATOM     30  C   UNL     1       1.779  39.773  13.747  1.00  0.00    -0.000 C 
BRANCH  30  31
ATOM     31  C   UNL     1       0.284  40.006  13.475  1.00  0.00    -0.003 C 
ATOM     32  C   UNL     1      -0.176  41.418  13.833  1.00  0.00     0.004 C 
ENDBRANCH  30  31
ENDBRANCH  29  30
ENDBRANCH  28  29
ENDBRANCH  27  28
ENDBRANCH  26  27
ENDBRANCH  25  26
ENDBRANCH  24  25
ENDBRANCH  23  24
ENDBRANCH  22  23
ENDBRANCH  21  22
ENDBRANCH  20  21
ENDBRANCH  19  20
ENDBRANCH  18  19
ENDBRANCH   1  18
TORSDOF 28
ENDMDL
