MODEL 1
REMARK VINA RESULT:    -2.554      0.000      0.000
REMARK INTER + INTRA:          -3.196
REMARK INTER:                  -3.152
REMARK INTRA:                  -0.044
REMARK UNBOUND:                -0.044
REMARK SMILES CCCCCC(=O)[O-]
REMARK SMILES IDX 4 1 5 2 6 3 7 4 8 5 3 6 2 7 1 8
REMARK H PARENT
REMARK Flexibility Score: inf
ROOT
ATOM      1  C   UNL     1       3.875  17.867   7.440  1.00  0.00     0.006 C 
ENDROOT
BRANCH   1   2
ATOM      2  C   UNL     1       4.575  16.582   6.979  1.00  0.00     0.053 C 
BRANCH   2   3
ATOM      3  C   UNL     1       4.112  15.386   7.753  1.00  0.00     0.041 C 
ATOM      4  O   UNL     1       4.170  15.385   9.010  1.00  0.00    -0.550 OA
ATOM      5  O   UNL     1       3.649  14.260   7.084  1.00  0.00    -0.550 OA
ENDBRANCH   2   3
ENDBRANCH   1   2
BRANCH   1   6
ATOM      6  C   UNL     1       3.658  18.857   6.287  1.00  0.00     0.000 C 
BRANCH   6   7
ATOM      7  C   UNL     1       2.317  19.587   6.436  1.00  0.00    -0.003 C 
ATOM      8  C   UNL     1       2.097  20.573   5.291  1.00  0.00     0.004 C 
ENDBRANCH   6   7
ENDBRANCH   1   6
TORSDOF 4
ENDMDL
MODEL 2
REMARK VINA RESULT:    -2.443      1.327      1.676
REMARK INTER + INTRA:          -3.058
REMARK INTER:                  -3.005
REMARK INTRA:                  -0.053
REMARK UNBOUND:                -0.044
REMARK SMILES CCCCCC(=O)[O-]
REMARK SMILES IDX 4 1 5 2 6 3 7 4 8 5 3 6 2 7 1 8
REMARK H PARENT
REMARK Flexibility Score: inf
ROOT
ATOM      1  C   UNL     1       4.548  16.914   7.109  1.00  0.00     0.006 C 
ENDROOT
BRANCH   1   2
ATOM      2  C   UNL     1       4.033  15.567   7.633  1.00  0.00     0.053 C 
BRANCH   2   3
ATOM      3  C   UNL     1       4.478  14.427   6.770  1.00  0.00     0.041 C 
ATOM      4  O   UNL     1       5.620  14.441   6.241  1.00  0.00    -0.550 OA
ATOM      5  O   UNL     1       3.617  13.364   6.522  1.00  0.00    -0.550 OA
ENDBRANCH   2   3
ENDBRANCH   1   2
BRANCH   1   6
ATOM      6  C   UNL     1       3.618  18.077   7.480  1.00  0.00     0.000 C 
BRANCH   6   7
ATOM      7  C   UNL     1       3.391  19.004   6.279  1.00  0.00    -0.003 C 
ATOM      8  C   UNL     1       2.080  19.773   6.417  1.00  0.00     0.004 C 
ENDBRANCH   6   7
ENDBRANCH   1   6
TORSDOF 4
ENDMDL
MODEL 3
REMARK VINA RESULT:    -2.346      2.889      3.671
REMARK INTER + INTRA:          -2.938
REMARK INTER:                  -2.807
REMARK INTRA:                  -0.131
REMARK UNBOUND:                -0.044
REMARK SMILES CCCCCC(=O)[O-]
REMARK SMILES IDX 4 1 5 2 6 3 7 4 8 5 3 6 2 7 1 8
REMARK H PARENT
REMARK Flexibility Score: inf
ROOT
ATOM      1  C   UNL     1       3.599  18.710   8.254  1.00  0.00     0.006 C 
ENDROOT
BRANCH   1   2
ATOM      2  C   UNL     1       2.889  19.805   9.060  1.00  0.00     0.053 C 
BRANCH   2   3
ATOM      3  C   UNL     1       2.399  19.295  10.381  1.00  0.00     0.041 C 
ATOM      4  O   UNL     1       1.380  19.803  10.917  1.00  0.00    -0.550 OA
ATOM      5  O   UNL     1       3.089  18.282  11.035  1.00  0.00    -0.550 OA
ENDBRANCH   2   3
ENDBRANCH   1   2
BRANCH   1   6
ATOM      6  C   UNL     1       3.203  18.730   6.770  1.00  0.00     0.000 C 
BRANCH   6   7
ATOM      7  C   UNL     1       2.089  19.753   6.514  1.00  0.00    -0.003 C 
ATOM      8  C   UNL     1       2.343  20.533   5.227  1.00  0.00     0.004 C 
ENDBRANCH   6   7
ENDBRANCH   1   6
TORSDOF 4
ENDMDL
MODEL 4
REMARK VINA RESULT:    -2.342      2.273      3.104
REMARK INTER + INTRA:          -2.933
REMARK INTER:                  -2.821
REMARK INTRA:                  -0.112
REMARK UNBOUND:                -0.044
REMARK SMILES CCCCCC(=O)[O-]
REMARK SMILES IDX 4 1 5 2 6 3 7 4 8 5 3 6 2 7 1 8
REMARK H PARENT
REMARK Flexibility Score: inf
ROOT
ATOM      1  C   UNL     1       2.785  20.115   5.571  1.00  0.00     0.006 C 
ENDROOT
BRANCH   1   2
ATOM      2  C   UNL     1       2.823  19.207   6.808  1.00  0.00     0.053 C 
BRANCH   2   3
ATOM      3  C   UNL     1       3.890  18.162   6.699  1.00  0.00     0.041 C 
ATOM      4  O   UNL     1       3.976  17.252   7.564  1.00  0.00    -0.550 OA
ATOM      5  O   UNL     1       4.813  18.214   5.661  1.00  0.00    -0.550 OA
ENDBRANCH   2   3
ENDBRANCH   1   2
BRANCH   1   6
ATOM      6  C   UNL     1       1.457  20.875   5.448  1.00  0.00     0.000 C 
BRANCH   6   7
ATOM      7  C   UNL     1       0.488  20.472   6.566  1.00  0.00    -0.003 C 
ATOM      8  C   UNL     1      -0.963  20.677   6.138  1.00  0.00     0.004 C 
ENDBRANCH   6   7
ENDBRANCH   1   6
TORSDOF 4
ENDMDL
MODEL 5
REMARK VINA RESULT:    -2.297      7.536      7.953
REMARK INTER + INTRA:          -2.878
REMARK INTER:                  -2.716
REMARK INTRA:                  -0.162
REMARK UNBOUND:                -0.044
REMARK SMILES CCCCCC(=O)[O-]
REMARK SMILES IDX 4 1 5 2 6 3 7 4 8 5 3 6 2 7 1 8
REMARK H PARENT
REMARK Flexibility Score: inf
ROOT
ATOM      1  C   UNL     1      -4.300  15.501   9.258  1.00  0.00     0.006 C 
ENDROOT
BRANCH   1   2
ATOM      2  C   UNL     1      -3.111  14.538   9.138  1.00  0.00     0.053 C 
BRANCH   2   3
ATOM      3  C   UNL     1      -3.555  13.108   9.092  1.00  0.00     0.041 C 
ATOM      4  O   UNL     1      -4.679  12.809   8.610  1.00  0.00    -0.550 OA
ATOM      5  O   UNL     1      -2.742  12.110   9.614  1.00  0.00    -0.550 OA
ENDBRANCH   2   3
ENDBRANCH   1   2
BRANCH   1   6
ATOM      6  C   UNL     1      -4.291  16.576   8.162  1.00  0.00     0.000 C 
BRANCH   6   7
ATOM      7  C   UNL     1      -3.688  16.030   6.862  1.00  0.00    -0.003 C 
ATOM      8  C   UNL     1      -3.056  17.146   6.035  1.00  0.00     0.004 C 
ENDBRANCH   6   7
ENDBRANCH   1   6
TORSDOF 4
ENDMDL
MODEL 6
REMARK VINA RESULT:    -2.286      2.347      3.004
REMARK INTER + INTRA:          -2.864
REMARK INTER:                  -2.729
REMARK INTRA:                  -0.136
REMARK UNBOUND:                -0.044
REMARK SMILES CCCCCC(=O)[O-]
REMARK SMILES IDX 4 1 5 2 6 3 7 4 8 5 3 6 2 7 1 8
REMARK H PARENT
REMARK Flexibility Score: inf
ROOT
ATOM      1  C   UNL     1       3.283  19.175   6.235  1.00  0.00     0.006 C 
ENDROOT
BRANCH   1   2
ATOM      2  C   UNL     1       3.614  18.122   7.301  1.00  0.00     0.053 C 
BRANCH   2   3
ATOM      3  C   UNL     1       3.996  18.751   8.605  1.00  0.00     0.041 C 
ATOM      4  O   UNL     1       3.594  18.254   9.690  1.00  0.00    -0.550 OA
ATOM      5  O   UNL     1       4.768  19.906   8.622  1.00  0.00    -0.550 OA
ENDBRANCH   2   3
ENDBRANCH   1   2
BRANCH   1   6
ATOM      6  C   UNL     1       1.902  19.810   6.454  1.00  0.00     0.000 C 
BRANCH   6   7
ATOM      7  C   UNL     1       1.621  20.889   5.401  1.00  0.00    -0.003 C 
ATOM      8  C   UNL     1       2.815  21.073   4.468  1.00  0.00     0.004 C 
ENDBRANCH   6   7
ENDBRANCH   1   6
TORSDOF 4
ENDMDL
MODEL 7
REMARK VINA RESULT:    -2.239      9.627     11.583
REMARK INTER + INTRA:          -2.807
REMARK INTER:                  -2.763
REMARK INTRA:                  -0.044
REMARK UNBOUND:                -0.044
REMARK SMILES CCCCCC(=O)[O-]
REMARK SMILES IDX 4 1 5 2 6 3 7 4 8 5 3 6 2 7 1 8
REMARK H PARENT
REMARK Flexibility Score: inf
ROOT
ATOM      1  C   UNL     1      -3.284   8.772   8.356  1.00  0.00     0.006 C 
ENDROOT
BRANCH   1   2
ATOM      2  C   UNL     1      -3.872   9.834   9.294  1.00  0.00     0.053 C 
BRANCH   2   3
ATOM      3  C   UNL     1      -3.417  11.214   8.927  1.00  0.00     0.041 C 
ATOM      4  O   UNL     1      -2.737  11.893   9.740  1.00  0.00    -0.550 OA
ATOM      5  O   UNL     1      -3.775  11.762   7.702  1.00  0.00    -0.550 OA
ENDBRANCH   2   3
ENDBRANCH   1   2
BRANCH   1   6
ATOM      6  C   UNL     1      -2.898   7.486   9.101  1.00  0.00     0.000 C 
BRANCH   6   7
ATOM      7  C   UNL     1      -1.891   6.662   8.290  1.00  0.00    -0.003 C 
ATOM      8  C   UNL     1      -1.223   5.599   9.158  1.00  0.00     0.004 C 
ENDBRANCH   6   7
ENDBRANCH   1   6
TORSDOF 4
ENDMDL
MODEL 8
REMARK VINA RESULT:    -2.190      3.057      3.453
REMARK INTER + INTRA:          -2.747
REMARK INTER:                  -2.687
REMARK INTRA:                  -0.060
REMARK UNBOUND:                -0.044
REMARK SMILES CCCCCC(=O)[O-]
REMARK SMILES IDX 4 1 5 2 6 3 7 4 8 5 3 6 2 7 1 8
REMARK H PARENT
REMARK Flexibility Score: inf
ROOT
ATOM      1  C   UNL     1       4.428  16.013   9.186  1.00  0.00     0.006 C 
ENDROOT
BRANCH   1   2
ATOM      2  C   UNL     1       4.017  15.687   7.745  1.00  0.00     0.053 C 
BRANCH   2   3
ATOM      3  C   UNL     1       4.369  14.281   7.370  1.00  0.00     0.041 C 
ATOM      4  O   UNL     1       3.648  13.642   6.558  1.00  0.00    -0.550 OA
ATOM      5  O   UNL     1       5.474  13.663   7.942  1.00  0.00    -0.550 OA
ENDBRANCH   2   3
ENDBRANCH   1   2
BRANCH   1   6
ATOM      6  C   UNL     1       4.304  17.511   9.502  1.00  0.00     0.000 C 
BRANCH   6   7
ATOM      7  C   UNL     1       3.670  17.730  10.881  1.00  0.00    -0.003 C 
ATOM      8  C   UNL     1       2.685  18.896  10.856  1.00  0.00     0.004 C 
ENDBRANCH   6   7
ENDBRANCH   1   6
TORSDOF 4
ENDMDL
MODEL 9
REMARK VINA RESULT:    -2.190      1.852      2.294
REMARK INTER + INTRA:          -2.746
REMARK INTER:                  -2.634
REMARK INTRA:                  -0.112
REMARK UNBOUND:                -0.044
REMARK SMILES CCCCCC(=O)[O-]
REMARK SMILES IDX 4 1 5 2 6 3 7 4 8 5 3 6 2 7 1 8
REMARK H PARENT
REMARK Flexibility Score: inf
ROOT
ATOM      1  C   UNL     1       3.459  18.472   6.892  1.00  0.00     0.006 C 
ENDROOT
BRANCH   1   2
ATOM      2  C   UNL     1       4.501  18.335   5.774  1.00  0.00     0.053 C 
BRANCH   2   3
ATOM      3  C   UNL     1       5.166  16.994   5.793  1.00  0.00     0.041 C 
ATOM      4  O   UNL     1       4.761  16.097   6.578  1.00  0.00    -0.550 OA
ATOM      5  O   UNL     1       6.256  16.745   4.969  1.00  0.00    -0.550 OA
ENDBRANCH   2   3
ENDBRANCH   1   2
BRANCH   1   6
ATOM      6  C   UNL     1       2.389  19.523   6.565  1.00  0.00     0.000 C 
BRANCH   6   7
ATOM      7  C   UNL     1       2.783  20.342   5.330  1.00  0.00    -0.003 C 
ATOM      8  C   UNL     1       1.662  21.291   4.916  1.00  0.00     0.004 C 
ENDBRANCH   6   7
ENDBRANCH   1   6
TORSDOF 4
ENDMDL
