MODEL 1
REMARK VINA RESULT:    -3.253      0.000      0.000
REMARK INTER + INTRA:          -3.940
REMARK INTER:                  -3.824
REMARK INTRA:                  -0.116
REMARK UNBOUND:                -0.116
REMARK SMILES O=C([O-])CCC(=O)[O-]
REMARK SMILES IDX 4 1 2 2 1 3 3 4 5 5 6 6 7 7 8 8
REMARK H PARENT
REMARK Flexibility Score: inf
ROOT
ATOM      1  C   UNL     1      15.559  41.279  29.276  1.00  0.00     0.059 C 
ENDROOT
BRANCH   1   2
ATOM      2  C   UNL     1      14.177  41.641  28.824  1.00  0.00     0.042 C 
ATOM      3  O   UNL     1      13.883  42.842  28.584  1.00  0.00    -0.550 OA
ATOM      4  O   UNL     1      13.227  40.647  28.628  1.00  0.00    -0.550 OA
ENDBRANCH   1   2
BRANCH   1   5
ATOM      5  C   UNL     1      15.531  40.229  30.390  1.00  0.00     0.059 C 
BRANCH   5   6
ATOM      6  C   UNL     1      16.048  38.906  29.915  1.00  0.00     0.042 C 
ATOM      7  O   UNL     1      15.254  38.039  29.464  1.00  0.00    -0.550 OA
ATOM      8  O   UNL     1      17.413  38.646  29.934  1.00  0.00    -0.550 OA
ENDBRANCH   5   6
ENDBRANCH   1   5
TORSDOF 3
ENDMDL
MODEL 2
REMARK VINA RESULT:    -3.247      1.559      2.148
REMARK INTER + INTRA:          -3.933
REMARK INTER:                  -3.759
REMARK INTRA:                  -0.174
REMARK UNBOUND:                -0.116
REMARK SMILES O=C([O-])CCC(=O)[O-]
REMARK SMILES IDX 4 1 2 2 1 3 3 4 5 5 6 6 7 7 8 8
REMARK H PARENT
REMARK Flexibility Score: inf
ROOT
ATOM      1  C   UNL     1      14.751  39.936  27.445  1.00  0.00     0.059 C 
ENDROOT
BRANCH   1   2
ATOM      2  C   UNL     1      13.592  40.772  27.897  1.00  0.00     0.042 C 
ATOM      3  O   UNL     1      12.445  40.262  28.002  1.00  0.00    -0.550 OA
ATOM      4  O   UNL     1      13.787  42.103  28.241  1.00  0.00    -0.550 OA
ENDBRANCH   1   2
BRANCH   1   5
ATOM      5  C   UNL     1      15.916  40.005  28.437  1.00  0.00     0.059 C 
BRANCH   5   6
ATOM      6  C   UNL     1      15.509  39.536  29.801  1.00  0.00     0.042 C 
ATOM      7  O   UNL     1      15.541  40.326  30.779  1.00  0.00    -0.550 OA
ATOM      8  O   UNL     1      15.056  38.234  29.980  1.00  0.00    -0.550 OA
ENDBRANCH   5   6
ENDBRANCH   1   5
TORSDOF 3
ENDMDL
MODEL 3
REMARK VINA RESULT:    -3.230      0.124      4.004
REMARK INTER + INTRA:          -3.913
REMARK INTER:                  -3.804
REMARK INTRA:                  -0.109
REMARK UNBOUND:                -0.116
REMARK SMILES O=C([O-])CCC(=O)[O-]
REMARK SMILES IDX 4 1 2 2 1 3 3 4 5 5 6 6 7 7 8 8
REMARK H PARENT
REMARK Flexibility Score: inf
ROOT
ATOM      1  C   UNL     1      15.460  40.235  30.332  1.00  0.00     0.059 C 
ENDROOT
BRANCH   1   2
ATOM      2  C   UNL     1      15.998  38.898  29.923  1.00  0.00     0.042 C 
ATOM      3  O   UNL     1      15.211  37.967  29.606  1.00  0.00    -0.550 OA
ATOM      4  O   UNL     1      17.370  38.693  29.852  1.00  0.00    -0.550 OA
ENDBRANCH   1   2
BRANCH   1   5
ATOM      5  C   UNL     1      15.513  41.241  29.178  1.00  0.00     0.059 C 
BRANCH   5   6
ATOM      6  C   UNL     1      14.140  41.633  28.725  1.00  0.00     0.042 C 
ATOM      7  O   UNL     1      13.838  42.848  28.593  1.00  0.00    -0.550 OA
ATOM      8  O   UNL     1      13.206  40.653  28.410  1.00  0.00    -0.550 OA
ENDBRANCH   5   6
ENDBRANCH   1   5
TORSDOF 3
ENDMDL
MODEL 4
REMARK VINA RESULT:    -3.144     10.412     11.925
REMARK INTER + INTRA:          -3.811
REMARK INTER:                  -3.693
REMARK INTRA:                  -0.119
REMARK UNBOUND:                -0.116
REMARK SMILES O=C([O-])CCC(=O)[O-]
REMARK SMILES IDX 4 1 2 2 1 3 3 4 5 5 6 6 7 7 8 8
REMARK H PARENT
REMARK Flexibility Score: inf
ROOT
ATOM      1  C   UNL     1      11.729  46.539  18.713  1.00  0.00     0.059 C 
ENDROOT
BRANCH   1   2
ATOM      2  C   UNL     1      10.336  46.886  19.141  1.00  0.00     0.042 C 
ATOM      3  O   UNL     1       9.523  45.975  19.453  1.00  0.00    -0.550 OA
ATOM      4  O   UNL     1       9.948  48.216  19.234  1.00  0.00    -0.550 OA
ENDBRANCH   1   2
BRANCH   1   5
ATOM      5  C   UNL     1      12.659  46.353  19.916  1.00  0.00     0.059 C 
BRANCH   5   6
ATOM      6  C   UNL     1      13.047  44.918  20.097  1.00  0.00     0.042 C 
ATOM      7  O   UNL     1      14.125  44.621  20.675  1.00  0.00    -0.550 OA
ATOM      8  O   UNL     1      12.197  43.908  19.661  1.00  0.00    -0.550 OA
ENDBRANCH   5   6
ENDBRANCH   1   5
TORSDOF 3
ENDMDL
MODEL 5
REMARK VINA RESULT:    -3.118     10.578     12.471
REMARK INTER + INTRA:          -3.781
REMARK INTER:                  -3.661
REMARK INTRA:                  -0.120
REMARK UNBOUND:                -0.116
REMARK SMILES O=C([O-])CCC(=O)[O-]
REMARK SMILES IDX 4 1 2 2 1 3 3 4 5 5 6 6 7 7 8 8
REMARK H PARENT
REMARK Flexibility Score: inf
ROOT
ATOM      1  C   UNL     1      12.591  46.212  19.892  1.00  0.00     0.059 C 
ENDROOT
BRANCH   1   2
ATOM      2  C   UNL     1      12.962  44.760  19.905  1.00  0.00     0.042 C 
ATOM      3  O   UNL     1      14.096  44.399  20.319  1.00  0.00    -0.550 OA
ATOM      4  O   UNL     1      12.041  43.803  19.498  1.00  0.00    -0.550 OA
ENDBRANCH   1   2
BRANCH   1   5
ATOM      5  C   UNL     1      11.716  46.559  18.684  1.00  0.00     0.059 C 
BRANCH   5   6
ATOM      6  C   UNL     1      10.317  46.904  19.096  1.00  0.00     0.042 C 
ATOM      7  O   UNL     1       9.502  45.994  19.397  1.00  0.00    -0.550 OA
ATOM      8  O   UNL     1       9.928  48.235  19.184  1.00  0.00    -0.550 OA
ENDBRANCH   5   6
ENDBRANCH   1   5
TORSDOF 3
ENDMDL
MODEL 6
REMARK VINA RESULT:    -3.110     12.192     14.376
REMARK INTER + INTRA:          -3.772
REMARK INTER:                  -3.735
REMARK INTRA:                  -0.037
REMARK UNBOUND:                -0.116
REMARK SMILES O=C([O-])CCC(=O)[O-]
REMARK SMILES IDX 4 1 2 2 1 3 3 4 5 5 6 6 7 7 8 8
REMARK H PARENT
REMARK Flexibility Score: inf
ROOT
ATOM      1  C   UNL     1      10.988  47.175  18.520  1.00  0.00     0.059 C 
ENDROOT
BRANCH   1   2
ATOM      2  C   UNL     1      11.013  45.853  19.224  1.00  0.00     0.042 C 
ATOM      3  O   UNL     1      12.073  45.175  19.263  1.00  0.00    -0.550 OA
ATOM      4  O   UNL     1       9.875  45.389  19.872  1.00  0.00    -0.550 OA
ENDBRANCH   1   2
BRANCH   1   5
ATOM      5  C   UNL     1       9.877  48.080  19.060  1.00  0.00     0.059 C 
BRANCH   5   6
ATOM      6  C   UNL     1       9.353  49.002  18.001  1.00  0.00     0.042 C 
ATOM      7  O   UNL     1       8.153  48.925  17.629  1.00  0.00    -0.550 OA
ATOM      8  O   UNL     1      10.182  49.974  17.455  1.00  0.00    -0.550 OA
ENDBRANCH   5   6
ENDBRANCH   1   5
TORSDOF 3
ENDMDL
MODEL 7
REMARK VINA RESULT:    -3.093     11.217     12.361
REMARK INTER + INTRA:          -3.752
REMARK INTER:                  -3.664
REMARK INTRA:                  -0.087
REMARK UNBOUND:                -0.116
REMARK SMILES O=C([O-])CCC(=O)[O-]
REMARK SMILES IDX 4 1 2 2 1 3 3 4 5 5 6 6 7 7 8 8
REMARK H PARENT
REMARK Flexibility Score: inf
ROOT
ATOM      1  C   UNL     1      11.702  46.666  18.333  1.00  0.00     0.059 C 
ENDROOT
BRANCH   1   2
ATOM      2  C   UNL     1      10.437  46.864  19.112  1.00  0.00     0.042 C 
ATOM      3  O   UNL     1       9.926  45.904  19.746  1.00  0.00    -0.550 OA
ATOM      4  O   UNL     1       9.845  48.120  19.168  1.00  0.00    -0.550 OA
ENDBRANCH   1   2
BRANCH   1   5
ATOM      5  C   UNL     1      12.550  45.531  18.915  1.00  0.00     0.059 C 
BRANCH   5   6
ATOM      6  C   UNL     1      13.772  46.053  19.606  1.00  0.00     0.042 C 
ATOM      7  O   UNL     1      14.858  46.162  18.978  1.00  0.00    -0.550 OA
ATOM      8  O   UNL     1      13.700  46.457  20.934  1.00  0.00    -0.550 OA
ENDBRANCH   5   6
ENDBRANCH   1   5
TORSDOF 3
ENDMDL
MODEL 8
REMARK VINA RESULT:    -3.087     10.546     11.920
REMARK INTER + INTRA:          -3.745
REMARK INTER:                  -3.629
REMARK INTRA:                  -0.117
REMARK UNBOUND:                -0.116
REMARK SMILES O=C([O-])CCC(=O)[O-]
REMARK SMILES IDX 4 1 2 2 1 3 3 4 5 5 6 6 7 7 8 8
REMARK H PARENT
REMARK Flexibility Score: inf
ROOT
ATOM      1  C   UNL     1      11.721  46.570  18.717  1.00  0.00     0.059 C 
ENDROOT
BRANCH   1   2
ATOM      2  C   UNL     1      10.301  46.872  19.090  1.00  0.00     0.042 C 
ATOM      3  O   UNL     1       9.881  48.059  19.078  1.00  0.00    -0.550 OA
ATOM      4  O   UNL     1       9.432  45.837  19.413  1.00  0.00    -0.550 OA
ENDBRANCH   1   2
BRANCH   1   5
ATOM      5  C   UNL     1      12.568  46.233  19.947  1.00  0.00     0.059 C 
BRANCH   5   6
ATOM      6  C   UNL     1      12.978  44.793  19.957  1.00  0.00     0.042 C 
ATOM      7  O   UNL     1      14.117  44.460  20.378  1.00  0.00    -0.550 OA
ATOM      8  O   UNL     1      12.086  43.813  19.537  1.00  0.00    -0.550 OA
ENDBRANCH   5   6
ENDBRANCH   1   5
TORSDOF 3
ENDMDL
MODEL 9
REMARK VINA RESULT:    -3.055     12.511     13.310
REMARK INTER + INTRA:          -3.707
REMARK INTER:                  -3.665
REMARK INTRA:                  -0.042
REMARK UNBOUND:                -0.116
REMARK SMILES O=C([O-])CCC(=O)[O-]
REMARK SMILES IDX 4 1 2 2 1 3 3 4 5 5 6 6 7 7 8 8
REMARK H PARENT
REMARK Flexibility Score: inf
ROOT
ATOM      1  C   UNL     1      11.918  46.370  19.320  1.00  0.00     0.059 C 
ENDROOT
BRANCH   1   2
ATOM      2  C   UNL     1      10.461  46.703  19.441  1.00  0.00     0.042 C 
ATOM      3  O   UNL     1      10.085  47.905  19.451  1.00  0.00    -0.550 OA
ATOM      4  O   UNL     1       9.518  45.685  19.501  1.00  0.00    -0.550 OA
ENDBRANCH   1   2
BRANCH   1   5
ATOM      5  C   UNL     1      12.282  45.941  17.896  1.00  0.00     0.059 C 
BRANCH   5   6
ATOM      6  C   UNL     1      13.427  46.740  17.354  1.00  0.00     0.042 C 
ATOM      7  O   UNL     1      13.253  47.517  16.379  1.00  0.00    -0.550 OA
ATOM      8  O   UNL     1      14.678  46.656  17.953  1.00  0.00    -0.550 OA
ENDBRANCH   5   6
ENDBRANCH   1   5
TORSDOF 3
ENDMDL
