MODEL 1
REMARK VINA RESULT:    -3.033      0.000      0.000
REMARK INTER + INTRA:          -3.984
REMARK INTER:                  -3.653
REMARK INTRA:                  -0.331
REMARK UNBOUND:                -0.331
REMARK SMILES O=c1c(O)c(-c2ccc(O)c(O)c2)oc2cc(O)cc(O)c12
REMARK SMILES IDX 5 1 3 2 2 3 1 4 22 5 20 6 19 7 17 8 16 9 15 10 14 11 6 12
REMARK SMILES IDX 7 13 8 14 9 15 13 16 11 17 10 18 12 20 4 22 21 24 18 26
REMARK H PARENT 10 19 12 21 4 23 21 25 18 27
REMARK Flexibility Score: inf
ROOT
ATOM      1  C   UNL     1      -0.504   7.662   0.597  1.00  0.00     0.180 A 
ATOM      2  C   UNL     1      -0.898   8.610   1.558  1.00  0.00     0.208 A 
ATOM      3  C   UNL     1      -2.170   9.195   1.456  1.00  0.00     0.238 A 
ATOM      4  O   UNL     1      -2.495  10.083   2.287  1.00  0.00    -0.285 OA
ATOM      5  C   UNL     1      -3.039   8.815   0.404  1.00  0.00     0.111 A 
ATOM      6  C   UNL     1      -4.363   9.314   0.228  1.00  0.00     0.134 A 
ATOM      7  C   UNL     1      -5.085   8.966  -0.921  1.00  0.00     0.093 A 
ATOM      8  C   UNL     1      -4.555   8.089  -1.865  1.00  0.00     0.123 A 
ATOM      9  C   UNL     1      -3.284   7.547  -1.673  1.00  0.00     0.094 A 
ATOM     10  C   UNL     1      -2.526   7.904  -0.555  1.00  0.00     0.146 A 
ATOM     11  O   UNL     1      -1.315   7.375  -0.415  1.00  0.00    -0.452 OA
ENDROOT
BRANCH   1  12
ATOM     12  C   UNL     1       0.811   6.984   0.651  1.00  0.00     0.025 A 
ATOM     13  C   UNL     1       0.980   5.772   1.341  1.00  0.00     0.016 A 
ATOM     14  C   UNL     1       2.223   5.139   1.358  1.00  0.00     0.051 A 
ATOM     15  C   UNL     1       3.316   5.690   0.682  1.00  0.00     0.157 A 
ATOM     16  C   UNL     1       1.900   7.529  -0.046  1.00  0.00     0.062 A 
ATOM     17  C   UNL     1       3.152   6.901  -0.033  1.00  0.00     0.158 A 
BRANCH  15  18
ATOM     18  O   UNL     1       4.534   5.009   0.744  1.00  0.00    -0.504 OA
ATOM     19  H   UNL     1       5.234   5.168   1.454  1.00  0.00     0.293 HD
ENDBRANCH  15  18
BRANCH  17  20
ATOM     20  O   UNL     1       4.193   7.506  -0.739  1.00  0.00    -0.504 OA
ATOM     21  H   UNL     1       4.067   8.263  -1.394  1.00  0.00     0.293 HD
ENDBRANCH  17  20
ENDBRANCH   1  12
BRANCH   2  22
ATOM     22  O   UNL     1      -0.017   8.987   2.575  1.00  0.00    -0.502 OA
ATOM     23  H   UNL     1      -0.319   9.503   3.392  1.00  0.00     0.293 HD
ENDBRANCH   2  22
BRANCH   6  24
ATOM     24  O   UNL     1      -5.023  10.125   1.157  1.00  0.00    -0.507 OA
ATOM     25  H   UNL     1      -5.345   9.817   2.062  1.00  0.00     0.293 HD
ENDBRANCH   6  24
BRANCH   8  26
ATOM     26  O   UNL     1      -5.308   7.753  -2.989  1.00  0.00    -0.508 OA
ATOM     27  H   UNL     1      -6.315   7.647  -2.940  1.00  0.00     0.293 HD
ENDBRANCH   8  26
TORSDOF 6
ENDMDL
MODEL 2
REMARK VINA RESULT:    -2.675      3.108      4.306
REMARK INTER + INTRA:          -3.553
REMARK INTER:                  -3.412
REMARK INTRA:                  -0.141
REMARK UNBOUND:                -0.331
REMARK SMILES O=c1c(O)c(-c2ccc(O)c(O)c2)oc2cc(O)cc(O)c12
REMARK SMILES IDX 5 1 3 2 2 3 1 4 22 5 20 6 19 7 17 8 16 9 15 10 14 11 6 12
REMARK SMILES IDX 7 13 8 14 9 15 13 16 11 17 10 18 12 20 4 22 21 24 18 26
REMARK H PARENT 10 19 12 21 4 23 21 25 18 27
REMARK Flexibility Score: inf
ROOT
ATOM      1  C   UNL     1      -0.139   4.829   0.938  1.00  0.00     0.180 A 
ATOM      2  C   UNL     1       0.935   5.724   1.079  1.00  0.00     0.208 A 
ATOM      3  C   UNL     1       0.711   7.096   0.876  1.00  0.00     0.238 A 
ATOM      4  O   UNL     1       1.689   7.886   0.950  1.00  0.00    -0.285 OA
ATOM      5  C   UNL     1      -0.587   7.557   0.550  1.00  0.00     0.111 A 
ATOM      6  C   UNL     1      -0.937   8.927   0.361  1.00  0.00     0.134 A 
ATOM      7  C   UNL     1      -2.222   9.257  -0.087  1.00  0.00     0.093 A 
ATOM      8  C   UNL     1      -3.188   8.273  -0.290  1.00  0.00     0.123 A 
ATOM      9  C   UNL     1      -2.875   6.934  -0.051  1.00  0.00     0.094 A 
ATOM     10  C   UNL     1      -1.590   6.571   0.361  1.00  0.00     0.146 A 
ATOM     11  O   UNL     1      -1.330   5.285   0.567  1.00  0.00    -0.452 OA
ENDROOT
BRANCH   1  12
ATOM     12  C   UNL     1       0.013   3.373   1.161  1.00  0.00     0.025 A 
ATOM     13  C   UNL     1      -0.693   2.711   2.178  1.00  0.00     0.016 A 
ATOM     14  C   UNL     1      -0.551   1.334   2.353  1.00  0.00     0.051 A 
ATOM     15  C   UNL     1       0.283   0.589   1.514  1.00  0.00     0.157 A 
ATOM     16  C   UNL     1       0.835   2.625   0.304  1.00  0.00     0.062 A 
ATOM     17  C   UNL     1       0.984   1.243   0.473  1.00  0.00     0.158 A 
BRANCH  15  18
ATOM     18  O   UNL     1       0.385  -0.784   1.747  1.00  0.00    -0.504 OA
ATOM     19  H   UNL     1       0.432  -1.199   2.667  1.00  0.00     0.293 HD
ENDBRANCH  15  18
BRANCH  17  20
ATOM     20  O   UNL     1       1.827   0.565  -0.409  1.00  0.00    -0.504 OA
ATOM     21  H   UNL     1       2.540   1.012  -0.966  1.00  0.00     0.293 HD
ENDBRANCH  17  20
ENDBRANCH   1  12
BRANCH   2  22
ATOM     22  O   UNL     1       2.213   5.246   1.380  1.00  0.00    -0.502 OA
ATOM     23  H   UNL     1       2.883   4.996   0.663  1.00  0.00     0.293 HD
ENDBRANCH   2  22
BRANCH   6  24
ATOM     24  O   UNL     1      -0.074   9.996   0.625  1.00  0.00    -0.507 OA
ATOM     25  H   UNL     1       0.799  10.162   0.147  1.00  0.00     0.293 HD
ENDBRANCH   6  24
BRANCH   8  26
ATOM     26  O   UNL     1      -4.461   8.639  -0.720  1.00  0.00    -0.508 OA
ATOM     27  H   UNL     1      -4.904   9.492  -0.399  1.00  0.00     0.293 HD
ENDBRANCH   8  26
TORSDOF 6
ENDMDL
MODEL 3
REMARK VINA RESULT:    -2.263      1.831      6.879
REMARK INTER + INTRA:          -3.057
REMARK INTER:                  -2.722
REMARK INTRA:                  -0.335
REMARK UNBOUND:                -0.331
REMARK SMILES O=c1c(O)c(-c2ccc(O)c(O)c2)oc2cc(O)cc(O)c12
REMARK SMILES IDX 5 1 3 2 2 3 1 4 22 5 20 6 19 7 17 8 16 9 15 10 14 11 6 12
REMARK SMILES IDX 7 13 8 14 9 15 13 16 11 17 10 18 12 20 4 22 21 24 18 26
REMARK H PARENT 10 19 12 21 4 23 21 25 18 27
REMARK Flexibility Score: inf
ROOT
ATOM      1  C   UNL     1      -1.867   7.932   0.173  1.00  0.00     0.180 A 
ATOM      2  C   UNL     1      -0.745   8.731   0.454  1.00  0.00     0.208 A 
ATOM      3  C   UNL     1       0.469   8.108   0.785  1.00  0.00     0.238 A 
ATOM      4  O   UNL     1       1.456   8.829   1.089  1.00  0.00    -0.285 OA
ATOM      5  C   UNL     1       0.551   6.694   0.815  1.00  0.00     0.111 A 
ATOM      6  C   UNL     1       1.739   5.958   1.098  1.00  0.00     0.134 A 
ATOM      7  C   UNL     1       1.673   4.565   1.229  1.00  0.00     0.093 A 
ATOM      8  C   UNL     1       0.478   3.878   1.023  1.00  0.00     0.123 A 
ATOM      9  C   UNL     1      -0.678   4.583   0.686  1.00  0.00     0.094 A 
ATOM     10  C   UNL     1      -0.651   5.977   0.585  1.00  0.00     0.146 A 
ATOM     11  O   UNL     1      -1.776   6.611   0.273  1.00  0.00    -0.452 OA
ENDROOT
BRANCH   1  12
ATOM     12  C   UNL     1      -3.174   8.515  -0.208  1.00  0.00     0.025 A 
ATOM     13  C   UNL     1      -3.488   8.793  -1.548  1.00  0.00     0.016 A 
ATOM     14  C   UNL     1      -4.736   9.320  -1.885  1.00  0.00     0.051 A 
ATOM     15  C   UNL     1      -5.697   9.568  -0.900  1.00  0.00     0.157 A 
ATOM     16  C   UNL     1      -4.144   8.742   0.780  1.00  0.00     0.062 A 
ATOM     17  C   UNL     1      -5.398   9.272   0.451  1.00  0.00     0.158 A 
BRANCH  15  18
ATOM     18  O   UNL     1      -6.922  10.101  -1.303  1.00  0.00    -0.504 OA
ATOM     19  H   UNL     1      -7.559  10.584  -0.685  1.00  0.00     0.293 HD
ENDBRANCH  15  18
BRANCH  17  20
ATOM     20  O   UNL     1      -6.309   9.483   1.488  1.00  0.00    -0.504 OA
ATOM     21  H   UNL     1      -6.122  10.057   2.297  1.00  0.00     0.293 HD
ENDBRANCH  17  20
ENDBRANCH   1  12
BRANCH   2  22
ATOM     22  O   UNL     1      -0.853  10.124   0.440  1.00  0.00    -0.502 OA
ATOM     23  H   UNL     1      -0.437  10.709   1.154  1.00  0.00     0.293 HD
ENDBRANCH   2  22
BRANCH   6  24
ATOM     24  O   UNL     1       3.004   6.539   1.231  1.00  0.00    -0.507 OA
ATOM     25  H   UNL     1       3.466   6.716   2.110  1.00  0.00     0.293 HD
ENDBRANCH   6  24
BRANCH   8  26
ATOM     26  O   UNL     1       0.454   2.491   1.145  1.00  0.00    -0.508 OA
ATOM     27  H   UNL     1       0.513   2.037   2.050  1.00  0.00     0.293 HD
ENDBRANCH   8  26
TORSDOF 6
ENDMDL
MODEL 4
REMARK VINA RESULT:    -2.115      4.778      7.555
REMARK INTER + INTRA:          -2.879
REMARK INTER:                  -2.629
REMARK INTRA:                  -0.250
REMARK UNBOUND:                -0.331
REMARK SMILES O=c1c(O)c(-c2ccc(O)c(O)c2)oc2cc(O)cc(O)c12
REMARK SMILES IDX 5 1 3 2 2 3 1 4 22 5 20 6 19 7 17 8 16 9 15 10 14 11 6 12
REMARK SMILES IDX 7 13 8 14 9 15 13 16 11 17 10 18 12 20 4 22 21 24 18 26
REMARK H PARENT 10 19 12 21 4 23 21 25 18 27
REMARK Flexibility Score: inf
ROOT
ATOM      1  C   UNL     1       0.358   3.272   1.101  1.00  0.00     0.180 A 
ATOM      2  C   UNL     1      -0.163   2.620   2.232  1.00  0.00     0.208 A 
ATOM      3  C   UNL     1      -0.269   1.220   2.223  1.00  0.00     0.238 A 
ATOM      4  O   UNL     1      -0.788   0.647   3.217  1.00  0.00    -0.285 OA
ATOM      5  C   UNL     1       0.162   0.487   1.091  1.00  0.00     0.111 A 
ATOM      6  C   UNL     1       0.138  -0.935   0.989  1.00  0.00     0.134 A 
ATOM      7  C   UNL     1       0.467  -1.546  -0.227  1.00  0.00     0.093 A 
ATOM      8  C   UNL     1       0.880  -0.792  -1.323  1.00  0.00     0.123 A 
ATOM      9  C   UNL     1       0.965   0.597  -1.217  1.00  0.00     0.094 A 
ATOM     10  C   UNL     1       0.608   1.238  -0.028  1.00  0.00     0.146 A 
ATOM     11  O   UNL     1       0.693   2.562   0.029  1.00  0.00    -0.452 OA
ENDROOT
BRANCH   1  12
ATOM     12  C   UNL     1       0.524   4.742   1.044  1.00  0.00     0.025 A 
ATOM     13  C   UNL     1       1.794   5.338   1.115  1.00  0.00     0.016 A 
ATOM     14  C   UNL     1       1.927   6.725   1.035  1.00  0.00     0.051 A 
ATOM     15  C   UNL     1       0.804   7.542   0.872  1.00  0.00     0.157 A 
ATOM     16  C   UNL     1      -0.602   5.558   0.860  1.00  0.00     0.062 A 
ATOM     17  C   UNL     1      -0.478   6.951   0.780  1.00  0.00     0.158 A 
BRANCH  15  18
ATOM     18  O   UNL     1       1.006   8.922   0.806  1.00  0.00    -0.504 OA
ATOM     19  H   UNL     1       1.911   9.356   0.691  1.00  0.00     0.293 HD
ENDBRANCH  15  18
BRANCH  17  20
ATOM     20  O   UNL     1      -1.643   7.701   0.608  1.00  0.00    -0.504 OA
ATOM     21  H   UNL     1      -2.150   8.139   1.362  1.00  0.00     0.293 HD
ENDBRANCH  17  20
ENDBRANCH   1  12
BRANCH   2  22
ATOM     22  O   UNL     1      -0.603   3.364   3.330  1.00  0.00    -0.502 OA
ATOM     23  H   UNL     1      -0.663   4.375   3.314  1.00  0.00     0.293 HD
ENDBRANCH   2  22
BRANCH   6  24
ATOM     24  O   UNL     1      -0.172  -1.789   2.053  1.00  0.00    -0.507 OA
ATOM     25  H   UNL     1      -0.096  -2.794   2.025  1.00  0.00     0.293 HD
ENDBRANCH   6  24
BRANCH   8  26
ATOM     26  O   UNL     1       1.215  -1.435  -2.513  1.00  0.00    -0.508 OA
ATOM     27  H   UNL     1       1.440  -2.423  -2.536  1.00  0.00     0.293 HD
ENDBRANCH   8  26
TORSDOF 6
ENDMDL
MODEL 5
REMARK VINA RESULT:    -1.589      3.284      4.611
REMARK INTER + INTRA:          -2.245
REMARK INTER:                  -1.995
REMARK INTRA:                  -0.250
REMARK UNBOUND:                -0.331
REMARK SMILES O=c1c(O)c(-c2ccc(O)c(O)c2)oc2cc(O)cc(O)c12
REMARK SMILES IDX 5 1 3 2 2 3 1 4 22 5 20 6 19 7 17 8 16 9 15 10 14 11 6 12
REMARK SMILES IDX 7 13 8 14 9 15 13 16 11 17 10 18 12 20 4 22 21 24 18 26
REMARK H PARENT 10 19 12 21 4 23 21 25 18 27
REMARK Flexibility Score: inf
ROOT
ATOM      1  C   UNL     1      -0.054   4.772   0.842  1.00  0.00     0.180 A 
ATOM      2  C   UNL     1       1.031   5.646   1.027  1.00  0.00     0.208 A 
ATOM      3  C   UNL     1       0.822   7.029   0.894  1.00  0.00     0.238 A 
ATOM      4  O   UNL     1       1.808   7.803   1.006  1.00  0.00    -0.285 OA
ATOM      5  C   UNL     1      -0.471   7.521   0.593  1.00  0.00     0.111 A 
ATOM      6  C   UNL     1      -0.805   8.902   0.474  1.00  0.00     0.134 A 
ATOM      7  C   UNL     1      -2.087   9.269   0.046  1.00  0.00     0.093 A 
ATOM      8  C   UNL     1      -3.064   8.308  -0.206  1.00  0.00     0.123 A 
ATOM      9  C   UNL     1      -2.767   6.955  -0.035  1.00  0.00     0.094 A 
ATOM     10  C   UNL     1      -1.486   6.557   0.356  1.00  0.00     0.146 A 
ATOM     11  O   UNL     1      -1.240   5.259   0.496  1.00  0.00    -0.452 OA
ENDROOT
BRANCH   1  12
ATOM     12  C   UNL     1       0.081   3.305   0.990  1.00  0.00     0.025 A 
ATOM     13  C   UNL     1       0.733   2.529   0.018  1.00  0.00     0.016 A 
ATOM     14  C   UNL     1       0.869   1.151   0.192  1.00  0.00     0.051 A 
ATOM     15  C   UNL     1       0.373   0.523   1.339  1.00  0.00     0.157 A 
ATOM     16  C   UNL     1      -0.398   2.681   2.152  1.00  0.00     0.062 A 
ATOM     17  C   UNL     1      -0.266   1.298   2.335  1.00  0.00     0.158 A 
BRANCH  15  18
ATOM     18  O   UNL     1       0.538  -0.860   1.449  1.00  0.00    -0.504 OA
ATOM     19  H   UNL     1       0.748  -1.336   2.314  1.00  0.00     0.293 HD
ENDBRANCH  15  18
BRANCH  17  20
ATOM     20  O   UNL     1      -0.778   0.744   3.509  1.00  0.00    -0.504 OA
ATOM     21  H   UNL     1      -0.373   0.882   4.423  1.00  0.00     0.293 HD
ENDBRANCH  17  20
ENDBRANCH   1  12
BRANCH   2  22
ATOM     22  O   UNL     1       2.303   5.139   1.302  1.00  0.00    -0.502 OA
ATOM     23  H   UNL     1       2.471   4.459   2.034  1.00  0.00     0.293 HD
ENDBRANCH   2  22
BRANCH   6  24
ATOM     24  O   UNL     1       0.070   9.947   0.791  1.00  0.00    -0.507 OA
ATOM     25  H   UNL     1      -0.001  10.886   0.430  1.00  0.00     0.293 HD
ENDBRANCH   6  24
BRANCH   8  26
ATOM     26  O   UNL     1      -4.334   8.710  -0.616  1.00  0.00    -0.508 OA
ATOM     27  H   UNL     1      -5.042   8.036  -0.883  1.00  0.00     0.293 HD
ENDBRANCH   8  26
TORSDOF 6
ENDMDL
MODEL 6
REMARK VINA RESULT:    -0.612      1.921      7.228
REMARK INTER + INTRA:          -1.068
REMARK INTER:                  -0.746
REMARK INTRA:                  -0.322
REMARK UNBOUND:                -0.331
REMARK SMILES O=c1c(O)c(-c2ccc(O)c(O)c2)oc2cc(O)cc(O)c12
REMARK SMILES IDX 5 1 3 2 2 3 1 4 22 5 20 6 19 7 17 8 16 9 15 10 14 11 6 12
REMARK SMILES IDX 7 13 8 14 9 15 13 16 11 17 10 18 12 20 4 22 21 24 18 26
REMARK H PARENT 10 19 12 21 4 23 21 25 18 27
REMARK Flexibility Score: inf
ROOT
ATOM      1  C   UNL     1      -2.450   8.101  -0.170  1.00  0.00     0.180 A 
ATOM      2  C   UNL     1      -2.236   6.737   0.096  1.00  0.00     0.208 A 
ATOM      3  C   UNL     1      -0.935   6.295   0.387  1.00  0.00     0.238 A 
ATOM      4  O   UNL     1      -0.741   5.065   0.571  1.00  0.00    -0.285 OA
ATOM      5  C   UNL     1       0.133   7.224   0.424  1.00  0.00     0.111 A 
ATOM      6  C   UNL     1       1.483   6.894   0.746  1.00  0.00     0.134 A 
ATOM      7  C   UNL     1       2.480   7.869   0.625  1.00  0.00     0.093 A 
ATOM      8  C   UNL     1       2.168   9.176   0.255  1.00  0.00     0.123 A 
ATOM      9  C   UNL     1       0.842   9.525  -0.004  1.00  0.00     0.094 A 
ATOM     10  C   UNL     1      -0.170   8.565   0.073  1.00  0.00     0.146 A 
ATOM     11  O   UNL     1      -1.417   8.936  -0.193  1.00  0.00    -0.452 OA
ENDROOT
BRANCH   1  12
ATOM     12  C   UNL     1      -3.795   8.646  -0.460  1.00  0.00     0.025 A 
ATOM     13  C   UNL     1      -4.279   8.739  -1.775  1.00  0.00     0.016 A 
ATOM     14  C   UNL     1      -5.561   9.234  -2.021  1.00  0.00     0.051 A 
ATOM     15  C   UNL     1      -6.387   9.633  -0.966  1.00  0.00     0.157 A 
ATOM     16  C   UNL     1      -4.630   9.026   0.602  1.00  0.00     0.062 A 
ATOM     17  C   UNL     1      -5.917   9.525   0.364  1.00  0.00     0.158 A 
BRANCH  15  18
ATOM     18  O   UNL     1      -7.656  10.125  -1.281  1.00  0.00    -0.504 OA
ATOM     19  H   UNL     1      -8.513   9.613  -1.130  1.00  0.00     0.293 HD
ENDBRANCH  15  18
BRANCH  17  20
ATOM     20  O   UNL     1      -6.688   9.895   1.468  1.00  0.00    -0.504 OA
ATOM     21  H   UNL     1      -7.696   9.856   1.493  1.00  0.00     0.293 HD
ENDBRANCH  17  20
ENDBRANCH   1  12
BRANCH   2  22
ATOM     22  O   UNL     1      -3.300   5.834   0.033  1.00  0.00    -0.502 OA
ATOM     23  H   UNL     1      -3.286   4.943   0.515  1.00  0.00     0.293 HD
ENDBRANCH   2  22
BRANCH   6  24
ATOM     24  O   UNL     1       1.889   5.640   1.215  1.00  0.00    -0.507 OA
ATOM     25  H   UNL     1       2.834   5.402   1.477  1.00  0.00     0.293 HD
ENDBRANCH   6  24
BRANCH   8  26
ATOM     26  O   UNL     1       3.184  10.124   0.160  1.00  0.00    -0.508 OA
ATOM     27  H   UNL     1       3.432  10.548  -0.727  1.00  0.00     0.293 HD
ENDBRANCH   8  26
TORSDOF 6
ENDMDL
