MODEL 1
REMARK VINA RESULT:    -4.169      0.000      0.000
REMARK INTER + INTRA:          -8.588
REMARK INTER:                  -7.093
REMARK INTRA:                  -1.495
REMARK UNBOUND:                -1.495
REMARK SMILES CCCCCCCCCCCCCC(=O)[O-]
REMARK SMILES IDX 8 1 9 2 10 3 11 4 12 5 13 6 14 7 15 8 16 9 7 10 6 11 5 12
REMARK SMILES IDX 4 13 3 14 2 15 1 16
REMARK H PARENT
REMARK Flexibility Score: inf
ROOT
ATOM      1  C   UNL     1     163.649 162.130 183.093  1.00  0.00     0.000 C 
ENDROOT
BRANCH   1   2
ATOM      2  C   UNL     1     163.772 160.609 182.891  1.00  0.00     0.000 C 
BRANCH   2   3
ATOM      3  C   UNL     1     165.143 160.059 183.324  1.00  0.00     0.000 C 
BRANCH   3   4
ATOM      4  C   UNL     1     166.258 160.402 182.323  1.00  0.00     0.000 C 
BRANCH   4   5
ATOM      5  C   UNL     1     167.521 160.951 183.005  1.00  0.00     0.006 C 
BRANCH   5   6
ATOM      6  C   UNL     1     167.210 161.432 184.425  1.00  0.00     0.053 C 
BRANCH   6   7
ATOM      7  C   UNL     1     167.296 162.924 184.504  1.00  0.00     0.041 C 
ATOM      8  O   UNL     1     168.357 163.515 184.172  1.00  0.00    -0.550 OA
ATOM      9  O   UNL     1     166.223 163.659 184.992  1.00  0.00    -0.550 OA
ENDBRANCH   6   7
ENDBRANCH   5   6
ENDBRANCH   4   5
ENDBRANCH   3   4
ENDBRANCH   2   3
ENDBRANCH   1   2
BRANCH   1  10
ATOM     10  C   UNL     1     162.210 162.683 183.049  1.00  0.00     0.000 C 
BRANCH  10  11
ATOM     11  C   UNL     1     161.141 161.781 183.699  1.00  0.00    -0.000 C 
BRANCH  11  12
ATOM     12  C   UNL     1     160.186 161.091 182.708  1.00  0.00    -0.000 C 
BRANCH  12  13
ATOM     13  C   UNL     1     160.263 161.683 181.294  1.00  0.00    -0.000 C 
BRANCH  13  14
ATOM     14  C   UNL     1     160.446 160.579 180.246  1.00  0.00    -0.000 C 
BRANCH  14  15
ATOM     15  C   UNL     1     161.920 160.437 179.849  1.00  0.00    -0.003 C 
ATOM     16  C   UNL     1     162.517 161.784 179.452  1.00  0.00     0.004 C 
ENDBRANCH  14  15
ENDBRANCH  13  14
ENDBRANCH  12  13
ENDBRANCH  11  12
ENDBRANCH  10  11
ENDBRANCH   1  10
TORSDOF 12
ENDMDL
MODEL 2
REMARK VINA RESULT:    -4.149      2.855      5.675
REMARK INTER + INTRA:          -8.555
REMARK INTER:                  -6.847
REMARK INTRA:                  -1.708
REMARK UNBOUND:                -1.495
REMARK SMILES CCCCCCCCCCCCCC(=O)[O-]
REMARK SMILES IDX 8 1 9 2 10 3 11 4 12 5 13 6 14 7 15 8 16 9 7 10 6 11 5 12
REMARK SMILES IDX 4 13 3 14 2 15 1 16
REMARK H PARENT
REMARK Flexibility Score: inf
ROOT
ATOM      1  C   UNL     1     160.880 163.427 182.343  1.00  0.00     0.000 C 
ENDROOT
BRANCH   1   2
ATOM      2  C   UNL     1     160.475 162.257 183.256  1.00  0.00     0.000 C 
BRANCH   2   3
ATOM      3  C   UNL     1     160.304 160.934 182.489  1.00  0.00     0.000 C 
BRANCH   3   4
ATOM      4  C   UNL     1     160.203 161.143 180.969  1.00  0.00     0.000 C 
BRANCH   4   5
ATOM      5  C   UNL     1     161.352 160.474 180.200  1.00  0.00     0.006 C 
BRANCH   5   6
ATOM      6  C   UNL     1     162.204 161.518 179.473  1.00  0.00     0.053 C 
BRANCH   6   7
ATOM      7  C   UNL     1     163.352 160.863 178.771  1.00  0.00     0.041 C 
ATOM      8  O   UNL     1     163.485 160.984 177.525  1.00  0.00    -0.550 OA
ATOM      9  O   UNL     1     164.248 160.078 179.486  1.00  0.00    -0.550 OA
ENDBRANCH   6   7
ENDBRANCH   5   6
ENDBRANCH   4   5
ENDBRANCH   3   4
ENDBRANCH   2   3
ENDBRANCH   1   2
BRANCH   1  10
ATOM     10  C   UNL     1     162.343 163.895 182.487  1.00  0.00     0.000 C 
BRANCH  10  11
ATOM     11  C   UNL     1     163.237 162.993 183.361  1.00  0.00    -0.000 C 
BRANCH  11  12
ATOM     12  C   UNL     1     164.172 162.054 182.578  1.00  0.00    -0.000 C 
BRANCH  12  13
ATOM     13  C   UNL     1     163.957 160.573 182.924  1.00  0.00    -0.000 C 
BRANCH  13  14
ATOM     14  C   UNL     1     165.276 159.907 183.331  1.00  0.00    -0.000 C 
BRANCH  14  15
ATOM     15  C   UNL     1     166.365 160.956 183.585  1.00  0.00    -0.003 C 
ATOM     16  C   UNL     1     167.718 160.296 183.838  1.00  0.00     0.004 C 
ENDBRANCH  14  15
ENDBRANCH  13  14
ENDBRANCH  12  13
ENDBRANCH  11  12
ENDBRANCH  10  11
ENDBRANCH   1  10
TORSDOF 12
ENDMDL
MODEL 3
REMARK VINA RESULT:    -4.117      2.021      2.387
REMARK INTER + INTRA:          -8.501
REMARK INTER:                  -6.999
REMARK INTRA:                  -1.501
REMARK UNBOUND:                -1.495
REMARK SMILES CCCCCCCCCCCCCC(=O)[O-]
REMARK SMILES IDX 8 1 9 2 10 3 11 4 12 5 13 6 14 7 15 8 16 9 7 10 6 11 5 12
REMARK SMILES IDX 4 13 3 14 2 15 1 16
REMARK H PARENT
REMARK Flexibility Score: inf
ROOT
ATOM      1  C   UNL     1     163.268 162.894 183.222  1.00  0.00     0.000 C 
ENDROOT
BRANCH   1   2
ATOM      2  C   UNL     1     164.036 161.869 182.369  1.00  0.00     0.000 C 
BRANCH   2   3
ATOM      3  C   UNL     1     164.012 160.454 182.972  1.00  0.00     0.000 C 
BRANCH   3   4
ATOM      4  C   UNL     1     165.413 159.954 183.359  1.00  0.00     0.000 C 
BRANCH   4   5
ATOM      5  C   UNL     1     166.521 160.550 182.479  1.00  0.00     0.006 C 
BRANCH   5   6
ATOM      6  C   UNL     1     167.884 160.448 183.172  1.00  0.00     0.053 C 
BRANCH   6   7
ATOM      7  C   UNL     1     168.970 160.237 182.164  1.00  0.00     0.041 C 
ATOM      8  O   UNL     1     170.173 160.430 182.480  1.00  0.00    -0.550 OA
ATOM      9  O   UNL     1     168.650 159.875 180.862  1.00  0.00    -0.550 OA
ENDBRANCH   6   7
ENDBRANCH   5   6
ENDBRANCH   4   5
ENDBRANCH   3   4
ENDBRANCH   2   3
ENDBRANCH   1   2
BRANCH   1  10
ATOM     10  C   UNL     1     162.141 163.647 182.484  1.00  0.00     0.000 C 
BRANCH  10  11
ATOM     11  C   UNL     1     160.718 163.114 182.743  1.00  0.00    -0.000 C 
BRANCH  11  12
ATOM     12  C   UNL     1     160.649 161.832 183.592  1.00  0.00    -0.000 C 
BRANCH  12  13
ATOM     13  C   UNL     1     160.261 160.593 182.771  1.00  0.00    -0.000 C 
BRANCH  13  14
ATOM     14  C   UNL     1     160.082 160.950 181.291  1.00  0.00    -0.000 C 
BRANCH  14  15
ATOM     15  C   UNL     1     161.183 160.314 180.435  1.00  0.00    -0.003 C 
ATOM     16  C   UNL     1     161.756 161.319 179.439  1.00  0.00     0.004 C 
ENDBRANCH  14  15
ENDBRANCH  13  14
ENDBRANCH  12  13
ENDBRANCH  11  12
ENDBRANCH  10  11
ENDBRANCH   1  10
TORSDOF 12
ENDMDL
MODEL 4
REMARK VINA RESULT:    -4.102      1.779      2.719
REMARK INTER + INTRA:          -8.475
REMARK INTER:                  -6.427
REMARK INTRA:                  -2.048
REMARK UNBOUND:                -1.495
REMARK SMILES CCCCCCCCCCCCCC(=O)[O-]
REMARK SMILES IDX 8 1 9 2 10 3 11 4 12 5 13 6 14 7 15 8 16 9 7 10 6 11 5 12
REMARK SMILES IDX 4 13 3 14 2 15 1 16
REMARK H PARENT
REMARK Flexibility Score: inf
ROOT
ATOM      1  C   UNL     1     160.959 163.529 182.686  1.00  0.00     0.000 C 
ENDROOT
BRANCH   1   2
ATOM      2  C   UNL     1     162.429 163.903 182.432  1.00  0.00     0.000 C 
BRANCH   2   3
ATOM      3  C   UNL     1     163.403 163.155 183.359  1.00  0.00     0.000 C 
BRANCH   3   4
ATOM      4  C   UNL     1     164.374 162.248 182.586  1.00  0.00     0.000 C 
BRANCH   4   5
ATOM      5  C   UNL     1     164.174 160.758 182.902  1.00  0.00     0.006 C 
BRANCH   5   6
ATOM      6  C   UNL     1     165.285 159.912 182.272  1.00  0.00     0.053 C 
BRANCH   6   7
ATOM      7  C   UNL     1     166.600 160.204 182.924  1.00  0.00     0.041 C 
ATOM      8  O   UNL     1     167.602 160.502 182.222  1.00  0.00    -0.550 OA
ATOM      9  O   UNL     1     166.732 160.099 184.303  1.00  0.00    -0.550 OA
ENDBRANCH   6   7
ENDBRANCH   5   6
ENDBRANCH   4   5
ENDBRANCH   3   4
ENDBRANCH   2   3
ENDBRANCH   1   2
BRANCH   1  10
ATOM     10  C   UNL     1     160.741 162.327 183.627  1.00  0.00     0.000 C 
BRANCH  10  11
ATOM     11  C   UNL     1     160.268 161.031 182.938  1.00  0.00    -0.000 C 
BRANCH  11  12
ATOM     12  C   UNL     1     160.128 161.124 181.408  1.00  0.00    -0.000 C 
BRANCH  12  13
ATOM     13  C   UNL     1     161.278 160.434 180.660  1.00  0.00    -0.000 C 
BRANCH  13  14
ATOM     14  C   UNL     1     161.763 161.292 179.486  1.00  0.00    -0.000 C 
BRANCH  14  15
ATOM     15  C   UNL     1     163.156 160.851 179.021  1.00  0.00    -0.003 C 
ATOM     16  C   UNL     1     164.106 162.041 178.921  1.00  0.00     0.004 C 
ENDBRANCH  14  15
ENDBRANCH  13  14
ENDBRANCH  12  13
ENDBRANCH  11  12
ENDBRANCH  10  11
ENDBRANCH   1  10
TORSDOF 12
ENDMDL
MODEL 5
REMARK VINA RESULT:    -4.014      2.781      6.389
REMARK INTER + INTRA:          -8.324
REMARK INTER:                  -6.890
REMARK INTRA:                  -1.434
REMARK UNBOUND:                -1.495
REMARK SMILES CCCCCCCCCCCCCC(=O)[O-]
REMARK SMILES IDX 8 1 9 2 10 3 11 4 12 5 13 6 14 7 15 8 16 9 7 10 6 11 5 12
REMARK SMILES IDX 4 13 3 14 2 15 1 16
REMARK H PARENT
REMARK Flexibility Score: inf
ROOT
ATOM      1  C   UNL     1     163.606 162.102 182.697  1.00  0.00     0.000 C 
ENDROOT
BRANCH   1   2
ATOM      2  C   UNL     1     162.356 162.816 183.238  1.00  0.00     0.000 C 
BRANCH   2   3
ATOM      3  C   UNL     1     161.206 161.845 183.558  1.00  0.00     0.000 C 
BRANCH   3   4
ATOM      4  C   UNL     1     160.150 161.794 182.442  1.00  0.00     0.000 C 
BRANCH   4   5
ATOM      5  C   UNL     1     160.152 160.458 181.683  1.00  0.00     0.006 C 
BRANCH   5   6
ATOM      6  C   UNL     1     160.229 160.689 180.170  1.00  0.00     0.053 C 
BRANCH   6   7
ATOM      7  C   UNL     1     161.628 161.029 179.762  1.00  0.00     0.041 C 
ATOM      8  O   UNL     1     162.535 160.159 179.825  1.00  0.00    -0.550 OA
ATOM      9  O   UNL     1     161.940 162.321 179.358  1.00  0.00    -0.550 OA
ENDBRANCH   6   7
ENDBRANCH   5   6
ENDBRANCH   4   5
ENDBRANCH   3   4
ENDBRANCH   2   3
ENDBRANCH   1   2
BRANCH   1  10
ATOM     10  C   UNL     1     163.771 160.636 183.150  1.00  0.00     0.000 C 
BRANCH  10  11
ATOM     11  C   UNL     1     165.082 159.957 182.708  1.00  0.00    -0.000 C 
BRANCH  11  12
ATOM     12  C   UNL     1     166.213 159.985 183.753  1.00  0.00    -0.000 C 
BRANCH  12  13
ATOM     13  C   UNL     1     167.116 161.220 183.621  1.00  0.00    -0.000 C 
BRANCH  13  14
ATOM     14  C   UNL     1     167.339 161.884 184.985  1.00  0.00    -0.000 C 
BRANCH  14  15
ATOM     15  C   UNL     1     167.245 163.410 184.876  1.00  0.00    -0.003 C 
ATOM     16  C   UNL     1     166.720 163.834 183.507  1.00  0.00     0.004 C 
ENDBRANCH  14  15
ENDBRANCH  13  14
ENDBRANCH  12  13
ENDBRANCH  11  12
ENDBRANCH  10  11
ENDBRANCH   1  10
TORSDOF 12
ENDMDL
MODEL 6
REMARK VINA RESULT:    -3.957      1.205      2.571
REMARK INTER + INTRA:          -8.229
REMARK INTER:                  -6.864
REMARK INTRA:                  -1.365
REMARK UNBOUND:                -1.495
REMARK SMILES CCCCCCCCCCCCCC(=O)[O-]
REMARK SMILES IDX 8 1 9 2 10 3 11 4 12 5 13 6 14 7 15 8 16 9 7 10 6 11 5 12
REMARK SMILES IDX 4 13 3 14 2 15 1 16
REMARK H PARENT
REMARK Flexibility Score: inf
ROOT
ATOM      1  C   UNL     1     163.855 161.003 180.646  1.00  0.00     0.000 C 
ENDROOT
BRANCH   1   2
ATOM      2  C   UNL     1     163.759 160.615 182.132  1.00  0.00     0.000 C 
BRANCH   2   3
ATOM      3  C   UNL     1     164.962 161.108 182.956  1.00  0.00     0.000 C 
BRANCH   3   4
ATOM      4  C   UNL     1     165.838 159.953 183.468  1.00  0.00     0.000 C 
BRANCH   4   5
ATOM      5  C   UNL     1     167.048 160.440 184.280  1.00  0.00     0.006 C 
BRANCH   5   6
ATOM      6  C   UNL     1     167.140 161.968 184.260  1.00  0.00     0.053 C 
BRANCH   6   7
ATOM      7  C   UNL     1     168.299 162.413 183.424  1.00  0.00     0.041 C 
ATOM      8  O   UNL     1     168.789 161.642 182.559  1.00  0.00    -0.550 OA
ATOM      9  O   UNL     1     168.870 163.662 183.635  1.00  0.00    -0.550 OA
ENDBRANCH   6   7
ENDBRANCH   5   6
ENDBRANCH   4   5
ENDBRANCH   3   4
ENDBRANCH   2   3
ENDBRANCH   1   2
BRANCH   1  10
ATOM     10  C   UNL     1     162.509 161.317 179.962  1.00  0.00     0.000 C 
BRANCH  10  11
ATOM     11  C   UNL     1     161.360 160.346 180.299  1.00  0.00    -0.000 C 
BRANCH  11  12
ATOM     12  C   UNL     1     160.166 160.983 181.034  1.00  0.00    -0.000 C 
BRANCH  12  13
ATOM     13  C   UNL     1     160.060 160.536 182.499  1.00  0.00    -0.000 C 
BRANCH  13  14
ATOM     14  C   UNL     1     160.553 161.635 183.446  1.00  0.00    -0.000 C 
BRANCH  14  15
ATOM     15  C   UNL     1     160.493 163.010 182.770  1.00  0.00    -0.003 C 
ATOM     16  C   UNL     1     161.845 163.715 182.832  1.00  0.00     0.004 C 
ENDBRANCH  14  15
ENDBRANCH  13  14
ENDBRANCH  12  13
ENDBRANCH  11  12
ENDBRANCH  10  11
ENDBRANCH   1  10
TORSDOF 12
ENDMDL
MODEL 7
REMARK VINA RESULT:    -3.933      3.100      6.383
REMARK INTER + INTRA:          -8.186
REMARK INTER:                  -6.603
REMARK INTRA:                  -1.583
REMARK UNBOUND:                -1.495
REMARK SMILES CCCCCCCCCCCCCC(=O)[O-]
REMARK SMILES IDX 8 1 9 2 10 3 11 4 12 5 13 6 14 7 15 8 16 9 7 10 6 11 5 12
REMARK SMILES IDX 4 13 3 14 2 15 1 16
REMARK H PARENT
REMARK Flexibility Score: inf
ROOT
ATOM      1  C   UNL     1     163.935 162.107 181.794  1.00  0.00     0.000 C 
ENDROOT
BRANCH   1   2
ATOM      2  C   UNL     1     163.486 162.745 183.120  1.00  0.00     0.000 C 
BRANCH   2   3
ATOM      3  C   UNL     1     161.969 162.996 183.176  1.00  0.00     0.000 C 
BRANCH   3   4
ATOM      4  C   UNL     1     161.181 161.749 183.608  1.00  0.00     0.000 C 
BRANCH   4   5
ATOM      5  C   UNL     1     160.428 161.088 182.443  1.00  0.00     0.006 C 
BRANCH   5   6
ATOM      6  C   UNL     1     160.281 162.058 181.267  1.00  0.00     0.053 C 
BRANCH   6   7
ATOM      7  C   UNL     1     160.640 161.382 179.981  1.00  0.00     0.041 C 
ATOM      8  O   UNL     1     160.247 161.858 178.884  1.00  0.00    -0.550 OA
ATOM      9  O   UNL     1     161.366 160.198 179.997  1.00  0.00    -0.550 OA
ENDBRANCH   6   7
ENDBRANCH   5   6
ENDBRANCH   4   5
ENDBRANCH   3   4
ENDBRANCH   2   3
ENDBRANCH   1   2
BRANCH   1  10
ATOM     10  C   UNL     1     164.384 160.635 181.894  1.00  0.00     0.000 C 
BRANCH  10  11
ATOM     11  C   UNL     1     164.662 160.129 183.323  1.00  0.00    -0.000 C 
BRANCH  11  12
ATOM     12  C   UNL     1     166.145 159.875 183.645  1.00  0.00    -0.000 C 
BRANCH  12  13
ATOM     13  C   UNL     1     166.880 161.140 184.114  1.00  0.00    -0.000 C 
BRANCH  13  14
ATOM     14  C   UNL     1     167.989 161.527 183.130  1.00  0.00    -0.000 C 
BRANCH  14  15
ATOM     15  C   UNL     1     168.393 160.332 182.258  1.00  0.00    -0.003 C 
ATOM     16  C   UNL     1     168.161 160.625 180.779  1.00  0.00     0.004 C 
ENDBRANCH  14  15
ENDBRANCH  13  14
ENDBRANCH  12  13
ENDBRANCH  11  12
ENDBRANCH  10  11
ENDBRANCH   1  10
TORSDOF 12
ENDMDL
MODEL 8
REMARK VINA RESULT:    -3.901      1.232      3.006
REMARK INTER + INTRA:          -8.133
REMARK INTER:                  -6.232
REMARK INTRA:                  -1.901
REMARK UNBOUND:                -1.495
REMARK SMILES CCCCCCCCCCCCCC(=O)[O-]
REMARK SMILES IDX 8 1 9 2 10 3 11 4 12 5 13 6 14 7 15 8 16 9 7 10 6 11 5 12
REMARK SMILES IDX 4 13 3 14 2 15 1 16
REMARK H PARENT
REMARK Flexibility Score: inf
ROOT
ATOM      1  C   UNL     1     161.743 161.521 179.287  1.00  0.00     0.000 C 
ENDROOT
BRANCH   1   2
ATOM      2  C   UNL     1     162.811 160.582 179.876  1.00  0.00     0.000 C 
BRANCH   2   3
ATOM      3  C   UNL     1     163.773 161.301 180.837  1.00  0.00     0.000 C 
BRANCH   3   4
ATOM      4  C   UNL     1     164.034 160.497 182.121  1.00  0.00     0.000 C 
BRANCH   4   5
ATOM      5  C   UNL     1     165.393 160.821 182.760  1.00  0.00     0.006 C 
BRANCH   5   6
ATOM      6  C   UNL     1     165.590 162.335 182.887  1.00  0.00     0.053 C 
BRANCH   6   7
ATOM      7  C   UNL     1     166.354 162.662 184.131  1.00  0.00     0.041 C 
ATOM      8  O   UNL     1     166.231 163.793 184.671  1.00  0.00    -0.550 OA
ATOM      9  O   UNL     1     167.239 161.736 184.667  1.00  0.00    -0.550 OA
ENDBRANCH   6   7
ENDBRANCH   5   6
ENDBRANCH   4   5
ENDBRANCH   3   4
ENDBRANCH   2   3
ENDBRANCH   1   2
BRANCH   1  10
ATOM     10  C   UNL     1     160.325 161.347 179.869  1.00  0.00     0.000 C 
BRANCH  10  11
ATOM     11  C   UNL     1     160.115 160.076 180.716  1.00  0.00    -0.000 C 
BRANCH  11  12
ATOM     12  C   UNL     1     159.967 160.322 182.228  1.00  0.00    -0.000 C 
BRANCH  12  13
ATOM     13  C   UNL     1     160.008 161.811 182.598  1.00  0.00    -0.000 C 
BRANCH  13  14
ATOM     14  C   UNL     1     160.988 162.065 183.748  1.00  0.00    -0.000 C 
BRANCH  14  15
ATOM     15  C   UNL     1     161.975 163.183 183.393  1.00  0.00    -0.003 C 
ATOM     16  C   UNL     1     161.425 164.072 182.282  1.00  0.00     0.004 C 
ENDBRANCH  14  15
ENDBRANCH  13  14
ENDBRANCH  12  13
ENDBRANCH  11  12
ENDBRANCH  10  11
ENDBRANCH   1  10
TORSDOF 12
ENDMDL
MODEL 9
REMARK VINA RESULT:    -3.864      3.310      5.744
REMARK INTER + INTRA:          -8.069
REMARK INTER:                  -5.840
REMARK INTRA:                  -2.229
REMARK UNBOUND:                -1.495
REMARK SMILES CCCCCCCCCCCCCC(=O)[O-]
REMARK SMILES IDX 8 1 9 2 10 3 11 4 12 5 13 6 14 7 15 8 16 9 7 10 6 11 5 12
REMARK SMILES IDX 4 13 3 14 2 15 1 16
REMARK H PARENT
REMARK Flexibility Score: inf
ROOT
ATOM      1  C   UNL     1     161.034 161.044 179.525  1.00  0.00     0.000 C 
ENDROOT
BRANCH   1   2
ATOM      2  C   UNL     1     162.305 161.901 179.388  1.00  0.00     0.000 C 
BRANCH   2   3
ATOM      3  C   UNL     1     161.999 163.367 179.036  1.00  0.00     0.000 C 
BRANCH   3   4
ATOM      4  C   UNL     1     162.016 164.285 180.269  1.00  0.00     0.000 C 
BRANCH   4   5
ATOM      5  C   UNL     1     160.613 164.543 180.838  1.00  0.00     0.006 C 
BRANCH   5   6
ATOM      6  C   UNL     1     160.694 165.250 182.194  1.00  0.00     0.053 C 
BRANCH   6   7
ATOM      7  C   UNL     1     160.437 166.716 182.037  1.00  0.00     0.041 C 
ATOM      8  O   UNL     1     160.624 167.499 183.005  1.00  0.00    -0.550 OA
ATOM      9  O   UNL     1     159.942 167.211 180.837  1.00  0.00    -0.550 OA
ENDBRANCH   6   7
ENDBRANCH   5   6
ENDBRANCH   4   5
ENDBRANCH   3   4
ENDBRANCH   2   3
ENDBRANCH   1   2
BRANCH   1  10
ATOM     10  C   UNL     1     160.873 160.322 180.879  1.00  0.00     0.000 C 
BRANCH  10  11
ATOM     11  C   UNL     1     159.950 161.027 181.892  1.00  0.00    -0.000 C 
BRANCH  11  12
ATOM     12  C   UNL     1     160.653 161.544 183.160  1.00  0.00    -0.000 C 
BRANCH  12  13
ATOM     13  C   UNL     1     162.150 161.206 183.192  1.00  0.00    -0.000 C 
BRANCH  13  14
ATOM     14  C   UNL     1     163.000 162.482 183.206  1.00  0.00    -0.000 C 
BRANCH  14  15
ATOM     15  C   UNL     1     164.377 162.233 182.579  1.00  0.00    -0.003 C 
ATOM     16  C   UNL     1     164.532 160.777 182.148  1.00  0.00     0.004 C 
ENDBRANCH  14  15
ENDBRANCH  13  14
ENDBRANCH  12  13
ENDBRANCH  11  12
ENDBRANCH  10  11
ENDBRANCH   1  10
TORSDOF 12
ENDMDL
