MODEL 1
REMARK VINA RESULT:    -3.961      0.000      0.000
REMARK INTER + INTRA:          -9.749
REMARK INTER:                  -7.666
REMARK INTRA:                  -2.083
REMARK UNBOUND:                -2.083
REMARK SMILES CCCCCCCCCCCCCCCCCC(=O)[O-]
REMARK SMILES IDX 10 1 11 2 12 3 13 4 14 5 15 6 16 7 17 8 18 9 19 10 20 11
REMARK SMILES IDX 9 12 8 13 7 14 6 15 5 16 4 17 3 18 2 19 1 20
REMARK H PARENT
REMARK Flexibility Score: inf
ROOT
ATOM      1  C   UNL     1     119.215  52.437  54.159  1.00  0.00     0.000 C 
ENDROOT
BRANCH   1   2
ATOM      2  C   UNL     1     119.041  53.645  55.093  1.00  0.00     0.000 C 
BRANCH   2   3
ATOM      3  C   UNL     1     120.329  53.987  55.862  1.00  0.00     0.000 C 
BRANCH   3   4
ATOM      4  C   UNL     1     121.314  52.808  55.913  1.00  0.00     0.000 C 
BRANCH   4   5
ATOM      5  C   UNL     1     122.627  53.098  55.167  1.00  0.00     0.000 C 
BRANCH   5   6
ATOM      6  C   UNL     1     122.550  54.360  54.290  1.00  0.00     0.000 C 
BRANCH   6   7
ATOM      7  C   UNL     1     122.308  54.095  52.789  1.00  0.00     0.006 C 
BRANCH   7   8
ATOM      8  C   UNL     1     122.874  55.173  51.852  1.00  0.00     0.053 C 
BRANCH   8   9
ATOM      9  C   UNL     1     124.190  55.700  52.335  1.00  0.00     0.041 C 
ATOM     10  O   UNL     1     124.276  56.873  52.785  1.00  0.00    -0.550 OA
ATOM     11  O   UNL     1     125.328  54.907  52.257  1.00  0.00    -0.550 OA
ENDBRANCH   8   9
ENDBRANCH   7   8
ENDBRANCH   6   7
ENDBRANCH   5   6
ENDBRANCH   4   5
ENDBRANCH   3   4
ENDBRANCH   2   3
ENDBRANCH   1   2
BRANCH   1  12
ATOM     12  C   UNL     1     117.890  51.704  53.884  1.00  0.00     0.000 C 
BRANCH  12  13
ATOM     13  C   UNL     1     116.701  52.338  54.621  1.00  0.00    -0.000 C 
BRANCH  13  14
ATOM     14  C   UNL     1     115.529  52.668  53.680  1.00  0.00    -0.000 C 
BRANCH  14  15
ATOM     15  C   UNL     1     115.482  51.729  52.455  1.00  0.00    -0.000 C 
BRANCH  15  16
ATOM     16  C   UNL     1     115.624  52.464  51.112  1.00  0.00    -0.000 C 
BRANCH  16  17
ATOM     17  C   UNL     1     115.523  53.992  51.254  1.00  0.00    -0.000 C 
BRANCH  17  18
ATOM     18  C   UNL     1     116.775  54.717  50.738  1.00  0.00    -0.000 C 
BRANCH  18  19
ATOM     19  C   UNL     1     117.860  54.861  51.816  1.00  0.00    -0.003 C 
ATOM     20  C   UNL     1     118.718  56.099  51.571  1.00  0.00     0.004 C 
ENDBRANCH  18  19
ENDBRANCH  17  18
ENDBRANCH  16  17
ENDBRANCH  15  16
ENDBRANCH  14  15
ENDBRANCH  13  14
ENDBRANCH  12  13
ENDBRANCH   1  12
TORSDOF 16
ENDMDL
MODEL 2
REMARK VINA RESULT:    -3.643      8.774     10.844
REMARK INTER + INTRA:          -9.133
REMARK INTER:                  -6.331
REMARK INTRA:                  -2.802
REMARK UNBOUND:                -2.083
REMARK SMILES CCCCCCCCCCCCCCCCCC(=O)[O-]
REMARK SMILES IDX 10 1 11 2 12 3 13 4 14 5 15 6 16 7 17 8 18 9 19 10 20 11
REMARK SMILES IDX 9 12 8 13 7 14 6 15 5 16 4 17 3 18 2 19 1 20
REMARK H PARENT
REMARK Flexibility Score: inf
ROOT
ATOM      1  C   UNL     1     123.681  52.715  46.492  1.00  0.00     0.000 C 
ENDROOT
BRANCH   1   2
ATOM      2  C   UNL     1     124.896  53.637  46.682  1.00  0.00     0.000 C 
BRANCH   2   3
ATOM      3  C   UNL     1     126.106  53.201  45.838  1.00  0.00     0.000 C 
BRANCH   3   4
ATOM      4  C   UNL     1     125.698  52.366  44.613  1.00  0.00     0.000 C 
BRANCH   4   5
ATOM      5  C   UNL     1     125.816  53.149  43.294  1.00  0.00     0.000 C 
BRANCH   5   6
ATOM      6  C   UNL     1     126.574  54.479  43.456  1.00  0.00     0.000 C 
BRANCH   6   7
ATOM      7  C   UNL     1     125.789  55.732  43.014  1.00  0.00     0.006 C 
BRANCH   7   8
ATOM      8  C   UNL     1     124.555  56.048  43.873  1.00  0.00     0.053 C 
BRANCH   8   9
ATOM      9  C   UNL     1     124.658  57.391  44.527  1.00  0.00     0.041 C 
ATOM     10  O   UNL     1     123.894  57.692  45.481  1.00  0.00    -0.550 OA
ATOM     11  O   UNL     1     125.575  58.325  44.059  1.00  0.00    -0.550 OA
ENDBRANCH   8   9
ENDBRANCH   7   8
ENDBRANCH   6   7
ENDBRANCH   5   6
ENDBRANCH   4   5
ENDBRANCH   3   4
ENDBRANCH   2   3
ENDBRANCH   1   2
BRANCH   1  12
ATOM     12  C   UNL     1     122.591  53.345  45.608  1.00  0.00     0.000 C 
BRANCH  12  13
ATOM     13  C   UNL     1     121.942  52.328  44.657  1.00  0.00    -0.000 C 
BRANCH  13  14
ATOM     14  C   UNL     1     122.199  52.654  43.176  1.00  0.00    -0.000 C 
BRANCH  14  15
ATOM     15  C   UNL     1     121.942  51.440  42.258  1.00  0.00    -0.000 C 
BRANCH  15  16
ATOM     16  C   UNL     1     123.134  51.093  41.350  1.00  0.00    -0.000 C 
BRANCH  16  17
ATOM     17  C   UNL     1     124.129  50.127  42.013  1.00  0.00    -0.000 C 
BRANCH  17  18
ATOM     18  C   UNL     1     123.458  49.206  43.045  1.00  0.00    -0.000 C 
BRANCH  18  19
ATOM     19  C   UNL     1     124.366  48.907  44.247  1.00  0.00    -0.003 C 
ATOM     20  C   UNL     1     123.624  49.116  45.563  1.00  0.00     0.004 C 
ENDBRANCH  18  19
ENDBRANCH  17  18
ENDBRANCH  16  17
ENDBRANCH  15  16
ENDBRANCH  14  15
ENDBRANCH  13  14
ENDBRANCH  12  13
ENDBRANCH   1  12
TORSDOF 16
ENDMDL
MODEL 3
REMARK VINA RESULT:    -3.636      1.279      2.845
REMARK INTER + INTRA:          -9.120
REMARK INTER:                  -6.844
REMARK INTRA:                  -2.275
REMARK UNBOUND:                -2.083
REMARK SMILES CCCCCCCCCCCCCCCCCC(=O)[O-]
REMARK SMILES IDX 10 1 11 2 12 3 13 4 14 5 15 6 16 7 17 8 18 9 19 10 20 11
REMARK SMILES IDX 9 12 8 13 7 14 6 15 5 16 4 17 3 18 2 19 1 20
REMARK H PARENT
REMARK Flexibility Score: inf
ROOT
ATOM      1  C   UNL     1     119.220  52.641  54.001  1.00  0.00     0.000 C 
ENDROOT
BRANCH   1   2
ATOM      2  C   UNL     1     118.728  53.580  55.113  1.00  0.00     0.000 C 
BRANCH   2   3
ATOM      3  C   UNL     1     119.874  54.091  56.004  1.00  0.00     0.000 C 
BRANCH   3   4
ATOM      4  C   UNL     1     121.022  53.076  56.125  1.00  0.00     0.000 C 
BRANCH   4   5
ATOM      5  C   UNL     1     122.393  53.687  55.788  1.00  0.00     0.000 C 
BRANCH   5   6
ATOM      6  C   UNL     1     122.843  53.387  54.347  1.00  0.00     0.000 C 
BRANCH   6   7
ATOM      7  C   UNL     1     122.953  54.622  53.429  1.00  0.00     0.006 C 
BRANCH   7   8
ATOM      8  C   UNL     1     123.111  54.295  51.936  1.00  0.00     0.053 C 
BRANCH   8   9
ATOM      9  C   UNL     1     124.549  54.245  51.523  1.00  0.00     0.041 C 
ATOM     10  O   UNL     1     125.449  54.040  52.380  1.00  0.00    -0.550 OA
ATOM     11  O   UNL     1     124.899  54.459  50.195  1.00  0.00    -0.550 OA
ENDBRANCH   8   9
ENDBRANCH   7   8
ENDBRANCH   6   7
ENDBRANCH   5   6
ENDBRANCH   4   5
ENDBRANCH   3   4
ENDBRANCH   2   3
ENDBRANCH   1   2
BRANCH   1  12
ATOM     12  C   UNL     1     119.508  53.381  52.683  1.00  0.00     0.000 C 
BRANCH  12  13
ATOM     13  C   UNL     1     118.950  54.813  52.676  1.00  0.00    -0.000 C 
BRANCH  13  14
ATOM     14  C   UNL     1     117.853  55.015  51.615  1.00  0.00    -0.000 C 
BRANCH  14  15
ATOM     15  C   UNL     1     116.989  53.751  51.421  1.00  0.00    -0.000 C 
BRANCH  15  16
ATOM     16  C   UNL     1     115.743  53.713  52.322  1.00  0.00    -0.000 C 
BRANCH  16  17
ATOM     17  C   UNL     1     115.611  52.396  53.102  1.00  0.00    -0.000 C 
BRANCH  17  18
ATOM     18  C   UNL     1     116.224  51.202  52.354  1.00  0.00    -0.000 C 
BRANCH  18  19
ATOM     19  C   UNL     1     115.179  50.401  51.563  1.00  0.00    -0.003 C 
ATOM     20  C   UNL     1     115.440  50.485  50.063  1.00  0.00     0.004 C 
ENDBRANCH  18  19
ENDBRANCH  17  18
ENDBRANCH  16  17
ENDBRANCH  15  16
ENDBRANCH  14  15
ENDBRANCH  13  14
ENDBRANCH  12  13
ENDBRANCH   1  12
TORSDOF 16
ENDMDL
MODEL 4
REMARK VINA RESULT:    -3.632      1.342      2.711
REMARK INTER + INTRA:          -9.112
REMARK INTER:                  -7.180
REMARK INTRA:                  -1.933
REMARK UNBOUND:                -2.083
REMARK SMILES CCCCCCCCCCCCCCCCCC(=O)[O-]
REMARK SMILES IDX 10 1 11 2 12 3 13 4 14 5 15 6 16 7 17 8 18 9 19 10 20 11
REMARK SMILES IDX 9 12 8 13 7 14 6 15 5 16 4 17 3 18 2 19 1 20
REMARK H PARENT
REMARK Flexibility Score: inf
ROOT
ATOM      1  C   UNL     1     118.194  51.583  53.647  1.00  0.00     0.000 C 
ENDROOT
BRANCH   1   2
ATOM      2  C   UNL     1     119.179  52.751  53.482  1.00  0.00     0.000 C 
BRANCH   2   3
ATOM      3  C   UNL     1     118.943  53.871  54.510  1.00  0.00     0.000 C 
BRANCH   3   4
ATOM      4  C   UNL     1     119.882  53.763  55.723  1.00  0.00     0.000 C 
BRANCH   4   5
ATOM      5  C   UNL     1     121.217  53.080  55.382  1.00  0.00     0.000 C 
BRANCH   5   6
ATOM      6  C   UNL     1     122.342  54.086  55.080  1.00  0.00     0.000 C 
BRANCH   6   7
ATOM      7  C   UNL     1     122.988  53.942  53.687  1.00  0.00     0.006 C 
BRANCH   7   8
ATOM      8  C   UNL     1     123.481  55.262  53.073  1.00  0.00     0.053 C 
BRANCH   8   9
ATOM      9  C   UNL     1     124.835  55.117  52.450  1.00  0.00     0.041 C 
ATOM     10  O   UNL     1     125.465  56.135  52.059  1.00  0.00    -0.550 OA
ATOM     11  O   UNL     1     125.388  53.855  52.270  1.00  0.00    -0.550 OA
ENDBRANCH   8   9
ENDBRANCH   7   8
ENDBRANCH   6   7
ENDBRANCH   5   6
ENDBRANCH   4   5
ENDBRANCH   3   4
ENDBRANCH   2   3
ENDBRANCH   1   2
BRANCH   1  12
ATOM     12  C   UNL     1     116.895  51.997  54.360  1.00  0.00     0.000 C 
BRANCH  12  13
ATOM     13  C   UNL     1     115.687  52.034  53.412  1.00  0.00    -0.000 C 
BRANCH  13  14
ATOM     14  C   UNL     1     115.242  53.468  53.076  1.00  0.00    -0.000 C 
BRANCH  14  15
ATOM     15  C   UNL     1     115.625  53.875  51.637  1.00  0.00    -0.000 C 
BRANCH  15  16
ATOM     16  C   UNL     1     116.195  52.716  50.802  1.00  0.00    -0.000 C 
BRANCH  16  17
ATOM     17  C   UNL     1     115.249  52.269  49.676  1.00  0.00    -0.000 C 
BRANCH  17  18
ATOM     18  C   UNL     1     115.167  50.741  49.545  1.00  0.00    -0.000 C 
BRANCH  18  19
ATOM     19  C   UNL     1     116.267  50.020  50.339  1.00  0.00    -0.003 C 
ATOM     20  C   UNL     1     115.674  48.964  51.266  1.00  0.00     0.004 C 
ENDBRANCH  18  19
ENDBRANCH  17  18
ENDBRANCH  16  17
ENDBRANCH  15  16
ENDBRANCH  14  15
ENDBRANCH  13  14
ENDBRANCH  12  13
ENDBRANCH   1  12
TORSDOF 16
ENDMDL
MODEL 5
REMARK VINA RESULT:    -3.631      6.386      9.677
REMARK INTER + INTRA:          -9.110
REMARK INTER:                  -6.637
REMARK INTRA:                  -2.474
REMARK UNBOUND:                -2.083
REMARK SMILES CCCCCCCCCCCCCCCCCC(=O)[O-]
REMARK SMILES IDX 10 1 11 2 12 3 13 4 14 5 15 6 16 7 17 8 18 9 19 10 20 11
REMARK SMILES IDX 9 12 8 13 7 14 6 15 5 16 4 17 3 18 2 19 1 20
REMARK H PARENT
REMARK Flexibility Score: inf
ROOT
ATOM      1  C   UNL     1     124.307  56.225  43.793  1.00  0.00     0.000 C 
ENDROOT
BRANCH   1   2
ATOM      2  C   UNL     1     124.649  56.953  45.103  1.00  0.00     0.000 C 
BRANCH   2   3
ATOM      3  C   UNL     1     124.035  56.268  46.336  1.00  0.00     0.000 C 
BRANCH   3   4
ATOM      4  C   UNL     1     125.087  55.927  47.403  1.00  0.00     0.000 C 
BRANCH   4   5
ATOM      5  C   UNL     1     124.458  55.467  48.730  1.00  0.00     0.000 C 
BRANCH   5   6
ATOM      6  C   UNL     1     123.166  56.228  49.074  1.00  0.00     0.000 C 
BRANCH   6   7
ATOM      7  C   UNL     1     122.804  56.251  50.573  1.00  0.00     0.006 C 
BRANCH   7   8
ATOM      8  C   UNL     1     124.010  56.359  51.519  1.00  0.00     0.053 C 
BRANCH   8   9
ATOM      9  C   UNL     1     124.445  57.778  51.712  1.00  0.00     0.041 C 
ATOM     10  O   UNL     1     123.597  58.709  51.704  1.00  0.00    -0.550 OA
ATOM     11  O   UNL     1     125.794  58.078  51.866  1.00  0.00    -0.550 OA
ENDBRANCH   8   9
ENDBRANCH   7   8
ENDBRANCH   6   7
ENDBRANCH   5   6
ENDBRANCH   4   5
ENDBRANCH   3   4
ENDBRANCH   2   3
ENDBRANCH   1   2
BRANCH   1  12
ATOM     12  C   UNL     1     125.559  55.758  43.029  1.00  0.00     0.000 C 
BRANCH  12  13
ATOM     13  C   UNL     1     125.768  54.238  43.113  1.00  0.00    -0.000 C 
BRANCH  13  14
ATOM     14  C   UNL     1     126.864  53.847  44.120  1.00  0.00    -0.000 C 
BRANCH  14  15
ATOM     15  C   UNL     1     126.282  53.186  45.387  1.00  0.00    -0.000 C 
BRANCH  15  16
ATOM     16  C   UNL     1     125.071  52.280  45.107  1.00  0.00    -0.000 C 
BRANCH  16  17
ATOM     17  C   UNL     1     123.879  52.575  46.032  1.00  0.00    -0.000 C 
BRANCH  17  18
ATOM     18  C   UNL     1     122.525  52.367  45.335  1.00  0.00    -0.000 C 
BRANCH  18  19
ATOM     19  C   UNL     1     122.131  53.554  44.445  1.00  0.00    -0.003 C 
ATOM     20  C   UNL     1     122.186  53.176  42.968  1.00  0.00     0.004 C 
ENDBRANCH  18  19
ENDBRANCH  17  18
ENDBRANCH  16  17
ENDBRANCH  15  16
ENDBRANCH  14  15
ENDBRANCH  13  14
ENDBRANCH  12  13
ENDBRANCH   1  12
TORSDOF 16
ENDMDL
MODEL 6
REMARK VINA RESULT:    -3.616      1.477      2.678
REMARK INTER + INTRA:          -9.081
REMARK INTER:                  -7.655
REMARK INTRA:                  -1.425
REMARK UNBOUND:                -2.083
REMARK SMILES CCCCCCCCCCCCCCCCCC(=O)[O-]
REMARK SMILES IDX 10 1 11 2 12 3 13 4 14 5 15 6 16 7 17 8 18 9 19 10 20 11
REMARK SMILES IDX 9 12 8 13 7 14 6 15 5 16 4 17 3 18 2 19 1 20
REMARK H PARENT
REMARK Flexibility Score: inf
ROOT
ATOM      1  C   UNL     1     118.915  53.885  54.534  1.00  0.00     0.000 C 
ENDROOT
BRANCH   1   2
ATOM      2  C   UNL     1     119.887  54.156  55.693  1.00  0.00     0.000 C 
BRANCH   2   3
ATOM      3  C   UNL     1     121.160  53.297  55.609  1.00  0.00     0.000 C 
BRANCH   3   4
ATOM      4  C   UNL     1     122.381  54.099  55.130  1.00  0.00     0.000 C 
BRANCH   4   5
ATOM      5  C   UNL     1     122.513  54.121  53.598  1.00  0.00     0.000 C 
BRANCH   5   6
ATOM      6  C   UNL     1     123.951  54.403  53.126  1.00  0.00     0.000 C 
BRANCH   6   7
ATOM      7  C   UNL     1     124.060  55.125  51.767  1.00  0.00     0.006 C 
BRANCH   7   8
ATOM      8  C   UNL     1     123.167  56.368  51.632  1.00  0.00     0.053 C 
BRANCH   8   9
ATOM      9  C   UNL     1     123.956  57.637  51.735  1.00  0.00     0.041 C 
ATOM     10  O   UNL     1     123.389  58.751  51.577  1.00  0.00    -0.550 OA
ATOM     11  O   UNL     1     125.325  57.589  51.970  1.00  0.00    -0.550 OA
ENDBRANCH   8   9
ENDBRANCH   7   8
ENDBRANCH   6   7
ENDBRANCH   5   6
ENDBRANCH   4   5
ENDBRANCH   3   4
ENDBRANCH   2   3
ENDBRANCH   1   2
BRANCH   1  12
ATOM     12  C   UNL     1     118.977  52.430  54.035  1.00  0.00     0.000 C 
BRANCH  12  13
ATOM     13  C   UNL     1     117.630  51.704  54.164  1.00  0.00    -0.000 C 
BRANCH  13  14
ATOM     14  C   UNL     1     116.490  52.644  54.593  1.00  0.00    -0.000 C 
BRANCH  14  15
ATOM     15  C   UNL     1     115.381  52.742  53.524  1.00  0.00    -0.000 C 
BRANCH  15  16
ATOM     16  C   UNL     1     115.763  53.620  52.321  1.00  0.00    -0.000 C 
BRANCH  16  17
ATOM     17  C   UNL     1     115.522  52.922  50.972  1.00  0.00    -0.000 C 
BRANCH  17  18
ATOM     18  C   UNL     1     116.272  51.586  50.856  1.00  0.00    -0.000 C 
BRANCH  18  19
ATOM     19  C   UNL     1     115.336  50.373  50.958  1.00  0.00    -0.003 C 
ATOM     20  C   UNL     1     116.117  49.101  51.273  1.00  0.00     0.004 C 
ENDBRANCH  18  19
ENDBRANCH  17  18
ENDBRANCH  16  17
ENDBRANCH  15  16
ENDBRANCH  14  15
ENDBRANCH  13  14
ENDBRANCH  12  13
ENDBRANCH   1  12
TORSDOF 16
ENDMDL
MODEL 7
REMARK VINA RESULT:    -3.612      2.741      4.707
REMARK INTER + INTRA:          -9.075
REMARK INTER:                  -6.620
REMARK INTRA:                  -2.455
REMARK UNBOUND:                -2.083
REMARK SMILES CCCCCCCCCCCCCCCCCC(=O)[O-]
REMARK SMILES IDX 10 1 11 2 12 3 13 4 14 5 15 6 16 7 17 8 18 9 19 10 20 11
REMARK SMILES IDX 9 12 8 13 7 14 6 15 5 16 4 17 3 18 2 19 1 20
REMARK H PARENT
REMARK Flexibility Score: inf
ROOT
ATOM      1  C   UNL     1     115.400  52.206  53.106  1.00  0.00     0.000 C 
ENDROOT
BRANCH   1   2
ATOM      2  C   UNL     1     116.367  51.969  54.276  1.00  0.00     0.000 C 
BRANCH   2   3
ATOM      3  C   UNL     1     117.838  52.179  53.879  1.00  0.00     0.000 C 
BRANCH   3   4
ATOM      4  C   UNL     1     118.498  53.330  54.655  1.00  0.00     0.000 C 
BRANCH   4   5
ATOM      5  C   UNL     1     119.456  54.161  53.783  1.00  0.00     0.000 C 
BRANCH   5   6
ATOM      6  C   UNL     1     118.931  54.370  52.352  1.00  0.00     0.000 C 
BRANCH   6   7
ATOM      7  C   UNL     1     118.418  55.792  52.048  1.00  0.00     0.006 C 
BRANCH   7   8
ATOM      8  C   UNL     1     118.221  56.095  50.555  1.00  0.00     0.053 C 
BRANCH   8   9
ATOM      9  C   UNL     1     119.331  56.933  50.002  1.00  0.00     0.041 C 
ATOM     10  O   UNL     1     119.291  57.332  48.808  1.00  0.00    -0.550 OA
ATOM     11  O   UNL     1     120.429  57.246  50.796  1.00  0.00    -0.550 OA
ENDBRANCH   8   9
ENDBRANCH   7   8
ENDBRANCH   6   7
ENDBRANCH   5   6
ENDBRANCH   4   5
ENDBRANCH   3   4
ENDBRANCH   2   3
ENDBRANCH   1   2
BRANCH   1  12
ATOM     12  C   UNL     1     115.274  53.694  52.732  1.00  0.00     0.000 C 
BRANCH  12  13
ATOM     13  C   UNL     1     115.275  53.923  51.213  1.00  0.00    -0.000 C 
BRANCH  13  14
ATOM     14  C   UNL     1     116.016  52.812  50.448  1.00  0.00    -0.000 C 
BRANCH  14  15
ATOM     15  C   UNL     1     115.507  52.664  48.998  1.00  0.00    -0.000 C 
BRANCH  15  16
ATOM     16  C   UNL     1     115.620  51.230  48.452  1.00  0.00    -0.000 C 
BRANCH  16  17
ATOM     17  C   UNL     1     114.346  50.401  48.684  1.00  0.00    -0.000 C 
BRANCH  17  18
ATOM     18  C   UNL     1     114.635  49.050  49.356  1.00  0.00    -0.000 C 
BRANCH  18  19
ATOM     19  C   UNL     1     114.799  49.171  50.878  1.00  0.00    -0.003 C 
ATOM     20  C   UNL     1     116.268  49.087  51.282  1.00  0.00     0.004 C 
ENDBRANCH  18  19
ENDBRANCH  17  18
ENDBRANCH  16  17
ENDBRANCH  15  16
ENDBRANCH  14  15
ENDBRANCH  13  14
ENDBRANCH  12  13
ENDBRANCH   1  12
TORSDOF 16
ENDMDL
MODEL 8
REMARK VINA RESULT:    -3.609      1.635      4.289
REMARK INTER + INTRA:          -9.068
REMARK INTER:                  -7.208
REMARK INTRA:                  -1.860
REMARK UNBOUND:                -2.083
REMARK SMILES CCCCCCCCCCCCCCCCCC(=O)[O-]
REMARK SMILES IDX 10 1 11 2 12 3 13 4 14 5 15 6 16 7 17 8 18 9 19 10 20 11
REMARK SMILES IDX 9 12 8 13 7 14 6 15 5 16 4 17 3 18 2 19 1 20
REMARK H PARENT
REMARK Flexibility Score: inf
ROOT
ATOM      1  C   UNL     1     117.903  54.330  50.927  1.00  0.00     0.000 C 
ENDROOT
BRANCH   1   2
ATOM      2  C   UNL     1     118.461  55.332  51.950  1.00  0.00     0.000 C 
BRANCH   2   3
ATOM      3  C   UNL     1     118.667  56.734  51.351  1.00  0.00     0.000 C 
BRANCH   3   4
ATOM      4  C   UNL     1     118.971  56.691  49.845  1.00  0.00     0.000 C 
BRANCH   4   5
ATOM      5  C   UNL     1     120.044  57.710  49.426  1.00  0.00     0.000 C 
BRANCH   5   6
ATOM      6  C   UNL     1     120.919  58.174  50.604  1.00  0.00     0.000 C 
BRANCH   6   7
ATOM      7  C   UNL     1     122.312  57.515  50.678  1.00  0.00     0.006 C 
BRANCH   7   8
ATOM      8  C   UNL     1     123.342  58.293  51.511  1.00  0.00     0.053 C 
BRANCH   8   9
ATOM      9  C   UNL     1     124.371  57.388  52.115  1.00  0.00     0.041 C 
ATOM     10  O   UNL     1     124.018  56.368  52.763  1.00  0.00    -0.550 OA
ATOM     11  O   UNL     1     125.722  57.691  51.992  1.00  0.00    -0.550 OA
ENDBRANCH   8   9
ENDBRANCH   7   8
ENDBRANCH   6   7
ENDBRANCH   5   6
ENDBRANCH   4   5
ENDBRANCH   3   4
ENDBRANCH   2   3
ENDBRANCH   1   2
BRANCH   1  12
ATOM     12  C   UNL     1     116.365  54.330  50.874  1.00  0.00     0.000 C 
BRANCH  12  13
ATOM     13  C   UNL     1     115.749  53.135  51.617  1.00  0.00    -0.000 C 
BRANCH  13  14
ATOM     14  C   UNL     1     115.304  53.493  53.046  1.00  0.00    -0.000 C 
BRANCH  14  15
ATOM     15  C   UNL     1     116.020  52.635  54.112  1.00  0.00    -0.000 C 
BRANCH  15  16
ATOM     16  C   UNL     1     117.180  51.797  53.548  1.00  0.00    -0.000 C 
BRANCH  16  17
ATOM     17  C   UNL     1     118.548  52.220  54.107  1.00  0.00    -0.000 C 
BRANCH  17  18
ATOM     18  C   UNL     1     118.460  53.462  55.007  1.00  0.00    -0.000 C 
BRANCH  18  19
ATOM     19  C   UNL     1     119.837  53.934  55.498  1.00  0.00    -0.003 C 
ATOM     20  C   UNL     1     120.882  53.827  54.392  1.00  0.00     0.004 C 
ENDBRANCH  18  19
ENDBRANCH  17  18
ENDBRANCH  16  17
ENDBRANCH  15  16
ENDBRANCH  14  15
ENDBRANCH  13  14
ENDBRANCH  12  13
ENDBRANCH   1  12
TORSDOF 16
ENDMDL
MODEL 9
REMARK VINA RESULT:    -3.529      6.997      9.916
REMARK INTER + INTRA:          -8.912
REMARK INTER:                  -6.165
REMARK INTRA:                  -2.747
REMARK UNBOUND:                -2.083
REMARK SMILES CCCCCCCCCCCCCCCCCC(=O)[O-]
REMARK SMILES IDX 10 1 11 2 12 3 13 4 14 5 15 6 16 7 17 8 18 9 19 10 20 11
REMARK SMILES IDX 9 12 8 13 7 14 6 15 5 16 4 17 3 18 2 19 1 20
REMARK H PARENT
REMARK Flexibility Score: inf
ROOT
ATOM      1  C   UNL     1     126.488  53.625  44.829  1.00  0.00     0.000 C 
ENDROOT
BRANCH   1   2
ATOM      2  C   UNL     1     125.649  52.524  45.496  1.00  0.00     0.000 C 
BRANCH   2   3
ATOM      3  C   UNL     1     124.887  53.029  46.733  1.00  0.00     0.000 C 
BRANCH   3   4
ATOM      4  C   UNL     1     125.627  54.168  47.454  1.00  0.00     0.000 C 
BRANCH   4   5
ATOM      5  C   UNL     1     124.691  55.319  47.863  1.00  0.00     0.000 C 
BRANCH   5   6
ATOM      6  C   UNL     1     123.227  54.871  48.020  1.00  0.00     0.000 C 
BRANCH   6   7
ATOM      7  C   UNL     1     122.518  55.399  49.284  1.00  0.00     0.006 C 
BRANCH   7   8
ATOM      8  C   UNL     1     122.599  56.922  49.471  1.00  0.00     0.053 C 
BRANCH   8   9
ATOM      9  C   UNL     1     123.087  57.294  50.837  1.00  0.00     0.041 C 
ATOM     10  O   UNL     1     123.738  56.464  51.525  1.00  0.00    -0.550 OA
ATOM     11  O   UNL     1     122.794  58.546  51.365  1.00  0.00    -0.550 OA
ENDBRANCH   8   9
ENDBRANCH   7   8
ENDBRANCH   6   7
ENDBRANCH   5   6
ENDBRANCH   4   5
ENDBRANCH   3   4
ENDBRANCH   2   3
ENDBRANCH   1   2
BRANCH   1  12
ATOM     12  C   UNL     1     126.162  53.797  43.335  1.00  0.00     0.000 C 
BRANCH  12  13
ATOM     13  C   UNL     1     125.824  55.249  42.967  1.00  0.00    -0.000 C 
BRANCH  13  14
ATOM     14  C   UNL     1     125.016  55.965  44.064  1.00  0.00    -0.000 C 
BRANCH  14  15
ATOM     15  C   UNL     1     123.504  55.985  43.755  1.00  0.00    -0.000 C 
BRANCH  15  16
ATOM     16  C   UNL     1     122.730  54.818  44.394  1.00  0.00    -0.000 C 
BRANCH  16  17
ATOM     17  C   UNL     1     122.111  53.872  43.353  1.00  0.00    -0.000 C 
BRANCH  17  18
ATOM     18  C   UNL     1     122.649  52.437  43.466  1.00  0.00    -0.000 C 
BRANCH  18  19
ATOM     19  C   UNL     1     123.051  51.848  42.106  1.00  0.00    -0.003 C 
ATOM     20  C   UNL     1     124.182  50.835  42.258  1.00  0.00     0.004 C 
ENDBRANCH  18  19
ENDBRANCH  17  18
ENDBRANCH  16  17
ENDBRANCH  15  16
ENDBRANCH  14  15
ENDBRANCH  13  14
ENDBRANCH  12  13
ENDBRANCH   1  12
TORSDOF 16
ENDMDL
