MODEL 1
REMARK VINA RESULT:    -1.731      0.000      0.000
REMARK INTER + INTRA:          -2.972
REMARK INTER:                  -2.439
REMARK INTRA:                  -0.533
REMARK UNBOUND:                -0.533
REMARK SMILES CCCCCCCCC=O
REMARK SMILES IDX 5 1 4 2 3 3 2 4 1 5 6 6 7 7 8 8 9 9 10 10
REMARK H PARENT
REMARK Flexibility Score: inf
ROOT
ATOM      1  C   UNL     1     125.412 108.718 136.361  1.00  0.00     0.000 C 
ENDROOT
BRANCH   1   2
ATOM      2  C   UNL     1     125.895 108.551 137.811  1.00  0.00    -0.000 C 
BRANCH   2   3
ATOM      3  C   UNL     1     126.471 109.844 138.425  1.00  0.00    -0.000 C 
BRANCH   3   4
ATOM      4  C   UNL     1     125.994 111.100 137.682  1.00  0.00    -0.003 C 
ATOM      5  C   UNL     1     127.125 112.114 137.530  1.00  0.00     0.004 C 
ENDBRANCH   3   4
ENDBRANCH   2   3
ENDBRANCH   1   2
BRANCH   1   6
ATOM      6  C   UNL     1     125.969 107.642 135.418  1.00  0.00     0.000 C 
BRANCH   6   7
ATOM      7  C   UNL     1     126.731 108.276 134.249  1.00  0.00     0.008 C 
BRANCH   7   8
ATOM      8  C   UNL     1     126.660 109.806 134.310  1.00  0.00     0.072 C 
BRANCH   8   9
ATOM      9  C   UNL     1     127.027 110.422 132.992  1.00  0.00     0.224 C 
ATOM     10  O   UNL     1     126.248 110.364 132.055  1.00  0.00    -0.303 OA
ENDBRANCH   8   9
ENDBRANCH   7   8
ENDBRANCH   6   7
ENDBRANCH   1   6
TORSDOF 7
ENDMDL
MODEL 2
REMARK VINA RESULT:    -1.715      1.536      2.852
REMARK INTER + INTRA:          -2.949
REMARK INTER:                  -2.301
REMARK INTRA:                  -0.648
REMARK UNBOUND:                -0.533
REMARK SMILES CCCCCCCCC=O
REMARK SMILES IDX 5 1 4 2 3 3 2 4 1 5 6 6 7 7 8 8 9 9 10 10
REMARK H PARENT
REMARK Flexibility Score: inf
ROOT
ATOM      1  C   UNL     1     125.640 111.305 134.182  1.00  0.00     0.000 C 
ENDROOT
BRANCH   1   2
ATOM      2  C   UNL     1     125.530 111.867 135.610  1.00  0.00    -0.000 C 
BRANCH   2   3
ATOM      3  C   UNL     1     126.848 111.789 136.408  1.00  0.00    -0.000 C 
BRANCH   3   4
ATOM      4  C   UNL     1     126.652 111.150 137.790  1.00  0.00    -0.003 C 
ATOM      5  C   UNL     1     126.022 109.765 137.674  1.00  0.00     0.004 C 
ENDBRANCH   3   4
ENDBRANCH   2   3
ENDBRANCH   1   2
BRANCH   1   6
ATOM      6  C   UNL     1     127.075 110.918 133.801  1.00  0.00     0.000 C 
BRANCH   6   7
ATOM      7  C   UNL     1     127.125 109.504 133.209  1.00  0.00     0.008 C 
BRANCH   7   8
ATOM      8  C   UNL     1     126.685 108.460 134.242  1.00  0.00     0.072 C 
BRANCH   8   9
ATOM      9  C   UNL     1     125.753 107.452 133.635  1.00  0.00     0.224 C 
ATOM     10  O   UNL     1     125.404 107.571 132.472  1.00  0.00    -0.303 OA
ENDBRANCH   8   9
ENDBRANCH   7   8
ENDBRANCH   6   7
ENDBRANCH   1   6
TORSDOF 7
ENDMDL
MODEL 3
REMARK VINA RESULT:    -1.706      2.612      4.866
REMARK INTER + INTRA:          -2.937
REMARK INTER:                  -2.347
REMARK INTRA:                  -0.590
REMARK UNBOUND:                -0.533
REMARK SMILES CCCCCCCCC=O
REMARK SMILES IDX 5 1 4 2 3 3 2 4 1 5 6 6 7 7 8 8 9 9 10 10
REMARK H PARENT
REMARK Flexibility Score: inf
ROOT
ATOM      1  C   UNL     1     125.466 110.890 134.356  1.00  0.00     0.000 C 
ENDROOT
BRANCH   1   2
ATOM      2  C   UNL     1     125.620 109.661 133.444  1.00  0.00    -0.000 C 
BRANCH   2   3
ATOM      3  C   UNL     1     126.955 108.912 133.635  1.00  0.00    -0.000 C 
BRANCH   3   4
ATOM      4  C   UNL     1     126.747 107.416 133.909  1.00  0.00    -0.003 C 
ATOM      5  C   UNL     1     126.196 107.183 135.313  1.00  0.00     0.004 C 
ENDBRANCH   3   4
ENDBRANCH   2   3
ENDBRANCH   1   2
BRANCH   1   6
ATOM      6  C   UNL     1     126.799 111.367 134.945  1.00  0.00     0.000 C 
BRANCH   6   7
ATOM      7  C   UNL     1     126.667 111.653 136.446  1.00  0.00     0.008 C 
BRANCH   7   8
ATOM      8  C   UNL     1     126.150 110.421 137.197  1.00  0.00     0.072 C 
BRANCH   8   9
ATOM      9  C   UNL     1     126.157 110.645 138.681  1.00  0.00     0.224 C 
ATOM     10  O   UNL     1     126.231 111.779 139.124  1.00  0.00    -0.303 OA
ENDBRANCH   8   9
ENDBRANCH   7   8
ENDBRANCH   6   7
ENDBRANCH   1   6
TORSDOF 7
ENDMDL
MODEL 4
REMARK VINA RESULT:    -1.670      1.578      3.941
REMARK INTER + INTRA:          -2.885
REMARK INTER:                  -2.435
REMARK INTRA:                  -0.451
REMARK UNBOUND:                -0.533
REMARK SMILES CCCCCCCCC=O
REMARK SMILES IDX 5 1 4 2 3 3 2 4 1 5 6 6 7 7 8 8 9 9 10 10
REMARK H PARENT
REMARK Flexibility Score: inf
ROOT
ATOM      1  C   UNL     1     125.452 109.279 135.837  1.00  0.00     0.000 C 
ENDROOT
BRANCH   1   2
ATOM      2  C   UNL     1     125.971 107.937 135.294  1.00  0.00    -0.000 C 
BRANCH   2   3
ATOM      3  C   UNL     1     126.728 108.061 133.956  1.00  0.00    -0.000 C 
BRANCH   3   4
ATOM      4  C   UNL     1     127.125 109.512 133.647  1.00  0.00    -0.003 C 
ATOM      5  C   UNL     1     126.983 109.819 132.159  1.00  0.00     0.004 C 
ENDBRANCH   3   4
ENDBRANCH   2   3
ENDBRANCH   1   2
BRANCH   1   6
ATOM      6  C   UNL     1     125.670 109.437 137.348  1.00  0.00     0.000 C 
BRANCH   6   7
ATOM      7  C   UNL     1     126.533 110.667 137.653  1.00  0.00     0.008 C 
BRANCH   7   8
ATOM      8  C   UNL     1     125.942 111.927 137.012  1.00  0.00     0.072 C 
BRANCH   8   9
ATOM      9  C   UNL     1     126.995 112.718 136.293  1.00  0.00     0.224 C 
ATOM     10  O   UNL     1     126.776 113.142 135.170  1.00  0.00    -0.303 OA
ENDBRANCH   8   9
ENDBRANCH   7   8
ENDBRANCH   6   7
ENDBRANCH   1   6
TORSDOF 7
ENDMDL
MODEL 5
REMARK VINA RESULT:    -1.628      2.249      4.805
REMARK INTER + INTRA:          -2.827
REMARK INTER:                  -2.284
REMARK INTRA:                  -0.542
REMARK UNBOUND:                -0.533
REMARK SMILES CCCCCCCCC=O
REMARK SMILES IDX 5 1 4 2 3 3 2 4 1 5 6 6 7 7 8 8 9 9 10 10
REMARK H PARENT
REMARK Flexibility Score: inf
ROOT
ATOM      1  C   UNL     1     126.097 111.177 135.292  1.00  0.00     0.000 C 
ENDROOT
BRANCH   1   2
ATOM      2  C   UNL     1     127.118 111.050 134.149  1.00  0.00    -0.000 C 
BRANCH   2   3
ATOM      3  C   UNL     1     127.125 109.661 133.477  1.00  0.00    -0.000 C 
BRANCH   3   4
ATOM      4  C   UNL     1     126.577 108.566 134.403  1.00  0.00    -0.003 C 
ATOM      5  C   UNL     1     125.441 107.796 133.737  1.00  0.00     0.004 C 
ENDBRANCH   3   4
ENDBRANCH   2   3
ENDBRANCH   1   2
BRANCH   1   6
ATOM      6  C   UNL     1     126.738 111.597 136.622  1.00  0.00     0.000 C 
BRANCH   6   7
ATOM      7  C   UNL     1     126.443 110.570 137.723  1.00  0.00     0.008 C 
BRANCH   7   8
ATOM      8  C   UNL     1     124.954 110.563 138.084  1.00  0.00     0.072 C 
BRANCH   8   9
ATOM      9  C   UNL     1     124.396 109.170 138.069  1.00  0.00     0.224 C 
ATOM     10  O   UNL     1     125.055 108.256 137.600  1.00  0.00    -0.303 OA
ENDBRANCH   8   9
ENDBRANCH   7   8
ENDBRANCH   6   7
ENDBRANCH   1   6
TORSDOF 7
ENDMDL
MODEL 6
REMARK VINA RESULT:    -1.575      2.205      4.439
REMARK INTER + INTRA:          -2.752
REMARK INTER:                  -2.204
REMARK INTRA:                  -0.548
REMARK UNBOUND:                -0.533
REMARK SMILES CCCCCCCCC=O
REMARK SMILES IDX 5 1 4 2 3 3 2 4 1 5 6 6 7 7 8 8 9 9 10 10
REMARK H PARENT
REMARK Flexibility Score: inf
ROOT
ATOM      1  C   UNL     1     125.459 111.588 136.613  1.00  0.00     0.000 C 
ENDROOT
BRANCH   1   2
ATOM      2  C   UNL     1     126.754 111.321 135.828  1.00  0.00    -0.000 C 
BRANCH   2   3
ATOM      3  C   UNL     1     126.680 111.753 134.349  1.00  0.00    -0.000 C 
BRANCH   3   4
ATOM      4  C   UNL     1     126.594 110.552 133.397  1.00  0.00    -0.003 C 
ATOM      5  C   UNL     1     126.820 109.239 134.142  1.00  0.00     0.004 C 
ENDBRANCH   3   4
ENDBRANCH   2   3
ENDBRANCH   1   2
BRANCH   1   6
ATOM      6  C   UNL     1     125.141 110.487 137.633  1.00  0.00     0.000 C 
BRANCH   6   7
ATOM      7  C   UNL     1     126.409 110.033 138.367  1.00  0.00     0.008 C 
BRANCH   7   8
ATOM      8  C   UNL     1     126.412 108.515 138.575  1.00  0.00     0.072 C 
BRANCH   8   9
ATOM      9  C   UNL     1     125.727 107.809 137.442  1.00  0.00     0.224 C 
ATOM     10  O   UNL     1     126.293 106.897 136.863  1.00  0.00    -0.303 OA
ENDBRANCH   8   9
ENDBRANCH   7   8
ENDBRANCH   6   7
ENDBRANCH   1   6
TORSDOF 7
ENDMDL
MODEL 7
REMARK VINA RESULT:    -1.572      2.949      4.691
REMARK INTER + INTRA:          -2.748
REMARK INTER:                  -2.016
REMARK INTRA:                  -0.732
REMARK UNBOUND:                -0.533
REMARK SMILES CCCCCCCCC=O
REMARK SMILES IDX 5 1 4 2 3 3 2 4 1 5 6 6 7 7 8 8 9 9 10 10
REMARK H PARENT
REMARK Flexibility Score: inf
ROOT
ATOM      1  C   UNL     1     125.411 109.725 137.016  1.00  0.00     0.000 C 
ENDROOT
BRANCH   1   2
ATOM      2  C   UNL     1     126.242 110.487 135.971  1.00  0.00    -0.000 C 
BRANCH   2   3
ATOM      3  C   UNL     1     125.897 110.115 134.514  1.00  0.00    -0.000 C 
BRANCH   3   4
ATOM      4  C   UNL     1     127.050 109.382 133.813  1.00  0.00    -0.003 C 
ATOM      5  C   UNL     1     126.844 107.871 133.846  1.00  0.00     0.004 C 
ENDBRANCH   3   4
ENDBRANCH   2   3
ENDBRANCH   1   2
BRANCH   1   6
ATOM      6  C   UNL     1     126.075 108.418 137.470  1.00  0.00     0.000 C 
BRANCH   6   7
ATOM      7  C   UNL     1     125.161 107.216 137.207  1.00  0.00     0.008 C 
BRANCH   7   8
ATOM      8  C   UNL     1     123.889 107.643 136.468  1.00  0.00     0.072 C 
BRANCH   8   9
ATOM      9  C   UNL     1     122.657 107.211 137.208  1.00  0.00     0.224 C 
ATOM     10  O   UNL     1     122.656 107.194 138.428  1.00  0.00    -0.303 OA
ENDBRANCH   8   9
ENDBRANCH   7   8
ENDBRANCH   6   7
ENDBRANCH   1   6
TORSDOF 7
ENDMDL
MODEL 8
REMARK VINA RESULT:    -1.564      1.402      2.656
REMARK INTER + INTRA:          -2.736
REMARK INTER:                  -2.097
REMARK INTRA:                  -0.640
REMARK UNBOUND:                -0.533
REMARK SMILES CCCCCCCCC=O
REMARK SMILES IDX 5 1 4 2 3 3 2 4 1 5 6 6 7 7 8 8 9 9 10 10
REMARK H PARENT
REMARK Flexibility Score: inf
ROOT
ATOM      1  C   UNL     1     124.941 110.652 135.778  1.00  0.00     0.000 C 
ENDROOT
BRANCH   1   2
ATOM      2  C   UNL     1     126.146 110.459 136.715  1.00  0.00    -0.000 C 
BRANCH   2   3
ATOM      3  C   UNL     1     125.993 109.264 137.680  1.00  0.00    -0.000 C 
BRANCH   3   4
ATOM      4  C   UNL     1     125.133 108.142 137.082  1.00  0.00    -0.003 C 
ATOM      5  C   UNL     1     125.993 107.121 136.343  1.00  0.00     0.004 C 
ENDBRANCH   3   4
ENDBRANCH   2   3
ENDBRANCH   1   2
BRANCH   1   6
ATOM      6  C   UNL     1     125.288 110.415 134.303  1.00  0.00     0.000 C 
BRANCH   6   7
ATOM      7  C   UNL     1     126.801 110.247 134.113  1.00  0.00     0.008 C 
BRANCH   7   8
ATOM      8  C   UNL     1     127.125 108.917 133.425  1.00  0.00     0.072 C 
BRANCH   8   9
ATOM      9  C   UNL     1     126.965 109.020 131.936  1.00  0.00     0.224 C 
ATOM     10  O   UNL     1     126.122 108.347 131.367  1.00  0.00    -0.303 OA
ENDBRANCH   8   9
ENDBRANCH   7   8
ENDBRANCH   6   7
ENDBRANCH   1   6
TORSDOF 7
ENDMDL
MODEL 9
REMARK VINA RESULT:    -0.444      2.482      4.367
REMARK INTER + INTRA:          -1.158
REMARK INTER:                  -0.651
REMARK INTRA:                  -0.507
REMARK UNBOUND:                -0.533
REMARK SMILES CCCCCCCCC=O
REMARK SMILES IDX 5 1 4 2 3 3 2 4 1 5 6 6 7 7 8 8 9 9 10 10
REMARK H PARENT
REMARK Flexibility Score: inf
ROOT
ATOM      1  C   UNL     1     125.692 108.505 135.587  1.00  0.00     0.000 C 
ENDROOT
BRANCH   1   2
ATOM      2  C   UNL     1     126.383 108.011 134.305  1.00  0.00    -0.000 C 
BRANCH   2   3
ATOM      3  C   UNL     1     127.125 109.122 133.534  1.00  0.00    -0.000 C 
BRANCH   3   4
ATOM      4  C   UNL     1     126.807 110.520 134.082  1.00  0.00    -0.003 C 
ATOM      5  C   UNL     1     125.899 111.293 133.130  1.00  0.00     0.004 C 
ENDBRANCH   3   4
ENDBRANCH   2   3
ENDBRANCH   1   2
BRANCH   1   6
ATOM      6  C   UNL     1     125.950 107.593 136.794  1.00  0.00     0.000 C 
BRANCH   6   7
ATOM      7  C   UNL     1     126.346 108.413 138.028  1.00  0.00     0.008 C 
BRANCH   7   8
ATOM      8  C   UNL     1     125.957 109.885 137.860  1.00  0.00     0.072 C 
BRANCH   8   9
ATOM      9  C   UNL     1     124.810 110.251 138.754  1.00  0.00     0.224 C 
ATOM     10  O   UNL     1     123.710 109.756 138.567  1.00  0.00    -0.303 OA
ENDBRANCH   8   9
ENDBRANCH   7   8
ENDBRANCH   6   7
ENDBRANCH   1   6
TORSDOF 7
ENDMDL
