MODEL 1
REMARK VINA RESULT:    -2.981      0.000      0.000
REMARK INTER + INTRA:          -6.742
REMARK INTER:                  -5.596
REMARK INTRA:                  -1.146
REMARK UNBOUND:                -1.146
REMARK SMILES O=C([O-])CCCCCCCCCCCCCCC(=O)[O-]
REMARK SMILES IDX 10 1 9 2 8 3 7 4 6 5 5 6 4 7 2 8 1 9 3 10 11 11 12 12 13 13
REMARK SMILES IDX 14 14 15 15 16 16 17 17 18 18 19 19 20 20
REMARK H PARENT
REMARK Flexibility Score: inf
ROOT
ATOM      1  C   UNL     1     -18.137 -12.934   2.404  1.00  0.00     0.000 C 
ENDROOT
BRANCH   1   2
ATOM      2  C   UNL     1     -16.697 -12.724   2.905  1.00  0.00     0.000 C 
BRANCH   2   3
ATOM      3  C   UNL     1     -16.365 -11.240   3.148  1.00  0.00     0.000 C 
BRANCH   3   4
ATOM      4  C   UNL     1     -15.499 -10.640   2.028  1.00  0.00     0.000 C 
BRANCH   4   5
ATOM      5  C   UNL     1     -14.058 -10.351   2.486  1.00  0.00     0.000 C 
BRANCH   5   6
ATOM      6  C   UNL     1     -13.036 -11.313   1.856  1.00  0.00     0.006 C 
BRANCH   6   7
ATOM      7  C   UNL     1     -13.047 -12.700   2.511  1.00  0.00     0.053 C 
BRANCH   7   8
ATOM      8  C   UNL     1     -12.744 -12.589   3.971  1.00  0.00     0.041 C 
ATOM      9  O   UNL     1     -11.613 -12.190   4.355  1.00  0.00    -0.550 OA
ATOM     10  O   UNL     1     -13.726 -12.880   4.911  1.00  0.00    -0.550 OA
ENDBRANCH   7   8
ENDBRANCH   6   7
ENDBRANCH   5   6
ENDBRANCH   4   5
ENDBRANCH   3   4
ENDBRANCH   2   3
ENDBRANCH   1   2
BRANCH   1  11
ATOM     11  C   UNL     1     -18.257 -12.807   0.876  1.00  0.00     0.000 C 
BRANCH  11  12
ATOM     12  C   UNL     1     -19.715 -12.884   0.392  1.00  0.00     0.000 C 
BRANCH  12  13
ATOM     13  C   UNL     1     -20.723 -12.581   1.513  1.00  0.00     0.000 C 
BRANCH  13  14
ATOM     14  C   UNL     1     -22.186 -12.636   1.034  1.00  0.00     0.000 C 
BRANCH  14  15
ATOM     15  C   UNL     1     -22.771 -11.294   0.561  1.00  0.00     0.000 C 
BRANCH  15  16
ATOM     16  C   UNL     1     -23.977 -10.836   1.401  1.00  0.00     0.006 C 
BRANCH  16  17
ATOM     17  C   UNL     1     -24.351 -11.858   2.481  1.00  0.00     0.053 C 
BRANCH  17  18
ATOM     18  C   UNL     1     -24.151 -11.309   3.861  1.00  0.00     0.041 C 
ATOM     19  O   UNL     1     -25.117 -11.254   4.668  1.00  0.00    -0.550 OA
ATOM     20  O   UNL     1     -22.905 -10.832   4.245  1.00  0.00    -0.550 OA
ENDBRANCH  17  18
ENDBRANCH  16  17
ENDBRANCH  15  16
ENDBRANCH  14  15
ENDBRANCH  13  14
ENDBRANCH  12  13
ENDBRANCH  11  12
ENDBRANCH   1  11
TORSDOF 15
ENDMDL
MODEL 2
REMARK VINA RESULT:    -2.978      1.496      2.633
REMARK INTER + INTRA:          -6.735
REMARK INTER:                  -5.968
REMARK INTRA:                  -0.767
REMARK UNBOUND:                -1.146
REMARK SMILES O=C([O-])CCCCCCCCCCCCCCC(=O)[O-]
REMARK SMILES IDX 10 1 9 2 8 3 7 4 6 5 5 6 4 7 2 8 1 9 3 10 11 11 12 12 13 13
REMARK SMILES IDX 14 14 15 15 16 16 17 17 18 18 19 19 20 20
REMARK H PARENT
REMARK Flexibility Score: inf
ROOT
ATOM      1  C   UNL     1     -16.150 -10.987   3.125  1.00  0.00     0.000 C 
ENDROOT
BRANCH   1   2
ATOM      2  C   UNL     1     -15.189  -9.986   2.461  1.00  0.00     0.000 C 
BRANCH   2   3
ATOM      3  C   UNL     1     -13.715 -10.419   2.573  1.00  0.00     0.000 C 
BRANCH   3   4
ATOM      4  C   UNL     1     -13.330 -11.476   1.525  1.00  0.00     0.000 C 
BRANCH   4   5
ATOM      5  C   UNL     1     -13.298 -12.901   2.108  1.00  0.00     0.000 C 
BRANCH   5   6
ATOM      6  C   UNL     1     -12.999 -12.914   3.616  1.00  0.00     0.006 C 
BRANCH   6   7
ATOM      7  C   UNL     1     -11.498 -12.823   3.923  1.00  0.00     0.053 C 
BRANCH   7   8
ATOM      8  C   UNL     1     -11.262 -12.910   5.398  1.00  0.00     0.041 C 
ATOM      9  O   UNL     1     -12.229 -12.835   6.200  1.00  0.00    -0.550 OA
ATOM     10  O   UNL     1      -9.979 -13.125   5.886  1.00  0.00    -0.550 OA
ENDBRANCH   7   8
ENDBRANCH   6   7
ENDBRANCH   5   6
ENDBRANCH   4   5
ENDBRANCH   3   4
ENDBRANCH   2   3
ENDBRANCH   1   2
BRANCH   1  11
ATOM     11  C   UNL     1     -16.891 -11.865   2.101  1.00  0.00     0.000 C 
BRANCH  11  12
ATOM     12  C   UNL     1     -17.598 -13.063   2.757  1.00  0.00     0.000 C 
BRANCH  12  13
ATOM     13  C   UNL     1     -19.102 -13.105   2.437  1.00  0.00     0.000 C 
BRANCH  13  14
ATOM     14  C   UNL     1     -19.983 -13.114   3.700  1.00  0.00     0.000 C 
BRANCH  14  15
ATOM     15  C   UNL     1     -21.486 -12.886   3.452  1.00  0.00     0.000 C 
BRANCH  15  16
ATOM     16  C   UNL     1     -21.789 -12.389   2.028  1.00  0.00     0.006 C 
BRANCH  16  17
ATOM     17  C   UNL     1     -23.296 -12.268   1.766  1.00  0.00     0.053 C 
BRANCH  17  18
ATOM     18  C   UNL     1     -23.879 -11.051   2.416  1.00  0.00     0.041 C 
ATOM     19  O   UNL     1     -24.076 -11.028   3.660  1.00  0.00    -0.550 OA
ATOM     20  O   UNL     1     -24.230  -9.951   1.643  1.00  0.00    -0.550 OA
ENDBRANCH  17  18
ENDBRANCH  16  17
ENDBRANCH  15  16
ENDBRANCH  14  15
ENDBRANCH  13  14
ENDBRANCH  12  13
ENDBRANCH  11  12
ENDBRANCH   1  11
TORSDOF 15
ENDMDL
MODEL 3
REMARK VINA RESULT:    -2.861     15.147     17.466
REMARK INTER + INTRA:          -6.517
REMARK INTER:                  -4.584
REMARK INTRA:                  -1.934
REMARK UNBOUND:                -1.146
REMARK SMILES O=C([O-])CCCCCCCCCCCCCCC(=O)[O-]
REMARK SMILES IDX 10 1 9 2 8 3 7 4 6 5 5 6 4 7 2 8 1 9 3 10 11 11 12 12 13 13
REMARK SMILES IDX 14 14 15 15 16 16 17 17 18 18 19 19 20 20
REMARK H PARENT
REMARK Flexibility Score: inf
ROOT
ATOM      1  C   UNL     1     -25.037   4.072   3.615  1.00  0.00     0.000 C 
ENDROOT
BRANCH   1   2
ATOM      2  C   UNL     1     -24.920   2.789   2.774  1.00  0.00     0.000 C 
BRANCH   2   3
ATOM      3  C   UNL     1     -25.499   2.957   1.356  1.00  0.00     0.000 C 
BRANCH   3   4
ATOM      4  C   UNL     1     -24.461   2.666   0.259  1.00  0.00     0.000 C 
BRANCH   4   5
ATOM      5  C   UNL     1     -23.014   2.735   0.781  1.00  0.00     0.000 C 
BRANCH   5   6
ATOM      6  C   UNL     1     -22.031   1.952  -0.105  1.00  0.00     0.006 C 
BRANCH   6   7
ATOM      7  C   UNL     1     -22.066   0.442   0.164  1.00  0.00     0.053 C 
BRANCH   7   8
ATOM      8  C   UNL     1     -21.445   0.135   1.490  1.00  0.00     0.041 C 
ATOM      9  O   UNL     1     -20.199   0.225   1.643  1.00  0.00    -0.550 OA
ATOM     10  O   UNL     1     -22.248  -0.204   2.572  1.00  0.00    -0.550 OA
ENDBRANCH   7   8
ENDBRANCH   6   7
ENDBRANCH   5   6
ENDBRANCH   4   5
ENDBRANCH   3   4
ENDBRANCH   2   3
ENDBRANCH   1   2
BRANCH   1  11
ATOM     11  C   UNL     1     -23.679   4.761   3.837  1.00  0.00     0.000 C 
BRANCH  11  12
ATOM     12  C   UNL     1     -23.722   6.264   3.514  1.00  0.00     0.000 C 
BRANCH  12  13
ATOM     13  C   UNL     1     -24.250   6.547   2.097  1.00  0.00     0.000 C 
BRANCH  13  14
ATOM     14  C   UNL     1     -23.203   6.273   1.002  1.00  0.00     0.000 C 
BRANCH  14  15
ATOM     15  C   UNL     1     -21.797   6.833   1.285  1.00  0.00     0.000 C 
BRANCH  15  16
ATOM     16  C   UNL     1     -20.826   6.639   0.108  1.00  0.00     0.006 C 
BRANCH  16  17
ATOM     17  C   UNL     1     -20.157   5.258   0.130  1.00  0.00     0.053 C 
BRANCH  17  18
ATOM     18  C   UNL     1     -18.663   5.363   0.166  1.00  0.00     0.041 C 
ATOM     19  O   UNL     1     -18.106   6.493   0.140  1.00  0.00    -0.550 OA
ATOM     20  O   UNL     1     -17.886   4.213   0.198  1.00  0.00    -0.550 OA
ENDBRANCH  17  18
ENDBRANCH  16  17
ENDBRANCH  15  16
ENDBRANCH  14  15
ENDBRANCH  13  14
ENDBRANCH  12  13
ENDBRANCH  11  12
ENDBRANCH   1  11
TORSDOF 15
ENDMDL
MODEL 4
REMARK VINA RESULT:    -2.787      1.826      3.243
REMARK INTER + INTRA:          -6.378
REMARK INTER:                  -5.560
REMARK INTRA:                  -0.818
REMARK UNBOUND:                -1.146
REMARK SMILES O=C([O-])CCCCCCCCCCCCCCC(=O)[O-]
REMARK SMILES IDX 10 1 9 2 8 3 7 4 6 5 5 6 4 7 2 8 1 9 3 10 11 11 12 12 13 13
REMARK SMILES IDX 14 14 15 15 16 16 17 17 18 18 19 19 20 20
REMARK H PARENT
REMARK Flexibility Score: inf
ROOT
ATOM      1  C   UNL     1     -15.760 -10.308   2.363  1.00  0.00     0.000 C 
ENDROOT
BRANCH   1   2
ATOM      2  C   UNL     1     -14.551 -10.635   3.256  1.00  0.00     0.000 C 
BRANCH   2   3
ATOM      3  C   UNL     1     -13.719 -11.814   2.717  1.00  0.00     0.000 C 
BRANCH   3   4
ATOM      4  C   UNL     1     -12.232 -11.706   3.092  1.00  0.00     0.000 C 
BRANCH   4   5
ATOM      5  C   UNL     1     -11.783 -12.818   4.057  1.00  0.00     0.000 C 
BRANCH   5   6
ATOM      6  C   UNL     1     -11.153 -12.261   5.345  1.00  0.00     0.006 C 
BRANCH   6   7
ATOM      7  C   UNL     1     -11.459 -13.125   6.575  1.00  0.00     0.053 C 
BRANCH   7   8
ATOM      8  C   UNL     1     -12.693 -12.631   7.263  1.00  0.00     0.041 C 
ATOM      9  O   UNL     1     -13.828 -13.026   6.890  1.00  0.00    -0.550 OA
ATOM     10  O   UNL     1     -12.587 -11.771   8.349  1.00  0.00    -0.550 OA
ENDBRANCH   7   8
ENDBRANCH   6   7
ENDBRANCH   5   6
ENDBRANCH   4   5
ENDBRANCH   3   4
ENDBRANCH   2   3
ENDBRANCH   1   2
BRANCH   1  11
ATOM     11  C   UNL     1     -15.764 -11.114   1.052  1.00  0.00     0.000 C 
BRANCH  11  12
ATOM     12  C   UNL     1     -16.883 -12.169   1.014  1.00  0.00     0.000 C 
BRANCH  12  13
ATOM     13  C   UNL     1     -17.582 -12.334   2.374  1.00  0.00     0.000 C 
BRANCH  13  14
ATOM     14  C   UNL     1     -18.900 -13.124   2.279  1.00  0.00     0.000 C 
BRANCH  14  15
ATOM     15  C   UNL     1     -20.040 -12.409   1.531  1.00  0.00     0.000 C 
BRANCH  15  16
ATOM     16  C   UNL     1     -21.434 -12.926   1.926  1.00  0.00     0.006 C 
BRANCH  16  17
ATOM     17  C   UNL     1     -21.905 -12.352   3.269  1.00  0.00     0.053 C 
BRANCH  17  18
ATOM     18  C   UNL     1     -23.158 -11.545   3.121  1.00  0.00     0.041 C 
ATOM     19  O   UNL     1     -23.502 -11.109   1.990  1.00  0.00    -0.550 OA
ATOM     20  O   UNL     1     -23.930 -11.248   4.237  1.00  0.00    -0.550 OA
ENDBRANCH  17  18
ENDBRANCH  16  17
ENDBRANCH  15  16
ENDBRANCH  14  15
ENDBRANCH  13  14
ENDBRANCH  12  13
ENDBRANCH  11  12
ENDBRANCH   1  11
TORSDOF 15
ENDMDL
MODEL 5
REMARK VINA RESULT:    -2.676     14.534     17.227
REMARK INTER + INTRA:          -6.169
REMARK INTER:                  -4.783
REMARK INTRA:                  -1.387
REMARK UNBOUND:                -1.146
REMARK SMILES O=C([O-])CCCCCCCCCCCCCCC(=O)[O-]
REMARK SMILES IDX 10 1 9 2 8 3 7 4 6 5 5 6 4 7 2 8 1 9 3 10 11 11 12 12 13 13
REMARK SMILES IDX 14 14 15 15 16 16 17 17 18 18 19 19 20 20
REMARK H PARENT
REMARK Flexibility Score: inf
ROOT
ATOM      1  C   UNL     1     -22.733   0.412   2.509  1.00  0.00     0.000 C 
ENDROOT
BRANCH   1   2
ATOM      2  C   UNL     1     -23.960   1.121   1.912  1.00  0.00     0.000 C 
BRANCH   2   3
ATOM      3  C   UNL     1     -23.786   1.449   0.418  1.00  0.00     0.000 C 
BRANCH   3   4
ATOM      4  C   UNL     1     -24.914   2.342  -0.125  1.00  0.00     0.000 C 
BRANCH   4   5
ATOM      5  C   UNL     1     -25.793   2.929   0.994  1.00  0.00     0.000 C 
BRANCH   5   6
ATOM      6  C   UNL     1     -25.556   4.434   1.202  1.00  0.00     0.006 C 
BRANCH   6   7
ATOM      7  C   UNL     1     -25.306   4.797   2.671  1.00  0.00     0.053 C 
BRANCH   7   8
ATOM      8  C   UNL     1     -23.838   4.894   2.941  1.00  0.00     0.041 C 
ATOM      9  O   UNL     1     -23.046   5.233   2.024  1.00  0.00    -0.550 OA
ATOM     10  O   UNL     1     -23.348   4.656   4.220  1.00  0.00    -0.550 OA
ENDBRANCH   7   8
ENDBRANCH   6   7
ENDBRANCH   5   6
ENDBRANCH   4   5
ENDBRANCH   3   4
ENDBRANCH   2   3
ENDBRANCH   1   2
BRANCH   1  11
ATOM     11  C   UNL     1     -22.110  -0.610   1.542  1.00  0.00     0.000 C 
BRANCH  11  12
ATOM     12  C   UNL     1     -20.626  -0.322   1.257  1.00  0.00     0.000 C 
BRANCH  12  13
ATOM     13  C   UNL     1     -20.258   1.153   1.491  1.00  0.00     0.000 C 
BRANCH  13  14
ATOM     14  C   UNL     1     -19.707   1.841   0.229  1.00  0.00     0.000 C 
BRANCH  14  15
ATOM     15  C   UNL     1     -18.251   2.332   0.333  1.00  0.00     0.000 C 
BRANCH  15  16
ATOM     16  C   UNL     1     -18.084   3.806  -0.075  1.00  0.00     0.006 C 
BRANCH  16  17
ATOM     17  C   UNL     1     -19.411   4.576  -0.019  1.00  0.00     0.053 C 
BRANCH  17  18
ATOM     18  C   UNL     1     -19.195   6.058  -0.042  1.00  0.00     0.041 C 
ATOM     19  O   UNL     1     -18.031   6.532   0.037  1.00  0.00    -0.550 OA
ATOM     20  O   UNL     1     -20.284   6.918  -0.123  1.00  0.00    -0.550 OA
ENDBRANCH  17  18
ENDBRANCH  16  17
ENDBRANCH  15  16
ENDBRANCH  14  15
ENDBRANCH  13  14
ENDBRANCH  12  13
ENDBRANCH  11  12
ENDBRANCH   1  11
TORSDOF 15
ENDMDL
MODEL 6
REMARK VINA RESULT:    -2.579      1.971      2.545
REMARK INTER + INTRA:          -5.987
REMARK INTER:                  -5.181
REMARK INTRA:                  -0.806
REMARK UNBOUND:                -1.146
REMARK SMILES O=C([O-])CCCCCCCCCCCCCCC(=O)[O-]
REMARK SMILES IDX 10 1 9 2 8 3 7 4 6 5 5 6 4 7 2 8 1 9 3 10 11 11 12 12 13 13
REMARK SMILES IDX 14 14 15 15 16 16 17 17 18 18 19 19 20 20
REMARK H PARENT
REMARK Flexibility Score: inf
ROOT
ATOM      1  C   UNL     1     -18.688 -12.737   2.447  1.00  0.00     0.000 C 
ENDROOT
BRANCH   1   2
ATOM      2  C   UNL     1     -17.205 -12.751   2.856  1.00  0.00     0.000 C 
BRANCH   2   3
ATOM      3  C   UNL     1     -16.543 -11.366   2.727  1.00  0.00     0.000 C 
BRANCH   3   4
ATOM      4  C   UNL     1     -15.345 -11.196   3.676  1.00  0.00     0.000 C 
BRANCH   4   5
ATOM      5  C   UNL     1     -14.470 -12.460   3.756  1.00  0.00     0.000 C 
BRANCH   5   6
ATOM      6  C   UNL     1     -13.005 -12.187   3.382  1.00  0.00     0.006 C 
BRANCH   6   7
ATOM      7  C   UNL     1     -12.858 -11.077   2.333  1.00  0.00     0.053 C 
BRANCH   7   8
ATOM      8  C   UNL     1     -12.861 -11.660   0.955  1.00  0.00     0.041 C 
ATOM      9  O   UNL     1     -13.888 -12.238   0.513  1.00  0.00    -0.550 OA
ATOM     10  O   UNL     1     -11.744 -11.522   0.139  1.00  0.00    -0.550 OA
ENDBRANCH   7   8
ENDBRANCH   6   7
ENDBRANCH   5   6
ENDBRANCH   4   5
ENDBRANCH   3   4
ENDBRANCH   2   3
ENDBRANCH   1   2
BRANCH   1  11
ATOM     11  C   UNL     1     -19.636 -12.874   3.651  1.00  0.00     0.000 C 
BRANCH  11  12
ATOM     12  C   UNL     1     -21.117 -12.777   3.247  1.00  0.00     0.000 C 
BRANCH  12  13
ATOM     13  C   UNL     1     -21.312 -12.764   1.722  1.00  0.00     0.000 C 
BRANCH  13  14
ATOM     14  C   UNL     1     -22.780 -12.558   1.306  1.00  0.00     0.000 C 
BRANCH  14  15
ATOM     15  C   UNL     1     -23.132 -11.137   0.830  1.00  0.00     0.000 C 
BRANCH  15  16
ATOM     16  C   UNL     1     -24.443 -11.081   0.026  1.00  0.00     0.006 C 
BRANCH  16  17
ATOM     17  C   UNL     1     -25.680 -11.192   0.928  1.00  0.00     0.053 C 
BRANCH  17  18
ATOM     18  C   UNL     1     -25.628 -10.220   2.066  1.00  0.00     0.041 C 
ATOM     19  O   UNL     1     -25.680  -8.981   1.846  1.00  0.00    -0.550 OA
ATOM     20  O   UNL     1     -25.493 -10.682   3.369  1.00  0.00    -0.550 OA
ENDBRANCH  17  18
ENDBRANCH  16  17
ENDBRANCH  15  16
ENDBRANCH  14  15
ENDBRANCH  13  14
ENDBRANCH  12  13
ENDBRANCH  11  12
ENDBRANCH   1  11
TORSDOF 15
ENDMDL
MODEL 7
REMARK VINA RESULT:    -2.490     15.133     17.854
REMARK INTER + INTRA:          -5.821
REMARK INTER:                  -4.306
REMARK INTRA:                  -1.515
REMARK UNBOUND:                -1.146
REMARK SMILES O=C([O-])CCCCCCCCCCCCCCC(=O)[O-]
REMARK SMILES IDX 10 1 9 2 8 3 7 4 6 5 5 6 4 7 2 8 1 9 3 10 11 11 12 12 13 13
REMARK SMILES IDX 14 14 15 15 16 16 17 17 18 18 19 19 20 20
REMARK H PARENT
REMARK Flexibility Score: inf
ROOT
ATOM      1  C   UNL     1     -24.927   3.401   1.450  1.00  0.00     0.000 C 
ENDROOT
BRANCH   1   2
ATOM      2  C   UNL     1     -23.677   3.934   0.730  1.00  0.00     0.000 C 
BRANCH   2   3
ATOM      3  C   UNL     1     -23.855   5.378   0.225  1.00  0.00     0.000 C 
BRANCH   3   4
ATOM      4  C   UNL     1     -25.325   5.828   0.233  1.00  0.00     0.000 C 
BRANCH   4   5
ATOM      5  C   UNL     1     -25.571   7.025   1.169  1.00  0.00     0.000 C 
BRANCH   5   6
ATOM      6  C   UNL     1     -26.054   6.594   2.563  1.00  0.00     0.006 C 
BRANCH   6   7
ATOM      7  C   UNL     1     -25.159   7.125   3.691  1.00  0.00     0.053 C 
BRANCH   7   8
ATOM      8  C   UNL     1     -23.836   6.427   3.677  1.00  0.00     0.041 C 
ATOM      9  O   UNL     1     -23.758   5.210   3.987  1.00  0.00    -0.550 OA
ATOM     10  O   UNL     1     -22.694   7.109   3.276  1.00  0.00    -0.550 OA
ENDBRANCH   7   8
ENDBRANCH   6   7
ENDBRANCH   5   6
ENDBRANCH   4   5
ENDBRANCH   3   4
ENDBRANCH   2   3
ENDBRANCH   1   2
BRANCH   1  11
ATOM     11  C   UNL     1     -24.584   2.450   2.610  1.00  0.00     0.000 C 
BRANCH  11  12
ATOM     12  C   UNL     1     -23.255   1.708   2.388  1.00  0.00     0.000 C 
BRANCH  12  13
ATOM     13  C   UNL     1     -23.438   0.390   1.617  1.00  0.00     0.000 C 
BRANCH  13  14
ATOM     14  C   UNL     1     -22.150  -0.079   0.916  1.00  0.00     0.000 C 
BRANCH  14  15
ATOM     15  C   UNL     1     -20.853   0.131   1.719  1.00  0.00     0.000 C 
BRANCH  15  16
ATOM     16  C   UNL     1     -19.847   1.049   1.004  1.00  0.00     0.006 C 
BRANCH  16  17
ATOM     17  C   UNL     1     -20.537   2.211   0.278  1.00  0.00     0.053 C 
BRANCH  17  18
ATOM     18  C   UNL     1     -19.617   3.379   0.097  1.00  0.00     0.041 C 
ATOM     19  O   UNL     1     -20.085   4.528  -0.125  1.00  0.00    -0.550 OA
ATOM     20  O   UNL     1     -18.241   3.194   0.143  1.00  0.00    -0.550 OA
ENDBRANCH  17  18
ENDBRANCH  16  17
ENDBRANCH  15  16
ENDBRANCH  14  15
ENDBRANCH  13  14
ENDBRANCH  12  13
ENDBRANCH  11  12
ENDBRANCH   1  11
TORSDOF 15
ENDMDL
MODEL 8
REMARK VINA RESULT:    -2.478     14.969     17.649
REMARK INTER + INTRA:          -5.797
REMARK INTER:                  -4.395
REMARK INTRA:                  -1.402
REMARK UNBOUND:                -1.146
REMARK SMILES O=C([O-])CCCCCCCCCCCCCCC(=O)[O-]
REMARK SMILES IDX 10 1 9 2 8 3 7 4 6 5 5 6 4 7 2 8 1 9 3 10 11 11 12 12 13 13
REMARK SMILES IDX 14 14 15 15 16 16 17 17 18 18 19 19 20 20
REMARK H PARENT
REMARK Flexibility Score: inf
ROOT
ATOM      1  C   UNL     1     -21.055   6.778   0.945  1.00  0.00     0.000 C 
ENDROOT
BRANCH   1   2
ATOM      2  C   UNL     1     -22.520   7.071   0.582  1.00  0.00     0.000 C 
BRANCH   2   3
ATOM      3  C   UNL     1     -23.263   5.825   0.065  1.00  0.00     0.000 C 
BRANCH   3   4
ATOM      4  C   UNL     1     -24.747   5.815   0.466  1.00  0.00     0.000 C 
BRANCH   4   5
ATOM      5  C   UNL     1     -24.995   6.482   1.831  1.00  0.00     0.000 C 
BRANCH   5   6
ATOM      6  C   UNL     1     -25.472   5.482   2.897  1.00  0.00     0.006 C 
BRANCH   6   7
ATOM      7  C   UNL     1     -24.559   4.255   3.010  1.00  0.00     0.053 C 
BRANCH   7   8
ATOM      8  C   UNL     1     -25.338   3.001   2.763  1.00  0.00     0.041 C 
ATOM      9  O   UNL     1     -25.762   2.318   3.731  1.00  0.00    -0.550 OA
ATOM     10  O   UNL     1     -25.637   2.613   1.463  1.00  0.00    -0.550 OA
ENDBRANCH   7   8
ENDBRANCH   6   7
ENDBRANCH   5   6
ENDBRANCH   4   5
ENDBRANCH   3   4
ENDBRANCH   2   3
ENDBRANCH   1   2
BRANCH   1  11
ATOM     11  C   UNL     1     -20.420   5.712   0.035  1.00  0.00     0.000 C 
BRANCH  11  12
ATOM     12  C   UNL     1     -18.886   5.681   0.147  1.00  0.00     0.000 C 
BRANCH  12  13
ATOM     13  C   UNL     1     -18.305   4.283  -0.124  1.00  0.00     0.000 C 
BRANCH  13  14
ATOM     14  C   UNL     1     -19.356   3.163  -0.006  1.00  0.00     0.000 C 
BRANCH  14  15
ATOM     15  C   UNL     1     -18.875   1.887   0.708  1.00  0.00     0.000 C 
BRANCH  15  16
ATOM     16  C   UNL     1     -20.025   0.927   1.059  1.00  0.00     0.006 C 
BRANCH  16  17
ATOM     17  C   UNL     1     -21.384   1.451   0.578  1.00  0.00     0.053 C 
BRANCH  17  18
ATOM     18  C   UNL     1     -22.522   0.767   1.272  1.00  0.00     0.041 C 
ATOM     19  O   UNL     1     -22.516   0.638   2.525  1.00  0.00    -0.550 OA
ATOM     20  O   UNL     1     -23.576   0.247   0.532  1.00  0.00    -0.550 OA
ENDBRANCH  17  18
ENDBRANCH  16  17
ENDBRANCH  15  16
ENDBRANCH  14  15
ENDBRANCH  13  14
ENDBRANCH  12  13
ENDBRANCH  11  12
ENDBRANCH   1  11
TORSDOF 15
ENDMDL
