MODEL 1
REMARK VINA RESULT:    21.516      0.000      0.000
REMARK INTER + INTRA:          36.693
REMARK INTER:                  37.239
REMARK INTRA:                  -0.545
REMARK UNBOUND:                -0.545
REMARK SMILES OC[C@@H]1O[C@@H](O)[C@H](O)[C@H](O)[C@H]1O[C@H]1O[C@H](CO)[C@@H](O[C@H]2O[C@H](CO)[C@@H](O)[C@H](O)[C@@H]2O)[C@H](O)[C@H]1O
REMARK SMILES IDX 18 1 15 2 14 3 13 4 33 5 31 6 19 7 20 8 22 9 25 10 21 11
REMARK SMILES IDX 27 12 29 13 23 14 24 15 26 17 28 19 30 21 16 23 17 24 32 26
REMARK SMILES IDX 34 28 12 30 11 31 3 32 9 33 4 34 7 35 5 36 2 37 1 38 10 40
REMARK SMILES IDX 8 42 6 44
REMARK H PARENT 24 16 26 18 28 20 30 22 17 25 32 27 34 29 1 39 10 41 8 43 6 45
REMARK Flexibility Score: inf
ROOT
ATOM      1  C   UNL     1      28.490  -0.559  42.561  1.00  0.00     0.184 C 
ATOM      2  C   UNL     1      27.770  -0.508  41.178  1.00  0.00     0.178 C 
ATOM      3  O   UNL     1      26.754   0.486  41.139  1.00  0.00    -0.341 OA
ATOM      4  C   UNL     1      25.719   0.289  42.098  1.00  0.00     0.282 C 
ATOM      5  C   UNL     1      26.286   0.049  43.534  1.00  0.00     0.202 C 
ATOM      6  C   UNL     1      27.785   0.364  43.567  1.00  0.00     0.180 C 
ENDROOT
BRANCH   1   7
ATOM      7  O   UNL     1      29.843  -0.135  42.398  1.00  0.00    -0.341 OA
BRANCH   7   8
ATOM      8  C   UNL     1      30.156   0.058  41.032  1.00  0.00     0.282 C 
ATOM      9  C   UNL     1      29.900   1.576  39.241  1.00  0.00     0.178 C 
ATOM     10  C   UNL     1      31.392   1.440  38.817  1.00  0.00     0.177 C 
ATOM     11  O   UNL     1      29.719   1.349  40.630  1.00  0.00    -0.341 OA
ATOM     12  C   UNL     1      32.059   0.166  39.385  1.00  0.00     0.179 C 
ATOM     13  C   UNL     1      31.680  -0.054  40.858  1.00  0.00     0.202 C 
BRANCH   9  14
ATOM     14  C   UNL     1      28.918   0.754  38.378  1.00  0.00     0.191 C 
BRANCH  14  15
ATOM     15  O   UNL     1      29.587   0.200  37.275  1.00  0.00    -0.394 OA
ATOM     16  H   UNL     1      30.071   0.941  36.828  1.00  0.00     0.210 HD
ENDBRANCH  14  15
ENDBRANCH   9  14
BRANCH  10  17
ATOM     17  O   UNL     1      32.122   2.583  39.199  1.00  0.00    -0.387 OA
ATOM     18  H   UNL     1      32.467   2.438  40.120  1.00  0.00     0.211 HD
ENDBRANCH  10  17
BRANCH  12  19
ATOM     19  O   UNL     1      31.683  -0.953  38.624  1.00  0.00    -0.387 OA
ATOM     20  H   UNL     1      31.178  -0.608  37.838  1.00  0.00     0.211 HD
ENDBRANCH  12  19
BRANCH  13  21
ATOM     21  O   UNL     1      32.125  -1.324  41.267  1.00  0.00    -0.385 OA
ATOM     22  H   UNL     1      33.117  -1.315  41.224  1.00  0.00     0.211 HD
ENDBRANCH  13  21
ENDBRANCH   7   8
ENDBRANCH   1   7
BRANCH   2  23
ATOM     23  C   UNL     1      27.254  -1.885  40.714  1.00  0.00     0.191 C 
BRANCH  23  24
ATOM     24  O   UNL     1      27.561  -2.067  39.353  1.00  0.00    -0.394 OA
ATOM     25  H   UNL     1      27.309  -1.232  38.877  1.00  0.00     0.210 HD
ENDBRANCH  23  24
ENDBRANCH   2  23
BRANCH   6  26
ATOM     26  O   UNL     1      28.289   0.128  44.861  1.00  0.00    -0.387 OA
ATOM     27  H   UNL     1      28.607   0.996  45.214  1.00  0.00     0.211 HD
ENDBRANCH   6  26
BRANCH   5  28
ATOM     28  O   UNL     1      25.626   0.843  44.487  1.00  0.00    -0.385 OA
ATOM     29  H   UNL     1      25.612   1.771  44.128  1.00  0.00     0.211 HD
ENDBRANCH   5  28
BRANCH   4  30
ATOM     30  O   UNL     1      24.793   1.382  42.149  1.00  0.00    -0.341 OA
BRANCH  30  31
ATOM     31  C   UNL     1      23.516   1.235  41.519  1.00  0.00     0.184 C 
ATOM     32  C   UNL     1      22.393   0.691  42.455  1.00  0.00     0.178 C 
ATOM     33  C   UNL     1      23.075   2.452  40.678  1.00  0.00     0.180 C 
ATOM     34  O   UNL     1      21.164   0.486  41.764  1.00  0.00    -0.342 OA
ATOM     35  C   UNL     1      21.728   2.144  39.995  1.00  0.00     0.201 C 
ATOM     36  C   UNL     1      20.701   1.615  41.023  1.00  0.00     0.279 C 
BRANCH  32  37
ATOM     37  C   UNL     1      22.816  -0.661  43.047  1.00  0.00     0.191 C 
BRANCH  37  38
ATOM     38  O   UNL     1      22.814  -0.605  44.447  1.00  0.00    -0.394 OA
ATOM     39  H   UNL     1      22.407  -1.455  44.762  1.00  0.00     0.210 HD
ENDBRANCH  37  38
ENDBRANCH  32  37
BRANCH  33  40
ATOM     40  O   UNL     1      24.057   2.737  39.716  1.00  0.00    -0.387 OA
ATOM     41  H   UNL     1      23.878   2.148  38.936  1.00  0.00     0.211 HD
ENDBRANCH  33  40
BRANCH  35  42
ATOM     42  O   UNL     1      21.887   1.241  38.925  1.00  0.00    -0.385 OA
ATOM     43  H   UNL     1      22.520   0.528  39.200  1.00  0.00     0.211 HD
ENDBRANCH  35  42
BRANCH  36  44
ATOM     44  O   UNL     1      20.200   2.648  41.836  1.00  0.00    -0.366 OA
ATOM     45  H   UNL     1      19.453   2.312  42.397  1.00  0.00     0.213 HD
ENDBRANCH  36  44
ENDBRANCH  30  31
ENDBRANCH   4  30
TORSDOF 18
ENDMDL
MODEL 2
REMARK VINA RESULT:    21.539      1.763      4.131
REMARK INTER + INTRA:          36.734
REMARK INTER:                  36.483
REMARK INTRA:                   0.252
REMARK UNBOUND:                -0.545
REMARK SMILES OC[C@@H]1O[C@@H](O)[C@H](O)[C@H](O)[C@H]1O[C@H]1O[C@H](CO)[C@@H](O[C@H]2O[C@H](CO)[C@@H](O)[C@H](O)[C@@H]2O)[C@H](O)[C@H]1O
REMARK SMILES IDX 18 1 15 2 14 3 13 4 33 5 31 6 19 7 20 8 22 9 25 10 21 11
REMARK SMILES IDX 27 12 29 13 23 14 24 15 26 17 28 19 30 21 16 23 17 24 32 26
REMARK SMILES IDX 34 28 12 30 11 31 3 32 9 33 4 34 7 35 5 36 2 37 1 38 10 40
REMARK SMILES IDX 8 42 6 44
REMARK H PARENT 24 16 26 18 28 20 30 22 17 25 32 27 34 29 1 39 10 41 8 43 6 45
REMARK Flexibility Score: inf
ROOT
ATOM      1  C   UNL     1      25.956   1.432  40.749  1.00  0.00     0.184 C 
ATOM      2  C   UNL     1      24.894   0.677  41.606  1.00  0.00     0.178 C 
ATOM      3  O   UNL     1      23.578   0.832  41.088  1.00  0.00    -0.341 OA
ATOM      4  C   UNL     1      23.134   2.184  41.040  1.00  0.00     0.282 C 
ATOM      5  C   UNL     1      24.178   3.122  40.352  1.00  0.00     0.202 C 
ATOM      6  C   UNL     1      25.268   2.286  39.673  1.00  0.00     0.180 C 
ENDROOT
BRANCH   1   7
ATOM      7  O   UNL     1      26.811   0.478  40.119  1.00  0.00    -0.341 OA
BRANCH   7   8
ATOM      8  C   UNL     1      28.106   0.501  40.688  1.00  0.00     0.282 C 
ATOM      9  C   UNL     1      29.548  -0.693  42.128  1.00  0.00     0.178 C 
ATOM     10  C   UNL     1      30.758  -0.542  41.161  1.00  0.00     0.177 C 
ATOM     11  O   UNL     1      28.309  -0.690  41.436  1.00  0.00    -0.341 OA
ATOM     12  C   UNL     1      30.562   0.597  40.135  1.00  0.00     0.179 C 
ATOM     13  C   UNL     1      29.139   0.587  39.553  1.00  0.00     0.202 C 
BRANCH   9  14
ATOM     14  C   UNL     1      29.559   0.293  43.317  1.00  0.00     0.191 C 
BRANCH  14  15
ATOM     15  O   UNL     1      29.986  -0.358  44.485  1.00  0.00    -0.394 OA
ATOM     16  H   UNL     1      29.876   0.285  45.232  1.00  0.00     0.210 HD
ENDBRANCH  14  15
ENDBRANCH   9  14
BRANCH  10  17
ATOM     17  O   UNL     1      31.016  -1.756  40.496  1.00  0.00    -0.387 OA
ATOM     18  H   UNL     1      30.682  -1.676  39.563  1.00  0.00     0.211 HD
ENDBRANCH  10  17
BRANCH  12  19
ATOM     19  O   UNL     1      30.819   1.839  40.740  1.00  0.00    -0.387 OA
ATOM     20  H   UNL     1      29.946   2.316  40.798  1.00  0.00     0.211 HD
ENDBRANCH  12  19
BRANCH  13  21
ATOM     21  O   UNL     1      28.938   1.756  38.798  1.00  0.00    -0.385 OA
ATOM     22  H   UNL     1      28.969   1.495  37.841  1.00  0.00     0.211 HD
ENDBRANCH  13  21
ENDBRANCH   7   8
ENDBRANCH   1   7
BRANCH   2  23
ATOM     23  C   UNL     1      24.972   1.022  43.107  1.00  0.00     0.191 C 
BRANCH  23  24
ATOM     24  O   UNL     1      26.193   0.561  43.632  1.00  0.00    -0.394 OA
ATOM     25  H   UNL     1      26.791   1.348  43.728  1.00  0.00     0.210 HD
ENDBRANCH  23  24
ENDBRANCH   2  23
BRANCH   6  26
ATOM     26  O   UNL     1      26.211   3.141  39.071  1.00  0.00    -0.387 OA
ATOM     27  H   UNL     1      26.878   2.567  38.616  1.00  0.00     0.211 HD
ENDBRANCH   6  26
BRANCH   5  28
ATOM     28  O   UNL     1      23.570   3.953  39.396  1.00  0.00    -0.385 OA
ATOM     29  H   UNL     1      22.847   3.418  38.968  1.00  0.00     0.211 HD
ENDBRANCH   5  28
BRANCH   4  30
ATOM     30  O   UNL     1      21.876   2.333  40.371  1.00  0.00    -0.341 OA
BRANCH  30  31
ATOM     31  C   UNL     1      20.742   1.611  40.864  1.00  0.00     0.184 C 
ATOM     32  C   UNL     1      21.057   0.161  41.343  1.00  0.00     0.178 C 
ATOM     33  C   UNL     1      19.860   2.403  41.853  1.00  0.00     0.180 C 
ATOM     34  O   UNL     1      19.887  -0.544  41.748  1.00  0.00    -0.342 OA
ATOM     35  C   UNL     1      18.639   1.551  42.251  1.00  0.00     0.201 C 
ATOM     36  C   UNL     1      19.081   0.141  42.707  1.00  0.00     0.279 C 
BRANCH  32  37
ATOM     37  C   UNL     1      21.700  -0.638  40.200  1.00  0.00     0.191 C 
BRANCH  37  38
ATOM     38  O   UNL     1      20.999  -1.832  39.983  1.00  0.00    -0.394 OA
ATOM     39  H   UNL     1      20.359  -1.924  40.738  1.00  0.00     0.210 HD
ENDBRANCH  37  38
ENDBRANCH  32  37
BRANCH  33  40
ATOM     40  O   UNL     1      19.445   3.603  41.253  1.00  0.00    -0.387 OA
ATOM     41  H   UNL     1      19.519   4.313  41.944  1.00  0.00     0.211 HD
ENDBRANCH  33  40
BRANCH  35  42
ATOM     42  O   UNL     1      17.700   1.475  41.203  1.00  0.00    -0.385 OA
ATOM     43  H   UNL     1      16.865   1.070  41.553  1.00  0.00     0.211 HD
ENDBRANCH  35  42
BRANCH  36  44
ATOM     44  O   UNL     1      19.646   0.164  43.995  1.00  0.00    -0.366 OA
ATOM     45  H   UNL     1      20.328   0.883  44.058  1.00  0.00     0.213 HD
ENDBRANCH  36  44
ENDBRANCH  30  31
ENDBRANCH   4  30
TORSDOF 18
ENDMDL
MODEL 3
REMARK VINA RESULT:    22.043      1.407      7.977
REMARK INTER + INTRA:          37.606
REMARK INTER:                  37.985
REMARK INTRA:                  -0.379
REMARK UNBOUND:                -0.545
REMARK SMILES OC[C@@H]1O[C@@H](O)[C@H](O)[C@H](O)[C@H]1O[C@H]1O[C@H](CO)[C@@H](O[C@H]2O[C@H](CO)[C@@H](O)[C@H](O)[C@@H]2O)[C@H](O)[C@H]1O
REMARK SMILES IDX 18 1 15 2 14 3 13 4 33 5 31 6 19 7 20 8 22 9 25 10 21 11
REMARK SMILES IDX 27 12 29 13 23 14 24 15 26 17 28 19 30 21 16 23 17 24 32 26
REMARK SMILES IDX 34 28 12 30 11 31 3 32 9 33 4 34 7 35 5 36 2 37 1 38 10 40
REMARK SMILES IDX 8 42 6 44
REMARK H PARENT 24 16 26 18 28 20 30 22 17 25 32 27 34 29 1 39 10 41 8 43 6 45
REMARK Flexibility Score: inf
ROOT
ATOM      1  C   UNL     1      25.255   0.132  42.334  1.00  0.00     0.184 C 
ATOM      2  C   UNL     1      26.684   0.512  42.829  1.00  0.00     0.178 C 
ATOM      3  O   UNL     1      27.659   0.386  41.801  1.00  0.00    -0.341 OA
ATOM      4  C   UNL     1      27.778  -0.934  41.280  1.00  0.00     0.282 C 
ATOM      5  C   UNL     1      26.391  -1.538  40.887  1.00  0.00     0.202 C 
ATOM      6  C   UNL     1      25.316  -0.446  40.912  1.00  0.00     0.180 C 
ENDROOT
BRANCH   1   7
ATOM      7  O   UNL     1      24.436   1.301  42.333  1.00  0.00    -0.341 OA
BRANCH   7   8
ATOM      8  C   UNL     1      23.240   1.084  41.608  1.00  0.00     0.282 C 
ATOM      9  C   UNL     1      21.084   0.134  41.778  1.00  0.00     0.178 C 
ATOM     10  C   UNL     1      20.408   1.370  41.117  1.00  0.00     0.177 C 
ATOM     11  O   UNL     1      22.277   0.483  42.463  1.00  0.00    -0.341 OA
ATOM     12  C   UNL     1      21.409   2.245  40.326  1.00  0.00     0.179 C 
ATOM     13  C   UNL     1      22.718   2.440  41.106  1.00  0.00     0.202 C 
BRANCH   9  14
ATOM     14  C   UNL     1      21.283  -1.065  40.826  1.00  0.00     0.191 C 
BRANCH  14  15
ATOM     15  O   UNL     1      20.435  -2.123  41.193  1.00  0.00    -0.394 OA
ATOM     16  H   UNL     1      20.991  -2.781  41.684  1.00  0.00     0.210 HD
ENDBRANCH  14  15
ENDBRANCH   9  14
BRANCH  10  17
ATOM     17  O   UNL     1      19.741   2.148  42.083  1.00  0.00    -0.387 OA
ATOM     18  H   UNL     1      18.797   1.840  42.132  1.00  0.00     0.211 HD
ENDBRANCH  10  17
BRANCH  12  19
ATOM     19  O   UNL     1      21.680   1.657  39.080  1.00  0.00    -0.387 OA
ATOM     20  H   UNL     1      22.441   2.164  38.683  1.00  0.00     0.211 HD
ENDBRANCH  12  19
BRANCH  13  21
ATOM     21  O   UNL     1      23.670   3.050  40.270  1.00  0.00    -0.385 OA
ATOM     22  H   UNL     1      24.525   3.084  40.775  1.00  0.00     0.211 HD
ENDBRANCH  13  21
ENDBRANCH   7   8
ENDBRANCH   1   7
BRANCH   2  23
ATOM     23  C   UNL     1      27.097  -0.231  44.115  1.00  0.00     0.191 C 
BRANCH  23  24
ATOM     24  O   UNL     1      28.488  -0.438  44.113  1.00  0.00    -0.394 OA
ATOM     25  H   UNL     1      28.708  -0.973  43.305  1.00  0.00     0.210 HD
ENDBRANCH  23  24
ENDBRANCH   2  23
BRANCH   6  26
ATOM     26  O   UNL     1      24.069  -1.005  40.572  1.00  0.00    -0.387 OA
ATOM     27  H   UNL     1      23.813  -1.619  41.306  1.00  0.00     0.211 HD
ENDBRANCH   6  26
BRANCH   5  28
ATOM     28  O   UNL     1      26.428  -2.122  39.609  1.00  0.00    -0.385 OA
ATOM     29  H   UNL     1      26.921  -1.490  39.019  1.00  0.00     0.211 HD
ENDBRANCH   5  28
BRANCH   4  30
ATOM     30  O   UNL     1      28.646  -1.008  40.143  1.00  0.00    -0.341 OA
BRANCH  30  31
ATOM     31  C   UNL     1      29.592   0.044  39.926  1.00  0.00     0.184 C 
ATOM     32  C   UNL     1      31.084  -0.407  39.976  1.00  0.00     0.178 C 
ATOM     33  C   UNL     1      29.270   0.956  38.723  1.00  0.00     0.180 C 
ATOM     34  O   UNL     1      31.987   0.686  39.836  1.00  0.00    -0.342 OA
ATOM     35  C   UNL     1      30.313   2.088  38.642  1.00  0.00     0.201 C 
ATOM     36  C   UNL     1      31.748   1.515  38.699  1.00  0.00     0.279 C 
BRANCH  32  37
ATOM     37  C   UNL     1      31.382  -1.077  41.325  1.00  0.00     0.191 C 
BRANCH  37  38
ATOM     38  O   UNL     1      30.859  -0.314  42.377  1.00  0.00    -0.394 OA
ATOM     39  H   UNL     1      29.941  -0.657  42.546  1.00  0.00     0.210 HD
ENDBRANCH  37  38
ENDBRANCH  32  37
BRANCH  33  40
ATOM     40  O   UNL     1      27.980   1.491  38.874  1.00  0.00    -0.387 OA
ATOM     41  H   UNL     1      27.340   0.742  38.747  1.00  0.00     0.211 HD
ENDBRANCH  33  40
BRANCH  35  42
ATOM     42  O   UNL     1      30.110   3.051  39.649  1.00  0.00    -0.385 OA
ATOM     43  H   UNL     1      30.991   3.410  39.930  1.00  0.00     0.211 HD
ENDBRANCH  35  42
BRANCH  36  44
ATOM     44  O   UNL     1      32.116   0.912  37.483  1.00  0.00    -0.366 OA
ATOM     45  H   UNL     1      32.177   1.594  36.765  1.00  0.00     0.213 HD
ENDBRANCH  36  44
ENDBRANCH  30  31
ENDBRANCH   4  30
TORSDOF 18
ENDMDL
MODEL 4
REMARK VINA RESULT:    23.750      2.056      9.207
REMARK INTER + INTRA:          40.560
REMARK INTER:                  41.024
REMARK INTRA:                  -0.464
REMARK UNBOUND:                -0.545
REMARK SMILES OC[C@@H]1O[C@@H](O)[C@H](O)[C@H](O)[C@H]1O[C@H]1O[C@H](CO)[C@@H](O[C@H]2O[C@H](CO)[C@@H](O)[C@H](O)[C@@H]2O)[C@H](O)[C@H]1O
REMARK SMILES IDX 18 1 15 2 14 3 13 4 33 5 31 6 19 7 20 8 22 9 25 10 21 11
REMARK SMILES IDX 27 12 29 13 23 14 24 15 26 17 28 19 30 21 16 23 17 24 32 26
REMARK SMILES IDX 34 28 12 30 11 31 3 32 9 33 4 34 7 35 5 36 2 37 1 38 10 40
REMARK SMILES IDX 8 42 6 44
REMARK H PARENT 24 16 26 18 28 20 30 22 17 25 32 27 34 29 1 39 10 41 8 43 6 45
REMARK Flexibility Score: inf
ROOT
ATOM      1  C   UNL     1      22.256   2.249  40.237  1.00  0.00     0.184 C 
ATOM      2  C   UNL     1      22.612   1.074  41.197  1.00  0.00     0.178 C 
ATOM      3  O   UNL     1      23.900   1.229  41.779  1.00  0.00    -0.341 OA
ATOM      4  C   UNL     1      24.959   1.274  40.828  1.00  0.00     0.282 C 
ATOM      5  C   UNL     1      24.678   2.299  39.682  1.00  0.00     0.202 C 
ATOM      6  C   UNL     1      23.470   3.170  40.043  1.00  0.00     0.180 C 
ENDROOT
BRANCH   1   7
ATOM      7  O   UNL     1      21.178   3.000  40.796  1.00  0.00    -0.341 OA
BRANCH   7   8
ATOM      8  C   UNL     1      20.103   2.156  41.158  1.00  0.00     0.282 C 
ATOM      9  C   UNL     1      19.234   0.880  42.947  1.00  0.00     0.178 C 
ATOM     10  C   UNL     1      17.790   1.416  42.724  1.00  0.00     0.177 C 
ATOM     11  O   UNL     1      20.219   1.815  42.533  1.00  0.00    -0.341 OA
ATOM     12  C   UNL     1      17.592   2.026  41.317  1.00  0.00     0.179 C 
ATOM     13  C   UNL     1      18.785   2.909  40.918  1.00  0.00     0.202 C 
BRANCH   9  14
ATOM     14  C   UNL     1      19.484  -0.531  42.369  1.00  0.00     0.191 C 
BRANCH  14  15
ATOM     15  O   UNL     1      18.588  -1.453  42.934  1.00  0.00    -0.394 OA
ATOM     16  H   UNL     1      18.662  -1.362  43.918  1.00  0.00     0.210 HD
ENDBRANCH  14  15
ENDBRANCH   9  14
BRANCH  10  17
ATOM     17  O   UNL     1      17.452   2.357  43.714  1.00  0.00    -0.387 OA
ATOM     18  H   UNL     1      17.995   3.176  43.563  1.00  0.00     0.211 HD
ENDBRANCH  10  17
BRANCH  12  19
ATOM     19  O   UNL     1      17.419   1.004  40.369  1.00  0.00    -0.387 OA
ATOM     20  H   UNL     1      16.573   1.205  39.883  1.00  0.00     0.211 HD
ENDBRANCH  12  19
BRANCH  13  21
ATOM     21  O   UNL     1      18.667   3.264  39.562  1.00  0.00    -0.385 OA
ATOM     22  H   UNL     1      19.502   3.738  39.310  1.00  0.00     0.211 HD
ENDBRANCH  13  21
ENDBRANCH   7   8
ENDBRANCH   1   7
BRANCH   2  23
ATOM     23  C   UNL     1      22.429  -0.314  40.550  1.00  0.00     0.191 C 
BRANCH  23  24
ATOM     24  O   UNL     1      21.324  -0.284  39.679  1.00  0.00    -0.394 OA
ATOM     25  H   UNL     1      20.678  -0.969  39.996  1.00  0.00     0.210 HD
ENDBRANCH  23  24
ENDBRANCH   2  23
BRANCH   6  26
ATOM     26  O   UNL     1      23.215   4.079  38.997  1.00  0.00    -0.387 OA
ATOM     27  H   UNL     1      23.428   3.615  38.148  1.00  0.00     0.211 HD
ENDBRANCH   6  26
BRANCH   5  28
ATOM     28  O   UNL     1      25.790   3.124  39.446  1.00  0.00    -0.385 OA
ATOM     29  H   UNL     1      25.587   4.006  39.861  1.00  0.00     0.211 HD
ENDBRANCH   5  28
BRANCH   4  30
ATOM     30  O   UNL     1      26.226   1.588  41.420  1.00  0.00    -0.341 OA
BRANCH  30  31
ATOM     31  C   UNL     1      27.163   0.530  41.648  1.00  0.00     0.184 C 
ATOM     32  C   UNL     1      28.410   0.559  40.713  1.00  0.00     0.178 C 
ATOM     33  C   UNL     1      27.518   0.299  43.133  1.00  0.00     0.180 C 
ATOM     34  O   UNL     1      29.272  -0.556  40.922  1.00  0.00    -0.342 OA
ATOM     35  C   UNL     1      28.471  -0.906  43.252  1.00  0.00     0.201 C 
ATOM     36  C   UNL     1      29.664  -0.760  42.280  1.00  0.00     0.279 C 
BRANCH  32  37
ATOM     37  C   UNL     1      27.963   0.522  39.244  1.00  0.00     0.191 C 
BRANCH  37  38
ATOM     38  O   UNL     1      29.046   0.219  38.409  1.00  0.00    -0.394 OA
ATOM     39  H   UNL     1      28.843   0.626  37.525  1.00  0.00     0.210 HD
ENDBRANCH  37  38
ENDBRANCH  32  37
BRANCH  33  40
ATOM     40  O   UNL     1      26.342   0.068  43.864  1.00  0.00    -0.387 OA
ATOM     41  H   UNL     1      25.601  -0.004  43.207  1.00  0.00     0.211 HD
ENDBRANCH  33  40
BRANCH  35  42
ATOM     42  O   UNL     1      27.792  -2.123  43.045  1.00  0.00    -0.385 OA
ATOM     43  H   UNL     1      28.259  -2.632  42.333  1.00  0.00     0.211 HD
ENDBRANCH  35  42
BRANCH  36  44
ATOM     44  O   UNL     1      30.596   0.187  42.739  1.00  0.00    -0.366 OA
ATOM     45  H   UNL     1      30.134   1.024  43.005  1.00  0.00     0.213 HD
ENDBRANCH  36  44
ENDBRANCH  30  31
ENDBRANCH   4  30
TORSDOF 18
ENDMDL
MODEL 5
REMARK VINA RESULT:    24.247      1.423      8.434
REMARK INTER + INTRA:          41.420
REMARK INTER:                  40.220
REMARK INTRA:                   1.199
REMARK UNBOUND:                -0.545
REMARK SMILES OC[C@@H]1O[C@@H](O)[C@H](O)[C@H](O)[C@H]1O[C@H]1O[C@H](CO)[C@@H](O[C@H]2O[C@H](CO)[C@@H](O)[C@H](O)[C@@H]2O)[C@H](O)[C@H]1O
REMARK SMILES IDX 18 1 15 2 14 3 13 4 33 5 31 6 19 7 20 8 22 9 25 10 21 11
REMARK SMILES IDX 27 12 29 13 23 14 24 15 26 17 28 19 30 21 16 23 17 24 32 26
REMARK SMILES IDX 34 28 12 30 11 31 3 32 9 33 4 34 7 35 5 36 2 37 1 38 10 40
REMARK SMILES IDX 8 42 6 44
REMARK H PARENT 24 16 26 18 28 20 30 22 17 25 32 27 34 29 1 39 10 41 8 43 6 45
REMARK Flexibility Score: inf
ROOT
ATOM      1  C   UNL     1      24.652   0.417  42.184  1.00  0.00     0.184 C 
ATOM      2  C   UNL     1      26.089   0.904  42.541  1.00  0.00     0.178 C 
ATOM      3  O   UNL     1      27.010   0.680  41.480  1.00  0.00    -0.341 OA
ATOM      4  C   UNL     1      27.153  -0.691  41.123  1.00  0.00     0.282 C 
ATOM      5  C   UNL     1      25.772  -1.386  40.891  1.00  0.00     0.202 C 
ATOM      6  C   UNL     1      24.658  -0.335  40.844  1.00  0.00     0.180 C 
ENDROOT
BRANCH   1   7
ATOM      7  O   UNL     1      23.787   1.548  42.086  1.00  0.00    -0.341 OA
BRANCH   7   8
ATOM      8  C   UNL     1      22.543   1.191  41.514  1.00  0.00     0.282 C 
ATOM      9  C   UNL     1      20.373   0.431  42.057  1.00  0.00     0.178 C 
ATOM     10  C   UNL     1      19.696   1.458  41.104  1.00  0.00     0.177 C 
ATOM     11  O   UNL     1      21.617   0.904  42.553  1.00  0.00    -0.341 OA
ATOM     12  C   UNL     1      20.673   2.024  40.047  1.00  0.00     0.179 C 
ATOM     13  C   UNL     1      22.033   2.371  40.671  1.00  0.00     0.202 C 
BRANCH   9  14
ATOM     14  C   UNL     1      20.476  -0.998  41.480  1.00  0.00     0.191 C 
BRANCH  14  15
ATOM     15  O   UNL     1      19.674  -1.881  42.221  1.00  0.00    -0.394 OA
ATOM     16  H   UNL     1      20.084  -2.780  42.142  1.00  0.00     0.210 HD
ENDBRANCH  14  15
ENDBRANCH   9  14
BRANCH  10  17
ATOM     17  O   UNL     1      19.114   2.509  41.840  1.00  0.00    -0.387 OA
ATOM     18  H   UNL     1      19.724   3.293  41.796  1.00  0.00     0.211 HD
ENDBRANCH  10  17
BRANCH  12  19
ATOM     19  O   UNL     1      20.849   1.094  39.009  1.00  0.00    -0.387 OA
ATOM     20  H   UNL     1      20.980   1.619  38.173  1.00  0.00     0.211 HD
ENDBRANCH  12  19
BRANCH  13  21
ATOM     21  O   UNL     1      22.950   2.673  39.649  1.00  0.00    -0.385 OA
ATOM     22  H   UNL     1      23.323   1.811  39.327  1.00  0.00     0.211 HD
ENDBRANCH  13  21
ENDBRANCH   7   8
ENDBRANCH   1   7
BRANCH   2  23
ATOM     23  C   UNL     1      26.601   0.344  43.883  1.00  0.00     0.191 C 
BRANCH  23  24
ATOM     24  O   UNL     1      27.662  -0.549  43.646  1.00  0.00    -0.394 OA
ATOM     25  H   UNL     1      28.189  -0.189  42.885  1.00  0.00     0.210 HD
ENDBRANCH  23  24
ENDBRANCH   2  23
BRANCH   6  26
ATOM     26  O   UNL     1      23.417  -0.973  40.652  1.00  0.00    -0.387 OA
ATOM     27  H   UNL     1      23.466  -1.457  39.790  1.00  0.00     0.211 HD
ENDBRANCH   6  26
BRANCH   5  28
ATOM     28  O   UNL     1      25.762  -2.125  39.696  1.00  0.00    -0.385 OA
ATOM     29  H   UNL     1      26.458  -1.727  39.106  1.00  0.00     0.211 HD
ENDBRANCH   5  28
BRANCH   4  30
ATOM     30  O   UNL     1      27.960  -0.880  39.954  1.00  0.00    -0.341 OA
BRANCH  30  31
ATOM     31  C   UNL     1      29.361  -0.595  40.028  1.00  0.00     0.184 C 
ATOM     32  C   UNL     1      29.839   0.547  39.079  1.00  0.00     0.178 C 
ATOM     33  C   UNL     1      29.913  -0.467  41.463  1.00  0.00     0.180 C 
ATOM     34  O   UNL     1      31.250   0.739  39.128  1.00  0.00    -0.342 OA
ATOM     35  C   UNL     1      31.436  -0.235  41.411  1.00  0.00     0.201 C 
ATOM     36  C   UNL     1      31.781   0.918  40.441  1.00  0.00     0.279 C 
BRANCH  32  37
ATOM     37  C   UNL     1      29.474   0.206  37.626  1.00  0.00     0.191 C 
BRANCH  37  38
ATOM     38  O   UNL     1      29.544   1.351  36.822  1.00  0.00    -0.394 OA
ATOM     39  H   UNL     1      28.619   1.711  36.763  1.00  0.00     0.210 HD
ENDBRANCH  37  38
ENDBRANCH  32  37
BRANCH  33  40
ATOM     40  O   UNL     1      29.621  -1.636  42.183  1.00  0.00    -0.387 OA
ATOM     41  H   UNL     1      28.637  -1.768  42.134  1.00  0.00     0.211 HD
ENDBRANCH  33  40
BRANCH  35  42
ATOM     42  O   UNL     1      32.125  -1.414  41.065  1.00  0.00    -0.385 OA
ATOM     43  H   UNL     1      33.038  -1.375  41.450  1.00  0.00     0.211 HD
ENDBRANCH  35  42
BRANCH  36  44
ATOM     44  O   UNL     1      31.479   2.174  40.998  1.00  0.00    -0.366 OA
ATOM     45  H   UNL     1      30.818   2.651  40.432  1.00  0.00     0.213 HD
ENDBRANCH  36  44
ENDBRANCH  30  31
ENDBRANCH   4  30
TORSDOF 18
ENDMDL
MODEL 6
REMARK VINA RESULT:    24.295      1.889      4.560
REMARK INTER + INTRA:          41.503
REMARK INTER:                  42.119
REMARK INTRA:                  -0.616
REMARK UNBOUND:                -0.545
REMARK SMILES OC[C@@H]1O[C@@H](O)[C@H](O)[C@H](O)[C@H]1O[C@H]1O[C@H](CO)[C@@H](O[C@H]2O[C@H](CO)[C@@H](O)[C@H](O)[C@@H]2O)[C@H](O)[C@H]1O
REMARK SMILES IDX 18 1 15 2 14 3 13 4 33 5 31 6 19 7 20 8 22 9 25 10 21 11
REMARK SMILES IDX 27 12 29 13 23 14 24 15 26 17 28 19 30 21 16 23 17 24 32 26
REMARK SMILES IDX 34 28 12 30 11 31 3 32 9 33 4 34 7 35 5 36 2 37 1 38 10 40
REMARK SMILES IDX 8 42 6 44
REMARK H PARENT 24 16 26 18 28 20 30 22 17 25 32 27 34 29 1 39 10 41 8 43 6 45
REMARK Flexibility Score: inf
ROOT
ATOM      1  C   UNL     1      25.784   1.624  40.622  1.00  0.00     0.184 C 
ATOM      2  C   UNL     1      25.006   0.607  41.512  1.00  0.00     0.178 C 
ATOM      3  O   UNL     1      23.644   0.483  41.119  1.00  0.00    -0.341 OA
ATOM      4  C   UNL     1      22.909   1.700  41.203  1.00  0.00     0.282 C 
ATOM      5  C   UNL     1      23.645   2.882  40.495  1.00  0.00     0.202 C 
ATOM      6  C   UNL     1      24.821   2.350  39.670  1.00  0.00     0.180 C 
ENDROOT
BRANCH   1   7
ATOM      7  O   UNL     1      26.764   0.922  39.858  1.00  0.00    -0.341 OA
BRANCH   7   8
ATOM      8  C   UNL     1      27.971   0.782  40.582  1.00  0.00     0.282 C 
ATOM      9  C   UNL     1      29.097  -0.629  42.105  1.00  0.00     0.178 C 
ATOM     10  C   UNL     1      30.431  -0.549  41.306  1.00  0.00     0.177 C 
ATOM     11  O   UNL     1      27.964  -0.463  41.268  1.00  0.00    -0.341 OA
ATOM     12  C   UNL     1      30.475   0.660  40.342  1.00  0.00     0.179 C 
ATOM     13  C   UNL     1      29.145   0.825  39.591  1.00  0.00     0.202 C 
BRANCH   9  14
ATOM     14  C   UNL     1      29.047   0.284  43.350  1.00  0.00     0.191 C 
BRANCH  14  15
ATOM     15  O   UNL     1      29.871  -0.230  44.364  1.00  0.00    -0.394 OA
ATOM     16  H   UNL     1      30.455  -0.912  43.944  1.00  0.00     0.210 HD
ENDBRANCH  14  15
ENDBRANCH   9  14
BRANCH  10  17
ATOM     17  O   UNL     1      30.657  -1.744  40.598  1.00  0.00    -0.387 OA
ATOM     18  H   UNL     1      31.458  -2.189  40.986  1.00  0.00     0.211 HD
ENDBRANCH  10  17
BRANCH  12  19
ATOM     19  O   UNL     1      30.768   1.833  41.056  1.00  0.00    -0.387 OA
ATOM     20  H   UNL     1      31.526   2.275  40.584  1.00  0.00     0.211 HD
ENDBRANCH  12  19
BRANCH  13  21
ATOM     21  O   UNL     1      29.153   2.048  38.897  1.00  0.00    -0.385 OA
ATOM     22  H   UNL     1      30.082   2.201  38.584  1.00  0.00     0.211 HD
ENDBRANCH  13  21
ENDBRANCH   7   8
ENDBRANCH   1   7
BRANCH   2  23
ATOM     23  C   UNL     1      25.152   0.888  43.021  1.00  0.00     0.191 C 
BRANCH  23  24
ATOM     24  O   UNL     1      26.288   0.222  43.515  1.00  0.00    -0.394 OA
ATOM     25  H   UNL     1      27.086   0.734  43.217  1.00  0.00     0.210 HD
ENDBRANCH  23  24
ENDBRANCH   2  23
BRANCH   6  26
ATOM     26  O   UNL     1      25.487   3.425  39.050  1.00  0.00    -0.387 OA
ATOM     27  H   UNL     1      26.039   3.047  38.320  1.00  0.00     0.211 HD
ENDBRANCH   6  26
BRANCH   5  28
ATOM     28  O   UNL     1      22.777   3.599  39.653  1.00  0.00    -0.385 OA
ATOM     29  H   UNL     1      22.117   4.055  40.242  1.00  0.00     0.211 HD
ENDBRANCH   5  28
BRANCH   4  30
ATOM     30  O   UNL     1      21.589   1.590  40.655  1.00  0.00    -0.341 OA
BRANCH  30  31
ATOM     31  C   UNL     1      20.478   1.461  41.549  1.00  0.00     0.184 C 
ATOM     32  C   UNL     1      19.148   2.079  41.019  1.00  0.00     0.178 C 
ATOM     33  C   UNL     1      20.300   0.049  42.147  1.00  0.00     0.180 C 
ATOM     34  O   UNL     1      18.093   1.998  41.975  1.00  0.00    -0.342 OA
ATOM     35  C   UNL     1      19.125   0.058  43.144  1.00  0.00     0.201 C 
ATOM     36  C   UNL     1      17.868   0.691  42.504  1.00  0.00     0.279 C 
BRANCH  32  37
ATOM     37  C   UNL     1      19.356   3.565  40.693  1.00  0.00     0.191 C 
BRANCH  37  38
ATOM     38  O   UNL     1      18.535   3.952  39.625  1.00  0.00    -0.394 OA
ATOM     39  H   UNL     1      19.134   4.080  38.842  1.00  0.00     0.210 HD
ENDBRANCH  37  38
ENDBRANCH  32  37
BRANCH  33  40
ATOM     40  O   UNL     1      21.485  -0.339  42.792  1.00  0.00    -0.387 OA
ATOM     41  H   UNL     1      21.724   0.391  43.423  1.00  0.00     0.211 HD
ENDBRANCH  33  40
BRANCH  35  42
ATOM     42  O   UNL     1      19.470   0.712  44.343  1.00  0.00    -0.385 OA
ATOM     43  H   UNL     1      19.762   1.636  44.129  1.00  0.00     0.211 HD
ENDBRANCH  35  42
BRANCH  36  44
ATOM     44  O   UNL     1      17.254  -0.182  41.588  1.00  0.00    -0.366 OA
ATOM     45  H   UNL     1      16.728   0.333  40.921  1.00  0.00     0.213 HD
ENDBRANCH  36  44
ENDBRANCH  30  31
ENDBRANCH   4  30
TORSDOF 18
ENDMDL
