MODEL 1
REMARK VINA RESULT:    -8.697      0.000      0.000
REMARK INTER + INTRA:         -14.162
REMARK INTER:                 -12.764
REMARK INTRA:                  -1.398
REMARK UNBOUND:                -1.398
REMARK SMILES Cc1cc2c(C(C)C)c(O)c(O)c(C=O)c2c(O)c1-c1c(C)cc2c(C(C)C)c(O)c(O)c(C=O)c2c1O
REMARK SMILES IDX 1 1 2 2 3 3 4 4 16 5 13 6 11 7 9 8 5 9 17 10 19 11 20 12
REMARK SMILES IDX 37 13 21 14 36 15 23 16 22 17 24 18 33 19 25 20 31 21 29 22
REMARK SMILES IDX 38 23 34 25 35 26 26 27 27 28 28 29 32 30 30 32 18 34 6 36
REMARK SMILES IDX 7 37 8 38 14 39 15 40 10 41 12 43
REMARK H PARENT 38 24 32 31 30 33 18 35 10 42 12 44
REMARK Flexibility Score: inf
ROOT
ATOM      1  C   UNL     1      24.490  12.781  17.958  1.00  0.00     0.045 C 
ATOM      2  C   UNL     1      24.204  14.130  18.573  1.00  0.00    -0.039 A 
ATOM      3  C   UNL     1      25.133  14.691  19.449  1.00  0.00     0.013 A 
ATOM      4  C   UNL     1      24.937  15.964  20.033  1.00  0.00    -0.006 A 
ATOM      5  C   UNL     1      23.713  16.654  19.778  1.00  0.00     0.039 A 
ATOM      6  C   UNL     1      23.492  17.917  20.403  1.00  0.00     0.072 A 
ATOM      7  C   UNL     1      24.384  18.374  21.394  1.00  0.00     0.169 A 
ATOM      8  C   UNL     1      25.564  17.672  21.660  1.00  0.00     0.162 A 
ATOM      9  C   UNL     1      25.921  16.542  20.894  1.00  0.00     0.008 A 
ATOM     10  C   UNL     1      22.728  16.035  18.950  1.00  0.00     0.132 A 
ATOM     11  C   UNL     1      22.990  14.794  18.332  1.00  0.00     0.031 A 
ENDROOT
BRANCH  11  12
ATOM     12  C   UNL     1      21.968  14.164  17.455  1.00  0.00     0.031 A 
ATOM     13  C   UNL     1      21.004  13.290  18.005  1.00  0.00     0.132 A 
ATOM     14  C   UNL     1      21.986  14.413  16.074  1.00  0.00    -0.039 A 
ATOM     15  C   UNL     1      20.006  12.695  17.172  1.00  0.00     0.039 A 
ATOM     16  C   UNL     1      21.023  13.823  15.256  1.00  0.00     0.013 A 
ATOM     17  C   UNL     1      23.065  15.267  15.451  1.00  0.00     0.045 C 
ATOM     18  C   UNL     1      19.991  13.013  15.779  1.00  0.00    -0.006 A 
ATOM     19  C   UNL     1      19.047  11.763  17.675  1.00  0.00     0.072 A 
ATOM     20  C   UNL     1      18.972  12.483  14.930  1.00  0.00     0.008 A 
ATOM     21  C   UNL     1      18.152  11.128  16.791  1.00  0.00     0.169 A 
ATOM     22  C   UNL     1      18.142  11.459  15.432  1.00  0.00     0.162 A 
BRANCH  13  23
ATOM     23  O   UNL     1      21.051  13.003  19.374  1.00  0.00    -0.507 OA
ATOM     24  H   UNL     1      20.523  12.260  19.815  1.00  0.00     0.293 HD
ENDBRANCH  13  23
BRANCH  19  25
ATOM     25  C   UNL     1      18.966  11.422  19.109  1.00  0.00     0.264 C 
ATOM     26  O   UNL     1      18.010  11.844  19.813  1.00  0.00    -0.298 OA
ENDBRANCH  19  25
BRANCH  20  27
ATOM     27  C   UNL     1      18.772  12.989  13.490  1.00  0.00     0.017 C 
ATOM     28  C   UNL     1      19.153  11.908  12.472  1.00  0.00     0.012 C 
ATOM     29  C   UNL     1      17.361  13.543  13.215  1.00  0.00     0.012 C 
ENDBRANCH  20  27
BRANCH  21  30
ATOM     30  O   UNL     1      17.227  10.177  17.239  1.00  0.00    -0.504 OA
ATOM     31  H   UNL     1      17.315   9.665  18.107  1.00  0.00     0.293 HD
ENDBRANCH  21  30
BRANCH  22  32
ATOM     32  O   UNL     1      17.293  10.764  14.567  1.00  0.00    -0.504 OA
ATOM     33  H   UNL     1      17.448   9.801  14.296  1.00  0.00     0.293 HD
ENDBRANCH  22  32
ENDBRANCH  11  12
BRANCH  10  34
ATOM     34  O   UNL     1      21.474  16.633  18.776  1.00  0.00    -0.507 OA
ATOM     35  H   UNL     1      20.667  16.154  18.398  1.00  0.00     0.293 HD
ENDBRANCH  10  34
BRANCH   9  36
ATOM     36  C   UNL     1      27.334  15.945  21.031  1.00  0.00     0.017 C 
ATOM     37  C   UNL     1      27.498  15.235  22.378  1.00  0.00     0.012 C 
ATOM     38  C   UNL     1      28.466  16.962  20.793  1.00  0.00     0.012 C 
ENDBRANCH   9  36
BRANCH   6  39
ATOM     39  C   UNL     1      22.373  18.804  20.023  1.00  0.00     0.264 C 
ATOM     40  O   UNL     1      21.404  18.977  20.808  1.00  0.00    -0.298 OA
ENDBRANCH   6  39
BRANCH   8  41
ATOM     41  O   UNL     1      26.398  18.106  22.693  1.00  0.00    -0.504 OA
ATOM     42  H   UNL     1      26.700  19.068  22.792  1.00  0.00     0.293 HD
ENDBRANCH   8  41
BRANCH   7  43
ATOM     43  O   UNL     1      24.141  19.548  22.114  1.00  0.00    -0.504 OA
ATOM     44  H   UNL     1      24.270  19.638  23.113  1.00  0.00     0.293 HD
ENDBRANCH   7  43
TORSDOF 11
ENDMDL
MODEL 2
REMARK VINA RESULT:    -8.660      6.376     11.431
REMARK INTER + INTRA:         -14.109
REMARK INTER:                 -12.738
REMARK INTRA:                  -1.371
REMARK UNBOUND:                -1.398
REMARK SMILES Cc1cc2c(C(C)C)c(O)c(O)c(C=O)c2c(O)c1-c1c(C)cc2c(C(C)C)c(O)c(O)c(C=O)c2c1O
REMARK SMILES IDX 1 1 2 2 3 3 4 4 16 5 13 6 11 7 9 8 5 9 17 10 19 11 20 12
REMARK SMILES IDX 37 13 21 14 36 15 23 16 22 17 24 18 33 19 25 20 31 21 29 22
REMARK SMILES IDX 38 23 34 25 35 26 26 27 27 28 28 29 32 30 30 32 18 34 6 36
REMARK SMILES IDX 7 37 8 38 14 39 15 40 10 41 12 43
REMARK H PARENT 38 24 32 31 30 33 18 35 10 42 12 44
REMARK Flexibility Score: inf
ROOT
ATOM      1  C   UNL     1      24.012  24.735  22.793  1.00  0.00     0.045 C 
ATOM      2  C   UNL     1      23.869  23.389  22.124  1.00  0.00    -0.039 A 
ATOM      3  C   UNL     1      24.981  22.809  21.513  1.00  0.00     0.013 A 
ATOM      4  C   UNL     1      24.919  21.538  20.898  1.00  0.00    -0.006 A 
ATOM      5  C   UNL     1      23.659  20.868  20.833  1.00  0.00     0.039 A 
ATOM      6  C   UNL     1      23.584  19.607  20.171  1.00  0.00     0.072 A 
ATOM      7  C   UNL     1      24.691  19.133  19.440  1.00  0.00     0.169 A 
ATOM      8  C   UNL     1      25.912  19.815  19.483  1.00  0.00     0.162 A 
ATOM      9  C   UNL     1      26.080  20.941  20.316  1.00  0.00     0.008 A 
ATOM     10  C   UNL     1      22.506  21.506  21.383  1.00  0.00     0.132 A 
ATOM     11  C   UNL     1      22.623  22.746  22.048  1.00  0.00     0.031 A 
ENDROOT
BRANCH  11  12
ATOM     12  C   UNL     1      21.421  23.395  22.636  1.00  0.00     0.031 A 
ATOM     13  C   UNL     1      20.644  24.281  21.860  1.00  0.00     0.132 A 
ATOM     14  C   UNL     1      21.084  23.152  23.976  1.00  0.00    -0.039 A 
ATOM     15  C   UNL     1      19.476  24.896  22.411  1.00  0.00     0.039 A 
ATOM     16  C   UNL     1      19.954  23.760  24.523  1.00  0.00     0.013 A 
ATOM     17  C   UNL     1      21.955  22.283  24.853  1.00  0.00     0.045 C 
ATOM     18  C   UNL     1      19.103  24.583  23.755  1.00  0.00    -0.006 A 
ATOM     19  C   UNL     1      18.692  25.840  21.681  1.00  0.00     0.072 A 
ATOM     20  C   UNL     1      17.910  25.133  24.316  1.00  0.00     0.008 A 
ATOM     21  C   UNL     1      17.612  26.492  22.308  1.00  0.00     0.169 A 
ATOM     22  C   UNL     1      17.251  26.168  23.620  1.00  0.00     0.162 A 
BRANCH  13  23
ATOM     23  O   UNL     1      21.041  24.562  20.547  1.00  0.00    -0.507 OA
ATOM     24  H   UNL     1      20.557  24.225  19.724  1.00  0.00     0.293 HD
ENDBRANCH  13  23
BRANCH  19  25
ATOM     25  C   UNL     1      18.983  26.176  20.273  1.00  0.00     0.264 C 
ATOM     26  O   UNL     1      18.236  25.759  19.348  1.00  0.00    -0.298 OA
ENDBRANCH  19  25
BRANCH  20  27
ATOM     27  C   UNL     1      17.342  24.637  25.659  1.00  0.00     0.017 C 
ATOM     28  C   UNL     1      17.321  25.766  26.695  1.00  0.00     0.012 C 
ATOM     29  C   UNL     1      15.963  23.961  25.539  1.00  0.00     0.012 C 
ENDBRANCH  20  27
BRANCH  21  30
ATOM     30  O   UNL     1      16.847  27.456  21.639  1.00  0.00    -0.504 OA
ATOM     31  H   UNL     1      16.331  27.281  20.788  1.00  0.00     0.293 HD
ENDBRANCH  21  30
BRANCH  22  32
ATOM     32  O   UNL     1      16.222  26.880  24.241  1.00  0.00    -0.504 OA
ATOM     33  H   UNL     1      15.986  26.771  25.219  1.00  0.00     0.293 HD
ENDBRANCH  22  32
ENDBRANCH  11  12
BRANCH  10  34
ATOM     34  O   UNL     1      21.239  20.930  21.232  1.00  0.00    -0.507 OA
ATOM     35  H   UNL     1      20.969  20.043  21.639  1.00  0.00     0.293 HD
ENDBRANCH  10  34
BRANCH   9  36
ATOM     36  C   UNL     1      27.491  21.515  20.543  1.00  0.00     0.017 C 
ATOM     37  C   UNL     1      28.027  22.169  19.266  1.00  0.00     0.012 C 
ATOM     38  C   UNL     1      28.494  20.494  21.112  1.00  0.00     0.012 C 
ENDBRANCH   9  36
BRANCH   6  39
ATOM     39  C   UNL     1      22.391  18.739  20.253  1.00  0.00     0.264 C 
ATOM     40  O   UNL     1      21.653  18.577  19.246  1.00  0.00    -0.298 OA
ENDBRANCH   6  39
BRANCH   8  41
ATOM     41  O   UNL     1      26.973  19.363  18.696  1.00  0.00    -0.504 OA
ATOM     42  H   UNL     1      26.853  19.019  17.750  1.00  0.00     0.293 HD
ENDBRANCH   8  41
BRANCH   7  43
ATOM     43  O   UNL     1      24.620  17.959  18.680  1.00  0.00    -0.504 OA
ATOM     44  H   UNL     1      23.755  17.529  18.381  1.00  0.00     0.293 HD
ENDBRANCH   7  43
TORSDOF 11
ENDMDL
MODEL 3
REMARK VINA RESULT:    -8.532      7.373     10.918
REMARK INTER + INTRA:         -13.920
REMARK INTER:                 -12.855
REMARK INTRA:                  -1.065
REMARK UNBOUND:                -1.398
REMARK SMILES Cc1cc2c(C(C)C)c(O)c(O)c(C=O)c2c(O)c1-c1c(C)cc2c(C(C)C)c(O)c(O)c(C=O)c2c1O
REMARK SMILES IDX 1 1 2 2 3 3 4 4 16 5 13 6 11 7 9 8 5 9 17 10 19 11 20 12
REMARK SMILES IDX 37 13 21 14 36 15 23 16 22 17 24 18 33 19 25 20 31 21 29 22
REMARK SMILES IDX 38 23 34 25 35 26 26 27 27 28 28 29 32 30 30 32 18 34 6 36
REMARK SMILES IDX 7 37 8 38 14 39 15 40 10 41 12 43
REMARK H PARENT 38 24 32 31 30 33 18 35 10 42 12 44
REMARK Flexibility Score: inf
ROOT
ATOM      1  C   UNL     1      24.665  21.688  17.837  1.00  0.00     0.045 C 
ATOM      2  C   UNL     1      24.221  22.726  18.839  1.00  0.00    -0.039 A 
ATOM      3  C   UNL     1      23.320  23.715  18.444  1.00  0.00     0.013 A 
ATOM      4  C   UNL     1      22.843  24.695  19.342  1.00  0.00    -0.006 A 
ATOM      5  C   UNL     1      23.363  24.718  20.672  1.00  0.00     0.039 A 
ATOM      6  C   UNL     1      22.919  25.736  21.568  1.00  0.00     0.072 A 
ATOM      7  C   UNL     1      22.130  26.798  21.085  1.00  0.00     0.169 A 
ATOM      8  C   UNL     1      21.653  26.784  19.770  1.00  0.00     0.162 A 
ATOM      9  C   UNL     1      21.886  25.674  18.930  1.00  0.00     0.008 A 
ATOM     10  C   UNL     1      24.352  23.757  21.046  1.00  0.00     0.132 A 
ATOM     11  C   UNL     1      24.752  22.753  20.139  1.00  0.00     0.031 A 
ENDROOT
BRANCH  11  12
ATOM     12  C   UNL     1      25.767  21.743  20.541  1.00  0.00     0.031 A 
ATOM     13  C   UNL     1      25.367  20.559  21.198  1.00  0.00     0.132 A 
ATOM     14  C   UNL     1      27.127  21.988  20.296  1.00  0.00    -0.039 A 
ATOM     15  C   UNL     1      26.335  19.574  21.571  1.00  0.00     0.039 A 
ATOM     16  C   UNL     1      28.076  21.037  20.671  1.00  0.00     0.013 A 
ATOM     17  C   UNL     1      27.586  23.289  19.682  1.00  0.00     0.045 C 
ATOM     18  C   UNL     1      27.709  19.803  21.251  1.00  0.00    -0.006 A 
ATOM     19  C   UNL     1      25.983  18.389  22.285  1.00  0.00     0.072 A 
ATOM     20  C   UNL     1      28.693  18.813  21.556  1.00  0.00     0.008 A 
ATOM     21  C   UNL     1      26.989  17.503  22.718  1.00  0.00     0.169 A 
ATOM     22  C   UNL     1      28.328  17.734  22.388  1.00  0.00     0.162 A 
BRANCH  13  23
ATOM     23  O   UNL     1      24.011  20.371  21.493  1.00  0.00    -0.507 OA
ATOM     24  H   UNL     1      23.340  21.124  21.574  1.00  0.00     0.293 HD
ENDBRANCH  13  23
BRANCH  19  25
ATOM     25  C   UNL     1      24.580  18.057  22.607  1.00  0.00     0.264 C 
ATOM     26  O   UNL     1      23.950  17.209  21.920  1.00  0.00    -0.298 OA
ENDBRANCH  19  25
BRANCH  20  27
ATOM     27  C   UNL     1      30.131  18.907  21.016  1.00  0.00     0.017 C 
ATOM     28  C   UNL     1      30.139  19.382  19.559  1.00  0.00     0.012 C 
ATOM     29  C   UNL     1      31.070  19.762  21.888  1.00  0.00     0.012 C 
ENDBRANCH  20  27
BRANCH  21  30
ATOM     30  O   UNL     1      26.687  16.354  23.459  1.00  0.00    -0.504 OA
ATOM     31  H   UNL     1      27.252  16.005  24.221  1.00  0.00     0.293 HD
ENDBRANCH  21  30
BRANCH  22  32
ATOM     32  O   UNL     1      29.312  16.878  22.890  1.00  0.00    -0.504 OA
ATOM     33  H   UNL     1      29.455  16.720  23.879  1.00  0.00     0.293 HD
ENDBRANCH  22  32
ENDBRANCH  11  12
BRANCH  10  34
ATOM     34  O   UNL     1      24.965  23.826  22.303  1.00  0.00    -0.507 OA
ATOM     35  H   UNL     1      25.789  24.378  22.500  1.00  0.00     0.293 HD
ENDBRANCH  10  34
BRANCH   9  36
ATOM     36  C   UNL     1      21.139  25.567  17.587  1.00  0.00     0.017 C 
ATOM     37  C   UNL     1      21.702  26.562  16.569  1.00  0.00     0.012 C 
ATOM     38  C   UNL     1      19.610  25.699  17.713  1.00  0.00     0.012 C 
ENDBRANCH   9  36
BRANCH   6  39
ATOM     39  C   UNL     1      23.220  25.704  23.015  1.00  0.00     0.264 C 
ATOM     40  O   UNL     1      22.593  24.921  23.777  1.00  0.00    -0.298 OA
ENDBRANCH   6  39
BRANCH   8  41
ATOM     41  O   UNL     1      20.931  27.880  19.295  1.00  0.00    -0.504 OA
ATOM     42  H   UNL     1      21.082  28.286  18.379  1.00  0.00     0.293 HD
ENDBRANCH   8  41
BRANCH   7  43
ATOM     43  O   UNL     1      21.773  27.876  21.903  1.00  0.00    -0.504 OA
ATOM     44  H   UNL     1      22.009  28.840  21.706  1.00  0.00     0.293 HD
ENDBRANCH   7  43
TORSDOF 11
ENDMDL
MODEL 4
REMARK VINA RESULT:    -8.475      0.939      9.220
REMARK INTER + INTRA:         -13.837
REMARK INTER:                 -12.421
REMARK INTRA:                  -1.416
REMARK UNBOUND:                -1.398
REMARK SMILES Cc1cc2c(C(C)C)c(O)c(O)c(C=O)c2c(O)c1-c1c(C)cc2c(C(C)C)c(O)c(O)c(C=O)c2c1O
REMARK SMILES IDX 1 1 2 2 3 3 4 4 16 5 13 6 11 7 9 8 5 9 17 10 19 11 20 12
REMARK SMILES IDX 37 13 21 14 36 15 23 16 22 17 24 18 33 19 25 20 31 21 29 22
REMARK SMILES IDX 38 23 34 25 35 26 26 27 27 28 28 29 32 30 30 32 18 34 6 36
REMARK SMILES IDX 7 37 8 38 14 39 15 40 10 41 12 43
REMARK H PARENT 38 24 32 31 30 33 18 35 10 42 12 44
REMARK Flexibility Score: inf
ROOT
ATOM      1  C   UNL     1      22.884  16.013  16.321  1.00  0.00     0.045 C 
ATOM      2  C   UNL     1      22.136  14.796  16.810  1.00  0.00    -0.039 A 
ATOM      3  C   UNL     1      21.157  14.225  15.998  1.00  0.00     0.013 A 
ATOM      4  C   UNL     1      20.445  13.067  16.385  1.00  0.00    -0.006 A 
ATOM      5  C   UNL     1      20.682  12.518  17.682  1.00  0.00     0.039 A 
ATOM      6  C   UNL     1      19.931  11.377  18.095  1.00  0.00     0.072 A 
ATOM      7  C   UNL     1      18.852  10.928  17.308  1.00  0.00     0.169 A 
ATOM      8  C   UNL     1      18.606  11.496  16.054  1.00  0.00     0.162 A 
ATOM      9  C   UNL     1      19.476  12.471  15.520  1.00  0.00     0.008 A 
ATOM     10  C   UNL     1      21.623  13.159  18.544  1.00  0.00     0.132 A 
ATOM     11  C   UNL     1      22.362  14.273  18.093  1.00  0.00     0.031 A 
ENDROOT
BRANCH  11  12
ATOM     12  C   UNL     1      23.355  14.924  18.989  1.00  0.00     0.031 A 
ATOM     13  C   UNL     1      22.987  16.052  19.754  1.00  0.00     0.132 A 
ATOM     14  C   UNL     1      24.669  14.434  19.045  1.00  0.00    -0.039 A 
ATOM     15  C   UNL     1      23.930  16.673  20.632  1.00  0.00     0.039 A 
ATOM     16  C   UNL     1      25.596  15.045  19.890  1.00  0.00     0.013 A 
ATOM     17  C   UNL     1      25.111  13.288  18.165  1.00  0.00     0.045 C 
ATOM     18  C   UNL     1      25.244  16.120  20.734  1.00  0.00    -0.006 A 
ATOM     19  C   UNL     1      23.618  17.848  21.381  1.00  0.00     0.072 A 
ATOM     20  C   UNL     1      26.190  16.679  21.646  1.00  0.00     0.008 A 
ATOM     21  C   UNL     1      24.616  18.477  22.151  1.00  0.00     0.169 A 
ATOM     22  C   UNL     1      25.894  17.918  22.251  1.00  0.00     0.162 A 
BRANCH  13  23
ATOM     23  O   UNL     1      21.690  16.565  19.627  1.00  0.00    -0.507 OA
ATOM     24  H   UNL     1      21.009  16.224  18.959  1.00  0.00     0.293 HD
ENDBRANCH  13  23
BRANCH  19  25
ATOM     25  C   UNL     1      22.269  18.449  21.368  1.00  0.00     0.264 C 
ATOM     26  O   UNL     1      22.040  19.494  20.703  1.00  0.00    -0.298 OA
ENDBRANCH  19  25
BRANCH  20  27
ATOM     27  C   UNL     1      27.521  15.974  21.967  1.00  0.00     0.017 C 
ATOM     28  C   UNL     1      28.708  16.759  21.400  1.00  0.00     0.012 C 
ATOM     29  C   UNL     1      27.717  15.667  23.464  1.00  0.00     0.012 C 
ENDBRANCH  20  27
BRANCH  21  30
ATOM     30  O   UNL     1      24.360  19.655  22.864  1.00  0.00    -0.504 OA
ATOM     31  H   UNL     1      24.610  20.580  22.541  1.00  0.00     0.293 HD
ENDBRANCH  21  30
BRANCH  22  32
ATOM     32  O   UNL     1      26.884  18.600  22.963  1.00  0.00    -0.504 OA
ATOM     33  H   UNL     1      27.258  18.269  23.844  1.00  0.00     0.293 HD
ENDBRANCH  22  32
ENDBRANCH  11  12
BRANCH  10  34
ATOM     34  O   UNL     1      21.792  12.714  19.861  1.00  0.00    -0.507 OA
ATOM     35  H   UNL     1      22.464  12.010  20.138  1.00  0.00     0.293 HD
ENDBRANCH  10  34
BRANCH   9  36
ATOM     36  C   UNL     1      19.335  12.889  14.044  1.00  0.00     0.017 C 
ATOM     37  C   UNL     1      18.009  13.617  13.807  1.00  0.00     0.012 C 
ATOM     38  C   UNL     1      19.523  11.730  13.048  1.00  0.00     0.012 C 
ENDBRANCH   9  36
BRANCH   6  39
ATOM     39  C   UNL     1      20.265  10.606  19.310  1.00  0.00     0.264 C 
ATOM     40  O   UNL     1      19.551  10.706  20.342  1.00  0.00    -0.298 OA
ENDBRANCH   6  39
BRANCH   8  41
ATOM     41  O   UNL     1      17.490  11.081  15.324  1.00  0.00    -0.504 OA
ATOM     42  H   UNL     1      17.208  11.513  14.452  1.00  0.00     0.293 HD
ENDBRANCH   8  41
BRANCH   7  43
ATOM     43  O   UNL     1      18.017   9.889  17.735  1.00  0.00    -0.504 OA
ATOM     44  H   UNL     1      17.566   9.858  18.639  1.00  0.00     0.293 HD
ENDBRANCH   7  43
TORSDOF 11
ENDMDL
MODEL 5
REMARK VINA RESULT:    -8.430      1.647      9.193
REMARK INTER + INTRA:         -13.771
REMARK INTER:                 -12.503
REMARK INTRA:                  -1.268
REMARK UNBOUND:                -1.398
REMARK SMILES Cc1cc2c(C(C)C)c(O)c(O)c(C=O)c2c(O)c1-c1c(C)cc2c(C(C)C)c(O)c(O)c(C=O)c2c1O
REMARK SMILES IDX 1 1 2 2 3 3 4 4 16 5 13 6 11 7 9 8 5 9 17 10 19 11 20 12
REMARK SMILES IDX 37 13 21 14 36 15 23 16 22 17 24 18 33 19 25 20 31 21 29 22
REMARK SMILES IDX 38 23 34 25 35 26 26 27 27 28 28 29 32 30 30 32 18 34 6 36
REMARK SMILES IDX 7 37 8 38 14 39 15 40 10 41 12 43
REMARK H PARENT 38 24 32 31 30 33 18 35 10 42 12 44
REMARK Flexibility Score: inf
ROOT
ATOM      1  C   UNL     1      21.374  17.064  15.875  1.00  0.00     0.045 C 
ATOM      2  C   UNL     1      20.954  15.714  16.405  1.00  0.00    -0.039 A 
ATOM      3  C   UNL     1      20.213  14.860  15.587  1.00  0.00     0.013 A 
ATOM      4  C   UNL     1      19.817  13.573  16.014  1.00  0.00    -0.006 A 
ATOM      5  C   UNL     1      20.115  13.171  17.351  1.00  0.00     0.039 A 
ATOM      6  C   UNL     1      19.675  11.891  17.800  1.00  0.00     0.072 A 
ATOM      7  C   UNL     1      18.804  11.129  16.997  1.00  0.00     0.169 A 
ATOM      8  C   UNL     1      18.490  11.547  15.699  1.00  0.00     0.162 A 
ATOM      9  C   UNL     1      19.096  12.695  15.145  1.00  0.00     0.008 A 
ATOM     10  C   UNL     1      20.797  14.084  18.213  1.00  0.00     0.132 A 
ATOM     11  C   UNL     1      21.235  15.334  17.727  1.00  0.00     0.031 A 
ENDROOT
BRANCH  11  12
ATOM     12  C   UNL     1      21.961  16.272  18.624  1.00  0.00     0.031 A 
ATOM     13  C   UNL     1      21.257  17.284  19.311  1.00  0.00     0.132 A 
ATOM     14  C   UNL     1      23.355  16.169  18.758  1.00  0.00    -0.039 A 
ATOM     15  C   UNL     1      21.945  18.178  20.190  1.00  0.00     0.039 A 
ATOM     16  C   UNL     1      24.032  17.048  19.603  1.00  0.00     0.013 A 
ATOM     17  C   UNL     1      24.141  15.156  17.959  1.00  0.00     0.045 C 
ATOM     18  C   UNL     1      23.353  18.017  20.373  1.00  0.00    -0.006 A 
ATOM     19  C   UNL     1      21.282  19.251  20.862  1.00  0.00     0.072 A 
ATOM     20  C   UNL     1      24.060  18.855  21.289  1.00  0.00     0.008 A 
ATOM     21  C   UNL     1      22.027  20.164  21.635  1.00  0.00     0.169 A 
ATOM     22  C   UNL     1      23.402  19.987  21.814  1.00  0.00     0.162 A 
BRANCH  13  23
ATOM     23  O   UNL     1      19.877  17.410  19.107  1.00  0.00    -0.507 OA
ATOM     24  H   UNL     1      19.193  16.741  19.437  1.00  0.00     0.293 HD
ENDBRANCH  13  23
BRANCH  19  25
ATOM     25  C   UNL     1      19.822  19.451  20.764  1.00  0.00     0.264 C 
ATOM     26  O   UNL     1      19.148  19.748  21.786  1.00  0.00    -0.298 OA
ENDBRANCH  19  25
BRANCH  20  27
ATOM     27  C   UNL     1      25.515  18.561  21.699  1.00  0.00     0.017 C 
ATOM     28  C   UNL     1      26.452  19.679  21.231  1.00  0.00     0.012 C 
ATOM     29  C   UNL     1      25.692  18.275  23.203  1.00  0.00     0.012 C 
ENDBRANCH  20  27
BRANCH  21  30
ATOM     30  O   UNL     1      21.419  21.253  22.272  1.00  0.00    -0.504 OA
ATOM     31  H   UNL     1      20.422  21.347  22.408  1.00  0.00     0.293 HD
ENDBRANCH  21  30
BRANCH  22  32
ATOM     32  O   UNL     1      24.127  20.946  22.526  1.00  0.00    -0.504 OA
ATOM     33  H   UNL     1      24.997  20.740  23.001  1.00  0.00     0.293 HD
ENDBRANCH  22  32
ENDBRANCH  11  12
BRANCH  10  34
ATOM     34  O   UNL     1      21.000  13.765  19.561  1.00  0.00    -0.507 OA
ATOM     35  H   UNL     1      20.283  13.390  20.168  1.00  0.00     0.293 HD
ENDBRANCH  10  34
BRANCH   9  36
ATOM     36  C   UNL     1      18.936  12.989  13.642  1.00  0.00     0.017 C 
ATOM     37  C   UNL     1      17.528  13.503  13.333  1.00  0.00     0.012 C 
ATOM     38  C   UNL     1      19.311  11.804  12.732  1.00  0.00     0.012 C 
ENDBRANCH   9  36
BRANCH   6  39
ATOM     39  C   UNL     1      20.131  11.298  19.075  1.00  0.00     0.264 C 
ATOM     40  O   UNL     1      19.345  11.216  20.055  1.00  0.00    -0.298 OA
ENDBRANCH   6  39
BRANCH   8  41
ATOM     41  O   UNL     1      17.572  10.811  14.948  1.00  0.00    -0.504 OA
ATOM     42  H   UNL     1      16.753  10.372  15.352  1.00  0.00     0.293 HD
ENDBRANCH   8  41
BRANCH   7  43
ATOM     43  O   UNL     1      18.255   9.923  17.449  1.00  0.00    -0.504 OA
ATOM     44  H   UNL     1      18.802   9.140  17.781  1.00  0.00     0.293 HD
ENDBRANCH   7  43
TORSDOF 11
ENDMDL
MODEL 6
REMARK VINA RESULT:    -8.406      1.523      2.884
REMARK INTER + INTRA:         -13.736
REMARK INTER:                 -12.511
REMARK INTRA:                  -1.225
REMARK UNBOUND:                -1.398
REMARK SMILES Cc1cc2c(C(C)C)c(O)c(O)c(C=O)c2c(O)c1-c1c(C)cc2c(C(C)C)c(O)c(O)c(C=O)c2c1O
REMARK SMILES IDX 1 1 2 2 3 3 4 4 16 5 13 6 11 7 9 8 5 9 17 10 19 11 20 12
REMARK SMILES IDX 37 13 21 14 36 15 23 16 22 17 24 18 33 19 25 20 31 21 29 22
REMARK SMILES IDX 38 23 34 25 35 26 26 27 27 28 28 29 32 30 30 32 18 34 6 36
REMARK SMILES IDX 7 37 8 38 14 39 15 40 10 41 12 43
REMARK H PARENT 38 24 32 31 30 33 18 35 10 42 12 44
REMARK Flexibility Score: inf
ROOT
ATOM      1  C   UNL     1      21.031  17.389  17.904  1.00  0.00     0.045 C 
ATOM      2  C   UNL     1      22.241  16.698  18.486  1.00  0.00    -0.039 A 
ATOM      3  C   UNL     1      23.135  17.430  19.267  1.00  0.00     0.013 A 
ATOM      4  C   UNL     1      24.268  16.834  19.866  1.00  0.00    -0.006 A 
ATOM      5  C   UNL     1      24.545  15.460  19.593  1.00  0.00     0.039 A 
ATOM      6  C   UNL     1      25.714  14.868  20.156  1.00  0.00     0.072 A 
ATOM      7  C   UNL     1      26.663  15.678  20.810  1.00  0.00     0.169 A 
ATOM      8  C   UNL     1      26.398  17.032  21.043  1.00  0.00     0.162 A 
ATOM      9  C   UNL     1      25.149  17.591  20.699  1.00  0.00     0.008 A 
ATOM     10  C   UNL     1      23.674  14.738  18.721  1.00  0.00     0.132 A 
ATOM     11  C   UNL     1      22.516  15.352  18.198  1.00  0.00     0.031 A 
ENDROOT
BRANCH  11  12
ATOM     12  C   UNL     1      21.603  14.588  17.306  1.00  0.00     0.031 A 
ATOM     13  C   UNL     1      20.632  13.724  17.858  1.00  0.00     0.132 A 
ATOM     14  C   UNL     1      21.733  14.703  15.913  1.00  0.00    -0.039 A 
ATOM     15  C   UNL     1      19.738  13.001  17.008  1.00  0.00     0.039 A 
ATOM     16  C   UNL     1      20.873  13.988  15.080  1.00  0.00     0.013 A 
ATOM     17  C   UNL     1      22.826  15.547  15.300  1.00  0.00     0.045 C 
ATOM     18  C   UNL     1      19.834  13.182  15.593  1.00  0.00    -0.006 A 
ATOM     19  C   UNL     1      18.779  12.075  17.520  1.00  0.00     0.072 A 
ATOM     20  C   UNL     1      18.917  12.521  14.720  1.00  0.00     0.008 A 
ATOM     21  C   UNL     1      17.993  11.312  16.632  1.00  0.00     0.169 A 
ATOM     22  C   UNL     1      18.090  11.509  15.251  1.00  0.00     0.162 A 
BRANCH  13  23
ATOM     23  O   UNL     1      20.569  13.574  19.248  1.00  0.00    -0.507 OA
ATOM     24  H   UNL     1      19.989  14.142  19.854  1.00  0.00     0.293 HD
ENDBRANCH  13  23
BRANCH  19  25
ATOM     25  C   UNL     1      18.584  11.871  18.969  1.00  0.00     0.264 C 
ATOM     26  O   UNL     1      19.072  10.861  19.544  1.00  0.00    -0.298 OA
ENDBRANCH  19  25
BRANCH  20  27
ATOM     27  C   UNL     1      18.825  12.873  13.224  1.00  0.00     0.017 C 
ATOM     28  C   UNL     1      19.335  11.718  12.357  1.00  0.00     0.012 C 
ATOM     29  C   UNL     1      17.423  13.331  12.778  1.00  0.00     0.012 C 
ENDBRANCH  20  27
BRANCH  21  30
ATOM     30  O   UNL     1      17.074  10.363  17.095  1.00  0.00    -0.504 OA
ATOM     31  H   UNL     1      16.140  10.250  16.725  1.00  0.00     0.293 HD
ENDBRANCH  21  30
BRANCH  22  32
ATOM     32  O   UNL     1      17.351  10.691  14.392  1.00  0.00    -0.504 OA
ATOM     33  H   UNL     1      17.284  10.855  13.395  1.00  0.00     0.293 HD
ENDBRANCH  22  32
ENDBRANCH  11  12
BRANCH  10  34
ATOM     34  O   UNL     1      23.982  13.426  18.342  1.00  0.00    -0.507 OA
ATOM     35  H   UNL     1      23.292  12.695  18.223  1.00  0.00     0.293 HD
ENDBRANCH  10  34
BRANCH   9  36
ATOM     36  C   UNL     1      24.786  19.004  21.195  1.00  0.00     0.017 C 
ATOM     37  C   UNL     1      25.664  20.061  20.520  1.00  0.00     0.012 C 
ATOM     38  C   UNL     1      24.811  19.151  22.728  1.00  0.00     0.012 C 
ENDBRANCH   9  36
BRANCH   6  39
ATOM     39  C   UNL     1      25.959  13.411  20.123  1.00  0.00     0.264 C 
ATOM     40  O   UNL     1      25.372  12.649  20.936  1.00  0.00    -0.298 OA
ENDBRANCH   6  39
BRANCH   8  41
ATOM     41  O   UNL     1      27.383  17.829  21.630  1.00  0.00    -0.504 OA
ATOM     42  H   UNL     1      27.968  18.464  21.101  1.00  0.00     0.293 HD
ENDBRANCH   8  41
BRANCH   7  43
ATOM     43  O   UNL     1      27.877  15.157  21.272  1.00  0.00    -0.504 OA
ATOM     44  H   UNL     1      28.528  15.667  21.854  1.00  0.00     0.293 HD
ENDBRANCH   7  43
TORSDOF 11
ENDMDL
MODEL 7
REMARK VINA RESULT:    -8.354      4.111      9.663
REMARK INTER + INTRA:         -13.659
REMARK INTER:                 -12.529
REMARK INTRA:                  -1.130
REMARK UNBOUND:                -1.398
REMARK SMILES Cc1cc2c(C(C)C)c(O)c(O)c(C=O)c2c(O)c1-c1c(C)cc2c(C(C)C)c(O)c(O)c(C=O)c2c1O
REMARK SMILES IDX 1 1 2 2 3 3 4 4 16 5 13 6 11 7 9 8 5 9 17 10 19 11 20 12
REMARK SMILES IDX 37 13 21 14 36 15 23 16 22 17 24 18 33 19 25 20 31 21 29 22
REMARK SMILES IDX 38 23 34 25 35 26 26 27 27 28 28 29 32 30 30 32 18 34 6 36
REMARK SMILES IDX 7 37 8 38 14 39 15 40 10 41 12 43
REMARK H PARENT 38 24 32 31 30 33 18 35 10 42 12 44
REMARK Flexibility Score: inf
ROOT
ATOM      1  C   UNL     1      23.849  15.854  23.222  1.00  0.00     0.045 C 
ATOM      2  C   UNL     1      23.718  14.736  22.216  1.00  0.00    -0.039 A 
ATOM      3  C   UNL     1      22.738  13.761  22.403  1.00  0.00     0.013 A 
ATOM      4  C   UNL     1      22.544  12.708  21.481  1.00  0.00    -0.006 A 
ATOM      5  C   UNL     1      23.435  12.598  20.369  1.00  0.00     0.039 A 
ATOM      6  C   UNL     1      23.272  11.508  19.463  1.00  0.00     0.072 A 
ATOM      7  C   UNL     1      22.372  10.469  19.771  1.00  0.00     0.169 A 
ATOM      8  C   UNL     1      21.528  10.571  20.882  1.00  0.00     0.162 A 
ATOM      9  C   UNL     1      21.506  11.744  21.666  1.00  0.00     0.008 A 
ATOM     10  C   UNL     1      24.492  13.548  20.231  1.00  0.00     0.132 A 
ATOM     11  C   UNL     1      24.609  14.624  21.137  1.00  0.00     0.031 A 
ENDROOT
BRANCH  11  12
ATOM     12  C   UNL     1      25.701  15.621  20.976  1.00  0.00     0.031 A 
ATOM     13  C   UNL     1      25.504  16.763  20.170  1.00  0.00     0.132 A 
ATOM     14  C   UNL     1      26.939  15.404  21.600  1.00  0.00    -0.039 A 
ATOM     15  C   UNL     1      26.542  17.737  20.025  1.00  0.00     0.039 A 
ATOM     16  C   UNL     1      27.959  16.344  21.450  1.00  0.00     0.013 A 
ATOM     17  C   UNL     1      27.203  14.144  22.389  1.00  0.00     0.045 C 
ATOM     18  C   UNL     1      27.773  17.540  20.724  1.00  0.00    -0.006 A 
ATOM     19  C   UNL     1      26.407  18.877  19.176  1.00  0.00     0.072 A 
ATOM     20  C   UNL     1      28.807  18.522  20.649  1.00  0.00     0.008 A 
ATOM     21  C   UNL     1      27.498  19.749  18.990  1.00  0.00     0.169 A 
ATOM     22  C   UNL     1      28.693  19.551  19.690  1.00  0.00     0.162 A 
BRANCH  13  23
ATOM     23  O   UNL     1      24.284  16.921  19.501  1.00  0.00    -0.507 OA
ATOM     24  H   UNL     1      23.398  17.072  19.968  1.00  0.00     0.293 HD
ENDBRANCH  13  23
BRANCH  19  25
ATOM     25  C   UNL     1      25.150  19.176  18.462  1.00  0.00     0.264 C 
ATOM     26  O   UNL     1      24.377  20.080  18.878  1.00  0.00    -0.298 OA
ENDBRANCH  19  25
BRANCH  20  27
ATOM     27  C   UNL     1      30.040  18.474  21.570  1.00  0.00     0.017 C 
ATOM     28  C   UNL     1      29.628  18.209  23.022  1.00  0.00     0.012 C 
ATOM     29  C   UNL     1      31.125  17.484  21.107  1.00  0.00     0.012 C 
ENDBRANCH  20  27
BRANCH  21  30
ATOM     30  O   UNL     1      27.419  20.853  18.132  1.00  0.00    -0.504 OA
ATOM     31  H   UNL     1      27.554  20.805  17.132  1.00  0.00     0.293 HD
ENDBRANCH  21  30
BRANCH  22  32
ATOM     32  O   UNL     1      29.781  20.389  19.434  1.00  0.00    -0.504 OA
ATOM     33  H   UNL     1      30.738  20.058  19.403  1.00  0.00     0.293 HD
ENDBRANCH  22  32
ENDBRANCH  11  12
BRANCH  10  34
ATOM     34  O   UNL     1      25.449  13.399  19.220  1.00  0.00    -0.507 OA
ATOM     35  H   UNL     1      25.963  12.544  19.050  1.00  0.00     0.293 HD
ENDBRANCH  10  34
BRANCH   9  36
ATOM     36  C   UNL     1      20.396  11.935  22.717  1.00  0.00     0.017 C 
ATOM     37  C   UNL     1      20.660  11.072  23.954  1.00  0.00     0.012 C 
ATOM     38  C   UNL     1      18.974  11.708  22.169  1.00  0.00     0.012 C 
ENDBRANCH   9  36
BRANCH   6  39
ATOM     39  C   UNL     1      23.986  11.439  18.171  1.00  0.00     0.264 C 
ATOM     40  O   UNL     1      23.610  12.145  17.198  1.00  0.00    -0.298 OA
ENDBRANCH   6  39
BRANCH   8  41
ATOM     41  O   UNL     1      20.694   9.499  21.206  1.00  0.00    -0.504 OA
ATOM     42  H   UNL     1      20.777   8.976  22.070  1.00  0.00     0.293 HD
ENDBRANCH   8  41
BRANCH   7  43
ATOM     43  O   UNL     1      22.269   9.327  18.970  1.00  0.00    -0.504 OA
ATOM     44  H   UNL     1      21.950   9.334  18.010  1.00  0.00     0.293 HD
ENDBRANCH   7  43
TORSDOF 11
ENDMDL
MODEL 8
REMARK VINA RESULT:    -8.337      7.943     10.496
REMARK INTER + INTRA:         -13.634
REMARK INTER:                 -12.434
REMARK INTRA:                  -1.201
REMARK UNBOUND:                -1.398
REMARK SMILES Cc1cc2c(C(C)C)c(O)c(O)c(C=O)c2c(O)c1-c1c(C)cc2c(C(C)C)c(O)c(O)c(C=O)c2c1O
REMARK SMILES IDX 1 1 2 2 3 3 4 4 16 5 13 6 11 7 9 8 5 9 17 10 19 11 20 12
REMARK SMILES IDX 37 13 21 14 36 15 23 16 22 17 24 18 33 19 25 20 31 21 29 22
REMARK SMILES IDX 38 23 34 25 35 26 26 27 27 28 28 29 32 30 30 32 18 34 6 36
REMARK SMILES IDX 7 37 8 38 14 39 15 40 10 41 12 43
REMARK H PARENT 38 24 32 31 30 33 18 35 10 42 12 44
REMARK Flexibility Score: inf
ROOT
ATOM      1  C   UNL     1      22.735  20.065  21.623  1.00  0.00     0.045 C 
ATOM      2  C   UNL     1      24.242  20.012  21.550  1.00  0.00    -0.039 A 
ATOM      3  C   UNL     1      24.915  18.935  22.126  1.00  0.00     0.013 A 
ATOM      4  C   UNL     1      26.321  18.812  22.065  1.00  0.00    -0.006 A 
ATOM      5  C   UNL     1      27.077  19.865  21.464  1.00  0.00     0.039 A 
ATOM      6  C   UNL     1      28.500  19.767  21.443  1.00  0.00     0.072 A 
ATOM      7  C   UNL     1      29.141  18.742  22.166  1.00  0.00     0.169 A 
ATOM      8  C   UNL     1      28.392  17.733  22.780  1.00  0.00     0.162 A 
ATOM      9  C   UNL     1      26.990  17.678  22.623  1.00  0.00     0.008 A 
ATOM     10  C   UNL     1      26.388  21.008  20.954  1.00  0.00     0.132 A 
ATOM     11  C   UNL     1      24.977  21.060  20.975  1.00  0.00     0.031 A 
ENDROOT
BRANCH  11  12
ATOM     12  C   UNL     1      24.265  22.244  20.424  1.00  0.00     0.031 A 
ATOM     13  C   UNL     1      23.934  23.327  21.267  1.00  0.00     0.132 A 
ATOM     14  C   UNL     1      23.893  22.265  19.071  1.00  0.00    -0.039 A 
ATOM     15  C   UNL     1      23.266  24.477  20.741  1.00  0.00     0.039 A 
ATOM     16  C   UNL     1      23.228  23.379  18.557  1.00  0.00     0.013 A 
ATOM     17  C   UNL     1      24.151  21.078  18.173  1.00  0.00     0.045 C 
ATOM     18  C   UNL     1      22.956  24.517  19.347  1.00  0.00    -0.006 A 
ATOM     19  C   UNL     1      22.863  25.570  21.567  1.00  0.00     0.072 A 
ATOM     20  C   UNL     1      22.343  25.676  18.779  1.00  0.00     0.008 A 
ATOM     21  C   UNL     1      22.116  26.631  21.016  1.00  0.00     0.169 A 
ATOM     22  C   UNL     1      21.831  26.662  19.647  1.00  0.00     0.162 A 
BRANCH  13  23
ATOM     23  O   UNL     1      24.255  23.251  22.628  1.00  0.00    -0.507 OA
ATOM     24  H   UNL     1      23.924  23.907  23.325  1.00  0.00     0.293 HD
ENDBRANCH  13  23
BRANCH  19  25
ATOM     25  C   UNL     1      23.191  25.627  23.006  1.00  0.00     0.264 C 
ATOM     26  O   UNL     1      22.367  25.216  23.866  1.00  0.00    -0.298 OA
ENDBRANCH  19  25
BRANCH  20  27
ATOM     27  C   UNL     1      22.217  25.862  17.256  1.00  0.00     0.017 C 
ATOM     28  C   UNL     1      20.747  25.969  16.837  1.00  0.00     0.012 C 
ATOM     29  C   UNL     1      23.043  27.038  16.702  1.00  0.00     0.012 C 
ENDBRANCH  20  27
BRANCH  21  30
ATOM     30  O   UNL     1      21.665  27.699  21.802  1.00  0.00    -0.504 OA
ATOM     31  H   UNL     1      22.153  28.051  22.614  1.00  0.00     0.293 HD
ENDBRANCH  21  30
BRANCH  22  32
ATOM     32  O   UNL     1      21.030  27.688  19.140  1.00  0.00    -0.504 OA
ATOM     33  H   UNL     1      20.291  28.128  19.674  1.00  0.00     0.293 HD
ENDBRANCH  22  32
ENDBRANCH  11  12
BRANCH  10  34
ATOM     34  O   UNL     1      27.105  22.106  20.466  1.00  0.00    -0.507 OA
ATOM     35  H   UNL     1      26.927  22.546  19.572  1.00  0.00     0.293 HD
ENDBRANCH  10  34
BRANCH   9  36
ATOM     36  C   UNL     1      26.222  16.426  23.085  1.00  0.00     0.017 C 
ATOM     37  C   UNL     1      26.129  16.377  24.613  1.00  0.00     0.012 C 
ATOM     38  C   UNL     1      26.777  15.108  22.515  1.00  0.00     0.012 C 
ENDBRANCH   9  36
BRANCH   6  39
ATOM     39  C   UNL     1      29.345  20.682  20.648  1.00  0.00     0.264 C 
ATOM     40  O   UNL     1      30.234  20.222  19.883  1.00  0.00    -0.298 OA
ENDBRANCH   6  39
BRANCH   8  41
ATOM     41  O   UNL     1      29.046  16.768  23.548  1.00  0.00    -0.504 OA
ATOM     42  H   UNL     1      29.910  16.325  23.259  1.00  0.00     0.293 HD
ENDBRANCH   8  41
BRANCH   7  43
ATOM     43  O   UNL     1      30.536  18.680  22.268  1.00  0.00    -0.504 OA
ATOM     44  H   UNL     1      31.052  18.873  23.117  1.00  0.00     0.293 HD
ENDBRANCH   7  43
TORSDOF 11
ENDMDL
MODEL 9
REMARK VINA RESULT:    -8.317      5.486      8.714
REMARK INTER + INTRA:         -13.605
REMARK INTER:                 -12.213
REMARK INTRA:                  -1.392
REMARK UNBOUND:                -1.398
REMARK SMILES Cc1cc2c(C(C)C)c(O)c(O)c(C=O)c2c(O)c1-c1c(C)cc2c(C(C)C)c(O)c(O)c(C=O)c2c1O
REMARK SMILES IDX 1 1 2 2 3 3 4 4 16 5 13 6 11 7 9 8 5 9 17 10 19 11 20 12
REMARK SMILES IDX 37 13 21 14 36 15 23 16 22 17 24 18 33 19 25 20 31 21 29 22
REMARK SMILES IDX 38 23 34 25 35 26 26 27 27 28 28 29 32 30 30 32 18 34 6 36
REMARK SMILES IDX 7 37 8 38 14 39 15 40 10 41 12 43
REMARK H PARENT 38 24 32 31 30 33 18 35 10 42 12 44
REMARK Flexibility Score: inf
ROOT
ATOM      1  C   UNL     1      27.000  17.120  24.445  1.00  0.00     0.045 C 
ATOM      2  C   UNL     1      26.209  15.882  24.094  1.00  0.00    -0.039 A 
ATOM      3  C   UNL     1      26.227  14.792  24.964  1.00  0.00     0.013 A 
ATOM      4  C   UNL     1      25.483  13.618  24.708  1.00  0.00    -0.006 A 
ATOM      5  C   UNL     1      24.759  13.519  23.481  1.00  0.00     0.039 A 
ATOM      6  C   UNL     1      24.046  12.316  23.197  1.00  0.00     0.072 A 
ATOM      7  C   UNL     1      24.214  11.191  24.028  1.00  0.00     0.169 A 
ATOM      8  C   UNL     1      24.953  11.289  25.211  1.00  0.00     0.162 A 
ATOM      9  C   UNL     1      25.478  12.529  25.634  1.00  0.00     0.008 A 
ATOM     10  C   UNL     1      24.817  14.603  22.553  1.00  0.00     0.132 A 
ATOM     11  C   UNL     1      25.516  15.786  22.877  1.00  0.00     0.031 A 
ENDROOT
BRANCH  11  12
ATOM     12  C   UNL     1      25.555  16.919  21.915  1.00  0.00     0.031 A 
ATOM     13  C   UNL     1      24.489  17.842  21.862  1.00  0.00     0.132 A 
ATOM     14  C   UNL     1      26.641  17.046  21.034  1.00  0.00    -0.039 A 
ATOM     15  C   UNL     1      24.528  18.945  20.953  1.00  0.00     0.039 A 
ATOM     16  C   UNL     1      26.676  18.112  20.135  1.00  0.00     0.013 A 
ATOM     17  C   UNL     1      27.747  16.017  21.006  1.00  0.00     0.045 C 
ATOM     18  C   UNL     1      25.672  19.105  20.112  1.00  0.00    -0.006 A 
ATOM     19  C   UNL     1      23.447  19.870  20.827  1.00  0.00     0.072 A 
ATOM     20  C   UNL     1      25.770  20.228  19.235  1.00  0.00     0.008 A 
ATOM     21  C   UNL     1      23.495  20.878  19.843  1.00  0.00     0.169 A 
ATOM     22  C   UNL     1      24.626  21.029  19.035  1.00  0.00     0.162 A 
BRANCH  13  23
ATOM     23  O   UNL     1      23.385  17.652  22.703  1.00  0.00    -0.507 OA
ATOM     24  H   UNL     1      22.831  16.805  22.727  1.00  0.00     0.293 HD
ENDBRANCH  13  23
BRANCH  19  25
ATOM     25  C   UNL     1      22.255  19.802  21.695  1.00  0.00     0.264 C 
ATOM     26  O   UNL     1      21.158  19.379  21.243  1.00  0.00    -0.298 OA
ENDBRANCH  19  25
BRANCH  20  27
ATOM     27  C   UNL     1      27.078  20.571  18.499  1.00  0.00     0.017 C 
ATOM     28  C   UNL     1      26.982  20.207  17.014  1.00  0.00     0.012 C 
ATOM     29  C   UNL     1      27.534  22.030  18.689  1.00  0.00     0.012 C 
ENDBRANCH  20  27
BRANCH  21  30
ATOM     30  O   UNL     1      22.436  21.776  19.660  1.00  0.00    -0.504 OA
ATOM     31  H   UNL     1      22.287  22.601  20.225  1.00  0.00     0.293 HD
ENDBRANCH  21  30
BRANCH  22  32
ATOM     32  O   UNL     1      24.617  21.990  18.021  1.00  0.00    -0.504 OA
ATOM     33  H   UNL     1      25.349  22.680  17.908  1.00  0.00     0.293 HD
ENDBRANCH  22  32
ENDBRANCH  11  12
BRANCH  10  34
ATOM     34  O   UNL     1      24.215  14.490  21.294  1.00  0.00    -0.507 OA
ATOM     35  H   UNL     1      24.699  14.179  20.462  1.00  0.00     0.293 HD
ENDBRANCH  10  34
BRANCH   9  36
ATOM     36  C   UNL     1      26.060  12.664  27.053  1.00  0.00     0.017 C 
ATOM     37  C   UNL     1      27.452  12.032  27.135  1.00  0.00     0.012 C 
ATOM     38  C   UNL     1      25.134  12.126  28.160  1.00  0.00     0.012 C 
ENDBRANCH   9  36
BRANCH   6  39
ATOM     39  C   UNL     1      23.090  12.208  22.076  1.00  0.00     0.264 C 
ATOM     40  O   UNL     1      23.382  11.529  21.056  1.00  0.00    -0.298 OA
ENDBRANCH   6  39
BRANCH   8  41
ATOM     41  O   UNL     1      25.162  10.143  25.982  1.00  0.00    -0.504 OA
ATOM     42  H   UNL     1      26.035   9.628  25.981  1.00  0.00     0.293 HD
ENDBRANCH   8  41
BRANCH   7  43
ATOM     43  O   UNL     1      23.627   9.958  23.719  1.00  0.00    -0.504 OA
ATOM     44  H   UNL     1      22.668   9.718  23.932  1.00  0.00     0.293 HD
ENDBRANCH   7  43
TORSDOF 11
ENDMDL
