MODEL 1
REMARK VINA RESULT:    -3.832      0.000      0.000
REMARK INTER + INTRA:          -4.679
REMARK INTER:                  -4.504
REMARK INTRA:                  -0.175
REMARK UNBOUND:                -0.175
REMARK SMILES O=C([O-])CCC(=O)[O-]
REMARK SMILES IDX 4 1 2 2 1 3 3 4 5 5 6 6 7 7 8 8
REMARK H PARENT
REMARK Flexibility Score: inf
ROOT
ATOM      1  C   UNL     1      13.178  75.238  68.796  1.00  0.00     0.059 C 
ENDROOT
BRANCH   1   2
ATOM      2  C   UNL     1      14.229  74.182  68.664  1.00  0.00     0.042 C 
ATOM      3  O   UNL     1      15.058  74.227  67.718  1.00  0.00    -0.550 OA
ATOM      4  O   UNL     1      14.263  73.120  69.560  1.00  0.00    -0.550 OA
ENDBRANCH   1   2
BRANCH   1   5
ATOM      5  C   UNL     1      13.144  75.783  70.225  1.00  0.00     0.059 C 
BRANCH   5   6
ATOM      6  C   UNL     1      14.409  76.520  70.533  1.00  0.00     0.042 C 
ATOM      7  O   UNL     1      14.795  77.457  69.786  1.00  0.00    -0.550 OA
ATOM      8  O   UNL     1      15.187  76.140  71.620  1.00  0.00    -0.550 OA
ENDBRANCH   5   6
ENDBRANCH   1   5
TORSDOF 3
ENDMDL
MODEL 2
REMARK VINA RESULT:    -3.815      1.091      1.282
REMARK INTER + INTRA:          -4.658
REMARK INTER:                  -4.563
REMARK INTRA:                  -0.095
REMARK UNBOUND:                -0.175
REMARK SMILES O=C([O-])CCC(=O)[O-]
REMARK SMILES IDX 4 1 2 2 1 3 3 4 5 5 6 6 7 7 8 8
REMARK H PARENT
REMARK Flexibility Score: inf
ROOT
ATOM      1  C   UNL     1      14.185  73.950  69.589  1.00  0.00     0.059 C 
ENDROOT
BRANCH   1   2
ATOM      2  C   UNL     1      14.905  73.351  68.422  1.00  0.00     0.042 C 
ATOM      3  O   UNL     1      15.274  74.079  67.464  1.00  0.00    -0.550 OA
ATOM      4  O   UNL     1      15.123  71.980  68.371  1.00  0.00    -0.550 OA
ENDBRANCH   1   2
BRANCH   1   5
ATOM      5  C   UNL     1      13.400  75.189  69.154  1.00  0.00     0.059 C 
BRANCH   5   6
ATOM      6  C   UNL     1      13.994  76.423  69.757  1.00  0.00     0.042 C 
ATOM      7  O   UNL     1      13.548  77.559  69.445  1.00  0.00    -0.550 OA
ATOM      8  O   UNL     1      15.072  76.322  70.627  1.00  0.00    -0.550 OA
ENDBRANCH   5   6
ENDBRANCH   1   5
TORSDOF 3
ENDMDL
MODEL 3
REMARK VINA RESULT:    -3.811      0.072      3.169
REMARK INTER + INTRA:          -4.654
REMARK INTER:                  -4.483
REMARK INTRA:                  -0.171
REMARK UNBOUND:                -0.175
REMARK SMILES O=C([O-])CCC(=O)[O-]
REMARK SMILES IDX 4 1 2 2 1 3 3 4 5 5 6 6 7 7 8 8
REMARK H PARENT
REMARK Flexibility Score: inf
ROOT
ATOM      1  C   UNL     1      13.139  75.755  70.233  1.00  0.00     0.059 C 
ENDROOT
BRANCH   1   2
ATOM      2  C   UNL     1      14.420  76.456  70.558  1.00  0.00     0.042 C 
ATOM      3  O   UNL     1      14.816  77.416  69.847  1.00  0.00    -0.550 OA
ATOM      4  O   UNL     1      15.201  76.017  71.620  1.00  0.00    -0.550 OA
ENDBRANCH   1   2
BRANCH   1   5
ATOM      5  C   UNL     1      13.158  75.250  68.789  1.00  0.00     0.059 C 
BRANCH   5   6
ATOM      6  C   UNL     1      14.197  74.187  68.621  1.00  0.00     0.042 C 
ATOM      7  O   UNL     1      14.998  74.232  67.650  1.00  0.00    -0.550 OA
ATOM      8  O   UNL     1      14.251  73.121  69.509  1.00  0.00    -0.550 OA
ENDBRANCH   5   6
ENDBRANCH   1   5
TORSDOF 3
ENDMDL
MODEL 4
REMARK VINA RESULT:    -3.740      1.490      2.012
REMARK INTER + INTRA:          -4.570
REMARK INTER:                  -4.450
REMARK INTRA:                  -0.120
REMARK UNBOUND:                -0.175
REMARK SMILES O=C([O-])CCC(=O)[O-]
REMARK SMILES IDX 4 1 2 2 1 3 3 4 5 5 6 6 7 7 8 8
REMARK H PARENT
REMARK Flexibility Score: inf
ROOT
ATOM      1  C   UNL     1      13.138  75.419  70.045  1.00  0.00     0.059 C 
ENDROOT
BRANCH   1   2
ATOM      2  C   UNL     1      13.486  75.320  68.593  1.00  0.00     0.042 C 
ATOM      3  O   UNL     1      12.809  75.944  67.735  1.00  0.00    -0.550 OA
ATOM      4  O   UNL     1      14.530  74.498  68.183  1.00  0.00    -0.550 OA
ENDBRANCH   1   2
BRANCH   1   5
ATOM      5  C   UNL     1      13.988  76.493  70.726  1.00  0.00     0.059 C 
BRANCH   5   6
ATOM      6  C   UNL     1      14.955  75.868  71.680  1.00  0.00     0.042 C 
ATOM      7  O   UNL     1      14.878  76.113  72.913  1.00  0.00    -0.550 OA
ATOM      8  O   UNL     1      15.973  75.051  71.203  1.00  0.00    -0.550 OA
ENDBRANCH   5   6
ENDBRANCH   1   5
TORSDOF 3
ENDMDL
MODEL 5
REMARK VINA RESULT:    -3.736      1.552      3.463
REMARK INTER + INTRA:          -4.566
REMARK INTER:                  -4.445
REMARK INTRA:                  -0.121
REMARK UNBOUND:                -0.175
REMARK SMILES O=C([O-])CCC(=O)[O-]
REMARK SMILES IDX 4 1 2 2 1 3 3 4 5 5 6 6 7 7 8 8
REMARK H PARENT
REMARK Flexibility Score: inf
ROOT
ATOM      1  C   UNL     1      14.007  76.418  70.787  1.00  0.00     0.059 C 
ENDROOT
BRANCH   1   2
ATOM      2  C   UNL     1      14.853  75.775  71.840  1.00  0.00     0.042 C 
ATOM      3  O   UNL     1      15.497  74.725  71.581  1.00  0.00    -0.550 OA
ATOM      4  O   UNL     1      14.892  76.309  73.122  1.00  0.00    -0.550 OA
ENDBRANCH   1   2
BRANCH   1   5
ATOM      5  C   UNL     1      13.120  75.377  70.104  1.00  0.00     0.059 C 
BRANCH   5   6
ATOM      6  C   UNL     1      13.502  75.227  68.665  1.00  0.00     0.042 C 
ATOM      7  O   UNL     1      14.484  74.509  68.341  1.00  0.00    -0.550 OA
ATOM      8  O   UNL     1      12.802  75.920  67.685  1.00  0.00    -0.550 OA
ENDBRANCH   5   6
ENDBRANCH   1   5
TORSDOF 3
ENDMDL
MODEL 6
REMARK VINA RESULT:    -3.712      1.547      3.921
REMARK INTER + INTRA:          -4.537
REMARK INTER:                  -4.417
REMARK INTRA:                  -0.120
REMARK UNBOUND:                -0.175
REMARK SMILES O=C([O-])CCC(=O)[O-]
REMARK SMILES IDX 4 1 2 2 1 3 3 4 5 5 6 6 7 7 8 8
REMARK H PARENT
REMARK Flexibility Score: inf
ROOT
ATOM      1  C   UNL     1      15.642  74.357  70.578  1.00  0.00     0.059 C 
ENDROOT
BRANCH   1   2
ATOM      2  C   UNL     1      15.142  75.727  70.913  1.00  0.00     0.042 C 
ATOM      3  O   UNL     1      14.892  76.035  72.108  1.00  0.00    -0.550 OA
ATOM      4  O   UNL     1      14.908  76.648  69.900  1.00  0.00    -0.550 OA
ENDBRANCH   1   2
BRANCH   1   5
ATOM      5  C   UNL     1      14.588  73.583  69.785  1.00  0.00     0.059 C 
BRANCH   5   6
ATOM      6  C   UNL     1      15.104  73.242  68.423  1.00  0.00     0.042 C 
ATOM      7  O   UNL     1      15.204  74.135  67.541  1.00  0.00    -0.550 OA
ATOM      8  O   UNL     1      15.429  71.928  68.112  1.00  0.00    -0.550 OA
ENDBRANCH   5   6
ENDBRANCH   1   5
TORSDOF 3
ENDMDL
MODEL 7
REMARK VINA RESULT:    -3.645      1.551      3.583
REMARK INTER + INTRA:          -4.459
REMARK INTER:                  -4.360
REMARK INTRA:                  -0.098
REMARK UNBOUND:                -0.175
REMARK SMILES O=C([O-])CCC(=O)[O-]
REMARK SMILES IDX 4 1 2 2 1 3 3 4 5 5 6 6 7 7 8 8
REMARK H PARENT
REMARK Flexibility Score: inf
ROOT
ATOM      1  C   UNL     1      14.847  76.497  70.625  1.00  0.00     0.059 C 
ENDROOT
BRANCH   1   2
ATOM      2  C   UNL     1      15.177  76.069  72.020  1.00  0.00     0.042 C 
ATOM      3  O   UNL     1      14.557  75.112  72.552  1.00  0.00    -0.550 OA
ATOM      4  O   UNL     1      16.138  76.759  72.749  1.00  0.00    -0.550 OA
ENDBRANCH   1   2
BRANCH   1   5
ATOM      5  C   UNL     1      13.406  76.120  70.277  1.00  0.00     0.059 C 
BRANCH   5   6
ATOM      6  C   UNL     1      13.367  75.301  69.027  1.00  0.00     0.042 C 
ATOM      7  O   UNL     1      12.923  75.796  67.957  1.00  0.00    -0.550 OA
ATOM      8  O   UNL     1      13.777  73.974  69.052  1.00  0.00    -0.550 OA
ENDBRANCH   5   6
ENDBRANCH   1   5
TORSDOF 3
ENDMDL
MODEL 8
REMARK VINA RESULT:    -3.519      1.822      2.652
REMARK INTER + INTRA:          -4.310
REMARK INTER:                  -4.241
REMARK INTRA:                  -0.070
REMARK UNBOUND:                -0.175
REMARK SMILES O=C([O-])CCC(=O)[O-]
REMARK SMILES IDX 4 1 2 2 1 3 3 4 5 5 6 6 7 7 8 8
REMARK H PARENT
REMARK Flexibility Score: inf
ROOT
ATOM      1  C   UNL     1      14.923  75.634  71.176  1.00  0.00     0.059 C 
ENDROOT
BRANCH   1   2
ATOM      2  C   UNL     1      15.765  74.461  70.783  1.00  0.00     0.042 C 
ATOM      3  O   UNL     1      16.700  74.073  71.531  1.00  0.00    -0.550 OA
ATOM      4  O   UNL     1      15.547  73.826  69.567  1.00  0.00    -0.550 OA
ENDBRANCH   1   2
BRANCH   1   5
ATOM      5  C   UNL     1      13.525  75.516  70.566  1.00  0.00     0.059 C 
BRANCH   5   6
ATOM      6  C   UNL     1      13.388  76.433  69.392  1.00  0.00     0.042 C 
ATOM      7  O   UNL     1      13.519  77.677  69.540  1.00  0.00    -0.550 OA
ATOM      8  O   UNL     1      13.067  75.918  68.142  1.00  0.00    -0.550 OA
ENDBRANCH   5   6
ENDBRANCH   1   5
TORSDOF 3
ENDMDL
MODEL 9
REMARK VINA RESULT:    -3.495      1.635      2.105
REMARK INTER + INTRA:          -4.282
REMARK INTER:                  -4.250
REMARK INTRA:                  -0.032
REMARK UNBOUND:                -0.175
REMARK SMILES O=C([O-])CCC(=O)[O-]
REMARK SMILES IDX 4 1 2 2 1 3 3 4 5 5 6 6 7 7 8 8
REMARK H PARENT
REMARK Flexibility Score: inf
ROOT
ATOM      1  C   UNL     1      13.918  74.683  70.189  1.00  0.00     0.059 C 
ENDROOT
BRANCH   1   2
ATOM      2  C   UNL     1      13.970  74.848  68.702  1.00  0.00     0.042 C 
ATOM      3  O   UNL     1      13.064  75.483  68.103  1.00  0.00    -0.550 OA
ATOM      4  O   UNL     1      14.996  74.258  67.974  1.00  0.00    -0.550 OA
ENDBRANCH   1   2
BRANCH   1   5
ATOM      5  C   UNL     1      15.329  74.714  70.780  1.00  0.00     0.059 C 
BRANCH   5   6
ATOM      6  C   UNL     1      15.348  75.512  72.045  1.00  0.00     0.042 C 
ATOM      7  O   UNL     1      16.064  76.545  72.132  1.00  0.00    -0.550 OA
ATOM      8  O   UNL     1      14.613  75.090  73.145  1.00  0.00    -0.550 OA
ENDBRANCH   5   6
ENDBRANCH   1   5
TORSDOF 3
ENDMDL
