MODEL 1
REMARK VINA RESULT:    -4.734      0.000      0.000
REMARK INTER + INTRA:          -7.652
REMARK INTER:                  -6.948
REMARK INTRA:                  -0.704
REMARK UNBOUND:                -0.704
REMARK SMILES O=C([O-])CCCCCCCC(=O)[O-]
REMARK SMILES IDX 7 1 6 2 5 3 4 4 2 5 1 6 3 7 8 8 9 9 10 10 11 11 12 12 13 13
REMARK H PARENT
REMARK Flexibility Score: inf
ROOT
ATOM      1  C   UNL     1      87.919  77.321  71.551  1.00  0.00     0.000 C 
ENDROOT
BRANCH   1   2
ATOM      2  C   UNL     1      87.438  76.343  70.467  1.00  0.00     0.000 C 
BRANCH   2   3
ATOM      3  C   UNL     1      88.415  76.244  69.282  1.00  0.00     0.006 C 
BRANCH   3   4
ATOM      4  C   UNL     1      89.163  74.903  69.261  1.00  0.00     0.053 C 
BRANCH   4   5
ATOM      5  C   UNL     1      90.488  74.993  69.955  1.00  0.00     0.041 C 
ATOM      6  O   UNL     1      91.015  76.116  70.171  1.00  0.00    -0.550 OA
ATOM      7  O   UNL     1      91.154  73.835  70.339  1.00  0.00    -0.550 OA
ENDBRANCH   4   5
ENDBRANCH   3   4
ENDBRANCH   2   3
ENDBRANCH   1   2
BRANCH   1   8
ATOM      8  C   UNL     1      87.298  77.028  72.929  1.00  0.00     0.000 C 
BRANCH   8   9
ATOM      9  C   UNL     1      86.372  75.800  72.909  1.00  0.00     0.006 C 
BRANCH   9  10
ATOM     10  C   UNL     1      86.796  74.724  73.916  1.00  0.00     0.053 C 
BRANCH  10  11
ATOM     11  C   UNL     1      88.156  74.200  73.578  1.00  0.00     0.041 C 
ATOM     12  O   UNL     1      88.349  73.586  72.495  1.00  0.00    -0.550 OA
ATOM     13  O   UNL     1      89.224  74.433  74.436  1.00  0.00    -0.550 OA
ENDBRANCH  10  11
ENDBRANCH   9  10
ENDBRANCH   8   9
ENDBRANCH   1   8
TORSDOF 8
ENDMDL
MODEL 2
REMARK VINA RESULT:    -4.719      1.086      4.155
REMARK INTER + INTRA:          -7.630
REMARK INTER:                  -7.086
REMARK INTRA:                  -0.544
REMARK UNBOUND:                -0.704
REMARK SMILES O=C([O-])CCCCCCCC(=O)[O-]
REMARK SMILES IDX 7 1 6 2 5 3 4 4 2 5 1 6 3 7 8 8 9 9 10 10 11 11 12 12 13 13
REMARK H PARENT
REMARK Flexibility Score: inf
ROOT
ATOM      1  C   UNL     1      87.512  76.247  70.344  1.00  0.00     0.000 C 
ENDROOT
BRANCH   1   2
ATOM      2  C   UNL     1      88.207  77.122  71.401  1.00  0.00     0.000 C 
BRANCH   2   3
ATOM      3  C   UNL     1      87.396  77.235  72.704  1.00  0.00     0.006 C 
BRANCH   3   4
ATOM      4  C   UNL     1      86.563  75.974  72.977  1.00  0.00     0.053 C 
BRANCH   4   5
ATOM      5  C   UNL     1      87.323  74.969  73.788  1.00  0.00     0.041 C 
ATOM      6  O   UNL     1      88.362  75.311  74.409  1.00  0.00    -0.550 OA
ATOM      7  O   UNL     1      86.898  73.646  73.834  1.00  0.00    -0.550 OA
ENDBRANCH   4   5
ENDBRANCH   3   4
ENDBRANCH   2   3
ENDBRANCH   1   2
BRANCH   1   8
ATOM      8  C   UNL     1      88.237  76.273  68.987  1.00  0.00     0.000 C 
BRANCH   8   9
ATOM      9  C   UNL     1      89.328  75.195  68.880  1.00  0.00     0.006 C 
BRANCH   9  10
ATOM     10  C   UNL     1      88.986  73.927  69.673  1.00  0.00     0.053 C 
BRANCH  10  11
ATOM     11  C   UNL     1      90.065  73.627  70.665  1.00  0.00     0.041 C 
ATOM     12  O   UNL     1      89.769  73.311  71.848  1.00  0.00    -0.550 OA
ATOM     13  O   UNL     1      91.397  73.646  70.271  1.00  0.00    -0.550 OA
ENDBRANCH  10  11
ENDBRANCH   9  10
ENDBRANCH   8   9
ENDBRANCH   1   8
TORSDOF 8
ENDMDL
MODEL 3
REMARK VINA RESULT:    -3.856     12.209     13.170
REMARK INTER + INTRA:          -6.363
REMARK INTER:                  -5.762
REMARK INTRA:                  -0.601
REMARK UNBOUND:                -0.704
REMARK SMILES O=C([O-])CCCCCCCC(=O)[O-]
REMARK SMILES IDX 7 1 6 2 5 3 4 4 2 5 1 6 3 7 8 8 9 9 10 10 11 11 12 12 13 13
REMARK H PARENT
REMARK Flexibility Score: inf
ROOT
ATOM      1  C   UNL     1      92.367  83.754  81.384  1.00  0.00     0.000 C 
ENDROOT
BRANCH   1   2
ATOM      2  C   UNL     1      93.298  82.773  80.654  1.00  0.00     0.000 C 
BRANCH   2   3
ATOM      3  C   UNL     1      93.794  83.319  79.304  1.00  0.00     0.006 C 
BRANCH   3   4
ATOM      4  C   UNL     1      93.914  84.850  79.308  1.00  0.00     0.053 C 
BRANCH   4   5
ATOM      5  C   UNL     1      95.337  85.298  79.168  1.00  0.00     0.041 C 
ATOM      6  O   UNL     1      95.603  86.407  78.637  1.00  0.00    -0.550 OA
ATOM      7  O   UNL     1      96.372  84.477  79.599  1.00  0.00    -0.550 OA
ENDBRANCH   4   5
ENDBRANCH   3   4
ENDBRANCH   2   3
ENDBRANCH   1   2
BRANCH   1   8
ATOM      8  C   UNL     1      91.021  83.114  81.771  1.00  0.00     0.000 C 
BRANCH   8   9
ATOM      9  C   UNL     1      89.833  83.743  81.025  1.00  0.00     0.006 C 
BRANCH   9  10
ATOM     10  C   UNL     1      90.025  83.747  79.503  1.00  0.00     0.053 C 
BRANCH  10  11
ATOM     11  C   UNL     1      89.672  85.087  78.937  1.00  0.00     0.041 C 
ATOM     12  O   UNL     1      88.488  85.510  78.998  1.00  0.00    -0.550 OA
ATOM     13  O   UNL     1      90.663  85.891  78.387  1.00  0.00    -0.550 OA
ENDBRANCH  10  11
ENDBRANCH   9  10
ENDBRANCH   8   9
ENDBRANCH   1   8
TORSDOF 8
ENDMDL
MODEL 4
REMARK VINA RESULT:    -3.802     13.768     14.925
REMARK INTER + INTRA:          -6.285
REMARK INTER:                  -5.767
REMARK INTRA:                  -0.518
REMARK UNBOUND:                -0.704
REMARK SMILES O=C([O-])CCCCCCCC(=O)[O-]
REMARK SMILES IDX 7 1 6 2 5 3 4 4 2 5 1 6 3 7 8 8 9 9 10 10 11 11 12 12 13 13
REMARK H PARENT
REMARK Flexibility Score: inf
ROOT
ATOM      1  C   UNL     1      96.416  85.282  80.085  1.00  0.00     0.000 C 
ENDROOT
BRANCH   1   2
ATOM      2  C   UNL     1      97.475  84.168  80.104  1.00  0.00     0.000 C 
BRANCH   2   3
ATOM      3  C   UNL     1      97.060  82.971  80.978  1.00  0.00     0.006 C 
BRANCH   3   4
ATOM      4  C   UNL     1      98.269  82.146  81.441  1.00  0.00     0.053 C 
BRANCH   4   5
ATOM      5  C   UNL     1      99.312  83.003  82.091  1.00  0.00     0.041 C 
ATOM      6  O   UNL     1     100.509  82.945  81.707  1.00  0.00    -0.550 OA
ATOM      7  O   UNL     1      98.967  83.846  83.141  1.00  0.00    -0.550 OA
ENDBRANCH   4   5
ENDBRANCH   3   4
ENDBRANCH   2   3
ENDBRANCH   1   2
BRANCH   1   8
ATOM      8  C   UNL     1      95.492  85.198  78.857  1.00  0.00     0.000 C 
BRANCH   8   9
ATOM      9  C   UNL     1      94.008  85.081  79.243  1.00  0.00     0.006 C 
BRANCH   9  10
ATOM     10  C   UNL     1      93.808  84.671  80.707  1.00  0.00     0.053 C 
BRANCH  10  11
ATOM     11  C   UNL     1      93.152  83.329  80.788  1.00  0.00     0.041 C 
ATOM     12  O   UNL     1      93.776  82.295  80.430  1.00  0.00    -0.550 OA
ATOM     13  O   UNL     1      91.868  83.213  81.306  1.00  0.00    -0.550 OA
ENDBRANCH  10  11
ENDBRANCH   9  10
ENDBRANCH   8   9
ENDBRANCH   1   8
TORSDOF 8
ENDMDL
MODEL 5
REMARK VINA RESULT:    -3.783     14.007     15.290
REMARK INTER + INTRA:          -6.257
REMARK INTER:                  -5.868
REMARK INTRA:                  -0.389
REMARK UNBOUND:                -0.704
REMARK SMILES O=C([O-])CCCCCCCC(=O)[O-]
REMARK SMILES IDX 7 1 6 2 5 3 4 4 2 5 1 6 3 7 8 8 9 9 10 10 11 11 12 12 13 13
REMARK H PARENT
REMARK Flexibility Score: inf
ROOT
ATOM      1  C   UNL     1      97.048  84.156  80.206  1.00  0.00     0.000 C 
ENDROOT
BRANCH   1   2
ATOM      2  C   UNL     1      95.743  84.639  79.551  1.00  0.00     0.000 C 
BRANCH   2   3
ATOM      3  C   UNL     1      94.490  84.184  80.320  1.00  0.00     0.006 C 
BRANCH   3   4
ATOM      4  C   UNL     1      93.531  83.375  79.436  1.00  0.00     0.053 C 
BRANCH   4   5
ATOM      5  C   UNL     1      92.220  84.076  79.248  1.00  0.00     0.041 C 
ATOM      6  O   UNL     1      91.185  83.647  79.821  1.00  0.00    -0.550 OA
ATOM      7  O   UNL     1      92.136  85.187  78.417  1.00  0.00    -0.550 OA
ENDBRANCH   4   5
ENDBRANCH   3   4
ENDBRANCH   2   3
ENDBRANCH   1   2
BRANCH   1   8
ATOM      8  C   UNL     1      97.004  82.663  80.578  1.00  0.00     0.000 C 
BRANCH   8   9
ATOM      9  C   UNL     1      98.039  82.293  81.653  1.00  0.00     0.006 C 
BRANCH   9  10
ATOM     10  C   UNL     1      99.364  83.046  81.482  1.00  0.00     0.053 C 
BRANCH  10  11
ATOM     11  C   UNL     1      99.776  83.676  82.775  1.00  0.00     0.041 C 
ATOM     12  O   UNL     1     100.983  83.655  83.135  1.00  0.00    -0.550 OA
ATOM     13  O   UNL     1      98.835  84.330  83.561  1.00  0.00    -0.550 OA
ENDBRANCH  10  11
ENDBRANCH   9  10
ENDBRANCH   8   9
ENDBRANCH   1   8
TORSDOF 8
ENDMDL
MODEL 6
REMARK VINA RESULT:    -3.727     13.480     14.672
REMARK INTER + INTRA:          -6.174
REMARK INTER:                  -5.836
REMARK INTRA:                  -0.338
REMARK UNBOUND:                -0.704
REMARK SMILES O=C([O-])CCCCCCCC(=O)[O-]
REMARK SMILES IDX 7 1 6 2 5 3 4 4 2 5 1 6 3 7 8 8 9 9 10 10 11 11 12 12 13 13
REMARK H PARENT
REMARK Flexibility Score: inf
ROOT
ATOM      1  C   UNL     1      95.528  84.259  80.552  1.00  0.00     0.000 C 
ENDROOT
BRANCH   1   2
ATOM      2  C   UNL     1      96.994  84.036  80.145  1.00  0.00     0.000 C 
BRANCH   2   3
ATOM      3  C   UNL     1      97.560  82.705  80.672  1.00  0.00     0.006 C 
BRANCH   3   4
ATOM      4  C   UNL     1      98.061  82.823  82.119  1.00  0.00     0.053 C 
BRANCH   4   5
ATOM      5  C   UNL     1      99.395  83.500  82.194  1.00  0.00     0.041 C 
ATOM      6  O   UNL     1     100.429  82.911  81.783  1.00  0.00    -0.550 OA
ATOM      7  O   UNL     1      99.501  84.773  82.742  1.00  0.00    -0.550 OA
ENDBRANCH   4   5
ENDBRANCH   3   4
ENDBRANCH   2   3
ENDBRANCH   1   2
BRANCH   1   8
ATOM      8  C   UNL     1      94.655  83.012  80.322  1.00  0.00     0.000 C 
BRANCH   8   9
ATOM      9  C   UNL     1      93.497  83.276  79.345  1.00  0.00     0.006 C 
BRANCH   9  10
ATOM     10  C   UNL     1      92.644  84.483  79.751  1.00  0.00     0.053 C 
BRANCH  10  11
ATOM     11  C   UNL     1      91.435  84.585  78.875  1.00  0.00     0.041 C 
ATOM     12  O   UNL     1      91.445  85.336  77.864  1.00  0.00    -0.550 OA
ATOM     13  O   UNL     1      90.312  83.812  79.147  1.00  0.00    -0.550 OA
ENDBRANCH  10  11
ENDBRANCH   9  10
ENDBRANCH   8   9
ENDBRANCH   1   8
TORSDOF 8
ENDMDL
MODEL 7
REMARK VINA RESULT:    -3.721     16.137     17.214
REMARK INTER + INTRA:          -6.166
REMARK INTER:                  -5.803
REMARK INTRA:                  -0.363
REMARK UNBOUND:                -0.704
REMARK SMILES O=C([O-])CCCCCCCC(=O)[O-]
REMARK SMILES IDX 7 1 6 2 5 3 4 4 2 5 1 6 3 7 8 8 9 9 10 10 11 11 12 12 13 13
REMARK H PARENT
REMARK Flexibility Score: inf
ROOT
ATOM      1  C   UNL     1      98.912  83.548  81.846  1.00  0.00     0.000 C 
ENDROOT
BRANCH   1   2
ATOM      2  C   UNL     1      97.996  82.336  81.617  1.00  0.00     0.000 C 
BRANCH   2   3
ATOM      3  C   UNL     1      96.887  82.616  80.588  1.00  0.00     0.006 C 
BRANCH   3   4
ATOM      4  C   UNL     1      96.899  84.075  80.108  1.00  0.00     0.053 C 
BRANCH   4   5
ATOM      5  C   UNL     1      95.550  84.513  79.623  1.00  0.00     0.041 C 
ATOM      6  O   UNL     1      94.515  83.899  79.990  1.00  0.00    -0.550 OA
ATOM      7  O   UNL     1      95.440  85.583  78.743  1.00  0.00    -0.550 OA
ENDBRANCH   4   5
ENDBRANCH   3   4
ENDBRANCH   2   3
ENDBRANCH   1   2
BRANCH   1   8
ATOM      8  C   UNL     1     100.392  83.151  81.995  1.00  0.00     0.000 C 
BRANCH   8   9
ATOM      9  C   UNL     1     101.034  83.734  83.265  1.00  0.00     0.006 C 
BRANCH   9  10
ATOM     10  C   UNL     1     100.015  84.425  84.180  1.00  0.00     0.053 C 
BRANCH  10  11
ATOM     11  C   UNL     1     100.130  83.903  85.577  1.00  0.00     0.041 C 
ATOM     12  O   UNL     1      99.184  84.059  86.393  1.00  0.00    -0.550 OA
ATOM     13  O   UNL     1     101.264  83.198  85.964  1.00  0.00    -0.550 OA
ENDBRANCH  10  11
ENDBRANCH   9  10
ENDBRANCH   8   9
ENDBRANCH   1   8
TORSDOF 8
ENDMDL
MODEL 8
REMARK VINA RESULT:    -3.712     16.374     17.646
REMARK INTER + INTRA:          -6.153
REMARK INTER:                  -5.770
REMARK INTRA:                  -0.383
REMARK UNBOUND:                -0.704
REMARK SMILES O=C([O-])CCCCCCCC(=O)[O-]
REMARK SMILES IDX 7 1 6 2 5 3 4 4 2 5 1 6 3 7 8 8 9 9 10 10 11 11 12 12 13 13
REMARK H PARENT
REMARK Flexibility Score: inf
ROOT
ATOM      1  C   UNL     1      99.325  83.692  81.853  1.00  0.00     0.000 C 
ENDROOT
BRANCH   1   2
ATOM      2  C   UNL     1     100.777  83.335  82.209  1.00  0.00     0.000 C 
BRANCH   2   3
ATOM      3  C   UNL     1     101.345  84.214  83.338  1.00  0.00     0.006 C 
BRANCH   3   4
ATOM      4  C   UNL     1     100.253  84.679  84.313  1.00  0.00     0.053 C 
BRANCH   4   5
ATOM      5  C   UNL     1     100.226  83.845  85.558  1.00  0.00     0.041 C 
ATOM      6  O   UNL     1     101.066  82.922  85.721  1.00  0.00    -0.550 OA
ATOM      7  O   UNL     1      99.255  84.070  86.526  1.00  0.00    -0.550 OA
ENDBRANCH   4   5
ENDBRANCH   3   4
ENDBRANCH   2   3
ENDBRANCH   1   2
BRANCH   1   8
ATOM      8  C   UNL     1      98.442  82.447  81.653  1.00  0.00     0.000 C 
BRANCH   8   9
ATOM      9  C   UNL     1      97.188  82.742  80.814  1.00  0.00     0.006 C 
BRANCH   9  10
ATOM     10  C   UNL     1      97.230  84.126  80.154  1.00  0.00     0.053 C 
BRANCH  10  11
ATOM     11  C   UNL     1      95.853  84.555  79.755  1.00  0.00     0.041 C 
ATOM     12  O   UNL     1      94.851  83.874  80.101  1.00  0.00    -0.550 OA
ATOM     13  O   UNL     1      95.672  85.734  79.043  1.00  0.00    -0.550 OA
ENDBRANCH  10  11
ENDBRANCH   9  10
ENDBRANCH   8   9
ENDBRANCH   1   8
TORSDOF 8
ENDMDL
MODEL 9
REMARK VINA RESULT:    -3.684     14.392     15.628
REMARK INTER + INTRA:          -6.111
REMARK INTER:                  -5.664
REMARK INTRA:                  -0.447
REMARK UNBOUND:                -0.704
REMARK SMILES O=C([O-])CCCCCCCC(=O)[O-]
REMARK SMILES IDX 7 1 6 2 5 3 4 4 2 5 1 6 3 7 8 8 9 9 10 10 11 11 12 12 13 13
REMARK H PARENT
REMARK Flexibility Score: inf
ROOT
ATOM      1  C   UNL     1      96.717  84.079  81.011  1.00  0.00     0.000 C 
ENDROOT
BRANCH   1   2
ATOM      2  C   UNL     1      96.751  84.987  79.771  1.00  0.00     0.000 C 
BRANCH   2   3
ATOM      3  C   UNL     1      95.407  85.018  79.022  1.00  0.00     0.006 C 
BRANCH   3   4
ATOM      4  C   UNL     1      94.212  84.863  79.972  1.00  0.00     0.053 C 
BRANCH   4   5
ATOM      5  C   UNL     1      93.393  83.651  79.645  1.00  0.00     0.041 C 
ATOM      6  O   UNL     1      93.802  82.505  79.966  1.00  0.00    -0.550 OA
ATOM      7  O   UNL     1      92.191  83.786  78.961  1.00  0.00    -0.550 OA
ENDBRANCH   4   5
ENDBRANCH   3   4
ENDBRANCH   2   3
ENDBRANCH   1   2
BRANCH   1   8
ATOM      8  C   UNL     1      97.412  82.726  80.772  1.00  0.00     0.000 C 
BRANCH   8   9
ATOM      9  C   UNL     1      98.367  82.344  81.915  1.00  0.00     0.006 C 
BRANCH   9  10
ATOM     10  C   UNL     1      99.772  82.932  81.735  1.00  0.00     0.053 C 
BRANCH  10  11
ATOM     11  C   UNL     1     100.171  83.710  82.949  1.00  0.00     0.041 C 
ATOM     12  O   UNL     1     101.385  83.957  83.173  1.00  0.00    -0.550 OA
ATOM     13  O   UNL     1      99.197  84.207  83.807  1.00  0.00    -0.550 OA
ENDBRANCH  10  11
ENDBRANCH   9  10
ENDBRANCH   8   9
ENDBRANCH   1   8
TORSDOF 8
ENDMDL
