MODEL 1
REMARK VINA RESULT:    -1.674      0.000      0.000
REMARK INTER + INTRA:          -1.912
REMARK INTER:                  -1.820
REMARK INTRA:                  -0.092
REMARK UNBOUND:                -0.092
REMARK SMILES C=C(C)[C@H]1CC[C@@H](C)[C@H](O)C1
REMARK SMILES IDX 8 1 7 2 6 3 5 4 4 5 11 6 9 7 10 8 2 10 1 11 3 12
REMARK H PARENT 10 9
REMARK Flexibility Score: inf
ROOT
ATOM      1  C   UNL     1     -42.122  22.057   5.904  1.00  0.00     0.010 C 
ATOM      2  C   UNL     1     -41.977  23.588   5.859  1.00  0.00     0.015 C 
ATOM      3  C   UNL     1     -40.781  24.026   4.987  1.00  0.00     0.006 C 
ATOM      4  C   UNL     1     -39.429  23.760   5.664  1.00  0.00     0.008 C 
ATOM      5  C   UNL     1     -39.367  24.420   7.054  1.00  0.00     0.017 C 
ATOM      6  C   UNL     1     -40.533  23.947   7.945  1.00  0.00     0.040 C 
ATOM      7  C   UNL     1     -41.899  24.205   7.281  1.00  0.00     0.117 C 
ENDROOT
BRANCH   7   8
ATOM      8  O   UNL     1     -42.125  25.590   7.217  1.00  0.00    -0.393 OA
ATOM      9  H   UNL     1     -43.078  25.738   7.451  1.00  0.00     0.210 HD
ENDBRANCH   7   8
BRANCH   5  10
ATOM     10  C   UNL     1     -38.022  24.175   7.725  1.00  0.00    -0.077 C 
ATOM     11  C   UNL     1     -37.907  23.347   8.778  1.00  0.00     0.008 C 
ATOM     12  C   UNL     1     -36.784  24.866   7.214  1.00  0.00     0.039 C 
ENDBRANCH   5  10
TORSDOF 2
ENDMDL
MODEL 2
REMARK VINA RESULT:    -0.028      1.565      4.065
REMARK INTER + INTRA:          -0.123
REMARK INTER:                  -0.032
REMARK INTRA:                  -0.091
REMARK UNBOUND:                -0.092
REMARK SMILES C=C(C)[C@H]1CC[C@@H](C)[C@H](O)C1
REMARK SMILES IDX 8 1 7 2 6 3 5 4 4 5 11 6 9 7 10 8 2 10 1 11 3 12
REMARK H PARENT 10 9
REMARK Flexibility Score: inf
ROOT
ATOM      1  C   UNL     1     -37.560  24.122   6.579  1.00  0.00     0.010 C 
ATOM      2  C   UNL     1     -38.498  24.679   7.663  1.00  0.00     0.015 C 
ATOM      3  C   UNL     1     -38.621  23.718   8.865  1.00  0.00     0.006 C 
ATOM      4  C   UNL     1     -39.471  22.481   8.544  1.00  0.00     0.008 C 
ATOM      5  C   UNL     1     -40.861  22.885   8.018  1.00  0.00     0.017 C 
ATOM      6  C   UNL     1     -40.741  23.806   6.787  1.00  0.00     0.040 C 
ATOM      7  C   UNL     1     -39.890  25.054   7.090  1.00  0.00     0.117 C 
ENDROOT
BRANCH   7   8
ATOM      8  O   UNL     1     -40.581  25.872   7.999  1.00  0.00    -0.393 OA
ATOM      9  H   UNL     1     -40.075  26.723   8.063  1.00  0.00     0.210 HD
ENDBRANCH   7   8
BRANCH   5  10
ATOM     10  C   UNL     1     -41.716  21.663   7.713  1.00  0.00    -0.077 C 
ATOM     11  C   UNL     1     -42.125  21.390   6.462  1.00  0.00     0.008 C 
ATOM     12  C   UNL     1     -42.123  20.727   8.823  1.00  0.00     0.039 C 
ENDBRANCH   5  10
TORSDOF 2
ENDMDL
MODEL 3
REMARK VINA RESULT:    -0.015      2.181      3.723
REMARK INTER + INTRA:          -0.108
REMARK INTER:                  -0.012
REMARK INTRA:                  -0.096
REMARK UNBOUND:                -0.092
REMARK SMILES C=C(C)[C@H]1CC[C@@H](C)[C@H](O)C1
REMARK SMILES IDX 8 1 7 2 6 3 5 4 4 5 11 6 9 7 10 8 2 10 1 11 3 12
REMARK H PARENT 10 9
REMARK Flexibility Score: inf
ROOT
ATOM      1  C   UNL     1     -40.271  22.104   9.120  1.00  0.00     0.010 C 
ATOM      2  C   UNL     1     -39.903  22.069   7.627  1.00  0.00     0.015 C 
ATOM      3  C   UNL     1     -38.978  23.242   7.236  1.00  0.00     0.006 C 
ATOM      4  C   UNL     1     -39.720  24.585   7.183  1.00  0.00     0.008 C 
ATOM      5  C   UNL     1     -40.937  24.508   6.243  1.00  0.00     0.017 C 
ATOM      6  C   UNL     1     -41.888  23.368   6.661  1.00  0.00     0.040 C 
ATOM      7  C   UNL     1     -41.161  22.011   6.721  1.00  0.00     0.117 C 
ENDROOT
BRANCH   7   8
ATOM      8  O   UNL     1     -40.799  21.627   5.419  1.00  0.00    -0.393 OA
ATOM      9  H   UNL     1     -41.642  21.491   4.913  1.00  0.00     0.210 HD
ENDBRANCH   7   8
BRANCH   5  10
ATOM     10  C   UNL     1     -41.668  25.842   6.172  1.00  0.00    -0.077 C 
ATOM     11  C   UNL     1     -41.921  26.560   7.280  1.00  0.00     0.008 C 
ATOM     12  C   UNL     1     -42.125  26.385   4.843  1.00  0.00     0.039 C 
ENDBRANCH   5  10
TORSDOF 2
ENDMDL
MODEL 4
REMARK VINA RESULT:     0.679      1.917      3.737
REMARK INTER + INTRA:           0.647
REMARK INTER:                   0.737
REMARK INTRA:                  -0.090
REMARK UNBOUND:                -0.092
REMARK SMILES C=C(C)[C@H]1CC[C@@H](C)[C@H](O)C1
REMARK SMILES IDX 8 1 7 2 6 3 5 4 4 5 11 6 9 7 10 8 2 10 1 11 3 12
REMARK H PARENT 10 9
REMARK Flexibility Score: inf
ROOT
ATOM      1  C   UNL     1     -38.508  23.180   7.955  1.00  0.00     0.010 C 
ATOM      2  C   UNL     1     -39.970  22.703   7.957  1.00  0.00     0.015 C 
ATOM      3  C   UNL     1     -40.495  22.455   6.527  1.00  0.00     0.006 C 
ATOM      4  C   UNL     1     -40.758  23.760   5.762  1.00  0.00     0.008 C 
ATOM      5  C   UNL     1     -41.712  24.679   6.547  1.00  0.00     0.017 C 
ATOM      6  C   UNL     1     -41.165  24.968   7.960  1.00  0.00     0.040 C 
ATOM      7  C   UNL     1     -40.895  23.669   8.743  1.00  0.00     0.117 C 
ENDROOT
BRANCH   7   8
ATOM      8  O   UNL     1     -42.119  23.040   9.027  1.00  0.00    -0.393 OA
ATOM      9  H   UNL     1     -42.818  23.526   8.517  1.00  0.00     0.210 HD
ENDBRANCH   7   8
BRANCH   5  10
ATOM     10  C   UNL     1     -41.991  25.968   5.787  1.00  0.00    -0.077 C 
ATOM     11  C   UNL     1     -42.123  27.143   6.428  1.00  0.00     0.008 C 
ATOM     12  C   UNL     1     -42.125  25.949   4.286  1.00  0.00     0.039 C 
ENDBRANCH   5  10
TORSDOF 2
ENDMDL
