MODEL 1
REMARK VINA RESULT:    -4.442      0.000      0.000
REMARK INTER + INTRA:         -12.555
REMARK INTER:                  -9.635
REMARK INTRA:                  -2.920
REMARK UNBOUND:                -2.920
REMARK SMILES CCCCCCCCCCCCCCCCCCCCCC(=O)[O-]
REMARK SMILES IDX 12 1 11 2 10 3 9 4 8 5 7 6 6 7 5 8 4 9 3 10 2 11 1 12 13 13
REMARK SMILES IDX 14 14 15 15 16 16 17 17 18 18 19 19 20 20 21 21 22 22 23 23
REMARK SMILES IDX 24 24
REMARK H PARENT
REMARK Flexibility Score: inf
ROOT
ATOM      1  C   UNL     1     -11.540  -1.399 -39.339  1.00  0.00     0.000 C 
ENDROOT
BRANCH   1   2
ATOM      2  C   UNL     1     -10.537  -2.560 -39.221  1.00  0.00     0.000 C 
BRANCH   2   3
ATOM      3  C   UNL     1      -9.458  -2.598 -40.318  1.00  0.00     0.000 C 
BRANCH   3   4
ATOM      4  C   UNL     1      -8.185  -1.829 -39.934  1.00  0.00    -0.000 C 
BRANCH   4   5
ATOM      5  C   UNL     1      -7.814  -0.811 -41.019  1.00  0.00    -0.000 C 
BRANCH   5   6
ATOM      6  C   UNL     1      -7.954   0.626 -40.500  1.00  0.00    -0.000 C 
BRANCH   6   7
ATOM      7  C   UNL     1      -8.383   0.638 -39.028  1.00  0.00    -0.000 C 
BRANCH   7   8
ATOM      8  C   UNL     1      -9.067   1.964 -38.664  1.00  0.00    -0.000 C 
BRANCH   8   9
ATOM      9  C   UNL     1     -10.296   1.771 -37.762  1.00  0.00    -0.000 C 
BRANCH   9  10
ATOM     10  C   UNL     1     -10.077   2.304 -36.337  1.00  0.00    -0.000 C 
BRANCH  10  11
ATOM     11  C   UNL     1     -10.207   1.178 -35.305  1.00  0.00    -0.003 C 
ATOM     12  C   UNL     1     -11.021   0.013 -35.861  1.00  0.00     0.004 C 
ENDBRANCH  10  11
ENDBRANCH   9  10
ENDBRANCH   8   9
ENDBRANCH   7   8
ENDBRANCH   6   7
ENDBRANCH   5   6
ENDBRANCH   4   5
ENDBRANCH   3   4
ENDBRANCH   2   3
ENDBRANCH   1   2
BRANCH   1  13
ATOM     13  C   UNL     1     -11.563  -0.766 -40.742  1.00  0.00     0.000 C 
BRANCH  13  14
ATOM     14  C   UNL     1     -12.237   0.623 -40.741  1.00  0.00     0.000 C 
BRANCH  14  15
ATOM     15  C   UNL     1     -11.375   1.724 -41.382  1.00  0.00     0.000 C 
BRANCH  15  16
ATOM     16  C   UNL     1     -12.142   3.036 -41.602  1.00  0.00     0.000 C 
BRANCH  16  17
ATOM     17  C   UNL     1     -12.094   3.916 -40.345  1.00  0.00     0.000 C 
BRANCH  17  18
ATOM     18  C   UNL     1     -13.115   5.067 -40.381  1.00  0.00     0.000 C 
BRANCH  18  19
ATOM     19  C   UNL     1     -14.349   4.819 -41.271  1.00  0.00     0.000 C 
BRANCH  19  20
ATOM     20  C   UNL     1     -15.704   4.926 -40.550  1.00  0.00     0.006 C 
BRANCH  20  21
ATOM     21  C   UNL     1     -16.899   4.844 -41.509  1.00  0.00     0.053 C 
BRANCH  21  22
ATOM     22  C   UNL     1     -17.777   3.687 -41.153  1.00  0.00     0.041 C 
ATOM     23  O   UNL     1     -18.966   3.644 -41.566  1.00  0.00    -0.550 OA
ATOM     24  O   UNL     1     -17.296   2.674 -40.330  1.00  0.00    -0.550 OA
ENDBRANCH  21  22
ENDBRANCH  20  21
ENDBRANCH  19  20
ENDBRANCH  18  19
ENDBRANCH  17  18
ENDBRANCH  16  17
ENDBRANCH  15  16
ENDBRANCH  14  15
ENDBRANCH  13  14
ENDBRANCH   1  13
TORSDOF 20
ENDMDL
MODEL 2
REMARK VINA RESULT:    -4.441      1.275      3.145
REMARK INTER + INTRA:         -12.554
REMARK INTER:                  -9.143
REMARK INTRA:                  -3.410
REMARK UNBOUND:                -2.920
REMARK SMILES CCCCCCCCCCCCCCCCCCCCCC(=O)[O-]
REMARK SMILES IDX 12 1 11 2 10 3 9 4 8 5 7 6 6 7 5 8 4 9 3 10 2 11 1 12 13 13
REMARK SMILES IDX 14 14 15 15 16 16 17 17 18 18 19 19 20 20 21 21 22 22 23 23
REMARK SMILES IDX 24 24
REMARK H PARENT
REMARK Flexibility Score: inf
ROOT
ATOM      1  C   UNL     1      -9.926   1.978 -38.371  1.00  0.00     0.000 C 
ENDROOT
BRANCH   1   2
ATOM      2  C   UNL     1      -9.872   0.661 -37.576  1.00  0.00     0.000 C 
BRANCH   2   3
ATOM      3  C   UNL     1      -8.623  -0.200 -37.833  1.00  0.00     0.000 C 
BRANCH   3   4
ATOM      4  C   UNL     1      -8.905  -1.707 -37.745  1.00  0.00    -0.000 C 
BRANCH   4   5
ATOM      5  C   UNL     1      -8.524  -2.411 -39.053  1.00  0.00    -0.000 C 
BRANCH   5   6
ATOM      6  C   UNL     1      -7.714  -1.481 -39.966  1.00  0.00    -0.000 C 
BRANCH   6   7
ATOM      7  C   UNL     1      -8.371  -1.360 -41.347  1.00  0.00    -0.000 C 
BRANCH   7   8
ATOM      8  C   UNL     1      -9.830  -1.835 -41.307  1.00  0.00    -0.000 C 
BRANCH   8   9
ATOM      9  C   UNL     1     -10.832  -0.696 -41.553  1.00  0.00    -0.000 C 
BRANCH   9  10
ATOM     10  C   UNL     1     -11.788  -0.481 -40.369  1.00  0.00    -0.000 C 
BRANCH  10  11
ATOM     11  C   UNL     1     -12.091  -1.806 -39.661  1.00  0.00    -0.003 C 
ATOM     12  C   UNL     1     -13.582  -2.129 -39.710  1.00  0.00     0.004 C 
ENDBRANCH  10  11
ENDBRANCH   9  10
ENDBRANCH   8   9
ENDBRANCH   7   8
ENDBRANCH   6   7
ENDBRANCH   5   6
ENDBRANCH   4   5
ENDBRANCH   3   4
ENDBRANCH   2   3
ENDBRANCH   1   2
BRANCH   1  13
ATOM     13  C   UNL     1      -8.981   1.985 -39.586  1.00  0.00     0.000 C 
BRANCH  13  14
ATOM     14  C   UNL     1      -9.283   3.153 -40.549  1.00  0.00     0.000 C 
BRANCH  14  15
ATOM     15  C   UNL     1     -10.078   2.730 -41.796  1.00  0.00     0.000 C 
BRANCH  15  16
ATOM     16  C   UNL     1     -11.370   3.537 -41.987  1.00  0.00     0.000 C 
BRANCH  16  17
ATOM     17  C   UNL     1     -12.427   3.131 -40.950  1.00  0.00     0.000 C 
BRANCH  17  18
ATOM     18  C   UNL     1     -12.862   4.301 -40.049  1.00  0.00     0.000 C 
BRANCH  18  19
ATOM     19  C   UNL     1     -13.682   5.399 -40.754  1.00  0.00     0.000 C 
BRANCH  19  20
ATOM     20  C   UNL     1     -14.984   4.917 -41.417  1.00  0.00     0.006 C 
BRANCH  20  21
ATOM     21  C   UNL     1     -16.187   4.952 -40.467  1.00  0.00     0.053 C 
BRANCH  21  22
ATOM     22  C   UNL     1     -17.304   4.114 -41.005  1.00  0.00     0.041 C 
ATOM     23  O   UNL     1     -17.986   4.520 -41.982  1.00  0.00    -0.550 OA
ATOM     24  O   UNL     1     -17.618   2.901 -40.401  1.00  0.00    -0.550 OA
ENDBRANCH  21  22
ENDBRANCH  20  21
ENDBRANCH  19  20
ENDBRANCH  18  19
ENDBRANCH  17  18
ENDBRANCH  16  17
ENDBRANCH  15  16
ENDBRANCH  14  15
ENDBRANCH  13  14
ENDBRANCH   1  13
TORSDOF 20
ENDMDL
MODEL 3
REMARK VINA RESULT:    -4.370      3.198      8.561
REMARK INTER + INTRA:         -12.401
REMARK INTER:                  -9.114
REMARK INTRA:                  -3.287
REMARK UNBOUND:                -2.920
REMARK SMILES CCCCCCCCCCCCCCCCCCCCCC(=O)[O-]
REMARK SMILES IDX 12 1 11 2 10 3 9 4 8 5 7 6 6 7 5 8 4 9 3 10 2 11 1 12 13 13
REMARK SMILES IDX 14 14 15 15 16 16 17 17 18 18 19 19 20 20 21 21 22 22 23 23
REMARK SMILES IDX 24 24
REMARK H PARENT
REMARK Flexibility Score: inf
ROOT
ATOM      1  C   UNL     1     -13.134   5.929 -42.744  1.00  0.00     0.000 C 
ENDROOT
BRANCH   1   2
ATOM      2  C   UNL     1     -14.492   6.223 -43.408  1.00  0.00     0.000 C 
BRANCH   2   3
ATOM      3  C   UNL     1     -15.114   5.036 -44.163  1.00  0.00     0.000 C 
BRANCH   3   4
ATOM      4  C   UNL     1     -16.616   5.216 -44.432  1.00  0.00    -0.000 C 
BRANCH   4   5
ATOM      5  C   UNL     1     -16.994   6.701 -44.444  1.00  0.00    -0.000 C 
BRANCH   5   6
ATOM      6  C   UNL     1     -18.052   7.011 -43.378  1.00  0.00    -0.000 C 
BRANCH   6   7
ATOM      7  C   UNL     1     -17.608   8.179 -42.487  1.00  0.00    -0.000 C 
BRANCH   7   8
ATOM      8  C   UNL     1     -17.227   7.687 -41.084  1.00  0.00    -0.000 C 
BRANCH   8   9
ATOM      9  C   UNL     1     -17.692   6.248 -40.812  1.00  0.00    -0.000 C 
BRANCH   9  10
ATOM     10  C   UNL     1     -16.549   5.333 -40.344  1.00  0.00    -0.000 C 
BRANCH  10  11
ATOM     11  C   UNL     1     -16.813   3.877 -40.745  1.00  0.00    -0.003 C 
ATOM     12  C   UNL     1     -18.164   3.733 -41.439  1.00  0.00     0.004 C 
ENDBRANCH  10  11
ENDBRANCH   9  10
ENDBRANCH   8   9
ENDBRANCH   7   8
ENDBRANCH   6   7
ENDBRANCH   5   6
ENDBRANCH   4   5
ENDBRANCH   3   4
ENDBRANCH   2   3
ENDBRANCH   1   2
BRANCH   1  13
ATOM     13  C   UNL     1     -12.921   4.433 -42.452  1.00  0.00     0.000 C 
BRANCH  13  14
ATOM     14  C   UNL     1     -13.063   4.108 -40.949  1.00  0.00     0.000 C 
BRANCH  14  15
ATOM     15  C   UNL     1     -12.465   5.187 -40.029  1.00  0.00     0.000 C 
BRANCH  15  16
ATOM     16  C   UNL     1     -11.706   4.601 -38.831  1.00  0.00     0.000 C 
BRANCH  16  17
ATOM     17  C   UNL     1     -10.436   3.871 -39.291  1.00  0.00     0.000 C 
BRANCH  17  18
ATOM     18  C   UNL     1     -10.432   2.380 -38.912  1.00  0.00     0.000 C 
BRANCH  18  19
ATOM     19  C   UNL     1      -9.985   1.421 -40.033  1.00  0.00     0.000 C 
BRANCH  19  20
ATOM     20  C   UNL     1     -11.035   1.164 -41.128  1.00  0.00     0.006 C 
BRANCH  20  21
ATOM     21  C   UNL     1     -11.925  -0.048 -40.829  1.00  0.00     0.053 C 
BRANCH  21  22
ATOM     22  C   UNL     1     -11.088  -1.262 -40.577  1.00  0.00     0.041 C 
ATOM     23  O   UNL     1     -11.114  -1.827 -39.452  1.00  0.00    -0.550 OA
ATOM     24  O   UNL     1     -10.245  -1.747 -41.572  1.00  0.00    -0.550 OA
ENDBRANCH  21  22
ENDBRANCH  20  21
ENDBRANCH  19  20
ENDBRANCH  18  19
ENDBRANCH  17  18
ENDBRANCH  16  17
ENDBRANCH  15  16
ENDBRANCH  14  15
ENDBRANCH  13  14
ENDBRANCH   1  13
TORSDOF 20
ENDMDL
MODEL 4
REMARK VINA RESULT:    -4.224      2.371      3.146
REMARK INTER + INTRA:         -12.082
REMARK INTER:                  -8.042
REMARK INTRA:                  -4.041
REMARK UNBOUND:                -2.920
REMARK SMILES CCCCCCCCCCCCCCCCCCCCCC(=O)[O-]
REMARK SMILES IDX 12 1 11 2 10 3 9 4 8 5 7 6 6 7 5 8 4 9 3 10 2 11 1 12 13 13
REMARK SMILES IDX 14 14 15 15 16 16 17 17 18 18 19 19 20 20 21 21 22 22 23 23
REMARK SMILES IDX 24 24
REMARK H PARENT
REMARK Flexibility Score: inf
ROOT
ATOM      1  C   UNL     1     -12.478  -1.087 -40.334  1.00  0.00     0.000 C 
ENDROOT
BRANCH   1   2
ATOM      2  C   UNL     1     -11.785  -1.590 -39.054  1.00  0.00     0.000 C 
BRANCH   2   3
ATOM      3  C   UNL     1     -10.839  -2.786 -39.258  1.00  0.00     0.000 C 
BRANCH   3   4
ATOM      4  C   UNL     1      -9.479  -2.601 -38.566  1.00  0.00    -0.000 C 
BRANCH   4   5
ATOM      5  C   UNL     1      -8.414  -2.145 -39.570  1.00  0.00    -0.000 C 
BRANCH   5   6
ATOM      6  C   UNL     1      -7.264  -1.417 -38.863  1.00  0.00    -0.000 C 
BRANCH   6   7
ATOM      7  C   UNL     1      -7.535  -1.293 -37.359  1.00  0.00    -0.000 C 
BRANCH   7   8
ATOM      8  C   UNL     1      -7.299   0.144 -36.872  1.00  0.00    -0.000 C 
BRANCH   8   9
ATOM      9  C   UNL     1      -8.306   0.580 -35.796  1.00  0.00    -0.000 C 
BRANCH   9  10
ATOM     10  C   UNL     1      -9.468  -0.413 -35.634  1.00  0.00    -0.000 C 
BRANCH  10  11
ATOM     11  C   UNL     1     -10.819   0.294 -35.792  1.00  0.00    -0.003 C 
ATOM     12  C   UNL     1     -10.772   1.706 -35.214  1.00  0.00     0.004 C 
ENDBRANCH  10  11
ENDBRANCH   9  10
ENDBRANCH   8   9
ENDBRANCH   7   8
ENDBRANCH   6   7
ENDBRANCH   5   6
ENDBRANCH   4   5
ENDBRANCH   3   4
ENDBRANCH   2   3
ENDBRANCH   1   2
BRANCH   1  13
ATOM     13  C   UNL     1     -12.022   0.323 -40.749  1.00  0.00     0.000 C 
BRANCH  13  14
ATOM     14  C   UNL     1     -10.624   0.312 -41.403  1.00  0.00     0.000 C 
BRANCH  14  15
ATOM     15  C   UNL     1      -9.602   1.207 -40.683  1.00  0.00     0.000 C 
BRANCH  15  16
ATOM     16  C   UNL     1      -9.853   1.310 -39.171  1.00  0.00     0.000 C 
BRANCH  16  17
ATOM     17  C   UNL     1      -9.585   2.735 -38.667  1.00  0.00     0.000 C 
BRANCH  17  18
ATOM     18  C   UNL     1     -10.874   3.543 -38.443  1.00  0.00     0.000 C 
BRANCH  18  19
ATOM     19  C   UNL     1     -11.337   4.385 -39.649  1.00  0.00     0.000 C 
BRANCH  19  20
ATOM     20  C   UNL     1     -12.653   3.923 -40.299  1.00  0.00     0.006 C 
BRANCH  20  21
ATOM     21  C   UNL     1     -12.554   3.800 -41.825  1.00  0.00     0.053 C 
BRANCH  21  22
ATOM     22  C   UNL     1     -13.265   4.937 -42.488  1.00  0.00     0.041 C 
ATOM     23  O   UNL     1     -13.637   5.931 -41.812  1.00  0.00    -0.550 OA
ATOM     24  O   UNL     1     -13.554   4.881 -43.847  1.00  0.00    -0.550 OA
ENDBRANCH  21  22
ENDBRANCH  20  21
ENDBRANCH  19  20
ENDBRANCH  18  19
ENDBRANCH  17  18
ENDBRANCH  16  17
ENDBRANCH  15  16
ENDBRANCH  14  15
ENDBRANCH  13  14
ENDBRANCH   1  13
TORSDOF 20
ENDMDL
MODEL 5
REMARK VINA RESULT:    -4.216      1.890      4.599
REMARK INTER + INTRA:         -12.066
REMARK INTER:                  -9.909
REMARK INTRA:                  -2.157
REMARK UNBOUND:                -2.920
REMARK SMILES CCCCCCCCCCCCCCCCCCCCCC(=O)[O-]
REMARK SMILES IDX 12 1 11 2 10 3 9 4 8 5 7 6 6 7 5 8 4 9 3 10 2 11 1 12 13 13
REMARK SMILES IDX 14 14 15 15 16 16 17 17 18 18 19 19 20 20 21 21 22 22 23 23
REMARK SMILES IDX 24 24
REMARK H PARENT
REMARK Flexibility Score: inf
ROOT
ATOM      1  C   UNL     1     -13.310   3.888 -40.580  1.00  0.00     0.000 C 
ENDROOT
BRANCH   1   2
ATOM      2  C   UNL     1     -12.042   3.528 -41.375  1.00  0.00     0.000 C 
BRANCH   2   3
ATOM      3  C   UNL     1     -11.740   2.022 -41.466  1.00  0.00     0.000 C 
BRANCH   3   4
ATOM      4  C   UNL     1     -10.275   1.683 -41.153  1.00  0.00    -0.000 C 
BRANCH   4   5
ATOM      5  C   UNL     1      -9.868   2.235 -39.782  1.00  0.00    -0.000 C 
BRANCH   5   6
ATOM      6  C   UNL     1      -9.372   1.115 -38.860  1.00  0.00    -0.000 C 
BRANCH   6   7
ATOM      7  C   UNL     1     -10.513   0.155 -38.500  1.00  0.00    -0.000 C 
BRANCH   7   8
ATOM      8  C   UNL     1     -10.055  -1.307 -38.598  1.00  0.00    -0.000 C 
BRANCH   8   9
ATOM      9  C   UNL     1     -10.988  -2.166 -39.464  1.00  0.00    -0.000 C 
BRANCH   9  10
ATOM     10  C   UNL     1     -12.144  -1.357 -40.073  1.00  0.00    -0.000 C 
BRANCH  10  11
ATOM     11  C   UNL     1     -13.499  -1.909 -39.617  1.00  0.00    -0.003 C 
ATOM     12  C   UNL     1     -14.645  -1.271 -40.397  1.00  0.00     0.004 C 
ENDBRANCH  10  11
ENDBRANCH   9  10
ENDBRANCH   8   9
ENDBRANCH   7   8
ENDBRANCH   6   7
ENDBRANCH   5   6
ENDBRANCH   4   5
ENDBRANCH   3   4
ENDBRANCH   2   3
ENDBRANCH   1   2
BRANCH   1  13
ATOM     13  C   UNL     1     -13.947   5.214 -41.034  1.00  0.00     0.000 C 
BRANCH  13  14
ATOM     14  C   UNL     1     -13.748   5.467 -42.543  1.00  0.00     0.000 C 
BRANCH  14  15
ATOM     15  C   UNL     1     -14.058   6.912 -42.970  1.00  0.00     0.000 C 
BRANCH  15  16
ATOM     16  C   UNL     1     -14.041   7.901 -41.796  1.00  0.00     0.000 C 
BRANCH  16  17
ATOM     17  C   UNL     1     -15.382   8.640 -41.682  1.00  0.00     0.000 C 
BRANCH  17  18
ATOM     18  C   UNL     1     -16.532   7.904 -42.390  1.00  0.00     0.000 C 
BRANCH  18  19
ATOM     19  C   UNL     1     -17.777   7.644 -41.519  1.00  0.00     0.000 C 
BRANCH  19  20
ATOM     20  C   UNL     1     -18.254   6.181 -41.483  1.00  0.00     0.006 C 
BRANCH  20  21
ATOM     21  C   UNL     1     -17.323   5.270 -40.673  1.00  0.00     0.053 C 
BRANCH  21  22
ATOM     22  C   UNL     1     -17.636   3.832 -40.942  1.00  0.00     0.041 C 
ATOM     23  O   UNL     1     -18.499   3.523 -41.805  1.00  0.00    -0.550 OA
ATOM     24  O   UNL     1     -17.004   2.832 -40.211  1.00  0.00    -0.550 OA
ENDBRANCH  21  22
ENDBRANCH  20  21
ENDBRANCH  19  20
ENDBRANCH  18  19
ENDBRANCH  17  18
ENDBRANCH  16  17
ENDBRANCH  15  16
ENDBRANCH  14  15
ENDBRANCH  13  14
ENDBRANCH   1  13
TORSDOF 20
ENDMDL
MODEL 6
REMARK VINA RESULT:    -4.167      2.249      6.692
REMARK INTER + INTRA:         -11.959
REMARK INTER:                  -9.169
REMARK INTRA:                  -2.790
REMARK UNBOUND:                -2.920
REMARK SMILES CCCCCCCCCCCCCCCCCCCCCC(=O)[O-]
REMARK SMILES IDX 12 1 11 2 10 3 9 4 8 5 7 6 6 7 5 8 4 9 3 10 2 11 1 12 13 13
REMARK SMILES IDX 14 14 15 15 16 16 17 17 18 18 19 19 20 20 21 21 22 22 23 23
REMARK SMILES IDX 24 24
REMARK H PARENT
REMARK Flexibility Score: inf
ROOT
ATOM      1  C   UNL     1     -10.901   3.626 -38.132  1.00  0.00     0.000 C 
ENDROOT
BRANCH   1   2
ATOM      2  C   UNL     1     -10.828   2.552 -39.232  1.00  0.00     0.000 C 
BRANCH   2   3
ATOM      3  C   UNL     1      -9.763   2.803 -40.313  1.00  0.00     0.000 C 
BRANCH   3   4
ATOM      4  C   UNL     1     -10.361   2.972 -41.718  1.00  0.00    -0.000 C 
BRANCH   4   5
ATOM      5  C   UNL     1     -10.406   4.451 -42.119  1.00  0.00    -0.000 C 
BRANCH   5   6
ATOM      6  C   UNL     1     -11.747   5.088 -41.734  1.00  0.00    -0.000 C 
BRANCH   6   7
ATOM      7  C   UNL     1     -12.903   4.103 -41.950  1.00  0.00    -0.000 C 
BRANCH   7   8
ATOM      8  C   UNL     1     -13.836   4.073 -40.731  1.00  0.00    -0.000 C 
BRANCH   8   9
ATOM      9  C   UNL     1     -14.832   5.241 -40.715  1.00  0.00    -0.000 C 
BRANCH   9  10
ATOM     10  C   UNL     1     -16.034   5.010 -41.645  1.00  0.00    -0.000 C 
BRANCH  10  11
ATOM     11  C   UNL     1     -17.315   4.776 -40.837  1.00  0.00    -0.003 C 
ATOM     12  C   UNL     1     -17.970   3.451 -41.216  1.00  0.00     0.004 C 
ENDBRANCH  10  11
ENDBRANCH   9  10
ENDBRANCH   8   9
ENDBRANCH   7   8
ENDBRANCH   6   7
ENDBRANCH   5   6
ENDBRANCH   4   5
ENDBRANCH   3   4
ENDBRANCH   2   3
ENDBRANCH   1   2
BRANCH   1  13
ATOM     13  C   UNL     1      -9.592   3.756 -37.332  1.00  0.00     0.000 C 
BRANCH  13  14
ATOM     14  C   UNL     1      -9.319   2.512 -36.460  1.00  0.00     0.000 C 
BRANCH  14  15
ATOM     15  C   UNL     1     -10.562   2.001 -35.712  1.00  0.00     0.000 C 
BRANCH  15  16
ATOM     16  C   UNL     1     -10.716   0.474 -35.775  1.00  0.00     0.000 C 
BRANCH  16  17
ATOM     17  C   UNL     1      -9.846  -0.118 -36.892  1.00  0.00     0.000 C 
BRANCH  17  18
ATOM     18  C   UNL     1     -10.649  -0.985 -37.878  1.00  0.00     0.000 C 
BRANCH  18  19
ATOM     19  C   UNL     1     -10.137  -0.966 -39.332  1.00  0.00     0.000 C 
BRANCH  19  20
ATOM     20  C   UNL     1     -11.152  -1.439 -40.387  1.00  0.00     0.006 C 
BRANCH  20  21
ATOM     21  C   UNL     1     -12.445  -0.614 -40.384  1.00  0.00     0.053 C 
BRANCH  21  22
ATOM     22  C   UNL     1     -13.623  -1.489 -40.087  1.00  0.00     0.041 C 
ATOM     23  O   UNL     1     -14.762  -1.188 -40.531  1.00  0.00    -0.550 OA
ATOM     24  O   UNL     1     -13.470  -2.614 -39.284  1.00  0.00    -0.550 OA
ENDBRANCH  21  22
ENDBRANCH  20  21
ENDBRANCH  19  20
ENDBRANCH  18  19
ENDBRANCH  17  18
ENDBRANCH  16  17
ENDBRANCH  15  16
ENDBRANCH  14  15
ENDBRANCH  13  14
ENDBRANCH   1  13
TORSDOF 20
ENDMDL
MODEL 7
REMARK VINA RESULT:    -4.148      1.414      3.407
REMARK INTER + INTRA:         -11.918
REMARK INTER:                  -9.246
REMARK INTRA:                  -2.672
REMARK UNBOUND:                -2.920
REMARK SMILES CCCCCCCCCCCCCCCCCCCCCC(=O)[O-]
REMARK SMILES IDX 12 1 11 2 10 3 9 4 8 5 7 6 6 7 5 8 4 9 3 10 2 11 1 12 13 13
REMARK SMILES IDX 14 14 15 15 16 16 17 17 18 18 19 19 20 20 21 21 22 22 23 23
REMARK SMILES IDX 24 24
REMARK H PARENT
REMARK Flexibility Score: inf
ROOT
ATOM      1  C   UNL     1      -8.572   2.968 -40.015  1.00  0.00     0.000 C 
ENDROOT
BRANCH   1   2
ATOM      2  C   UNL     1      -9.158   1.762 -40.771  1.00  0.00     0.000 C 
BRANCH   2   3
ATOM      3  C   UNL     1     -10.489   2.035 -41.492  1.00  0.00     0.000 C 
BRANCH   3   4
ATOM      4  C   UNL     1     -11.657   1.210 -40.930  1.00  0.00    -0.000 C 
BRANCH   4   5
ATOM      5  C   UNL     1     -11.375  -0.292 -41.057  1.00  0.00    -0.000 C 
BRANCH   5   6
ATOM      6  C   UNL     1     -12.449  -1.119 -40.338  1.00  0.00    -0.000 C 
BRANCH   6   7
ATOM      7  C   UNL     1     -11.846  -1.894 -39.159  1.00  0.00    -0.000 C 
BRANCH   7   8
ATOM      8  C   UNL     1     -10.344  -1.609 -39.023  1.00  0.00    -0.000 C 
BRANCH   8   9
ATOM      9  C   UNL     1      -9.949  -1.166 -37.606  1.00  0.00    -0.000 C 
BRANCH   9  10
ATOM     10  C   UNL     1     -10.437   0.252 -37.270  1.00  0.00    -0.000 C 
BRANCH  10  11
ATOM     11  C   UNL     1     -10.909   0.339 -35.815  1.00  0.00    -0.003 C 
ATOM     12  C   UNL     1     -10.574   1.699 -35.207  1.00  0.00     0.004 C 
ENDBRANCH  10  11
ENDBRANCH   9  10
ENDBRANCH   8   9
ENDBRANCH   7   8
ENDBRANCH   6   7
ENDBRANCH   5   6
ENDBRANCH   4   5
ENDBRANCH   3   4
ENDBRANCH   2   3
ENDBRANCH   1   2
BRANCH   1  13
ATOM     13  C   UNL     1      -8.950   2.983 -38.523  1.00  0.00     0.000 C 
BRANCH  13  14
ATOM     14  C   UNL     1      -9.711   4.267 -38.130  1.00  0.00     0.000 C 
BRANCH  14  15
ATOM     15  C   UNL     1     -11.199   4.243 -38.519  1.00  0.00     0.000 C 
BRANCH  15  16
ATOM     16  C   UNL     1     -11.624   5.467 -39.343  1.00  0.00     0.000 C 
BRANCH  16  17
ATOM     17  C   UNL     1     -12.081   5.049 -40.748  1.00  0.00     0.000 C 
BRANCH  17  18
ATOM     18  C   UNL     1     -13.459   4.364 -40.750  1.00  0.00     0.000 C 
BRANCH  18  19
ATOM     19  C   UNL     1     -14.666   5.322 -40.746  1.00  0.00     0.000 C 
BRANCH  19  20
ATOM     20  C   UNL     1     -16.043   4.637 -40.803  1.00  0.00     0.006 C 
BRANCH  20  21
ATOM     21  C   UNL     1     -16.898   5.112 -41.984  1.00  0.00     0.053 C 
BRANCH  21  22
ATOM     22  C   UNL     1     -18.348   4.864 -41.713  1.00  0.00     0.041 C 
ATOM     23  O   UNL     1     -19.145   5.832 -41.599  1.00  0.00    -0.550 OA
ATOM     24  O   UNL     1     -18.813   3.565 -41.543  1.00  0.00    -0.550 OA
ENDBRANCH  21  22
ENDBRANCH  20  21
ENDBRANCH  19  20
ENDBRANCH  18  19
ENDBRANCH  17  18
ENDBRANCH  16  17
ENDBRANCH  15  16
ENDBRANCH  14  15
ENDBRANCH  13  14
ENDBRANCH   1  13
TORSDOF 20
ENDMDL
MODEL 8
REMARK VINA RESULT:    -4.080      1.591      2.296
REMARK INTER + INTRA:         -11.771
REMARK INTER:                  -8.280
REMARK INTRA:                  -3.491
REMARK UNBOUND:                -2.920
REMARK SMILES CCCCCCCCCCCCCCCCCCCCCC(=O)[O-]
REMARK SMILES IDX 12 1 11 2 10 3 9 4 8 5 7 6 6 7 5 8 4 9 3 10 2 11 1 12 13 13
REMARK SMILES IDX 14 14 15 15 16 16 17 17 18 18 19 19 20 20 21 21 22 22 23 23
REMARK SMILES IDX 24 24
REMARK H PARENT
REMARK Flexibility Score: inf
ROOT
ATOM      1  C   UNL     1     -12.269   0.064 -40.772  1.00  0.00     0.000 C 
ENDROOT
BRANCH   1   2
ATOM      2  C   UNL     1     -11.043  -0.569 -40.089  1.00  0.00     0.000 C 
BRANCH   2   3
ATOM      3  C   UNL     1     -10.490  -1.824 -40.787  1.00  0.00     0.000 C 
BRANCH   3   4
ATOM      4  C   UNL     1      -9.229  -1.542 -41.619  1.00  0.00    -0.000 C 
BRANCH   4   5
ATOM      5  C   UNL     1      -8.006  -1.361 -40.712  1.00  0.00    -0.000 C 
BRANCH   5   6
ATOM      6  C   UNL     1      -7.422   0.050 -40.848  1.00  0.00    -0.000 C 
BRANCH   6   7
ATOM      7  C   UNL     1      -7.413   0.773 -39.495  1.00  0.00    -0.000 C 
BRANCH   7   8
ATOM      8  C   UNL     1      -7.803  -0.182 -38.358  1.00  0.00    -0.000 C 
BRANCH   8   9
ATOM      9  C   UNL     1      -8.830   0.430 -37.393  1.00  0.00    -0.000 C 
BRANCH   9  10
ATOM     10  C   UNL     1      -9.707  -0.631 -36.708  1.00  0.00    -0.000 C 
BRANCH  10  11
ATOM     11  C   UNL     1     -10.896   0.020 -35.993  1.00  0.00    -0.003 C 
ATOM     12  C   UNL     1     -10.561   1.440 -35.546  1.00  0.00     0.004 C 
ENDBRANCH  10  11
ENDBRANCH   9  10
ENDBRANCH   8   9
ENDBRANCH   7   8
ENDBRANCH   6   7
ENDBRANCH   5   6
ENDBRANCH   4   5
ENDBRANCH   3   4
ENDBRANCH   2   3
ENDBRANCH   1   2
BRANCH   1  13
ATOM     13  C   UNL     1     -12.074   1.557 -41.089  1.00  0.00     0.000 C 
BRANCH  13  14
ATOM     14  C   UNL     1     -10.587   1.919 -41.293  1.00  0.00     0.000 C 
BRANCH  14  15
ATOM     15  C   UNL     1     -10.087   3.020 -40.342  1.00  0.00     0.000 C 
BRANCH  15  16
ATOM     16  C   UNL     1     -10.782   2.994 -38.973  1.00  0.00     0.000 C 
BRANCH  16  17
ATOM     17  C   UNL     1     -11.378   4.367 -38.635  1.00  0.00     0.000 C 
BRANCH  17  18
ATOM     18  C   UNL     1     -11.218   5.387 -39.776  1.00  0.00     0.000 C 
BRANCH  18  19
ATOM     19  C   UNL     1     -12.538   5.924 -40.364  1.00  0.00     0.000 C 
BRANCH  19  20
ATOM     20  C   UNL     1     -13.568   4.847 -40.744  1.00  0.00     0.006 C 
BRANCH  20  21
ATOM     21  C   UNL     1     -14.228   5.106 -42.105  1.00  0.00     0.053 C 
BRANCH  21  22
ATOM     22  C   UNL     1     -15.652   5.528 -41.924  1.00  0.00     0.041 C 
ATOM     23  O   UNL     1     -15.931   6.519 -41.200  1.00  0.00    -0.550 OA
ATOM     24  O   UNL     1     -16.676   4.800 -42.521  1.00  0.00    -0.550 OA
ENDBRANCH  21  22
ENDBRANCH  20  21
ENDBRANCH  19  20
ENDBRANCH  18  19
ENDBRANCH  17  18
ENDBRANCH  16  17
ENDBRANCH  15  16
ENDBRANCH  14  15
ENDBRANCH  13  14
ENDBRANCH   1  13
TORSDOF 20
ENDMDL
MODEL 9
REMARK VINA RESULT:    -4.065      2.182      6.692
REMARK INTER + INTRA:         -11.737
REMARK INTER:                  -9.145
REMARK INTRA:                  -2.592
REMARK UNBOUND:                -2.920
REMARK SMILES CCCCCCCCCCCCCCCCCCCCCC(=O)[O-]
REMARK SMILES IDX 12 1 11 2 10 3 9 4 8 5 7 6 6 7 5 8 4 9 3 10 2 11 1 12 13 13
REMARK SMILES IDX 14 14 15 15 16 16 17 17 18 18 19 19 20 20 21 21 22 22 23 23
REMARK SMILES IDX 24 24
REMARK H PARENT
REMARK Flexibility Score: inf
ROOT
ATOM      1  C   UNL     1     -10.222   0.102 -36.912  1.00  0.00     0.000 C 
ENDROOT
BRANCH   1   2
ATOM      2  C   UNL     1     -10.261   1.514 -37.522  1.00  0.00     0.000 C 
BRANCH   2   3
ATOM      3  C   UNL     1      -9.218   1.774 -38.623  1.00  0.00     0.000 C 
BRANCH   3   4
ATOM      4  C   UNL     1      -9.845   1.963 -40.013  1.00  0.00    -0.000 C 
BRANCH   4   5
ATOM      5  C   UNL     1     -10.698   3.236 -40.059  1.00  0.00    -0.000 C 
BRANCH   5   6
ATOM      6  C   UNL     1     -12.153   2.914 -40.420  1.00  0.00    -0.000 C 
BRANCH   6   7
ATOM      7  C   UNL     1     -12.710   3.938 -41.418  1.00  0.00    -0.000 C 
BRANCH   7   8
ATOM      8  C   UNL     1     -13.824   4.779 -40.780  1.00  0.00    -0.000 C 
BRANCH   8   9
ATOM      9  C   UNL     1     -14.914   5.182 -41.785  1.00  0.00    -0.000 C 
BRANCH   9  10
ATOM     10  C   UNL     1     -16.291   5.363 -41.126  1.00  0.00    -0.000 C 
BRANCH  10  11
ATOM     11  C   UNL     1     -16.861   4.017 -40.666  1.00  0.00    -0.003 C 
ATOM     12  C   UNL     1     -18.131   3.665 -41.434  1.00  0.00     0.004 C 
ENDBRANCH  10  11
ENDBRANCH   9  10
ENDBRANCH   8   9
ENDBRANCH   7   8
ENDBRANCH   6   7
ENDBRANCH   5   6
ENDBRANCH   4   5
ENDBRANCH   3   4
ENDBRANCH   2   3
ENDBRANCH   1   2
BRANCH   1  13
ATOM     13  C   UNL     1      -8.803  -0.338 -36.508  1.00  0.00     0.000 C 
BRANCH  13  14
ATOM     14  C   UNL     1      -8.616  -1.866 -36.616  1.00  0.00     0.000 C 
BRANCH  14  15
ATOM     15  C   UNL     1      -7.322  -2.277 -37.339  1.00  0.00     0.000 C 
BRANCH  15  16
ATOM     16  C   UNL     1      -7.278  -1.814 -38.802  1.00  0.00     0.000 C 
BRANCH  16  17
ATOM     17  C   UNL     1      -8.514  -2.306 -39.569  1.00  0.00     0.000 C 
BRANCH  17  18
ATOM     18  C   UNL     1      -8.764  -1.520 -40.868  1.00  0.00     0.000 C 
BRANCH  18  19
ATOM     19  C   UNL     1     -10.245  -1.380 -41.273  1.00  0.00     0.000 C 
BRANCH  19  20
ATOM     20  C   UNL     1     -11.253  -1.527 -40.119  1.00  0.00     0.006 C 
BRANCH  20  21
ATOM     21  C   UNL     1     -12.573  -0.793 -40.383  1.00  0.00     0.053 C 
BRANCH  21  22
ATOM     22  C   UNL     1     -13.736  -1.661 -40.017  1.00  0.00     0.041 C 
ATOM     23  O   UNL     1     -13.561  -2.687 -39.309  1.00  0.00    -0.550 OA
ATOM     24  O   UNL     1     -15.008  -1.360 -40.493  1.00  0.00    -0.550 OA
ENDBRANCH  21  22
ENDBRANCH  20  21
ENDBRANCH  19  20
ENDBRANCH  18  19
ENDBRANCH  17  18
ENDBRANCH  16  17
ENDBRANCH  15  16
ENDBRANCH  14  15
ENDBRANCH  13  14
ENDBRANCH   1  13
TORSDOF 20
ENDMDL
