MODEL 1
REMARK VINA RESULT:    -6.063      0.000      0.000
REMARK INTER + INTRA:          -8.866
REMARK INTER:                  -8.189
REMARK INTRA:                  -0.676
REMARK UNBOUND:                -0.676
REMARK SMILES CC(=O)CCC=C(C)CCC=C(C)C
REMARK SMILES IDX 7 1 6 2 8 3 9 4 10 5 11 6 13 7 12 8 14 9 5 10 4 11 2 12 3 13
REMARK SMILES IDX 1 14
REMARK H PARENT
REMARK Flexibility Score: inf
ROOT
ATOM      1  C   UNL     1      10.756  31.152  74.270  1.00  0.00    -0.077 C 
ATOM      2  C   UNL     1       9.893  30.115  74.366  1.00  0.00    -0.028 C 
ATOM      3  C   UNL     1      10.884  32.086  75.445  1.00  0.00     0.039 C 
ENDROOT
BRANCH   1   4
ATOM      4  C   UNL     1      11.631  31.391  73.050  1.00  0.00     0.034 C 
BRANCH   4   5
ATOM      5  C   UNL     1      11.959  32.879  72.862  1.00  0.00     0.032 C 
BRANCH   5   6
ATOM      6  C   UNL     1      10.877  33.608  72.104  1.00  0.00    -0.028 C 
ATOM      7  C   UNL     1      11.610  35.868  72.896  1.00  0.00     0.039 C 
ATOM      8  C   UNL     1      10.694  34.948  72.128  1.00  0.00    -0.080 C 
ATOM      9  C   UNL     1       9.546  35.563  71.370  1.00  0.00     0.039 C 
ENDBRANCH   5   6
ENDBRANCH   4   5
ENDBRANCH   1   4
BRANCH   2  10
ATOM     10  C   UNL     1       9.654  29.109  73.263  1.00  0.00     0.035 C 
BRANCH  10  11
ATOM     11  C   UNL     1       9.563  27.675  73.799  1.00  0.00     0.079 C 
BRANCH  11  12
ATOM     12  C   UNL     1      10.880  27.201  74.358  1.00  0.00     0.130 C 
ATOM     13  O   UNL     1      10.891  26.465  75.333  1.00  0.00    -0.300 OA
ATOM     14  C   UNL     1      12.184  27.605  73.734  1.00  0.00     0.087 C 
ENDBRANCH  11  12
ENDBRANCH  10  11
ENDBRANCH   2  10
TORSDOF 6
ENDMDL
MODEL 2
REMARK VINA RESULT:    -6.028      1.505      1.870
REMARK INTER + INTRA:          -8.819
REMARK INTER:                  -8.059
REMARK INTRA:                  -0.760
REMARK UNBOUND:                -0.676
REMARK SMILES CC(=O)CCC=C(C)CCC=C(C)C
REMARK SMILES IDX 7 1 6 2 8 3 9 4 10 5 11 6 13 7 12 8 14 9 5 10 4 11 2 12 3 13
REMARK SMILES IDX 1 14
REMARK H PARENT
REMARK Flexibility Score: inf
ROOT
ATOM      1  C   UNL     1      10.842  31.770  74.421  1.00  0.00    -0.077 C 
ATOM      2  C   UNL     1       9.968  30.738  74.421  1.00  0.00    -0.028 C 
ATOM      3  C   UNL     1      11.119  32.472  75.724  1.00  0.00     0.039 C 
ENDROOT
BRANCH   1   4
ATOM      4  C   UNL     1      11.589  32.224  73.176  1.00  0.00     0.034 C 
BRANCH   4   5
ATOM      5  C   UNL     1      10.840  33.340  72.433  1.00  0.00     0.032 C 
BRANCH   5   6
ATOM      6  C   UNL     1      11.385  34.708  72.765  1.00  0.00    -0.028 C 
ATOM      7  C   UNL     1       9.728  35.904  71.317  1.00  0.00     0.039 C 
ATOM      8  C   UNL     1      10.911  35.866  72.254  1.00  0.00    -0.080 C 
ATOM      9  C   UNL     1      11.567  37.172  72.619  1.00  0.00     0.039 C 
ENDBRANCH   5   6
ENDBRANCH   4   5
ENDBRANCH   1   4
BRANCH   2  10
ATOM     10  C   UNL     1       9.587  29.953  73.186  1.00  0.00     0.035 C 
BRANCH  10  11
ATOM     11  C   UNL     1      10.187  28.541  73.192  1.00  0.00     0.079 C 
BRANCH  11  12
ATOM     12  C   UNL     1      11.636  28.547  72.777  1.00  0.00     0.130 C 
ATOM     13  O   UNL     1      11.956  29.058  71.715  1.00  0.00    -0.300 OA
ATOM     14  C   UNL     1      12.701  27.947  73.648  1.00  0.00     0.087 C 
ENDBRANCH  11  12
ENDBRANCH  10  11
ENDBRANCH   2  10
TORSDOF 6
ENDMDL
MODEL 3
REMARK VINA RESULT:    -5.994      2.013      3.471
REMARK INTER + INTRA:          -8.773
REMARK INTER:                  -7.639
REMARK INTRA:                  -1.134
REMARK UNBOUND:                -0.676
REMARK SMILES CC(=O)CCC=C(C)CCC=C(C)C
REMARK SMILES IDX 7 1 6 2 8 3 9 4 10 5 11 6 13 7 12 8 14 9 5 10 4 11 2 12 3 13
REMARK SMILES IDX 1 14
REMARK H PARENT
REMARK Flexibility Score: inf
ROOT
ATOM      1  C   UNL     1      10.967  28.810  72.772  1.00  0.00    -0.077 C 
ATOM      2  C   UNL     1      11.300  27.891  73.707  1.00  0.00    -0.028 C 
ATOM      3  C   UNL     1      12.051  29.332  71.865  1.00  0.00     0.039 C 
ENDROOT
BRANCH   1   4
ATOM      4  C   UNL     1       9.545  29.308  72.569  1.00  0.00     0.034 C 
BRANCH   4   5
ATOM      5  C   UNL     1       9.438  30.829  72.748  1.00  0.00     0.032 C 
BRANCH   5   6
ATOM      6  C   UNL     1       9.817  31.266  74.142  1.00  0.00    -0.028 C 
ATOM      7  C   UNL     1      11.704  32.714  73.356  1.00  0.00     0.039 C 
ATOM      8  C   UNL     1      10.846  32.093  74.432  1.00  0.00    -0.080 C 
ATOM      9  C   UNL     1      11.164  32.422  75.867  1.00  0.00     0.039 C 
ENDBRANCH   5   6
ENDBRANCH   4   5
ENDBRANCH   1   4
BRANCH   2  10
ATOM     10  C   UNL     1      10.321  27.292  74.690  1.00  0.00     0.035 C 
BRANCH  10  11
ATOM     11  C   UNL     1      10.372  25.759  74.695  1.00  0.00     0.079 C 
BRANCH  11  12
ATOM     12  C   UNL     1       9.874  25.179  73.397  1.00  0.00     0.130 C 
ATOM     13  O   UNL     1      10.475  24.247  72.884  1.00  0.00    -0.300 OA
ATOM     14  C   UNL     1       8.644  25.713  72.722  1.00  0.00     0.087 C 
ENDBRANCH  11  12
ENDBRANCH  10  11
ENDBRANCH   2  10
TORSDOF 6
ENDMDL
MODEL 4
REMARK VINA RESULT:    -5.972      3.128      6.517
REMARK INTER + INTRA:          -8.743
REMARK INTER:                  -7.800
REMARK INTRA:                  -0.942
REMARK UNBOUND:                -0.676
REMARK SMILES CC(=O)CCC=C(C)CCC=C(C)C
REMARK SMILES IDX 7 1 6 2 8 3 9 4 10 5 11 6 13 7 12 8 14 9 5 10 4 11 2 12 3 13
REMARK SMILES IDX 1 14
REMARK H PARENT
REMARK Flexibility Score: inf
ROOT
ATOM      1  C   UNL     1      10.346  31.744  73.671  1.00  0.00    -0.077 C 
ATOM      2  C   UNL     1      11.167  32.759  74.023  1.00  0.00    -0.028 C 
ATOM      3  C   UNL     1       9.545  31.065  74.750  1.00  0.00     0.039 C 
ENDROOT
BRANCH   1   4
ATOM      4  C   UNL     1      10.165  31.286  72.232  1.00  0.00     0.034 C 
BRANCH   4   5
ATOM      5  C   UNL     1      10.212  29.756  72.106  1.00  0.00     0.032 C 
BRANCH   5   6
ATOM      6  C   UNL     1      11.574  29.200  72.442  1.00  0.00    -0.028 C 
ATOM      7  C   UNL     1      10.688  27.617  74.169  1.00  0.00     0.039 C 
ATOM      8  C   UNL     1      11.806  28.256  73.382  1.00  0.00    -0.080 C 
ATOM      9  C   UNL     1      13.216  27.811  73.667  1.00  0.00     0.039 C 
ENDBRANCH   5   6
ENDBRANCH   4   5
ENDBRANCH   1   4
BRANCH   2  10
ATOM     10  C   UNL     1      12.037  33.520  73.049  1.00  0.00     0.035 C 
BRANCH  10  11
ATOM     11  C   UNL     1      11.948  35.037  73.259  1.00  0.00     0.079 C 
BRANCH  11  12
ATOM     12  C   UNL     1      11.148  35.706  72.170  1.00  0.00     0.130 C 
ATOM     13  O   UNL     1      11.589  36.709  71.630  1.00  0.00    -0.300 OA
ATOM     14  C   UNL     1       9.823  35.160  71.725  1.00  0.00     0.087 C 
ENDBRANCH  11  12
ENDBRANCH  10  11
ENDBRANCH   2  10
TORSDOF 6
ENDMDL
MODEL 5
REMARK VINA RESULT:    -5.911      2.971      6.695
REMARK INTER + INTRA:          -8.661
REMARK INTER:                  -8.063
REMARK INTRA:                  -0.597
REMARK UNBOUND:                -0.676
REMARK SMILES CC(=O)CCC=C(C)CCC=C(C)C
REMARK SMILES IDX 7 1 6 2 8 3 9 4 10 5 11 6 13 7 12 8 14 9 5 10 4 11 2 12 3 13
REMARK SMILES IDX 1 14
REMARK H PARENT
REMARK Flexibility Score: inf
ROOT
ATOM      1  C   UNL     1      11.419  30.525  72.546  1.00  0.00    -0.077 C 
ATOM      2  C   UNL     1      11.082  31.753  72.091  1.00  0.00    -0.028 C 
ATOM      3  C   UNL     1      11.885  29.497  71.549  1.00  0.00     0.039 C 
ENDROOT
BRANCH   1   4
ATOM      4  C   UNL     1      11.389  30.150  74.019  1.00  0.00     0.034 C 
BRANCH   4   5
ATOM      5  C   UNL     1       9.992  29.700  74.469  1.00  0.00     0.032 C 
BRANCH   5   6
ATOM      6  C   UNL     1       9.457  28.573  73.619  1.00  0.00    -0.028 C 
ATOM      7  C   UNL     1      10.431  26.786  75.077  1.00  0.00     0.039 C 
ATOM      8  C   UNL     1       9.665  27.261  73.867  1.00  0.00    -0.080 C 
ATOM      9  C   UNL     1       9.124  26.222  72.919  1.00  0.00     0.039 C 
ENDBRANCH   5   6
ENDBRANCH   4   5
ENDBRANCH   1   4
BRANCH   2  10
ATOM     10  C   UNL     1      10.587  32.876  72.975  1.00  0.00     0.035 C 
BRANCH  10  11
ATOM     11  C   UNL     1      11.657  33.953  73.194  1.00  0.00     0.079 C 
BRANCH  11  12
ATOM     12  C   UNL     1      11.215  35.295  72.670  1.00  0.00     0.130 C 
ATOM     13  O   UNL     1      11.903  36.281  72.885  1.00  0.00    -0.300 OA
ATOM     14  C   UNL     1       9.950  35.447  71.876  1.00  0.00     0.087 C 
ENDBRANCH  11  12
ENDBRANCH  10  11
ENDBRANCH   2  10
TORSDOF 6
ENDMDL
MODEL 6
REMARK VINA RESULT:    -5.827      2.810      7.144
REMARK INTER + INTRA:          -8.547
REMARK INTER:                  -7.822
REMARK INTRA:                  -0.726
REMARK UNBOUND:                -0.676
REMARK SMILES CC(=O)CCC=C(C)CCC=C(C)C
REMARK SMILES IDX 7 1 6 2 8 3 9 4 10 5 11 6 13 7 12 8 14 9 5 10 4 11 2 12 3 13
REMARK SMILES IDX 1 14
REMARK H PARENT
REMARK Flexibility Score: inf
ROOT
ATOM      1  C   UNL     1      11.803  27.976  73.691  1.00  0.00    -0.077 C 
ATOM      2  C   UNL     1      12.010  28.949  72.774  1.00  0.00    -0.028 C 
ATOM      3  C   UNL     1      12.955  27.072  74.046  1.00  0.00     0.039 C 
ENDROOT
BRANCH   1   4
ATOM      4  C   UNL     1      10.477  27.782  74.408  1.00  0.00     0.034 C 
BRANCH   4   5
ATOM      5  C   UNL     1       9.543  26.835  73.641  1.00  0.00     0.032 C 
BRANCH   5   6
ATOM      6  C   UNL     1       9.662  25.409  74.120  1.00  0.00    -0.028 C 
ATOM      7  C   UNL     1       8.361  24.475  72.194  1.00  0.00     0.039 C 
ATOM      8  C   UNL     1       9.117  24.342  73.493  1.00  0.00    -0.080 C 
ATOM      9  C   UNL     1       9.258  22.966  74.092  1.00  0.00     0.039 C 
ENDBRANCH   5   6
ENDBRANCH   4   5
ENDBRANCH   1   4
BRANCH   2  10
ATOM     10  C   UNL     1      10.944  29.918  72.314  1.00  0.00     0.035 C 
BRANCH  10  11
ATOM     11  C   UNL     1      11.364  31.379  72.520  1.00  0.00     0.079 C 
BRANCH  11  12
ATOM     12  C   UNL     1      10.873  31.922  73.837  1.00  0.00     0.130 C 
ATOM     13  O   UNL     1      11.462  32.856  74.360  1.00  0.00    -0.300 OA
ATOM     14  C   UNL     1       9.666  31.347  74.519  1.00  0.00     0.087 C 
ENDBRANCH  11  12
ENDBRANCH  10  11
ENDBRANCH   2  10
TORSDOF 6
ENDMDL
MODEL 7
REMARK VINA RESULT:    -5.813      1.743      2.393
REMARK INTER + INTRA:          -8.529
REMARK INTER:                  -7.830
REMARK INTRA:                  -0.699
REMARK UNBOUND:                -0.676
REMARK SMILES CC(=O)CCC=C(C)CCC=C(C)C
REMARK SMILES IDX 7 1 6 2 8 3 9 4 10 5 11 6 13 7 12 8 14 9 5 10 4 11 2 12 3 13
REMARK SMILES IDX 1 14
REMARK H PARENT
REMARK Flexibility Score: inf
ROOT
ATOM      1  C   UNL     1       9.811  29.912  73.767  1.00  0.00    -0.077 C 
ATOM      2  C   UNL     1      10.116  28.678  74.226  1.00  0.00    -0.028 C 
ATOM      3  C   UNL     1       9.620  31.020  74.769  1.00  0.00     0.039 C 
ENDROOT
BRANCH   1   4
ATOM      4  C   UNL     1       9.695  30.241  72.287  1.00  0.00     0.034 C 
BRANCH   4   5
ATOM      5  C   UNL     1      10.845  31.138  71.806  1.00  0.00     0.032 C 
BRANCH   5   6
ATOM      6  C   UNL     1      10.412  32.574  71.636  1.00  0.00    -0.028 C 
ATOM      7  C   UNL     1      12.064  33.446  73.304  1.00  0.00     0.039 C 
ATOM      8  C   UNL     1      10.935  33.617  72.318  1.00  0.00    -0.080 C 
ATOM      9  C   UNL     1      10.389  35.005  72.102  1.00  0.00     0.039 C 
ENDBRANCH   5   6
ENDBRANCH   4   5
ENDBRANCH   1   4
BRANCH   2  10
ATOM     10  C   UNL     1      10.323  27.472  73.337  1.00  0.00     0.035 C 
BRANCH  10  11
ATOM     11  C   UNL     1       9.031  26.668  73.144  1.00  0.00     0.079 C 
BRANCH  11  12
ATOM     12  C   UNL     1       9.313  25.226  72.811  1.00  0.00     0.130 C 
ATOM     13  O   UNL     1      10.387  24.735  73.124  1.00  0.00    -0.300 OA
ATOM     14  C   UNL     1       8.297  24.372  72.111  1.00  0.00     0.087 C 
ENDBRANCH  11  12
ENDBRANCH  10  11
ENDBRANCH   2  10
TORSDOF 6
ENDMDL
MODEL 8
REMARK VINA RESULT:    -5.788      3.130      7.635
REMARK INTER + INTRA:          -8.495
REMARK INTER:                  -7.815
REMARK INTRA:                  -0.681
REMARK UNBOUND:                -0.676
REMARK SMILES CC(=O)CCC=C(C)CCC=C(C)C
REMARK SMILES IDX 7 1 6 2 8 3 9 4 10 5 11 6 13 7 12 8 14 9 5 10 4 11 2 12 3 13
REMARK SMILES IDX 1 14
REMARK H PARENT
REMARK Flexibility Score: inf
ROOT
ATOM      1  C   UNL     1      10.062  27.274  74.244  1.00  0.00    -0.077 C 
ATOM      2  C   UNL     1      10.307  28.599  74.355  1.00  0.00    -0.028 C 
ATOM      3  C   UNL     1      10.827  26.329  75.133  1.00  0.00     0.039 C 
ENDROOT
BRANCH   1   4
ATOM      4  C   UNL     1       9.022  26.700  73.295  1.00  0.00     0.034 C 
BRANCH   4   5
ATOM      5  C   UNL     1       9.534  25.446  72.573  1.00  0.00     0.032 C 
BRANCH   5   6
ATOM      6  C   UNL     1       8.448  24.414  72.387  1.00  0.00    -0.028 C 
ATOM      7  C   UNL     1       9.260  22.976  74.270  1.00  0.00     0.039 C 
ATOM      8  C   UNL     1       8.327  23.289  73.127  1.00  0.00    -0.080 C 
ATOM      9  C   UNL     1       7.230  22.303  72.818  1.00  0.00     0.039 C 
ENDBRANCH   5   6
ENDBRANCH   4   5
ENDBRANCH   1   4
BRANCH   2  10
ATOM     10  C   UNL     1       9.624  29.658  73.519  1.00  0.00     0.035 C 
BRANCH  10  11
ATOM     11  C   UNL     1       9.390  30.954  74.307  1.00  0.00     0.079 C 
BRANCH  11  12
ATOM     12  C   UNL     1      10.661  31.746  74.471  1.00  0.00     0.130 C 
ATOM     13  O   UNL     1      10.977  32.154  75.578  1.00  0.00    -0.300 OA
ATOM     14  C   UNL     1      11.558  32.036  73.303  1.00  0.00     0.087 C 
ENDBRANCH  11  12
ENDBRANCH  10  11
ENDBRANCH   2  10
TORSDOF 6
ENDMDL
MODEL 9
REMARK VINA RESULT:    -5.712      1.147      2.596
REMARK INTER + INTRA:          -8.392
REMARK INTER:                  -7.357
REMARK INTRA:                  -1.035
REMARK UNBOUND:                -0.676
REMARK SMILES CC(=O)CCC=C(C)CCC=C(C)C
REMARK SMILES IDX 7 1 6 2 8 3 9 4 10 5 11 6 13 7 12 8 14 9 5 10 4 11 2 12 3 13
REMARK SMILES IDX 1 14
REMARK H PARENT
REMARK Flexibility Score: inf
ROOT
ATOM      1  C   UNL     1      10.255  29.602  72.951  1.00  0.00    -0.077 C 
ATOM      2  C   UNL     1      11.339  28.852  72.650  1.00  0.00    -0.028 C 
ATOM      3  C   UNL     1       9.303  29.959  71.840  1.00  0.00     0.039 C 
ENDROOT
BRANCH   1   4
ATOM      4  C   UNL     1       9.933  30.065  74.363  1.00  0.00     0.034 C 
BRANCH   4   5
ATOM      5  C   UNL     1      10.756  31.297  74.765  1.00  0.00     0.032 C 
BRANCH   5   6
ATOM      6  C   UNL     1      10.260  32.555  74.093  1.00  0.00    -0.028 C 
ATOM      7  C   UNL     1      12.149  32.624  72.450  1.00  0.00     0.039 C 
ATOM      8  C   UNL     1      10.888  33.174  73.068  1.00  0.00    -0.080 C 
ATOM      9  C   UNL     1      10.326  34.455  72.508  1.00  0.00     0.039 C 
ENDBRANCH   5   6
ENDBRANCH   4   5
ENDBRANCH   1   4
BRANCH   2  10
ATOM     10  C   UNL     1      12.382  28.430  73.660  1.00  0.00     0.035 C 
BRANCH  10  11
ATOM     11  C   UNL     1      12.386  26.914  73.888  1.00  0.00     0.079 C 
BRANCH  11  12
ATOM     12  C   UNL     1      11.030  26.407  74.307  1.00  0.00     0.130 C 
ATOM     13  O   UNL     1      10.588  26.710  75.405  1.00  0.00    -0.300 OA
ATOM     14  C   UNL     1      10.203  25.545  73.399  1.00  0.00     0.087 C 
ENDBRANCH  11  12
ENDBRANCH  10  11
ENDBRANCH   2  10
TORSDOF 6
ENDMDL
