MODEL 1
REMARK VINA RESULT:    -3.549      0.000      0.000
REMARK INTER + INTRA:          -6.568
REMARK INTER:                  -5.416
REMARK INTRA:                  -1.152
REMARK UNBOUND:                -1.152
REMARK SMILES CCCCCCCCCCC(=O)[O-]
REMARK SMILES IDX 7 1 8 2 9 3 10 4 11 5 12 6 13 7 6 8 5 9 4 10 3 11 2 12 1 13
REMARK H PARENT
REMARK Flexibility Score: inf
ROOT
ATOM      1  C   UNL     1       4.147   0.155  -3.852  1.00  0.00     0.000 C 
ENDROOT
BRANCH   1   2
ATOM      2  C   UNL     1       2.650   0.360  -4.132  1.00  0.00     0.000 C 
BRANCH   2   3
ATOM      3  C   UNL     1       2.394   1.237  -5.369  1.00  0.00     0.006 C 
BRANCH   3   4
ATOM      4  C   UNL     1       3.641   2.014  -5.810  1.00  0.00     0.053 C 
BRANCH   4   5
ATOM      5  C   UNL     1       3.356   3.483  -5.841  1.00  0.00     0.041 C 
ATOM      6  O   UNL     1       2.201   3.909  -5.578  1.00  0.00    -0.550 OA
ATOM      7  O   UNL     1       4.378   4.384  -6.111  1.00  0.00    -0.550 OA
ENDBRANCH   4   5
ENDBRANCH   3   4
ENDBRANCH   2   3
ENDBRANCH   1   2
BRANCH   1   8
ATOM      8  C   UNL     1       4.529  -1.328  -3.975  1.00  0.00     0.000 C 
BRANCH   8   9
ATOM      9  C   UNL     1       3.469  -2.159  -4.720  1.00  0.00    -0.000 C 
BRANCH   9  10
ATOM     10  C   UNL     1       3.792  -2.460  -6.197  1.00  0.00    -0.000 C 
BRANCH  10  11
ATOM     11  C   UNL     1       2.569  -2.540  -7.128  1.00  0.00    -0.000 C 
BRANCH  11  12
ATOM     12  C   UNL     1       2.476  -1.350  -8.093  1.00  0.00    -0.003 C 
ATOM     13  C   UNL     1       3.848  -0.727  -8.331  1.00  0.00     0.004 C 
ENDBRANCH  11  12
ENDBRANCH  10  11
ENDBRANCH   9  10
ENDBRANCH   8   9
ENDBRANCH   1   8
TORSDOF 9
ENDMDL
MODEL 2
REMARK VINA RESULT:    -3.488      2.490      4.332
REMARK INTER + INTRA:          -6.474
REMARK INTER:                  -5.494
REMARK INTRA:                  -0.980
REMARK UNBOUND:                -1.152
REMARK SMILES CCCCCCCCCCC(=O)[O-]
REMARK SMILES IDX 7 1 8 2 9 3 10 4 11 5 12 6 13 7 6 8 5 9 4 10 3 11 2 12 1 13
REMARK H PARENT
REMARK Flexibility Score: inf
ROOT
ATOM      1  C   UNL     1       2.932  -2.460  -5.468  1.00  0.00     0.000 C 
ENDROOT
BRANCH   1   2
ATOM      2  C   UNL     1       3.305  -2.315  -6.951  1.00  0.00     0.000 C 
BRANCH   2   3
ATOM      3  C   UNL     1       2.073  -2.298  -7.871  1.00  0.00     0.006 C 
BRANCH   3   4
ATOM      4  C   UNL     1       1.959  -1.001  -8.683  1.00  0.00     0.053 C 
BRANCH   4   5
ATOM      5  C   UNL     1       0.544  -0.515  -8.693  1.00  0.00     0.041 C 
ATOM      6  O   UNL     1       0.292   0.704  -8.504  1.00  0.00    -0.550 OA
ATOM      7  O   UNL     1      -0.493  -1.399  -8.962  1.00  0.00    -0.550 OA
ENDBRANCH   4   5
ENDBRANCH   3   4
ENDBRANCH   2   3
ENDBRANCH   1   2
BRANCH   1   8
ATOM      8  C   UNL     1       4.121  -2.096  -4.566  1.00  0.00     0.000 C 
BRANCH   8   9
ATOM      9  C   UNL     1       4.200  -0.590  -4.260  1.00  0.00    -0.000 C 
BRANCH   9  10
ATOM     10  C   UNL     1       2.840   0.118  -4.096  1.00  0.00    -0.000 C 
BRANCH  10  11
ATOM     11  C   UNL     1       2.465   1.082  -5.236  1.00  0.00    -0.000 C 
BRANCH  11  12
ATOM     12  C   UNL     1       3.637   1.972  -5.672  1.00  0.00    -0.003 C 
ATOM     13  C   UNL     1       3.993   1.732  -7.137  1.00  0.00     0.004 C 
ENDBRANCH  11  12
ENDBRANCH  10  11
ENDBRANCH   9  10
ENDBRANCH   8   9
ENDBRANCH   1   8
TORSDOF 9
ENDMDL
MODEL 3
REMARK VINA RESULT:    -3.463      1.970      2.962
REMARK INTER + INTRA:          -6.436
REMARK INTER:                  -5.242
REMARK INTRA:                  -1.194
REMARK UNBOUND:                -1.152
REMARK SMILES CCCCCCCCCCC(=O)[O-]
REMARK SMILES IDX 7 1 8 2 9 3 10 4 11 5 12 6 13 7 6 8 5 9 4 10 3 11 2 12 1 13
REMARK H PARENT
REMARK Flexibility Score: inf
ROOT
ATOM      1  C   UNL     1       2.406   1.066  -5.143  1.00  0.00     0.000 C 
ENDROOT
BRANCH   1   2
ATOM      2  C   UNL     1       3.548   1.343  -6.134  1.00  0.00     0.000 C 
BRANCH   2   3
ATOM      3  C   UNL     1       3.070   1.367  -7.594  1.00  0.00     0.006 C 
BRANCH   3   4
ATOM      4  C   UNL     1       1.612   0.915  -7.747  1.00  0.00     0.053 C 
BRANCH   4   5
ATOM      5  C   UNL     1       0.754   2.060  -8.185  1.00  0.00     0.041 C 
ATOM      6  O   UNL     1      -0.444   1.863  -8.519  1.00  0.00    -0.550 OA
ATOM      7  O   UNL     1       1.263   3.353  -8.178  1.00  0.00    -0.550 OA
ENDBRANCH   4   5
ENDBRANCH   3   4
ENDBRANCH   2   3
ENDBRANCH   1   2
BRANCH   1   8
ATOM      8  C   UNL     1       2.899   0.215  -3.963  1.00  0.00     0.000 C 
BRANCH   8   9
ATOM      9  C   UNL     1       4.411  -0.062  -4.016  1.00  0.00    -0.000 C 
BRANCH   9  10
ATOM     10  C   UNL     1       4.808  -1.550  -3.934  1.00  0.00    -0.000 C 
BRANCH  10  11
ATOM     11  C   UNL     1       3.879  -2.515  -4.692  1.00  0.00    -0.000 C 
BRANCH  11  12
ATOM     12  C   UNL     1       4.065  -2.449  -6.215  1.00  0.00    -0.003 C 
ATOM     13  C   UNL     1       2.722  -2.508  -6.936  1.00  0.00     0.004 C 
ENDBRANCH  11  12
ENDBRANCH  10  11
ENDBRANCH   9  10
ENDBRANCH   8   9
ENDBRANCH   1   8
TORSDOF 9
ENDMDL
MODEL 4
REMARK VINA RESULT:    -3.417      1.138      1.747
REMARK INTER + INTRA:          -6.366
REMARK INTER:                  -5.374
REMARK INTRA:                  -0.992
REMARK UNBOUND:                -1.152
REMARK SMILES CCCCCCCCCCC(=O)[O-]
REMARK SMILES IDX 7 1 8 2 9 3 10 4 11 5 12 6 13 7 6 8 5 9 4 10 3 11 2 12 1 13
REMARK H PARENT
REMARK Flexibility Score: inf
ROOT
ATOM      1  C   UNL     1       4.159   0.087  -3.770  1.00  0.00     0.000 C 
ENDROOT
BRANCH   1   2
ATOM      2  C   UNL     1       4.953   1.041  -4.676  1.00  0.00     0.000 C 
BRANCH   2   3
ATOM      3  C   UNL     1       4.108   1.602  -5.830  1.00  0.00     0.006 C 
BRANCH   3   4
ATOM      4  C   UNL     1       2.601   1.510  -5.559  1.00  0.00     0.053 C 
BRANCH   4   5
ATOM      5  C   UNL     1       1.888   2.672  -6.176  1.00  0.00     0.041 C 
ATOM      6  O   UNL     1       1.999   3.822  -5.675  1.00  0.00    -0.550 OA
ATOM      7  O   UNL     1       1.141   2.493  -7.333  1.00  0.00    -0.550 OA
ENDBRANCH   4   5
ENDBRANCH   3   4
ENDBRANCH   2   3
ENDBRANCH   1   2
BRANCH   1   8
ATOM      8  C   UNL     1       4.999  -1.144  -3.400  1.00  0.00     0.000 C 
BRANCH   8   9
ATOM      9  C   UNL     1       4.541  -2.421  -4.127  1.00  0.00    -0.000 C 
BRANCH   9  10
ATOM     10  C   UNL     1       3.311  -2.249  -5.041  1.00  0.00    -0.000 C 
BRANCH  10  11
ATOM     11  C   UNL     1       3.609  -2.300  -6.551  1.00  0.00    -0.000 C 
BRANCH  11  12
ATOM     12  C   UNL     1       2.343  -2.459  -7.403  1.00  0.00    -0.003 C 
ATOM     13  C   UNL     1       2.065  -1.198  -8.216  1.00  0.00     0.004 C 
ENDBRANCH  11  12
ENDBRANCH  10  11
ENDBRANCH   9  10
ENDBRANCH   8   9
ENDBRANCH   1   8
TORSDOF 9
ENDMDL
MODEL 5
REMARK VINA RESULT:    -3.408      3.523      4.885
REMARK INTER + INTRA:          -6.353
REMARK INTER:                  -5.248
REMARK INTRA:                  -1.104
REMARK UNBOUND:                -1.152
REMARK SMILES CCCCCCCCCCC(=O)[O-]
REMARK SMILES IDX 7 1 8 2 9 3 10 4 11 5 12 6 13 7 6 8 5 9 4 10 3 11 2 12 1 13
REMARK H PARENT
REMARK Flexibility Score: inf
ROOT
ATOM      1  C   UNL     1       4.396  -1.389  -4.076  1.00  0.00     0.000 C 
ENDROOT
BRANCH   1   2
ATOM      2  C   UNL     1       3.323  -2.128  -4.891  1.00  0.00     0.000 C 
BRANCH   2   3
ATOM      3  C   UNL     1       3.726  -2.321  -6.362  1.00  0.00     0.006 C 
BRANCH   3   4
ATOM      4  C   UNL     1       2.516  -2.509  -7.286  1.00  0.00     0.053 C 
BRANCH   4   5
ATOM      5  C   UNL     1       2.857  -3.435  -8.410  1.00  0.00     0.041 C 
ATOM      6  O   UNL     1       1.943  -3.950  -9.106  1.00  0.00    -0.550 OA
ATOM      7  O   UNL     1       4.187  -3.691  -8.721  1.00  0.00    -0.550 OA
ENDBRANCH   4   5
ENDBRANCH   3   4
ENDBRANCH   2   3
ENDBRANCH   1   2
BRANCH   1   8
ATOM      8  C   UNL     1       4.039   0.097  -3.921  1.00  0.00     0.000 C 
BRANCH   8   9
ATOM      9  C   UNL     1       2.583   0.406  -4.311  1.00  0.00    -0.000 C 
BRANCH   9  10
ATOM     10  C   UNL     1       2.413   1.438  -5.444  1.00  0.00    -0.000 C 
BRANCH  10  11
ATOM     11  C   UNL     1       3.485   1.378  -6.547  1.00  0.00    -0.000 C 
BRANCH  11  12
ATOM     12  C   UNL     1       2.885   1.275  -7.956  1.00  0.00    -0.003 C 
ATOM     13  C   UNL     1       1.390   0.971  -7.897  1.00  0.00     0.004 C 
ENDBRANCH  11  12
ENDBRANCH  10  11
ENDBRANCH   9  10
ENDBRANCH   8   9
ENDBRANCH   1   8
TORSDOF 9
ENDMDL
MODEL 6
REMARK VINA RESULT:    -3.387      1.958      2.441
REMARK INTER + INTRA:          -6.321
REMARK INTER:                  -5.557
REMARK INTRA:                  -0.764
REMARK UNBOUND:                -1.152
REMARK SMILES CCCCCCCCCCC(=O)[O-]
REMARK SMILES IDX 7 1 8 2 9 3 10 4 11 5 12 6 13 7 6 8 5 9 4 10 3 11 2 12 1 13
REMARK H PARENT
REMARK Flexibility Score: inf
ROOT
ATOM      1  C   UNL     1       3.380   0.205  -3.881  1.00  0.00     0.000 C 
ENDROOT
BRANCH   1   2
ATOM      2  C   UNL     1       3.510   1.193  -5.050  1.00  0.00     0.000 C 
BRANCH   2   3
ATOM      3  C   UNL     1       2.156   1.523  -5.699  1.00  0.00     0.006 C 
BRANCH   3   4
ATOM      4  C   UNL     1       2.257   1.703  -7.219  1.00  0.00     0.053 C 
BRANCH   4   5
ATOM      5  C   UNL     1       0.910   2.001  -7.799  1.00  0.00     0.041 C 
ATOM      6  O   UNL     1       0.522   3.193  -7.919  1.00  0.00    -0.550 OA
ATOM      7  O   UNL     1       0.104   0.965  -8.253  1.00  0.00    -0.550 OA
ENDBRANCH   4   5
ENDBRANCH   3   4
ENDBRANCH   2   3
ENDBRANCH   1   2
BRANCH   1   8
ATOM      8  C   UNL     1       4.269  -1.028  -4.104  1.00  0.00     0.000 C 
BRANCH   8   9
ATOM      9  C   UNL     1       3.496  -2.226  -4.682  1.00  0.00    -0.000 C 
BRANCH   9  10
ATOM     10  C   UNL     1       3.758  -2.517  -6.174  1.00  0.00    -0.000 C 
BRANCH  10  11
ATOM     11  C   UNL     1       2.751  -1.879  -7.149  1.00  0.00    -0.000 C 
BRANCH  11  12
ATOM     12  C   UNL     1       2.296  -2.845  -8.252  1.00  0.00    -0.003 C 
ATOM     13  C   UNL     1       0.893  -2.498  -8.741  1.00  0.00     0.004 C 
ENDBRANCH  11  12
ENDBRANCH  10  11
ENDBRANCH   9  10
ENDBRANCH   8   9
ENDBRANCH   1   8
TORSDOF 9
ENDMDL
MODEL 7
REMARK VINA RESULT:    -3.162     21.184     21.890
REMARK INTER + INTRA:          -5.977
REMARK INTER:                  -5.540
REMARK INTRA:                  -0.437
REMARK UNBOUND:                -1.152
REMARK SMILES CCCCCCCCCCC(=O)[O-]
REMARK SMILES IDX 7 1 8 2 9 3 10 4 11 5 12 6 13 7 6 8 5 9 4 10 3 11 2 12 1 13
REMARK H PARENT
REMARK Flexibility Score: inf
ROOT
ATOM      1  C   UNL     1     -14.601 -11.642   2.861  1.00  0.00     0.000 C 
ENDROOT
BRANCH   1   2
ATOM      2  C   UNL     1     -14.621 -10.417   3.789  1.00  0.00     0.000 C 
BRANCH   2   3
ATOM      3  C   UNL     1     -13.212  -9.976   4.216  1.00  0.00     0.006 C 
BRANCH   3   4
ATOM      4  C   UNL     1     -13.073  -9.836   5.738  1.00  0.00     0.053 C 
BRANCH   4   5
ATOM      5  C   UNL     1     -11.745 -10.356   6.190  1.00  0.00     0.041 C 
ATOM      6  O   UNL     1     -11.378 -10.200   7.384  1.00  0.00    -0.550 OA
ATOM      7  O   UNL     1     -10.935 -11.056   5.306  1.00  0.00    -0.550 OA
ENDBRANCH   4   5
ENDBRANCH   3   4
ENDBRANCH   2   3
ENDBRANCH   1   2
BRANCH   1   8
ATOM      8  C   UNL     1     -13.228 -11.800   2.192  1.00  0.00     0.000 C 
BRANCH   8   9
ATOM      9  C   UNL     1     -13.248 -11.450   0.694  1.00  0.00    -0.000 C 
BRANCH   9  10
ATOM     10  C   UNL     1     -12.478 -12.427  -0.218  1.00  0.00    -0.000 C 
BRANCH  10  11
ATOM     11  C   UNL     1     -12.917 -12.424  -1.693  1.00  0.00    -0.000 C 
BRANCH  11  12
ATOM     12  C   UNL     1     -13.912 -11.301  -2.018  1.00  0.00    -0.003 C 
ATOM     13  C   UNL     1     -14.093 -11.145  -3.525  1.00  0.00     0.004 C 
ENDBRANCH  11  12
ENDBRANCH  10  11
ENDBRANCH   9  10
ENDBRANCH   8   9
ENDBRANCH   1   8
TORSDOF 9
ENDMDL
MODEL 8
REMARK VINA RESULT:    -3.114      0.817      3.203
REMARK INTER + INTRA:          -5.904
REMARK INTER:                  -4.732
REMARK INTRA:                  -1.171
REMARK UNBOUND:                -1.152
REMARK SMILES CCCCCCCCCCC(=O)[O-]
REMARK SMILES IDX 7 1 8 2 9 3 10 4 11 5 12 6 13 7 6 8 5 9 4 10 3 11 2 12 1 13
REMARK H PARENT
REMARK Flexibility Score: inf
ROOT
ATOM      1  C   UNL     1       2.293  -0.562  -7.759  1.00  0.00     0.000 C 
ENDROOT
BRANCH   1   2
ATOM      2  C   UNL     1       3.596   0.123  -8.197  1.00  0.00     0.000 C 
BRANCH   2   3
ATOM      3  C   UNL     1       3.967   1.317  -7.302  1.00  0.00     0.006 C 
BRANCH   3   4
ATOM      4  C   UNL     1       2.759   2.201  -6.966  1.00  0.00     0.053 C 
BRANCH   4   5
ATOM      5  C   UNL     1       3.187   3.381  -6.152  1.00  0.00     0.041 C 
ATOM      6  O   UNL     1       4.402   3.707  -6.099  1.00  0.00    -0.550 OA
ATOM      7  O   UNL     1       2.238   4.151  -5.491  1.00  0.00    -0.550 OA
ENDBRANCH   4   5
ENDBRANCH   3   4
ENDBRANCH   2   3
ENDBRANCH   1   2
BRANCH   1   8
ATOM      8  C   UNL     1       2.483  -2.082  -7.650  1.00  0.00     0.000 C 
BRANCH   8   9
ATOM      9  C   UNL     1       3.561  -2.479  -6.626  1.00  0.00    -0.000 C 
BRANCH   9  10
ATOM     10  C   UNL     1       3.195  -2.211  -5.153  1.00  0.00    -0.000 C 
BRANCH  10  11
ATOM     11  C   UNL     1       4.340  -1.652  -4.288  1.00  0.00    -0.000 C 
BRANCH  11  12
ATOM     12  C   UNL     1       4.145  -0.174  -3.923  1.00  0.00    -0.003 C 
ATOM     13  C   UNL     1       2.674   0.225  -4.012  1.00  0.00     0.004 C 
ENDBRANCH  11  12
ENDBRANCH  10  11
ENDBRANCH   9  10
ENDBRANCH   8   9
ENDBRANCH   1   8
TORSDOF 9
ENDMDL
MODEL 9
REMARK VINA RESULT:    -1.827      2.473      4.469
REMARK INTER + INTRA:          -3.940
REMARK INTER:                  -3.073
REMARK INTRA:                  -0.867
REMARK UNBOUND:                -1.152
REMARK SMILES CCCCCCCCCCC(=O)[O-]
REMARK SMILES IDX 7 1 8 2 9 3 10 4 11 5 12 6 13 7 6 8 5 9 4 10 3 11 2 12 1 13
REMARK H PARENT
REMARK Flexibility Score: inf
ROOT
ATOM      1  C   UNL     1       3.807  -1.950  -7.181  1.00  0.00     0.000 C 
ENDROOT
BRANCH   1   2
ATOM      2  C   UNL     1       2.643  -2.855  -7.615  1.00  0.00     0.000 C 
BRANCH   2   3
ATOM      3  C   UNL     1       1.749  -2.199  -8.679  1.00  0.00     0.006 C 
BRANCH   3   4
ATOM      4  C   UNL     1       1.653  -0.677  -8.515  1.00  0.00     0.053 C 
BRANCH   4   5
ATOM      5  C   UNL     1       0.260  -0.208  -8.794  1.00  0.00     0.041 C 
ATOM      6  O   UNL     1      -0.631  -1.034  -9.125  1.00  0.00    -0.550 OA
ATOM      7  O   UNL     1      -0.066   1.133  -8.640  1.00  0.00    -0.550 OA
ENDBRANCH   4   5
ENDBRANCH   3   4
ENDBRANCH   2   3
ENDBRANCH   1   2
BRANCH   1   8
ATOM      8  C   UNL     1       4.523  -2.530  -5.952  1.00  0.00     0.000 C 
BRANCH   8   9
ATOM      9  C   UNL     1       3.860  -2.120  -4.625  1.00  0.00    -0.000 C 
BRANCH   9  10
ATOM     10  C   UNL     1       4.661  -1.111  -3.777  1.00  0.00    -0.000 C 
BRANCH  10  11
ATOM     11  C   UNL     1       4.183   0.348  -3.876  1.00  0.00    -0.000 C 
BRANCH  11  12
ATOM     12  C   UNL     1       2.730   0.468  -4.359  1.00  0.00    -0.003 C 
ATOM     13  C   UNL     1       2.633   1.363  -5.592  1.00  0.00     0.004 C 
ENDBRANCH  11  12
ENDBRANCH  10  11
ENDBRANCH   9  10
ENDBRANCH   8   9
ENDBRANCH   1   8
TORSDOF 9
ENDMDL
