MODEL 1
REMARK VINA RESULT:    -4.649      0.000      0.000
REMARK INTER + INTRA:          -7.432
REMARK INTER:                  -7.095
REMARK INTRA:                  -0.337
REMARK UNBOUND:                -0.337
REMARK SMILES O=C([O-])CCCCCCCCC(=O)[O-]
REMARK SMILES IDX 7 1 6 2 5 3 4 4 2 5 1 6 3 7 8 8 9 9 10 10 11 11 12 12 13 13
REMARK SMILES IDX 14 14
REMARK H PARENT
REMARK Flexibility Score: inf
ROOT
ATOM      1  C   UNL     1      36.673 106.879 262.831  1.00  0.00     0.000 C 
ENDROOT
BRANCH   1   2
ATOM      2  C   UNL     1      38.130 106.801 262.334  1.00  0.00     0.000 C 
BRANCH   2   3
ATOM      3  C   UNL     1      38.296 106.307 260.884  1.00  0.00     0.006 C 
BRANCH   3   4
ATOM      4  C   UNL     1      36.968 105.887 260.243  1.00  0.00     0.053 C 
BRANCH   4   5
ATOM      5  C   UNL     1      36.882 106.398 258.839  1.00  0.00     0.041 C 
ATOM      6  O   UNL     1      35.977 107.212 258.515  1.00  0.00    -0.550 OA
ATOM      7  O   UNL     1      37.830 106.013 257.901  1.00  0.00    -0.550 OA
ENDBRANCH   4   5
ENDBRANCH   3   4
ENDBRANCH   2   3
ENDBRANCH   1   2
BRANCH   1   8
ATOM      8  C   UNL     1      36.242 105.739 263.773  1.00  0.00     0.000 C 
BRANCH   8   9
ATOM      9  C   UNL     1      34.929 105.988 264.543  1.00  0.00     0.000 C 
BRANCH   9  10
ATOM     10  C   UNL     1      35.109 106.419 266.010  1.00  0.00     0.006 C 
BRANCH  10  11
ATOM     11  C   UNL     1      35.258 107.938 266.171  1.00  0.00     0.053 C 
BRANCH  11  12
ATOM     12  C   UNL     1      35.083 108.330 267.603  1.00  0.00     0.041 C 
ATOM     13  O   UNL     1      34.877 109.534 267.910  1.00  0.00    -0.550 OA
ATOM     14  O   UNL     1      35.197 107.374 268.605  1.00  0.00    -0.550 OA
ENDBRANCH  11  12
ENDBRANCH  10  11
ENDBRANCH   9  10
ENDBRANCH   8   9
ENDBRANCH   1   8
TORSDOF 9
ENDMDL
MODEL 2
REMARK VINA RESULT:    -4.584      1.050      7.792
REMARK INTER + INTRA:          -7.333
REMARK INTER:                  -7.032
REMARK INTRA:                  -0.302
REMARK UNBOUND:                -0.337
REMARK SMILES O=C([O-])CCCCCCCCC(=O)[O-]
REMARK SMILES IDX 7 1 6 2 5 3 4 4 2 5 1 6 3 7 8 8 9 9 10 10 11 11 12 12 13 13
REMARK SMILES IDX 14 14
REMARK H PARENT
REMARK Flexibility Score: inf
ROOT
ATOM      1  C   UNL     1      36.061 105.285 264.516  1.00  0.00     0.000 C 
ENDROOT
BRANCH   1   2
ATOM      2  C   UNL     1      35.012 105.240 265.645  1.00  0.00     0.000 C 
BRANCH   2   3
ATOM      3  C   UNL     1      34.941 106.507 266.516  1.00  0.00     0.006 C 
BRANCH   3   4
ATOM      4  C   UNL     1      34.878 106.195 268.017  1.00  0.00     0.053 C 
BRANCH   4   5
ATOM      5  C   UNL     1      35.246 107.405 268.817  1.00  0.00     0.041 C 
ATOM      6  O   UNL     1      35.647 107.282 270.004  1.00  0.00    -0.550 OA
ATOM      7  O   UNL     1      35.193 108.664 268.235  1.00  0.00    -0.550 OA
ENDBRANCH   4   5
ENDBRANCH   3   4
ENDBRANCH   2   3
ENDBRANCH   1   2
BRANCH   1   8
ATOM      8  C   UNL     1      35.553 105.846 263.174  1.00  0.00     0.000 C 
BRANCH   8   9
ATOM      9  C   UNL     1      36.425 106.961 262.561  1.00  0.00     0.000 C 
BRANCH   9  10
ATOM     10  C   UNL     1      37.510 106.474 261.585  1.00  0.00     0.006 C 
BRANCH  10  11
ATOM     11  C   UNL     1      36.945 105.621 260.441  1.00  0.00     0.053 C 
BRANCH  11  12
ATOM     12  C   UNL     1      36.965 106.389 259.158  1.00  0.00     0.041 C 
ATOM     13  O   UNL     1      36.495 107.556 259.110  1.00  0.00    -0.550 OA
ATOM     14  O   UNL     1      37.457 105.796 258.002  1.00  0.00    -0.550 OA
ENDBRANCH  11  12
ENDBRANCH  10  11
ENDBRANCH   9  10
ENDBRANCH   8   9
ENDBRANCH   1   8
TORSDOF 9
ENDMDL
MODEL 3
REMARK VINA RESULT:    -4.525      1.087      7.818
REMARK INTER + INTRA:          -7.243
REMARK INTER:                  -7.073
REMARK INTRA:                  -0.170
REMARK UNBOUND:                -0.337
REMARK SMILES O=C([O-])CCCCCCCCC(=O)[O-]
REMARK SMILES IDX 7 1 6 2 5 3 4 4 2 5 1 6 3 7 8 8 9 9 10 10 11 11 12 12 13 13
REMARK SMILES IDX 14 14
REMARK H PARENT
REMARK Flexibility Score: inf
ROOT
ATOM      1  C   UNL     1      35.056 105.263 264.085  1.00  0.00     0.000 C 
ENDROOT
BRANCH   1   2
ATOM      2  C   UNL     1      35.423 105.126 265.576  1.00  0.00     0.000 C 
BRANCH   2   3
ATOM      3  C   UNL     1      35.400 106.443 266.375  1.00  0.00     0.006 C 
BRANCH   3   4
ATOM      4  C   UNL     1      34.875 106.262 267.805  1.00  0.00     0.053 C 
BRANCH   4   5
ATOM      5  C   UNL     1      35.208 107.460 268.637  1.00  0.00     0.041 C 
ATOM      6  O   UNL     1      35.139 108.616 268.142  1.00  0.00    -0.550 OA
ATOM      7  O   UNL     1      35.548 107.303 269.975  1.00  0.00    -0.550 OA
ENDBRANCH   4   5
ENDBRANCH   3   4
ENDBRANCH   2   3
ENDBRANCH   1   2
BRANCH   1   8
ATOM      8  C   UNL     1      35.805 106.377 263.328  1.00  0.00     0.000 C 
BRANCH   8   9
ATOM      9  C   UNL     1      36.255 106.007 261.900  1.00  0.00     0.000 C 
BRANCH   9  10
ATOM     10  C   UNL     1      37.545 106.700 261.426  1.00  0.00     0.006 C 
BRANCH  10  11
ATOM     11  C   UNL     1      38.104 106.098 260.131  1.00  0.00     0.053 C 
BRANCH  11  12
ATOM     12  C   UNL     1      37.196 106.398 258.981  1.00  0.00     0.041 C 
ATOM     13  O   UNL     1      37.169 105.635 257.980  1.00  0.00    -0.550 OA
ATOM     14  O   UNL     1      36.417 107.548 258.992  1.00  0.00    -0.550 OA
ENDBRANCH  11  12
ENDBRANCH  10  11
ENDBRANCH   9  10
ENDBRANCH   8   9
ENDBRANCH   1   8
TORSDOF 9
ENDMDL
MODEL 4
REMARK VINA RESULT:    -4.001      1.371      7.102
REMARK INTER + INTRA:          -6.443
REMARK INTER:                  -6.385
REMARK INTRA:                  -0.057
REMARK UNBOUND:                -0.337
REMARK SMILES O=C([O-])CCCCCCCCC(=O)[O-]
REMARK SMILES IDX 7 1 6 2 5 3 4 4 2 5 1 6 3 7 8 8 9 9 10 10 11 11 12 12 13 13
REMARK SMILES IDX 14 14
REMARK H PARENT
REMARK Flexibility Score: inf
ROOT
ATOM      1  C   UNL     1      35.978 105.131 265.147  1.00  0.00     0.000 C 
ENDROOT
BRANCH   1   2
ATOM      2  C   UNL     1      35.111 105.013 266.415  1.00  0.00     0.000 C 
BRANCH   2   3
ATOM      3  C   UNL     1      34.875 106.336 267.167  1.00  0.00     0.006 C 
BRANCH   3   4
ATOM      4  C   UNL     1      35.343 107.563 266.372  1.00  0.00     0.053 C 
BRANCH   4   5
ATOM      5  C   UNL     1      35.095 108.815 267.153  1.00  0.00     0.041 C 
ATOM      6  O   UNL     1      34.875 109.902 266.556  1.00  0.00    -0.550 OA
ATOM      7  O   UNL     1      35.060 108.772 268.541  1.00  0.00    -0.550 OA
ENDBRANCH   4   5
ENDBRANCH   3   4
ENDBRANCH   2   3
ENDBRANCH   1   2
BRANCH   1   8
ATOM      8  C   UNL     1      35.222 105.565 263.877  1.00  0.00     0.000 C 
BRANCH   8   9
ATOM      9  C   UNL     1      35.139 104.496 262.768  1.00  0.00     0.000 C 
BRANCH   9  10
ATOM     10  C   UNL     1      35.976 104.796 261.512  1.00  0.00     0.006 C 
BRANCH  10  11
ATOM     11  C   UNL     1      36.677 106.159 261.575  1.00  0.00     0.053 C 
BRANCH  11  12
ATOM     12  C   UNL     1      37.348 106.462 260.273  1.00  0.00     0.041 C 
ATOM     13  O   UNL     1      38.520 106.054 260.054  1.00  0.00    -0.550 OA
ATOM     14  O   UNL     1      36.699 107.237 259.320  1.00  0.00    -0.550 OA
ENDBRANCH  11  12
ENDBRANCH  10  11
ENDBRANCH   9  10
ENDBRANCH   8   9
ENDBRANCH   1   8
TORSDOF 9
ENDMDL
MODEL 5
REMARK VINA RESULT:    -3.994      1.320      1.821
REMARK INTER + INTRA:          -6.432
REMARK INTER:                  -6.007
REMARK INTRA:                  -0.425
REMARK UNBOUND:                -0.337
REMARK SMILES O=C([O-])CCCCCCCCC(=O)[O-]
REMARK SMILES IDX 7 1 6 2 5 3 4 4 2 5 1 6 3 7 8 8 9 9 10 10 11 11 12 12 13 13
REMARK SMILES IDX 14 14
REMARK H PARENT
REMARK Flexibility Score: inf
ROOT
ATOM      1  C   UNL     1      37.986 107.252 262.701  1.00  0.00     0.000 C 
ENDROOT
BRANCH   1   2
ATOM      2  C   UNL     1      38.786 106.343 261.748  1.00  0.00     0.000 C 
BRANCH   2   3
ATOM      3  C   UNL     1      38.373 106.431 260.267  1.00  0.00     0.006 C 
BRANCH   3   4
ATOM      4  C   UNL     1      36.936 106.936 260.079  1.00  0.00     0.053 C 
BRANCH   4   5
ATOM      5  C   UNL     1      36.540 106.856 258.639  1.00  0.00     0.041 C 
ATOM      6  O   UNL     1      35.905 107.802 258.102  1.00  0.00    -0.550 OA
ATOM      7  O   UNL     1      36.914 105.758 257.876  1.00  0.00    -0.550 OA
ENDBRANCH   4   5
ENDBRANCH   3   4
ENDBRANCH   2   3
ENDBRANCH   1   2
BRANCH   1   8
ATOM      8  C   UNL     1      37.221 106.516 263.817  1.00  0.00     0.000 C 
BRANCH   8   9
ATOM      9  C   UNL     1      35.712 106.327 263.560  1.00  0.00     0.000 C 
BRANCH   9  10
ATOM     10  C   UNL     1      34.924 105.718 264.734  1.00  0.00     0.006 C 
BRANCH  10  11
ATOM     11  C   UNL     1      34.902 106.624 265.972  1.00  0.00     0.053 C 
BRANCH  11  12
ATOM     12  C   UNL     1      35.003 105.807 267.220  1.00  0.00     0.041 C 
ATOM     13  O   UNL     1      35.091 104.552 267.150  1.00  0.00    -0.550 OA
ATOM     14  O   UNL     1      34.950 106.426 268.462  1.00  0.00    -0.550 OA
ENDBRANCH  11  12
ENDBRANCH  10  11
ENDBRANCH   9  10
ENDBRANCH   8   9
ENDBRANCH   1   8
TORSDOF 9
ENDMDL
MODEL 6
REMARK VINA RESULT:    -2.568      1.051      7.431
REMARK INTER + INTRA:          -4.256
REMARK INTER:                  -3.952
REMARK INTRA:                  -0.304
REMARK UNBOUND:                -0.337
REMARK SMILES O=C([O-])CCCCCCCCC(=O)[O-]
REMARK SMILES IDX 7 1 6 2 5 3 4 4 2 5 1 6 3 7 8 8 9 9 10 10 11 11 12 12 13 13
REMARK SMILES IDX 14 14
REMARK H PARENT
REMARK Flexibility Score: inf
ROOT
ATOM      1  C   UNL     1      37.322 106.815 264.231  1.00  0.00     0.000 C 
ENDROOT
BRANCH   1   2
ATOM      2  C   UNL     1      36.066 105.932 264.371  1.00  0.00     0.000 C 
BRANCH   2   3
ATOM      3  C   UNL     1      34.886 106.594 265.106  1.00  0.00     0.006 C 
BRANCH   3   4
ATOM      4  C   UNL     1      35.010 106.505 266.632  1.00  0.00     0.053 C 
BRANCH   4   5
ATOM      5  C   UNL     1      35.125 107.874 267.226  1.00  0.00     0.041 C 
ATOM      6  O   UNL     1      35.009 108.037 268.470  1.00  0.00    -0.550 OA
ATOM      7  O   UNL     1      35.409 108.962 266.412  1.00  0.00    -0.550 OA
ENDBRANCH   4   5
ENDBRANCH   3   4
ENDBRANCH   2   3
ENDBRANCH   1   2
BRANCH   1   8
ATOM      8  C   UNL     1      38.139 106.589 262.945  1.00  0.00     0.000 C 
BRANCH   8   9
ATOM      9  C   UNL     1      37.387 106.888 261.632  1.00  0.00     0.000 C 
BRANCH   9  10
ATOM     10  C   UNL     1      38.263 106.885 260.367  1.00  0.00     0.006 C 
BRANCH  10  11
ATOM     11  C   UNL     1      37.745 105.929 259.285  1.00  0.00     0.053 C 
BRANCH  11  12
ATOM     12  C   UNL     1      36.577 106.532 258.571  1.00  0.00     0.041 C 
ATOM     13  O   UNL     1      35.817 105.807 257.876  1.00  0.00    -0.550 OA
ATOM     14  O   UNL     1      36.357 107.902 258.631  1.00  0.00    -0.550 OA
ENDBRANCH  11  12
ENDBRANCH  10  11
ENDBRANCH   9  10
ENDBRANCH   8   9
ENDBRANCH   1   8
TORSDOF 9
ENDMDL
MODEL 7
REMARK VINA RESULT:    -2.463      2.010      7.226
REMARK INTER + INTRA:          -4.096
REMARK INTER:                  -4.130
REMARK INTRA:                   0.034
REMARK UNBOUND:                -0.337
REMARK SMILES O=C([O-])CCCCCCCCC(=O)[O-]
REMARK SMILES IDX 7 1 6 2 5 3 4 4 2 5 1 6 3 7 8 8 9 9 10 10 11 11 12 12 13 13
REMARK SMILES IDX 14 14
REMARK H PARENT
REMARK Flexibility Score: inf
ROOT
ATOM      1  C   UNL     1      35.612 107.071 263.874  1.00  0.00     0.000 C 
ENDROOT
BRANCH   1   2
ATOM      2  C   UNL     1      35.355 107.959 265.108  1.00  0.00     0.000 C 
BRANCH   2   3
ATOM      3  C   UNL     1      35.845 107.370 266.444  1.00  0.00     0.006 C 
BRANCH   3   4
ATOM      4  C   UNL     1      34.877 106.335 267.029  1.00  0.00     0.053 C 
BRANCH   4   5
ATOM      5  C   UNL     1      35.397 104.950 266.806  1.00  0.00     0.041 C 
ATOM      6  O   UNL     1      34.875 103.972 267.404  1.00  0.00    -0.550 OA
ATOM      7  O   UNL     1      36.427 104.733 265.899  1.00  0.00    -0.550 OA
ENDBRANCH   4   5
ENDBRANCH   3   4
ENDBRANCH   2   3
ENDBRANCH   1   2
BRANCH   1   8
ATOM      8  C   UNL     1      37.073 106.618 263.688  1.00  0.00     0.000 C 
BRANCH   8   9
ATOM      9  C   UNL     1      37.554 106.550 262.225  1.00  0.00     0.000 C 
BRANCH   9  10
ATOM     10  C   UNL     1      36.444 106.309 261.187  1.00  0.00     0.006 C 
BRANCH  10  11
ATOM     11  C   UNL     1      36.855 105.316 260.093  1.00  0.00     0.053 C 
BRANCH  11  12
ATOM     12  C   UNL     1      37.252 106.044 258.848  1.00  0.00     0.041 C 
ATOM     13  O   UNL     1      38.462 106.103 258.506  1.00  0.00    -0.550 OA
ATOM     14  O   UNL     1      36.290 106.701 258.091  1.00  0.00    -0.550 OA
ENDBRANCH  11  12
ENDBRANCH  10  11
ENDBRANCH   9  10
ENDBRANCH   8   9
ENDBRANCH   1   8
TORSDOF 9
ENDMDL
MODEL 8
REMARK VINA RESULT:    -2.280      1.456      2.127
REMARK INTER + INTRA:          -3.817
REMARK INTER:                  -3.574
REMARK INTRA:                  -0.243
REMARK UNBOUND:                -0.337
REMARK SMILES O=C([O-])CCCCCCCCC(=O)[O-]
REMARK SMILES IDX 7 1 6 2 5 3 4 4 2 5 1 6 3 7 8 8 9 9 10 10 11 11 12 12 13 13
REMARK SMILES IDX 14 14
REMARK H PARENT
REMARK Flexibility Score: inf
ROOT
ATOM      1  C   UNL     1      35.007 105.788 263.578  1.00  0.00     0.000 C 
ENDROOT
BRANCH   1   2
ATOM      2  C   UNL     1      36.397 105.702 262.918  1.00  0.00     0.000 C 
BRANCH   2   3
ATOM      3  C   UNL     1      36.745 106.874 261.981  1.00  0.00     0.006 C 
BRANCH   3   4
ATOM      4  C   UNL     1      36.715 106.479 260.499  1.00  0.00     0.053 C 
BRANCH   4   5
ATOM      5  C   UNL     1      38.078 106.067 260.041  1.00  0.00     0.041 C 
ATOM      6  O   UNL     1      38.244 105.596 258.885  1.00  0.00    -0.550 OA
ATOM      7  O   UNL     1      39.174 106.247 260.875  1.00  0.00    -0.550 OA
ENDBRANCH   4   5
ENDBRANCH   3   4
ENDBRANCH   2   3
ENDBRANCH   1   2
BRANCH   1   8
ATOM      8  C   UNL     1      34.883 106.833 264.703  1.00  0.00     0.000 C 
BRANCH   8   9
ATOM      9  C   UNL     1      36.222 107.368 265.250  1.00  0.00     0.000 C 
BRANCH   9  10
ATOM     10  C   UNL     1      36.100 108.313 266.458  1.00  0.00     0.006 C 
BRANCH  10  11
ATOM     11  C   UNL     1      34.875 108.010 267.331  1.00  0.00     0.053 C 
BRANCH  11  12
ATOM     12  C   UNL     1      35.202 106.958 268.343  1.00  0.00     0.041 C 
ATOM     13  O   UNL     1      35.624 107.286 269.483  1.00  0.00    -0.550 OA
ATOM     14  O   UNL     1      35.089 105.615 268.009  1.00  0.00    -0.550 OA
ENDBRANCH  11  12
ENDBRANCH  10  11
ENDBRANCH   9  10
ENDBRANCH   8   9
ENDBRANCH   1   8
TORSDOF 9
ENDMDL
MODEL 9
REMARK VINA RESULT:    -1.808      2.501      2.900
REMARK INTER + INTRA:          -3.096
REMARK INTER:                  -3.182
REMARK INTRA:                   0.086
REMARK UNBOUND:                -0.337
REMARK SMILES O=C([O-])CCCCCCCCC(=O)[O-]
REMARK SMILES IDX 7 1 6 2 5 3 4 4 2 5 1 6 3 7 8 8 9 9 10 10 11 11 12 12 13 13
REMARK SMILES IDX 14 14
REMARK H PARENT
REMARK Flexibility Score: inf
ROOT
ATOM      1  C   UNL     1      38.427 107.426 262.790  1.00  0.00     0.000 C 
ENDROOT
BRANCH   1   2
ATOM      2  C   UNL     1      38.252 106.638 261.477  1.00  0.00     0.000 C 
BRANCH   2   3
ATOM      3  C   UNL     1      36.792 106.446 261.025  1.00  0.00     0.006 C 
BRANCH   3   4
ATOM      4  C   UNL     1      36.379 104.970 260.956  1.00  0.00     0.053 C 
BRANCH   4   5
ATOM      5  C   UNL     1      35.416 104.646 262.053  1.00  0.00     0.041 C 
ATOM      6  O   UNL     1      35.057 105.538 262.866  1.00  0.00    -0.550 OA
ATOM      7  O   UNL     1      34.877 103.370 262.149  1.00  0.00    -0.550 OA
ENDBRANCH   4   5
ENDBRANCH   3   4
ENDBRANCH   2   3
ENDBRANCH   1   2
BRANCH   1   8
ATOM      8  C   UNL     1      37.664 106.856 264.001  1.00  0.00     0.000 C 
BRANCH   8   9
ATOM      9  C   UNL     1      36.352 107.587 264.350  1.00  0.00     0.000 C 
BRANCH   9  10
ATOM     10  C   UNL     1      36.203 107.984 265.830  1.00  0.00     0.006 C 
BRANCH  10  11
ATOM     11  C   UNL     1      34.875 107.519 266.441  1.00  0.00     0.053 C 
BRANCH  11  12
ATOM     12  C   UNL     1      35.085 106.300 267.282  1.00  0.00     0.041 C 
ATOM     13  O   UNL     1      35.110 105.159 266.750  1.00  0.00    -0.550 OA
ATOM     14  O   UNL     1      35.204 106.420 268.661  1.00  0.00    -0.550 OA
ENDBRANCH  11  12
ENDBRANCH  10  11
ENDBRANCH   9  10
ENDBRANCH   8   9
ENDBRANCH   1   8
TORSDOF 9
ENDMDL
