MODEL 1
REMARK VINA RESULT:    -3.833      0.000      0.000
REMARK INTER + INTRA:          -5.599
REMARK INTER:                  -5.178
REMARK INTRA:                  -0.421
REMARK UNBOUND:                -0.421
REMARK SMILES CCCCCCCC(=O)[O-]
REMARK SMILES IDX 5 1 6 2 7 3 8 4 9 5 10 6 4 7 3 8 2 9 1 10
REMARK H PARENT
REMARK Flexibility Score: inf
ROOT
ATOM      1  C   UNL     1     -32.204  13.048  13.043  1.00  0.00     0.000 C 
ENDROOT
BRANCH   1   2
ATOM      2  C   UNL     1     -30.806  12.821  12.445  1.00  0.00     0.006 C 
BRANCH   2   3
ATOM      3  C   UNL     1     -30.298  11.390  12.660  1.00  0.00     0.053 C 
BRANCH   3   4
ATOM      4  C   UNL     1     -28.870  11.404  13.106  1.00  0.00     0.041 C 
ATOM      5  O   UNL     1     -28.339  12.476  13.497  1.00  0.00    -0.550 OA
ATOM      6  O   UNL     1     -28.140  10.222  13.138  1.00  0.00    -0.550 OA
ENDBRANCH   3   4
ENDBRANCH   2   3
ENDBRANCH   1   2
BRANCH   1   7
ATOM      7  C   UNL     1     -32.313  14.384  13.799  1.00  0.00     0.000 C 
BRANCH   7   8
ATOM      8  C   UNL     1     -30.940  15.006  14.096  1.00  0.00    -0.000 C 
BRANCH   8   9
ATOM      9  C   UNL     1     -30.524  14.846  15.566  1.00  0.00    -0.003 C 
ATOM     10  C   UNL     1     -29.022  15.053  15.739  1.00  0.00     0.004 C 
ENDBRANCH   8   9
ENDBRANCH   7   8
ENDBRANCH   1   7
TORSDOF 6
ENDMDL
MODEL 2
REMARK VINA RESULT:    -3.706      2.428      3.961
REMARK INTER + INTRA:          -5.427
REMARK INTER:                  -5.145
REMARK INTRA:                  -0.282
REMARK UNBOUND:                -0.421
REMARK SMILES CCCCCCCC(=O)[O-]
REMARK SMILES IDX 5 1 6 2 7 3 8 4 9 5 10 6 4 7 3 8 2 9 1 10
REMARK H PARENT
REMARK Flexibility Score: inf
ROOT
ATOM      1  C   UNL     1     -29.682  13.909  15.768  1.00  0.00     0.000 C 
ENDROOT
BRANCH   1   2
ATOM      2  C   UNL     1     -31.111  14.320  15.379  1.00  0.00     0.006 C 
BRANCH   2   3
ATOM      3  C   UNL     1     -31.166  15.069  14.041  1.00  0.00     0.053 C 
BRANCH   3   4
ATOM      4  C   UNL     1     -31.683  14.172  12.961  1.00  0.00     0.041 C 
ATOM      5  O   UNL     1     -32.922  14.024  12.800  1.00  0.00    -0.550 OA
ATOM      6  O   UNL     1     -30.796  13.539  12.100  1.00  0.00    -0.550 OA
ENDBRANCH   3   4
ENDBRANCH   2   3
ENDBRANCH   1   2
BRANCH   1   7
ATOM      7  C   UNL     1     -28.691  15.084  15.701  1.00  0.00     0.000 C 
BRANCH   7   8
ATOM      8  C   UNL     1     -28.143  15.471  17.083  1.00  0.00    -0.000 C 
BRANCH   8   9
ATOM      9  C   UNL     1     -29.244  15.942  18.045  1.00  0.00    -0.003 C 
ATOM     10  C   UNL     1     -28.921  17.317  18.621  1.00  0.00     0.004 C 
ENDBRANCH   8   9
ENDBRANCH   7   8
ENDBRANCH   1   7
TORSDOF 6
ENDMDL
MODEL 3
REMARK VINA RESULT:    -3.599      1.405      2.864
REMARK INTER + INTRA:          -5.282
REMARK INTER:                  -4.893
REMARK INTRA:                  -0.389
REMARK UNBOUND:                -0.421
REMARK SMILES CCCCCCCC(=O)[O-]
REMARK SMILES IDX 5 1 6 2 7 3 8 4 9 5 10 6 4 7 3 8 2 9 1 10
REMARK H PARENT
REMARK Flexibility Score: inf
ROOT
ATOM      1  C   UNL     1     -30.007  14.075  14.087  1.00  0.00     0.000 C 
ENDROOT
BRANCH   1   2
ATOM      2  C   UNL     1     -29.726  12.567  13.977  1.00  0.00     0.006 C 
BRANCH   2   3
ATOM      3  C   UNL     1     -30.188  11.977  12.638  1.00  0.00     0.053 C 
BRANCH   3   4
ATOM      4  C   UNL     1     -29.414  10.738  12.318  1.00  0.00     0.041 C 
ATOM      5  O   UNL     1     -28.274  10.556  12.820  1.00  0.00    -0.550 OA
ATOM      6  O   UNL     1     -29.972   9.760  11.505  1.00  0.00    -0.550 OA
ENDBRANCH   3   4
ENDBRANCH   2   3
ENDBRANCH   1   2
BRANCH   1   7
ATOM      7  C   UNL     1     -31.209  14.514  13.232  1.00  0.00     0.000 C 
BRANCH   7   8
ATOM      8  C   UNL     1     -32.543  14.391  13.984  1.00  0.00    -0.000 C 
BRANCH   8   9
ATOM      9  C   UNL     1     -33.707  14.001  13.062  1.00  0.00    -0.003 C 
ATOM     10  C   UNL     1     -33.910  12.489  13.040  1.00  0.00     0.004 C 
ENDBRANCH   8   9
ENDBRANCH   7   8
ENDBRANCH   1   7
TORSDOF 6
ENDMDL
MODEL 4
REMARK VINA RESULT:    -3.565      1.084      1.969
REMARK INTER + INTRA:          -5.236
REMARK INTER:                  -4.709
REMARK INTRA:                  -0.527
REMARK UNBOUND:                -0.421
REMARK SMILES CCCCCCCC(=O)[O-]
REMARK SMILES IDX 5 1 6 2 7 3 8 4 9 5 10 6 4 7 3 8 2 9 1 10
REMARK H PARENT
REMARK Flexibility Score: inf
ROOT
ATOM      1  C   UNL     1     -32.847  11.475  13.149  1.00  0.00     0.000 C 
ENDROOT
BRANCH   1   2
ATOM      2  C   UNL     1     -31.462  10.823  13.288  1.00  0.00     0.006 C 
BRANCH   2   3
ATOM      3  C   UNL     1     -30.427  11.429  12.331  1.00  0.00     0.053 C 
BRANCH   3   4
ATOM      4  C   UNL     1     -29.053  11.327  12.914  1.00  0.00     0.041 C 
ATOM      5  O   UNL     1     -28.452  10.222  12.929  1.00  0.00    -0.550 OA
ATOM      6  O   UNL     1     -28.416  12.464  13.395  1.00  0.00    -0.550 OA
ENDBRANCH   3   4
ENDBRANCH   2   3
ENDBRANCH   1   2
BRANCH   1   7
ATOM      7  C   UNL     1     -33.033  12.673  14.097  1.00  0.00     0.000 C 
BRANCH   7   8
ATOM      8  C   UNL     1     -33.008  14.020  13.357  1.00  0.00    -0.000 C 
BRANCH   8   9
ATOM      9  C   UNL     1     -31.689  14.780  13.559  1.00  0.00    -0.003 C 
ATOM     10  C   UNL     1     -31.085  14.481  14.928  1.00  0.00     0.004 C 
ENDBRANCH   8   9
ENDBRANCH   7   8
ENDBRANCH   1   7
TORSDOF 6
ENDMDL
MODEL 5
REMARK VINA RESULT:    -3.553      3.203      4.753
REMARK INTER + INTRA:          -5.221
REMARK INTER:                  -4.827
REMARK INTRA:                  -0.393
REMARK UNBOUND:                -0.421
REMARK SMILES CCCCCCCC(=O)[O-]
REMARK SMILES IDX 5 1 6 2 7 3 8 4 9 5 10 6 4 7 3 8 2 9 1 10
REMARK H PARENT
REMARK Flexibility Score: inf
ROOT
ATOM      1  C   UNL     1     -29.696  14.361  14.462  1.00  0.00     0.000 C 
ENDROOT
BRANCH   1   2
ATOM      2  C   UNL     1     -29.419  14.108  15.952  1.00  0.00     0.006 C 
BRANCH   2   3
ATOM      3  C   UNL     1     -29.972  15.221  16.852  1.00  0.00     0.053 C 
BRANCH   3   4
ATOM      4  C   UNL     1     -28.856  16.033  17.426  1.00  0.00     0.041 C 
ATOM      5  O   UNL     1     -29.105  17.064  18.104  1.00  0.00    -0.550 OA
ATOM      6  O   UNL     1     -27.539  15.624  17.254  1.00  0.00    -0.550 OA
ENDBRANCH   3   4
ENDBRANCH   2   3
ENDBRANCH   1   2
BRANCH   1   7
ATOM      7  C   UNL     1     -31.082  14.985  14.217  1.00  0.00     0.000 C 
BRANCH   7   8
ATOM      8  C   UNL     1     -31.841  14.301  13.070  1.00  0.00    -0.000 C 
BRANCH   8   9
ATOM      9  C   UNL     1     -33.231  13.805  13.494  1.00  0.00    -0.003 C 
ATOM     10  C   UNL     1     -33.257  13.443  14.977  1.00  0.00     0.004 C 
ENDBRANCH   8   9
ENDBRANCH   7   8
ENDBRANCH   1   7
TORSDOF 6
ENDMDL
MODEL 6
REMARK VINA RESULT:    -3.520      2.027      3.961
REMARK INTER + INTRA:          -5.176
REMARK INTER:                  -4.745
REMARK INTRA:                  -0.430
REMARK UNBOUND:                -0.421
REMARK SMILES CCCCCCCC(=O)[O-]
REMARK SMILES IDX 5 1 6 2 7 3 8 4 9 5 10 6 4 7 3 8 2 9 1 10
REMARK H PARENT
REMARK Flexibility Score: inf
ROOT
ATOM      1  C   UNL     1     -31.281  14.946  13.854  1.00  0.00     0.000 C 
ENDROOT
BRANCH   1   2
ATOM      2  C   UNL     1     -31.073  14.711  15.358  1.00  0.00     0.006 C 
BRANCH   2   3
ATOM      3  C   UNL     1     -29.734  14.030  15.670  1.00  0.00     0.053 C 
BRANCH   3   4
ATOM      4  C   UNL     1     -28.658  15.053  15.852  1.00  0.00     0.041 C 
ATOM      5  O   UNL     1     -27.758  15.188  14.983  1.00  0.00    -0.550 OA
ATOM      6  O   UNL     1     -28.677  15.893  16.959  1.00  0.00    -0.550 OA
ENDBRANCH   3   4
ENDBRANCH   2   3
ENDBRANCH   1   2
BRANCH   1   7
ATOM      7  C   UNL     1     -32.316  13.984  13.244  1.00  0.00     0.000 C 
BRANCH   7   8
ATOM      8  C   UNL     1     -31.792  12.543  13.142  1.00  0.00    -0.000 C 
BRANCH   8   9
ATOM      9  C   UNL     1     -30.477  12.447  12.354  1.00  0.00    -0.003 C 
ATOM     10  C   UNL     1     -29.542  11.409  12.968  1.00  0.00     0.004 C 
ENDBRANCH   8   9
ENDBRANCH   7   8
ENDBRANCH   1   7
TORSDOF 6
ENDMDL
MODEL 7
REMARK VINA RESULT:    -3.411      1.910      3.470
REMARK INTER + INTRA:          -5.028
REMARK INTER:                  -4.490
REMARK INTRA:                  -0.538
REMARK UNBOUND:                -0.421
REMARK SMILES CCCCCCCC(=O)[O-]
REMARK SMILES IDX 5 1 6 2 7 3 8 4 9 5 10 6 4 7 3 8 2 9 1 10
REMARK H PARENT
REMARK Flexibility Score: inf
ROOT
ATOM      1  C   UNL     1     -32.984  14.345  13.387  1.00  0.00     0.000 C 
ENDROOT
BRANCH   1   2
ATOM      2  C   UNL     1     -31.460  14.454  13.226  1.00  0.00     0.006 C 
BRANCH   2   3
ATOM      3  C   UNL     1     -30.753  14.822  14.538  1.00  0.00     0.053 C 
BRANCH   3   4
ATOM      4  C   UNL     1     -29.362  14.271  14.555  1.00  0.00     0.041 C 
ATOM      5  O   UNL     1     -29.137  13.106  14.134  1.00  0.00    -0.550 OA
ATOM      6  O   UNL     1     -28.307  15.062  14.989  1.00  0.00    -0.550 OA
ENDBRANCH   3   4
ENDBRANCH   2   3
ENDBRANCH   1   2
BRANCH   1   7
ATOM      7  C   UNL     1     -33.498  12.908  13.188  1.00  0.00     0.000 C 
BRANCH   7   8
ATOM      8  C   UNL     1     -32.371  11.865  13.258  1.00  0.00    -0.000 C 
BRANCH   8   9
ATOM      9  C   UNL     1     -32.566  10.860  14.403  1.00  0.00    -0.003 C 
ATOM     10  C   UNL     1     -31.823  11.305  15.659  1.00  0.00     0.004 C 
ENDBRANCH   8   9
ENDBRANCH   7   8
ENDBRANCH   1   7
TORSDOF 6
ENDMDL
MODEL 8
REMARK VINA RESULT:    -3.374      2.166      3.954
REMARK INTER + INTRA:          -4.979
REMARK INTER:                  -4.428
REMARK INTRA:                  -0.551
REMARK UNBOUND:                -0.421
REMARK SMILES CCCCCCCC(=O)[O-]
REMARK SMILES IDX 5 1 6 2 7 3 8 4 9 5 10 6 4 7 3 8 2 9 1 10
REMARK H PARENT
REMARK Flexibility Score: inf
ROOT
ATOM      1  C   UNL     1     -33.359  12.682  14.120  1.00  0.00     0.000 C 
ENDROOT
BRANCH   1   2
ATOM      2  C   UNL     1     -33.159  14.034  13.415  1.00  0.00     0.006 C 
BRANCH   2   3
ATOM      3  C   UNL     1     -31.882  14.753  13.869  1.00  0.00     0.053 C 
BRANCH   3   4
ATOM      4  C   UNL     1     -30.687  14.188  13.170  1.00  0.00     0.041 C 
ATOM      5  O   UNL     1     -29.582  14.110  13.767  1.00  0.00    -0.550 OA
ATOM      6  O   UNL     1     -30.806  13.702  11.874  1.00  0.00    -0.550 OA
ENDBRANCH   3   4
ENDBRANCH   2   3
ENDBRANCH   1   2
BRANCH   1   7
ATOM      7  C   UNL     1     -33.646  11.538  13.132  1.00  0.00     0.000 C 
BRANCH   7   8
ATOM      8  C   UNL     1     -32.778  10.299  13.398  1.00  0.00    -0.000 C 
BRANCH   8   9
ATOM      9  C   UNL     1     -31.477  10.303  12.582  1.00  0.00    -0.003 C 
ATOM     10  C   UNL     1     -30.261  10.483  13.486  1.00  0.00     0.004 C 
ENDBRANCH   8   9
ENDBRANCH   7   8
ENDBRANCH   1   7
TORSDOF 6
ENDMDL
MODEL 9
REMARK VINA RESULT:    -3.349      2.348      4.772
REMARK INTER + INTRA:          -4.945
REMARK INTER:                  -4.617
REMARK INTRA:                  -0.327
REMARK UNBOUND:                -0.421
REMARK SMILES CCCCCCCC(=O)[O-]
REMARK SMILES IDX 5 1 6 2 7 3 8 4 9 5 10 6 4 7 3 8 2 9 1 10
REMARK H PARENT
REMARK Flexibility Score: inf
ROOT
ATOM      1  C   UNL     1     -29.708  12.269  14.588  1.00  0.00     0.000 C 
ENDROOT
BRANCH   1   2
ATOM      2  C   UNL     1     -29.291  13.735  14.388  1.00  0.00     0.006 C 
BRANCH   2   3
ATOM      3  C   UNL     1     -30.477  14.704  14.487  1.00  0.00     0.053 C 
BRANCH   3   4
ATOM      4  C   UNL     1     -31.413  14.504  13.337  1.00  0.00     0.041 C 
ATOM      5  O   UNL     1     -30.965  14.399  12.166  1.00  0.00    -0.550 OA
ATOM      6  O   UNL     1     -32.778  14.384  13.566  1.00  0.00    -0.550 OA
ENDBRANCH   3   4
ENDBRANCH   2   3
ENDBRANCH   1   2
BRANCH   1   7
ATOM      7  C   UNL     1     -29.038  11.322  13.576  1.00  0.00     0.000 C 
BRANCH   7   8
ATOM      8  C   UNL     1     -29.888  11.113  12.313  1.00  0.00    -0.000 C 
BRANCH   8   9
ATOM      9  C   UNL     1     -30.994  10.067  12.512  1.00  0.00    -0.003 C 
ATOM     10  C   UNL     1     -30.658   8.765  11.791  1.00  0.00     0.004 C 
ENDBRANCH   8   9
ENDBRANCH   7   8
ENDBRANCH   1   7
TORSDOF 6
ENDMDL
