MODEL 1
REMARK VINA RESULT:    -4.054      0.000      0.000
REMARK INTER + INTRA:          -5.904
REMARK INTER:                  -5.476
REMARK INTRA:                  -0.429
REMARK UNBOUND:                -0.429
REMARK SMILES [NH3+]CCCC[C@@H]([NH3+])C(=O)[O-]
REMARK SMILES IDX 4 1 3 2 2 3 1 4 5 8 6 9 7 10 8 14 9 15 10 16
REMARK H PARENT 1 5 1 6 1 7 7 11 7 12 7 13
REMARK Flexibility Score: inf
ROOT
ATOM      1  C   UNL     1     -37.626   1.217  14.586  1.00  0.00     0.012 C 
ENDROOT
BRANCH   1   2
ATOM      2  C   UNL     1     -37.622   2.129  15.824  1.00  0.00     0.061 C 
BRANCH   2   3
ATOM      3  C   UNL     1     -36.710   3.356  15.648  1.00  0.00     0.258 C 
BRANCH   3   4
ATOM      4  N   UNL     1     -35.461   3.025  14.960  1.00  0.00    -0.358 N 
ATOM      5  H   UNL     1     -35.637   2.855  13.944  1.00  0.00     0.344 HD
ATOM      6  H   UNL     1     -35.017   2.182  15.392  1.00  0.00     0.344 HD
ATOM      7  H   UNL     1     -34.801   3.832  15.047  1.00  0.00     0.344 HD
ENDBRANCH   3   4
ENDBRANCH   2   3
ENDBRANCH   1   2
BRANCH   1   8
ATOM      8  C   UNL     1     -37.197  -0.228  14.902  1.00  0.00     0.072 C 
BRANCH   8   9
ATOM      9  C   UNL     1     -36.441  -0.952  13.763  1.00  0.00     0.227 C 
BRANCH   9  10
ATOM     10  N   UNL     1     -37.321  -1.256  12.626  1.00  0.00    -0.350 N 
ATOM     11  H   UNL     1     -37.171  -2.240  12.309  1.00  0.00     0.345 HD
ATOM     12  H   UNL     1     -37.092  -0.630  11.819  1.00  0.00     0.345 HD
ATOM     13  H   UNL     1     -38.326  -1.122  12.887  1.00  0.00     0.345 HD
ENDBRANCH   9  10
BRANCH   9  14
ATOM     14  C   UNL     1     -35.283  -0.103  13.313  1.00  0.00     0.099 C 
ATOM     15  O   UNL     1     -35.196   0.279  12.114  1.00  0.00    -0.544 OA
ATOM     16  O   UNL     1     -34.315   0.295  14.228  1.00  0.00    -0.544 OA
ENDBRANCH   9  14
ENDBRANCH   8   9
ENDBRANCH   1   8
TORSDOF 7
ENDMDL
MODEL 2
REMARK VINA RESULT:    -3.971     13.722     15.380
REMARK INTER + INTRA:          -5.792
REMARK INTER:                  -5.710
REMARK INTRA:                  -0.082
REMARK UNBOUND:                -0.429
REMARK SMILES [NH3+]CCCC[C@@H]([NH3+])C(=O)[O-]
REMARK SMILES IDX 4 1 3 2 2 3 1 4 5 8 6 9 7 10 8 14 9 15 10 16
REMARK H PARENT 1 5 1 6 1 7 7 11 7 12 7 13
REMARK Flexibility Score: inf
ROOT
ATOM      1  C   UNL     1     -26.443  13.812  14.706  1.00  0.00     0.012 C 
ENDROOT
BRANCH   1   2
ATOM      2  C   UNL     1     -27.010  15.138  14.175  1.00  0.00     0.061 C 
BRANCH   2   3
ATOM      3  C   UNL     1     -27.468  16.078  15.304  1.00  0.00     0.258 C 
BRANCH   3   4
ATOM      4  N   UNL     1     -26.864  15.731  16.593  1.00  0.00    -0.358 N 
ATOM      5  H   UNL     1     -25.834  15.591  16.488  1.00  0.00     0.344 HD
ATOM      6  H   UNL     1     -27.305  14.866  16.983  1.00  0.00     0.344 HD
ATOM      7  H   UNL     1     -27.022  16.518  17.263  1.00  0.00     0.344 HD
ENDBRANCH   3   4
ENDBRANCH   2   3
ENDBRANCH   1   2
BRANCH   1   8
ATOM      8  C   UNL     1     -26.808  12.604  13.822  1.00  0.00     0.072 C 
BRANCH   8   9
ATOM      9  C   UNL     1     -26.378  11.228  14.382  1.00  0.00     0.227 C 
BRANCH   9  10
ATOM     10  N   UNL     1     -25.265  11.345  15.334  1.00  0.00    -0.350 N 
ATOM     11  H   UNL     1     -24.450  10.781  15.004  1.00  0.00     0.345 HD
ATOM     12  H   UNL     1     -25.550  10.965  16.266  1.00  0.00     0.345 HD
ATOM     13  H   UNL     1     -24.976  12.344  15.447  1.00  0.00     0.345 HD
ENDBRANCH   9  10
BRANCH   9  14
ATOM     14  C   UNL     1     -27.560  10.566  15.040  1.00  0.00     0.099 C 
ATOM     15  O   UNL     1     -28.620  11.214  15.254  1.00  0.00    -0.544 OA
ATOM     16  O   UNL     1     -27.499   9.222  15.389  1.00  0.00    -0.544 OA
ENDBRANCH   9  14
ENDBRANCH   8   9
ENDBRANCH   1   8
TORSDOF 7
ENDMDL
MODEL 3
REMARK VINA RESULT:    -3.968     18.177     18.865
REMARK INTER + INTRA:          -5.789
REMARK INTER:                  -5.383
REMARK INTRA:                  -0.406
REMARK UNBOUND:                -0.429
REMARK SMILES [NH3+]CCCC[C@@H]([NH3+])C(=O)[O-]
REMARK SMILES IDX 4 1 3 2 2 3 1 4 5 8 6 9 7 10 8 14 9 15 10 16
REMARK H PARENT 1 5 1 6 1 7 7 11 7 12 7 13
REMARK Flexibility Score: inf
ROOT
ATOM      1  C   UNL     1     -22.183   9.997  21.536  1.00  0.00     0.012 C 
ENDROOT
BRANCH   1   2
ATOM      2  C   UNL     1     -21.837  10.788  22.809  1.00  0.00     0.061 C 
BRANCH   2   3
ATOM      3  C   UNL     1     -22.179  12.282  22.684  1.00  0.00     0.258 C 
BRANCH   3   4
ATOM      4  N   UNL     1     -23.154  12.542  21.622  1.00  0.00    -0.358 N 
ATOM      5  H   UNL     1     -23.279  11.694  21.025  1.00  0.00     0.344 HD
ATOM      6  H   UNL     1     -22.848  13.351  21.034  1.00  0.00     0.344 HD
ATOM      7  H   UNL     1     -24.076  12.775  22.057  1.00  0.00     0.344 HD
ENDBRANCH   3   4
ENDBRANCH   2   3
ENDBRANCH   1   2
BRANCH   1   8
ATOM      8  C   UNL     1     -20.979   9.823  20.591  1.00  0.00     0.072 C 
BRANCH   8   9
ATOM      9  C   UNL     1     -21.324   9.828  19.083  1.00  0.00     0.227 C 
BRANCH   9  10
ATOM     10  N   UNL     1     -22.724   9.457  18.838  1.00  0.00    -0.350 N 
ATOM     11  H   UNL     1     -22.806   8.949  17.927  1.00  0.00     0.345 HD
ATOM     12  H   UNL     1     -23.316  10.317  18.770  1.00  0.00     0.345 HD
ATOM     13  H   UNL     1     -23.088   8.851  19.609  1.00  0.00     0.345 HD
ENDBRANCH   9  10
BRANCH   9  14
ATOM     14  C   UNL     1     -21.039  11.192  18.510  1.00  0.00     0.099 C 
ATOM     15  O   UNL     1     -20.884  11.345  17.268  1.00  0.00    -0.544 OA
ATOM     16  O   UNL     1     -20.977  12.298  19.349  1.00  0.00    -0.544 OA
ENDBRANCH   9  14
ENDBRANCH   8   9
ENDBRANCH   1   8
TORSDOF 7
ENDMDL
MODEL 4
REMARK VINA RESULT:    -3.944     18.137     19.082
REMARK INTER + INTRA:          -5.756
REMARK INTER:                  -5.565
REMARK INTRA:                  -0.191
REMARK UNBOUND:                -0.429
REMARK SMILES [NH3+]CCCC[C@@H]([NH3+])C(=O)[O-]
REMARK SMILES IDX 4 1 3 2 2 3 1 4 5 8 6 9 7 10 8 14 9 15 10 16
REMARK H PARENT 1 5 1 6 1 7 7 11 7 12 7 13
REMARK Flexibility Score: inf
ROOT
ATOM      1  C   UNL     1     -19.655   9.513  18.603  1.00  0.00     0.012 C 
ENDROOT
BRANCH   1   2
ATOM      2  C   UNL     1     -18.942  10.709  17.950  1.00  0.00     0.061 C 
BRANCH   2   3
ATOM      3  C   UNL     1     -19.625  11.162  16.648  1.00  0.00     0.258 C 
BRANCH   3   4
ATOM      4  N   UNL     1     -20.395  10.085  16.021  1.00  0.00    -0.358 N 
ATOM      5  H   UNL     1     -21.418  10.281  16.086  1.00  0.00     0.344 HD
ATOM      6  H   UNL     1     -20.176   9.168  16.474  1.00  0.00     0.344 HD
ATOM      7  H   UNL     1     -20.136  10.028  15.009  1.00  0.00     0.344 HD
ENDBRANCH   3   4
ENDBRANCH   2   3
ENDBRANCH   1   2
BRANCH   1   8
ATOM      8  C   UNL     1     -20.171   9.822  20.021  1.00  0.00     0.072 C 
BRANCH   8   9
ATOM      9  C   UNL     1     -21.659  10.238  20.101  1.00  0.00     0.227 C 
BRANCH   9  10
ATOM     10  N   UNL     1     -22.480   9.537  19.103  1.00  0.00    -0.350 N 
ATOM     11  H   UNL     1     -22.301   9.931  18.152  1.00  0.00     0.345 HD
ATOM     12  H   UNL     1     -23.495   9.676  19.314  1.00  0.00     0.345 HD
ATOM     13  H   UNL     1     -22.269   8.512  19.102  1.00  0.00     0.345 HD
ENDBRANCH   9  10
BRANCH   9  14
ATOM     14  C   UNL     1     -22.180   9.966  21.487  1.00  0.00     0.099 C 
ATOM     15  O   UNL     1     -22.372   8.782  21.878  1.00  0.00    -0.544 OA
ATOM     16  O   UNL     1     -22.422  11.021  22.359  1.00  0.00    -0.544 OA
ENDBRANCH   9  14
ENDBRANCH   8   9
ENDBRANCH   1   8
TORSDOF 7
ENDMDL
MODEL 5
REMARK VINA RESULT:    -3.926      1.770      2.035
REMARK INTER + INTRA:          -5.732
REMARK INTER:                  -5.495
REMARK INTRA:                  -0.237
REMARK UNBOUND:                -0.429
REMARK SMILES [NH3+]CCCC[C@@H]([NH3+])C(=O)[O-]
REMARK SMILES IDX 4 1 3 2 2 3 1 4 5 8 6 9 7 10 8 14 9 15 10 16
REMARK H PARENT 1 5 1 6 1 7 7 11 7 12 7 13
REMARK Flexibility Score: inf
ROOT
ATOM      1  C   UNL     1     -37.554   0.998  15.320  1.00  0.00     0.012 C 
ENDROOT
BRANCH   1   2
ATOM      2  C   UNL     1     -38.142   2.237  14.625  1.00  0.00     0.061 C 
BRANCH   2   3
ATOM      3  C   UNL     1     -37.529   3.550  15.143  1.00  0.00     0.258 C 
BRANCH   3   4
ATOM      4  N   UNL     1     -36.646   3.334  16.291  1.00  0.00    -0.358 N 
ATOM      5  H   UNL     1     -37.140   3.566  17.182  1.00  0.00     0.344 HD
ATOM      6  H   UNL     1     -35.780   3.914  16.201  1.00  0.00     0.344 HD
ATOM      7  H   UNL     1     -36.370   2.326  16.323  1.00  0.00     0.344 HD
ENDBRANCH   3   4
ENDBRANCH   2   3
ENDBRANCH   1   2
BRANCH   1   8
ATOM      8  C   UNL     1     -36.921  -0.001  14.333  1.00  0.00     0.072 C 
BRANCH   8   9
ATOM      9  C   UNL     1     -35.877   0.604  13.365  1.00  0.00     0.227 C 
BRANCH   9  10
ATOM     10  N   UNL     1     -34.727   1.172  14.083  1.00  0.00    -0.350 N 
ATOM     11  H   UNL     1     -33.886   0.567  13.947  1.00  0.00     0.345 HD
ATOM     12  H   UNL     1     -34.926   1.204  15.109  1.00  0.00     0.345 HD
ATOM     13  H   UNL     1     -34.519   2.140  13.744  1.00  0.00     0.345 HD
ENDBRANCH   9  10
BRANCH   9  14
ATOM     14  C   UNL     1     -35.417  -0.456  12.400  1.00  0.00     0.099 C 
ATOM     15  O   UNL     1     -35.008  -1.572  12.822  1.00  0.00    -0.544 OA
ATOM     16  O   UNL     1     -35.472  -0.221  11.032  1.00  0.00    -0.544 OA
ENDBRANCH   9  14
ENDBRANCH   8   9
ENDBRANCH   1   8
TORSDOF 7
ENDMDL
MODEL 6
REMARK VINA RESULT:    -3.881     19.064     20.155
REMARK INTER + INTRA:          -5.671
REMARK INTER:                  -5.460
REMARK INTRA:                  -0.211
REMARK UNBOUND:                -0.429
REMARK SMILES [NH3+]CCCC[C@@H]([NH3+])C(=O)[O-]
REMARK SMILES IDX 4 1 3 2 2 3 1 4 5 8 6 9 7 10 8 14 9 15 10 16
REMARK H PARENT 1 5 1 6 1 7 7 11 7 12 7 13
REMARK Flexibility Score: inf
ROOT
ATOM      1  C   UNL     1     -22.569  12.647  21.740  1.00  0.00     0.012 C 
ENDROOT
BRANCH   1   2
ATOM      2  C   UNL     1     -21.831  13.827  21.085  1.00  0.00     0.061 C 
BRANCH   2   3
ATOM      3  C   UNL     1     -20.394  13.465  20.672  1.00  0.00     0.258 C 
BRANCH   3   4
ATOM      4  N   UNL     1     -19.682  14.605  20.088  1.00  0.00    -0.358 N 
ATOM      5  H   UNL     1     -20.334  15.194  19.525  1.00  0.00     0.344 HD
ATOM      6  H   UNL     1     -18.890  14.274  19.490  1.00  0.00     0.344 HD
ATOM      7  H   UNL     1     -19.293  15.193  20.861  1.00  0.00     0.344 HD
ENDBRANCH   3   4
ENDBRANCH   2   3
ENDBRANCH   1   2
BRANCH   1   8
ATOM      8  C   UNL     1     -21.630  11.708  22.520  1.00  0.00     0.072 C 
BRANCH   8   9
ATOM      9  C   UNL     1     -21.660  10.228  22.070  1.00  0.00     0.227 C 
BRANCH   9  10
ATOM     10  N   UNL     1     -22.599  10.010  20.961  1.00  0.00    -0.350 N 
ATOM     11  H   UNL     1     -22.073   9.879  20.067  1.00  0.00     0.345 HD
ATOM     12  H   UNL     1     -23.212  10.849  20.841  1.00  0.00     0.345 HD
ATOM     13  H   UNL     1     -23.198   9.172  21.140  1.00  0.00     0.345 HD
ENDBRANCH   9  10
BRANCH   9  14
ATOM     14  C   UNL     1     -20.273   9.800  21.672  1.00  0.00     0.099 C 
ATOM     15  O   UNL     1     -19.416   9.509  22.549  1.00  0.00    -0.544 OA
ATOM     16  O   UNL     1     -19.939   9.691  20.327  1.00  0.00    -0.544 OA
ENDBRANCH   9  14
ENDBRANCH   8   9
ENDBRANCH   1   8
TORSDOF 7
ENDMDL
MODEL 7
REMARK VINA RESULT:    -3.875     17.623     19.211
REMARK INTER + INTRA:          -5.662
REMARK INTER:                  -5.214
REMARK INTRA:                  -0.448
REMARK UNBOUND:                -0.429
REMARK SMILES [NH3+]CCCC[C@@H]([NH3+])C(=O)[O-]
REMARK SMILES IDX 4 1 3 2 2 3 1 4 5 8 6 9 7 10 8 14 9 15 10 16
REMARK H PARENT 1 5 1 6 1 7 7 11 7 12 7 13
REMARK Flexibility Score: inf
ROOT
ATOM      1  C   UNL     1     -19.769   9.369  19.143  1.00  0.00     0.012 C 
ENDROOT
BRANCH   1   2
ATOM      2  C   UNL     1     -20.542   9.679  17.850  1.00  0.00     0.061 C 
BRANCH   2   3
ATOM      3  C   UNL     1     -21.936  10.269  18.125  1.00  0.00     0.258 C 
BRANCH   3   4
ATOM      4  N   UNL     1     -22.888   9.254  18.582  1.00  0.00    -0.358 N 
ATOM      5  H   UNL     1     -22.479   8.298  18.481  1.00  0.00     0.344 HD
ATOM      6  H   UNL     1     -23.781   9.320  18.042  1.00  0.00     0.344 HD
ATOM      7  H   UNL     1     -23.096   9.416  19.594  1.00  0.00     0.344 HD
ENDBRANCH   3   4
ENDBRANCH   2   3
ENDBRANCH   1   2
BRANCH   1   8
ATOM      8  C   UNL     1     -20.045  10.385  20.267  1.00  0.00     0.072 C 
BRANCH   8   9
ATOM      9  C   UNL     1     -20.301   9.767  21.662  1.00  0.00     0.227 C 
BRANCH   9  10
ATOM     10  N   UNL     1     -19.460  10.381  22.698  1.00  0.00    -0.350 N 
ATOM     11  H   UNL     1     -19.452  11.420  22.584  1.00  0.00     0.345 HD
ATOM     12  H   UNL     1     -18.472  10.049  22.601  1.00  0.00     0.345 HD
ATOM     13  H   UNL     1     -19.810  10.138  23.654  1.00  0.00     0.345 HD
ENDBRANCH   9  10
BRANCH   9  14
ATOM     14  C   UNL     1     -21.757   9.918  22.015  1.00  0.00     0.099 C 
ATOM     15  O   UNL     1     -22.621   9.153  21.509  1.00  0.00    -0.544 OA
ATOM     16  O   UNL     1     -22.153  10.887  22.930  1.00  0.00    -0.544 OA
ENDBRANCH   9  14
ENDBRANCH   8   9
ENDBRANCH   1   8
TORSDOF 7
ENDMDL
MODEL 8
REMARK VINA RESULT:    -3.800      9.238     10.223
REMARK INTER + INTRA:          -5.561
REMARK INTER:                  -5.341
REMARK INTRA:                  -0.220
REMARK UNBOUND:                -0.429
REMARK SMILES [NH3+]CCCC[C@@H]([NH3+])C(=O)[O-]
REMARK SMILES IDX 4 1 3 2 2 3 1 4 5 8 6 9 7 10 8 14 9 15 10 16
REMARK H PARENT 1 5 1 6 1 7 7 11 7 12 7 13
REMARK Flexibility Score: inf
ROOT
ATOM      1  C   UNL     1     -29.065   4.540  16.690  1.00  0.00     0.012 C 
ENDROOT
BRANCH   1   2
ATOM      2  C   UNL     1     -28.518   3.917  17.985  1.00  0.00     0.061 C 
BRANCH   2   3
ATOM      3  C   UNL     1     -26.981   3.870  18.014  1.00  0.00     0.258 C 
BRANCH   3   4
ATOM      4  N   UNL     1     -26.409   3.608  16.690  1.00  0.00    -0.358 N 
ATOM      5  H   UNL     1     -25.953   2.669  16.669  1.00  0.00     0.344 HD
ATOM      6  H   UNL     1     -25.715   4.349  16.438  1.00  0.00     0.344 HD
ATOM      7  H   UNL     1     -27.178   3.615  15.982  1.00  0.00     0.344 HD
ENDBRANCH   3   4
ENDBRANCH   2   3
ENDBRANCH   1   2
BRANCH   1   8
ATOM      8  C   UNL     1     -29.431   6.028  16.847  1.00  0.00     0.072 C 
BRANCH   8   9
ATOM      9  C   UNL     1     -28.630   6.999  15.949  1.00  0.00     0.227 C 
BRANCH   9  10
ATOM     10  N   UNL     1     -27.949   6.298  14.852  1.00  0.00    -0.350 N 
ATOM     11  H   UNL     1     -27.758   6.961  14.067  1.00  0.00     0.345 HD
ATOM     12  H   UNL     1     -28.563   5.538  14.477  1.00  0.00     0.345 HD
ATOM     13  H   UNL     1     -27.048   5.878  15.181  1.00  0.00     0.345 HD
ENDBRANCH   9  10
BRANCH   9  14
ATOM     14  C   UNL     1     -29.556   8.051  15.399  1.00  0.00     0.099 C 
ATOM     15  O   UNL     1     -29.161   9.240  15.254  1.00  0.00    -0.544 OA
ATOM     16  O   UNL     1     -30.848   7.708  15.017  1.00  0.00    -0.544 OA
ENDBRANCH   9  14
ENDBRANCH   8   9
ENDBRANCH   1   8
TORSDOF 7
ENDMDL
MODEL 9
REMARK VINA RESULT:    -3.795     19.085     19.853
REMARK INTER + INTRA:          -5.555
REMARK INTER:                  -5.394
REMARK INTRA:                  -0.161
REMARK UNBOUND:                -0.429
REMARK SMILES [NH3+]CCCC[C@@H]([NH3+])C(=O)[O-]
REMARK SMILES IDX 4 1 3 2 2 3 1 4 5 8 6 9 7 10 8 14 9 15 10 16
REMARK H PARENT 1 5 1 6 1 7 7 11 7 12 7 13
REMARK Flexibility Score: inf
ROOT
ATOM      1  C   UNL     1     -19.716   9.544  19.292  1.00  0.00     0.012 C 
ENDROOT
BRANCH   1   2
ATOM      2  C   UNL     1     -19.548  10.531  18.125  1.00  0.00     0.061 C 
BRANCH   2   3
ATOM      3  C   UNL     1     -20.597  10.321  17.021  1.00  0.00     0.258 C 
BRANCH   3   4
ATOM      4  N   UNL     1     -20.001  10.315  15.683  1.00  0.00    -0.358 N 
ATOM      5  H   UNL     1     -20.190   9.406  15.203  1.00  0.00     0.344 HD
ATOM      6  H   UNL     1     -18.970  10.481  15.741  1.00  0.00     0.344 HD
ATOM      7  H   UNL     1     -20.432  11.080  15.116  1.00  0.00     0.344 HD
ENDBRANCH   3   4
ENDBRANCH   2   3
ENDBRANCH   1   2
BRANCH   1   8
ATOM      8  C   UNL     1     -20.165  10.227  20.598  1.00  0.00     0.072 C 
BRANCH   8   9
ATOM      9  C   UNL     1     -21.462  11.063  20.488  1.00  0.00     0.227 C 
BRANCH   9  10
ATOM     10  N   UNL     1     -22.597  10.405  21.150  1.00  0.00    -0.350 N 
ATOM     11  H   UNL     1     -22.261   9.845  21.965  1.00  0.00     0.345 HD
ATOM     12  H   UNL     1     -23.064   9.743  20.487  1.00  0.00     0.345 HD
ATOM     13  H   UNL     1     -23.298  11.111  21.476  1.00  0.00     0.345 HD
ENDBRANCH   9  10
BRANCH   9  14
ATOM     14  C   UNL     1     -21.230  12.426  21.084  1.00  0.00     0.099 C 
ATOM     15  O   UNL     1     -22.104  12.961  21.818  1.00  0.00    -0.544 OA
ATOM     16  O   UNL     1     -20.031  13.090  20.853  1.00  0.00    -0.544 OA
ENDBRANCH   9  14
ENDBRANCH   8   9
ENDBRANCH   1   8
TORSDOF 7
ENDMDL
