MODEL 1
REMARK VINA RESULT:    17.102      0.000      0.000
REMARK INTER + INTRA:          21.531
REMARK INTER:                  21.601
REMARK INTRA:                  -0.070
REMARK UNBOUND:                -0.070
REMARK SMILES Oc1cc(O)cc(CCc2ccccc2O)c1
REMARK SMILES IDX 9 1 10 2 12 3 13 4 11 5 14 6 15 7 16 8 8 10 7 11 6 12 17 13
REMARK SMILES IDX 4 14 2 15 3 16 5 17 1 19
REMARK H PARENT 16 9 5 18 1 20
REMARK Flexibility Score: inf
ROOT
ATOM      1  C   UNL     1       7.100  42.409  26.032  1.00  0.00     0.044 C 
ENDROOT
BRANCH   1   2
ATOM      2  C   UNL     1       5.898  42.481  25.123  1.00  0.00    -0.006 A 
ATOM      3  C   UNL     1       3.620  41.804  24.608  1.00  0.00     0.001 A 
ATOM      4  C   UNL     1       3.618  42.644  23.493  1.00  0.00     0.004 A 
ATOM      5  C   UNL     1       4.752  41.726  25.424  1.00  0.00     0.007 A 
ATOM      6  C   UNL     1       4.746  43.410  23.191  1.00  0.00     0.046 A 
ATOM      7  C   UNL     1       5.887  43.339  24.004  1.00  0.00     0.118 A 
BRANCH   7   8
ATOM      8  O   UNL     1       7.005  44.119  23.706  1.00  0.00    -0.508 OA
ATOM      9  H   UNL     1       7.935  43.719  23.667  1.00  0.00     0.293 HD
ENDBRANCH   7   8
ENDBRANCH   1   2
BRANCH   1  10
ATOM     10  C   UNL     1       7.776  41.039  25.924  1.00  0.00     0.040 C 
BRANCH  10  11
ATOM     11  C   UNL     1       8.605  40.954  24.672  1.00  0.00    -0.040 A 
ATOM     12  C   UNL     1       7.986  40.941  23.411  1.00  0.00     0.050 A 
ATOM     13  C   UNL     1      10.008  40.948  24.751  1.00  0.00     0.050 A 
ATOM     14  C   UNL     1       8.759  40.897  22.243  1.00  0.00     0.119 A 
ATOM     15  C   UNL     1      10.781  40.904  23.583  1.00  0.00     0.119 A 
ATOM     16  C   UNL     1      10.155  40.875  22.333  1.00  0.00     0.092 A 
BRANCH  14  17
ATOM     17  O   UNL     1       8.152  40.875  20.990  1.00  0.00    -0.508 OA
ATOM     18  H   UNL     1       8.700  40.871  20.137  1.00  0.00     0.293 HD
ENDBRANCH  14  17
BRANCH  15  19
ATOM     19  O   UNL     1      12.173  40.890  23.654  1.00  0.00    -0.508 OA
ATOM     20  H   UNL     1      12.662  40.336  24.348  1.00  0.00     0.293 HD
ENDBRANCH  15  19
ENDBRANCH  10  11
ENDBRANCH   1  10
TORSDOF 6
ENDMDL
MODEL 2
REMARK VINA RESULT:    17.713      3.873      5.117
REMARK INTER + INTRA:          22.304
REMARK INTER:                  22.817
REMARK INTRA:                  -0.513
REMARK UNBOUND:                -0.070
REMARK SMILES Oc1cc(O)cc(CCc2ccccc2O)c1
REMARK SMILES IDX 9 1 10 2 12 3 13 4 11 5 14 6 15 7 16 8 8 10 7 11 6 12 17 13
REMARK SMILES IDX 4 14 2 15 3 16 5 17 1 19
REMARK H PARENT 16 9 5 18 1 20
REMARK Flexibility Score: inf
ROOT
ATOM      1  C   UNL     1       6.963  46.277  24.245  1.00  0.00     0.044 C 
ENDROOT
BRANCH   1   2
ATOM      2  C   UNL     1       6.497  47.195  25.347  1.00  0.00    -0.006 A 
ATOM      3  C   UNL     1       6.363  47.719  27.718  1.00  0.00     0.001 A 
ATOM      4  C   UNL     1       5.709  48.916  27.421  1.00  0.00     0.004 A 
ATOM      5  C   UNL     1       6.762  46.864  26.687  1.00  0.00     0.007 A 
ATOM      6  C   UNL     1       5.454  49.263  26.092  1.00  0.00     0.046 A 
ATOM      7  C   UNL     1       5.850  48.412  25.050  1.00  0.00     0.118 A 
BRANCH   7   8
ATOM      8  O   UNL     1       5.606  48.773  23.725  1.00  0.00    -0.508 OA
ATOM      9  H   UNL     1       4.789  48.440  23.227  1.00  0.00     0.293 HD
ENDBRANCH   7   8
ENDBRANCH   1   2
BRANCH   1  10
ATOM     10  C   UNL     1       5.810  45.394  23.756  1.00  0.00     0.040 C 
BRANCH  10  11
ATOM     11  C   UNL     1       6.067  43.951  24.095  1.00  0.00    -0.040 A 
ATOM     12  C   UNL     1       5.015  43.126  24.523  1.00  0.00     0.050 A 
ATOM     13  C   UNL     1       7.350  43.403  23.930  1.00  0.00     0.050 A 
ATOM     14  C   UNL     1       5.247  41.773  24.807  1.00  0.00     0.119 A 
ATOM     15  C   UNL     1       7.583  42.051  24.214  1.00  0.00     0.119 A 
ATOM     16  C   UNL     1       6.532  41.240  24.655  1.00  0.00     0.092 A 
BRANCH  14  17
ATOM     17  O   UNL     1       4.211  40.949  25.239  1.00  0.00    -0.508 OA
ATOM     18  H   UNL     1       3.338  41.334  25.584  1.00  0.00     0.293 HD
ENDBRANCH  14  17
BRANCH  15  19
ATOM     19  O   UNL     1       8.855  41.502  24.060  1.00  0.00    -0.508 OA
ATOM     20  H   UNL     1       8.994  40.608  23.602  1.00  0.00     0.293 HD
ENDBRANCH  15  19
ENDBRANCH  10  11
ENDBRANCH   1  10
TORSDOF 6
ENDMDL
MODEL 3
REMARK VINA RESULT:    17.738      3.859      5.381
REMARK INTER + INTRA:          22.335
REMARK INTER:                  22.833
REMARK INTRA:                  -0.497
REMARK UNBOUND:                -0.070
REMARK SMILES Oc1cc(O)cc(CCc2ccccc2O)c1
REMARK SMILES IDX 9 1 10 2 12 3 13 4 11 5 14 6 15 7 16 8 8 10 7 11 6 12 17 13
REMARK SMILES IDX 4 14 2 15 3 16 5 17 1 19
REMARK H PARENT 16 9 5 18 1 20
REMARK Flexibility Score: inf
ROOT
ATOM      1  C   UNL     1       6.957  46.242  24.238  1.00  0.00     0.044 C 
ENDROOT
BRANCH   1   2
ATOM      2  C   UNL     1       6.485  47.174  25.325  1.00  0.00    -0.006 A 
ATOM      3  C   UNL     1       6.338  47.727  27.689  1.00  0.00     0.001 A 
ATOM      4  C   UNL     1       5.685  48.920  27.374  1.00  0.00     0.004 A 
ATOM      5  C   UNL     1       6.743  46.860  26.671  1.00  0.00     0.007 A 
ATOM      6  C   UNL     1       5.437  49.251  26.039  1.00  0.00     0.046 A 
ATOM      7  C   UNL     1       5.839  48.387  25.010  1.00  0.00     0.118 A 
BRANCH   7   8
ATOM      8  O   UNL     1       5.602  48.731  23.679  1.00  0.00    -0.508 OA
ATOM      9  H   UNL     1       5.041  48.145  23.072  1.00  0.00     0.293 HD
ENDBRANCH   7   8
ENDBRANCH   1   2
BRANCH   1  10
ATOM     10  C   UNL     1       5.797  45.387  23.719  1.00  0.00     0.040 C 
BRANCH  10  11
ATOM     11  C   UNL     1       6.031  43.933  24.027  1.00  0.00    -0.040 A 
ATOM     12  C   UNL     1       7.317  43.382  23.905  1.00  0.00     0.050 A 
ATOM     13  C   UNL     1       4.978  43.130  24.495  1.00  0.00     0.050 A 
ATOM     14  C   UNL     1       7.543  42.036  24.224  1.00  0.00     0.119 A 
ATOM     15  C   UNL     1       5.203  41.784  24.814  1.00  0.00     0.119 A 
ATOM     16  C   UNL     1       6.485  41.240  24.674  1.00  0.00     0.092 A 
BRANCH  14  17
ATOM     17  O   UNL     1       8.814  41.480  24.098  1.00  0.00    -0.508 OA
ATOM     18  H   UNL     1       9.649  42.055  24.129  1.00  0.00     0.293 HD
ENDBRANCH  14  17
BRANCH  15  19
ATOM     19  O   UNL     1       4.162  40.979  25.271  1.00  0.00    -0.508 OA
ATOM     20  H   UNL     1       3.575  41.262  26.048  1.00  0.00     0.293 HD
ENDBRANCH  15  19
ENDBRANCH  10  11
ENDBRANCH   1  10
TORSDOF 6
ENDMDL
MODEL 4
REMARK VINA RESULT:    18.391      0.451      2.069
REMARK INTER + INTRA:          23.160
REMARK INTER:                  23.670
REMARK INTRA:                  -0.510
REMARK UNBOUND:                -0.070
REMARK SMILES Oc1cc(O)cc(CCc2ccccc2O)c1
REMARK SMILES IDX 9 1 10 2 12 3 13 4 11 5 14 6 15 7 16 8 8 10 7 11 6 12 17 13
REMARK SMILES IDX 4 14 2 15 3 16 5 17 1 19
REMARK H PARENT 16 9 5 18 1 20
REMARK Flexibility Score: inf
ROOT
ATOM      1  C   UNL     1       6.855  42.623  25.635  1.00  0.00     0.044 C 
ENDROOT
BRANCH   1   2
ATOM      2  C   UNL     1       5.535  42.607  24.906  1.00  0.00    -0.006 A 
ATOM      3  C   UNL     1       3.232  41.838  24.764  1.00  0.00     0.001 A 
ATOM      4  C   UNL     1       3.041  42.608  23.615  1.00  0.00     0.004 A 
ATOM      5  C   UNL     1       4.470  41.841  25.411  1.00  0.00     0.007 A 
ATOM      6  C   UNL     1       4.087  43.385  23.111  1.00  0.00     0.046 A 
ATOM      7  C   UNL     1       5.333  43.395  23.754  1.00  0.00     0.118 A 
BRANCH   7   8
ATOM      8  O   UNL     1       6.369  44.185  23.254  1.00  0.00    -0.508 OA
ATOM      9  H   UNL     1       7.324  44.068  23.570  1.00  0.00     0.293 HD
ENDBRANCH   7   8
ENDBRANCH   1   2
BRANCH   1  10
ATOM     10  C   UNL     1       7.509  41.238  25.595  1.00  0.00     0.040 C 
BRANCH  10  11
ATOM     11  C   UNL     1       8.509  41.157  24.474  1.00  0.00    -0.040 A 
ATOM     12  C   UNL     1       9.882  41.070  24.753  1.00  0.00     0.050 A 
ATOM     13  C   UNL     1       8.073  41.108  23.139  1.00  0.00     0.050 A 
ATOM     14  C   UNL     1      10.811  40.960  23.710  1.00  0.00     0.119 A 
ATOM     15  C   UNL     1       9.001  40.998  22.095  1.00  0.00     0.119 A 
ATOM     16  C   UNL     1      10.368  40.927  22.383  1.00  0.00     0.092 A 
BRANCH  14  17
ATOM     17  O   UNL     1      12.176  40.881  23.979  1.00  0.00    -0.508 OA
ATOM     18  H   UNL     1      12.523  40.754  24.923  1.00  0.00     0.293 HD
ENDBRANCH  14  17
BRANCH  15  19
ATOM     19  O   UNL     1       8.576  40.956  20.769  1.00  0.00    -0.508 OA
ATOM     20  H   UNL     1       7.784  40.391  20.484  1.00  0.00     0.293 HD
ENDBRANCH  15  19
ENDBRANCH  10  11
ENDBRANCH   1  10
TORSDOF 6
ENDMDL
MODEL 5
REMARK VINA RESULT:    18.658      1.636      5.250
REMARK INTER + INTRA:          23.497
REMARK INTER:                  22.795
REMARK INTRA:                   0.702
REMARK UNBOUND:                -0.070
REMARK SMILES Oc1cc(O)cc(CCc2ccccc2O)c1
REMARK SMILES IDX 9 1 10 2 12 3 13 4 11 5 14 6 15 7 16 8 8 10 7 11 6 12 17 13
REMARK SMILES IDX 4 14 2 15 3 16 5 17 1 19
REMARK H PARENT 16 9 5 18 1 20
REMARK Flexibility Score: inf
ROOT
ATOM      1  C   UNL     1       7.552  40.927  25.929  1.00  0.00     0.044 C 
ENDROOT
BRANCH   1   2
ATOM      2  C   UNL     1       8.504  40.942  24.760  1.00  0.00    -0.006 A 
ATOM      3  C   UNL     1      10.785  40.920  23.918  1.00  0.00     0.001 A 
ATOM      4  C   UNL     1      10.307  40.897  22.607  1.00  0.00     0.004 A 
ATOM      5  C   UNL     1       9.890  40.937  24.991  1.00  0.00     0.007 A 
ATOM      6  C   UNL     1       8.931  40.887  22.365  1.00  0.00     0.046 A 
ATOM      7  C   UNL     1       8.024  40.903  23.434  1.00  0.00     0.118 A 
BRANCH   7   8
ATOM      8  O   UNL     1       6.652  40.877  23.185  1.00  0.00    -0.508 OA
ATOM      9  H   UNL     1       6.138  40.005  23.138  1.00  0.00     0.293 HD
ENDBRANCH   7   8
ENDBRANCH   1   2
BRANCH   1  10
ATOM     10  C   UNL     1       7.077  42.347  26.256  1.00  0.00     0.040 C 
BRANCH  10  11
ATOM     11  C   UNL     1       6.134  42.846  25.195  1.00  0.00    -0.040 A 
ATOM     12  C   UNL     1       6.564  43.796  24.254  1.00  0.00     0.050 A 
ATOM     13  C   UNL     1       4.833  42.322  25.100  1.00  0.00     0.050 A 
ATOM     14  C   UNL     1       5.697  44.236  23.246  1.00  0.00     0.119 A 
ATOM     15  C   UNL     1       3.966  42.762  24.092  1.00  0.00     0.119 A 
ATOM     16  C   UNL     1       4.399  43.720  23.169  1.00  0.00     0.092 A 
BRANCH  14  17
ATOM     17  O   UNL     1       6.114  45.184  22.314  1.00  0.00    -0.508 OA
ATOM     18  H   UNL     1       5.493  45.918  21.992  1.00  0.00     0.293 HD
ENDBRANCH  14  17
BRANCH  15  19
ATOM     19  O   UNL     1       2.672  42.253  23.997  1.00  0.00    -0.508 OA
ATOM     20  H   UNL     1       2.448  41.313  24.305  1.00  0.00     0.293 HD
ENDBRANCH  15  19
ENDBRANCH  10  11
ENDBRANCH   1  10
TORSDOF 6
ENDMDL
MODEL 6
REMARK VINA RESULT:    19.081      1.604      5.136
REMARK INTER + INTRA:          24.031
REMARK INTER:                  21.900
REMARK INTRA:                   2.131
REMARK UNBOUND:                -0.070
REMARK SMILES Oc1cc(O)cc(CCc2ccccc2O)c1
REMARK SMILES IDX 9 1 10 2 12 3 13 4 11 5 14 6 15 7 16 8 8 10 7 11 6 12 17 13
REMARK SMILES IDX 4 14 2 15 3 16 5 17 1 19
REMARK H PARENT 16 9 5 18 1 20
REMARK Flexibility Score: inf
ROOT
ATOM      1  C   UNL     1       8.394  40.876  26.006  1.00  0.00     0.044 C 
ENDROOT
BRANCH   1   2
ATOM      2  C   UNL     1       9.105  40.909  24.676  1.00  0.00    -0.006 A 
ATOM      3  C   UNL     1      11.184  40.898  23.414  1.00  0.00     0.001 A 
ATOM      4  C   UNL     1      10.463  40.898  22.219  1.00  0.00     0.004 A 
ATOM      5  C   UNL     1      10.510  40.897  24.638  1.00  0.00     0.007 A 
ATOM      6  C   UNL     1       9.066  40.895  22.243  1.00  0.00     0.046 A 
ATOM      7  C   UNL     1       8.381  40.894  23.467  1.00  0.00     0.118 A 
BRANCH   7   8
ATOM      8  O   UNL     1       6.986  40.875  23.484  1.00  0.00    -0.508 OA
ATOM      9  H   UNL     1       6.441  41.646  23.117  1.00  0.00     0.293 HD
ENDBRANCH   7   8
ENDBRANCH   1   2
BRANCH   1  10
ATOM     10  C   UNL     1       7.811  42.253  26.340  1.00  0.00     0.040 C 
BRANCH  10  11
ATOM     11  C   UNL     1       6.668  42.581  25.418  1.00  0.00    -0.040 A 
ATOM     12  C   UNL     1       5.412  41.983  25.606  1.00  0.00     0.050 A 
ATOM     13  C   UNL     1       6.832  43.534  24.399  1.00  0.00     0.050 A 
ATOM     14  C   UNL     1       4.338  42.314  24.768  1.00  0.00     0.119 A 
ATOM     15  C   UNL     1       5.759  43.866  23.561  1.00  0.00     0.119 A 
ATOM     16  C   UNL     1       4.515  43.252  23.746  1.00  0.00     0.092 A 
BRANCH  14  17
ATOM     17  O   UNL     1       3.091  41.719  24.943  1.00  0.00    -0.508 OA
ATOM     18  H   UNL     1       2.788  41.380  25.850  1.00  0.00     0.293 HD
ENDBRANCH  14  17
BRANCH  15  19
ATOM     19  O   UNL     1       5.916  44.804  22.543  1.00  0.00    -0.508 OA
ATOM     20  H   UNL     1       6.809  44.941  22.083  1.00  0.00     0.293 HD
ENDBRANCH  15  19
ENDBRANCH  10  11
ENDBRANCH   1  10
TORSDOF 6
ENDMDL
