MODEL 1
REMARK VINA RESULT:    13.240      0.000      0.000
REMARK INTER + INTRA:          14.635
REMARK INTER:                  14.401
REMARK INTRA:                   0.234
REMARK UNBOUND:                 0.234
REMARK SMILES CC1(C)CC[C@]2(C(=O)[O-])CC[C@@]3(C)C(=CC[C@@H]4[C@@]5(C)CC[C@H](O)C(C)(C)[C@H]5CC[C@]43C)[C@H]2C1
REMARK SMILES IDX 6 1 5 2 10 3 32 4 4 5 11 6 14 7 33 8 2 9 12 10 15 11 1 12
REMARK SMILES IDX 3 13 13 14 30 15 16 16 17 17 29 18 31 19 18 20 28 21 27 22
REMARK SMILES IDX 20 23 19 24 24 25 21 26 22 27 25 28 26 29 7 30 8 31 9 32
REMARK SMILES IDX 23 33
REMARK H PARENT 23 34
REMARK Flexibility Score: inf
ROOT
ATOM      1  C   UNL     1     100.150 113.369 117.327  1.00  0.00     0.017 C 
ATOM      2  C   UNL     1      99.709 113.499 118.830  1.00  0.00     0.014 C 
ATOM      3  C   UNL     1      99.487 114.510 116.522  1.00  0.00     0.014 C 
ATOM      4  C   UNL     1      99.640 112.029 116.715  1.00  0.00     0.028 C 
ATOM      5  C   UNL     1      99.205 112.196 119.475  1.00  0.00     0.007 C 
ATOM      6  C   UNL     1      99.972 114.554 115.068  1.00  0.00     0.013 C 
ATOM      7  C   UNL     1      99.841 111.931 115.189  1.00  0.00    -0.064 C 
ATOM      8  C   UNL     1     100.127 110.790 117.533  1.00  0.00     0.015 C 
ATOM      9  C   UNL     1     100.045 110.953 119.091  1.00  0.00    -0.035 C 
ATOM     10  C   UNL     1      99.920 113.188 114.271  1.00  0.00    -0.006 C 
ATOM     11  C   UNL     1      99.713 110.721 114.573  1.00  0.00    -0.027 C 
ATOM     12  C   UNL     1      99.362 109.709 119.707  1.00  0.00     0.011 C 
ATOM     13  C   UNL     1     101.458 111.054 119.712  1.00  0.00     0.011 C 
ATOM     14  C   UNL     1     101.349 113.074 113.622  1.00  0.00     0.017 C 
ATOM     15  C   UNL     1      98.715 113.167 113.146  1.00  0.00    -0.020 C 
ATOM     16  C   UNL     1      99.210 110.634 113.154  1.00  0.00     0.032 C 
ATOM     17  C   UNL     1      98.120 111.713 112.999  1.00  0.00     0.006 C 
ATOM     18  C   UNL     1      97.479 114.061 113.532  1.00  0.00     0.008 C 
ATOM     19  C   UNL     1      99.289 113.724 111.804  1.00  0.00     0.012 C 
ATOM     20  C   UNL     1      97.022 111.457 111.880  1.00  0.00    -0.025 C 
ATOM     21  C   UNL     1      96.081 113.583 113.032  1.00  0.00     0.005 C 
ATOM     22  C   UNL     1      96.097 112.750 111.712  1.00  0.00     0.003 C 
ATOM     23  C   UNL     1      96.199 110.177 112.320  1.00  0.00     0.010 C 
ATOM     24  C   UNL     1      97.705 111.134 110.520  1.00  0.00     0.012 C 
ATOM     25  C   UNL     1      94.654 112.509 111.033  1.00  0.00    -0.006 C 
ATOM     26  C   UNL     1      94.690 110.376 112.414  1.00  0.00     0.033 C 
ATOM     27  C   UNL     1      94.160 111.024 111.143  1.00  0.00     0.120 C 
ATOM     28  C   UNL     1      93.547 113.408 111.655  1.00  0.00     0.014 C 
ATOM     29  C   UNL     1      94.712 112.918 109.533  1.00  0.00     0.014 C 
ENDROOT
BRANCH   1  30
ATOM     30  C   UNL     1     101.667 113.527 117.253  1.00  0.00     0.048 C 
ATOM     31  O   UNL     1     102.415 112.581 116.890  1.00  0.00    -0.550 OA
ATOM     32  O   UNL     1     102.251 114.740 117.604  1.00  0.00    -0.550 OA
ENDBRANCH   1  30
BRANCH  27  33
ATOM     33  O   UNL     1      94.541 110.261 110.022  1.00  0.00    -0.393 OA
ATOM     34  H   UNL     1      95.445 109.894 110.210  1.00  0.00     0.210 HD
ENDBRANCH  27  33
TORSDOF 2
ENDMDL
MODEL 2
REMARK VINA RESULT:    14.142      4.548      9.811
REMARK INTER + INTRA:          15.616
REMARK INTER:                  15.037
REMARK INTRA:                   0.579
REMARK UNBOUND:                 0.234
REMARK SMILES CC1(C)CC[C@]2(C(=O)[O-])CC[C@@]3(C)C(=CC[C@@H]4[C@@]5(C)CC[C@H](O)C(C)(C)[C@H]5CC[C@]43C)[C@H]2C1
REMARK SMILES IDX 6 1 5 2 10 3 32 4 4 5 11 6 14 7 33 8 2 9 12 10 15 11 1 12
REMARK SMILES IDX 3 13 13 14 30 15 16 16 17 17 29 18 31 19 18 20 28 21 27 22
REMARK SMILES IDX 20 23 19 24 24 25 21 26 22 27 25 28 26 29 7 30 8 31 9 32
REMARK SMILES IDX 23 33
REMARK H PARENT 23 34
REMARK Flexibility Score: inf
ROOT
ATOM      1  C   UNL     1      99.658 112.709 118.064  1.00  0.00     0.017 C 
ATOM      2  C   UNL     1      99.229 112.786 116.554  1.00  0.00     0.014 C 
ATOM      3  C   UNL     1      98.387 112.776 118.939  1.00  0.00     0.014 C 
ATOM      4  C   UNL     1     100.539 113.936 118.451  1.00  0.00     0.028 C 
ATOM      5  C   UNL     1     100.012 113.803 115.706  1.00  0.00     0.007 C 
ATOM      6  C   UNL     1      98.692 112.563 120.426  1.00  0.00     0.013 C 
ATOM      7  C   UNL     1     100.813 114.046 119.966  1.00  0.00    -0.064 C 
ATOM      8  C   UNL     1     101.797 114.066 117.534  1.00  0.00     0.015 C 
ATOM      9  C   UNL     1     101.530 113.818 116.008  1.00  0.00    -0.035 C 
ATOM     10  C   UNL     1      99.852 113.449 121.037  1.00  0.00    -0.006 C 
ATOM     11  C   UNL     1     101.792 114.885 120.409  1.00  0.00    -0.027 C 
ATOM     12  C   UNL     1     102.170 114.957 115.179  1.00  0.00     0.011 C 
ATOM     13  C   UNL     1     102.179 112.494 115.541  1.00  0.00     0.011 C 
ATOM     14  C   UNL     1     100.759 112.412 121.799  1.00  0.00     0.017 C 
ATOM     15  C   UNL     1      99.278 114.631 122.031  1.00  0.00    -0.020 C 
ATOM     16  C   UNL     1     101.669 115.561 121.752  1.00  0.00     0.032 C 
ATOM     17  C   UNL     1     100.182 115.921 121.937  1.00  0.00     0.006 C 
ATOM     18  C   UNL     1      97.837 115.132 121.645  1.00  0.00     0.008 C 
ATOM     19  C   UNL     1      99.195 114.055 123.481  1.00  0.00     0.012 C 
ATOM     20  C   UNL     1      99.862 117.139 122.905  1.00  0.00    -0.025 C 
ATOM     21  C   UNL     1      97.506 116.626 121.946  1.00  0.00     0.005 C 
ATOM     22  C   UNL     1      98.286 117.250 123.146  1.00  0.00     0.003 C 
ATOM     23  C   UNL     1     100.464 118.440 122.232  1.00  0.00     0.010 C 
ATOM     24  C   UNL     1     100.577 116.941 124.273  1.00  0.00     0.012 C 
ATOM     25  C   UNL     1      97.742 118.683 123.649  1.00  0.00    -0.006 C 
ATOM     26  C   UNL     1      99.474 119.580 122.021  1.00  0.00     0.033 C 
ATOM     27  C   UNL     1      98.712 119.866 123.308  1.00  0.00     0.120 C 
ATOM     28  C   UNL     1      96.353 119.038 123.043  1.00  0.00     0.014 C 
ATOM     29  C   UNL     1      97.512 118.638 125.188  1.00  0.00     0.014 C 
ENDROOT
BRANCH   1  30
ATOM     30  C   UNL     1     100.353 111.370 118.301  1.00  0.00     0.048 C 
ATOM     31  O   UNL     1     101.345 111.265 119.070  1.00  0.00    -0.550 OA
ATOM     32  O   UNL     1      99.895 110.231 117.646  1.00  0.00    -0.550 OA
ENDBRANCH   1  30
BRANCH  27  33
ATOM     33  O   UNL     1      99.620 120.119 124.355  1.00  0.00    -0.393 OA
ATOM     34  H   UNL     1     100.484 120.379 123.939  1.00  0.00     0.210 HD
ENDBRANCH  27  33
TORSDOF 2
ENDMDL
MODEL 3
REMARK VINA RESULT:    14.660      3.527      9.213
REMARK INTER + INTRA:          16.179
REMARK INTER:                  15.731
REMARK INTRA:                   0.448
REMARK UNBOUND:                 0.234
REMARK SMILES CC1(C)CC[C@]2(C(=O)[O-])CC[C@@]3(C)C(=CC[C@@H]4[C@@]5(C)CC[C@H](O)C(C)(C)[C@H]5CC[C@]43C)[C@H]2C1
REMARK SMILES IDX 6 1 5 2 10 3 32 4 4 5 11 6 14 7 33 8 2 9 12 10 15 11 1 12
REMARK SMILES IDX 3 13 13 14 30 15 16 16 17 17 29 18 31 19 18 20 28 21 27 22
REMARK SMILES IDX 20 23 19 24 24 25 21 26 22 27 25 28 26 29 7 30 8 31 9 32
REMARK SMILES IDX 23 33
REMARK H PARENT 23 34
REMARK Flexibility Score: inf
ROOT
ATOM      1  C   UNL     1      98.862 112.112 116.600  1.00  0.00     0.017 C 
ATOM      2  C   UNL     1      97.720 112.283 115.534  1.00  0.00     0.014 C 
ATOM      3  C   UNL     1      98.224 111.672 117.937  1.00  0.00     0.014 C 
ATOM      4  C   UNL     1      99.579 113.470 116.866  1.00  0.00     0.028 C 
ATOM      5  C   UNL     1      97.765 113.599 114.739  1.00  0.00     0.007 C 
ATOM      6  C   UNL     1      99.275 111.339 119.002  1.00  0.00     0.013 C 
ATOM      7  C   UNL     1     100.559 113.428 118.057  1.00  0.00    -0.064 C 
ATOM      8  C   UNL     1     100.149 114.098 115.554  1.00  0.00     0.015 C 
ATOM      9  C   UNL     1      99.195 114.013 114.312  1.00  0.00    -0.035 C 
ATOM     10  C   UNL     1     100.402 112.424 119.237  1.00  0.00    -0.006 C 
ATOM     11  C   UNL     1     101.457 114.442 118.220  1.00  0.00    -0.027 C 
ATOM     12  C   UNL     1      99.106 115.400 113.631  1.00  0.00     0.011 C 
ATOM     13  C   UNL     1      99.743 113.021 113.259  1.00  0.00     0.011 C 
ATOM     14  C   UNL     1     101.740 111.596 119.189  1.00  0.00     0.017 C 
ATOM     15  C   UNL     1     100.210 113.225 120.665  1.00  0.00    -0.020 C 
ATOM     16  C   UNL     1     101.913 114.844 119.600  1.00  0.00     0.032 C 
ATOM     17  C   UNL     1     100.690 114.722 120.529  1.00  0.00     0.006 C 
ATOM     18  C   UNL     1      98.709 113.333 121.127  1.00  0.00     0.008 C 
ATOM     19  C   UNL     1     100.980 112.440 121.774  1.00  0.00     0.012 C 
ATOM     20  C   UNL     1     100.692 115.633 121.830  1.00  0.00    -0.025 C 
ATOM     21  C   UNL     1      98.313 114.603 121.941  1.00  0.00     0.005 C 
ATOM     22  C   UNL     1      99.466 115.241 122.778  1.00  0.00     0.003 C 
ATOM     23  C   UNL     1     100.622 117.139 121.342  1.00  0.00     0.010 C 
ATOM     24  C   UNL     1     102.024 115.452 122.612  1.00  0.00     0.012 C 
ATOM     25  C   UNL     1      99.005 116.361 123.844  1.00  0.00    -0.006 C 
ATOM     26  C   UNL     1      99.475 117.958 121.924  1.00  0.00     0.033 C 
ATOM     27  C   UNL     1      99.435 117.813 123.439  1.00  0.00     0.120 C 
ATOM     28  C   UNL     1      97.463 116.380 124.056  1.00  0.00     0.014 C 
ATOM     29  C   UNL     1      99.601 116.023 125.241  1.00  0.00     0.014 C 
ENDROOT
BRANCH   1  30
ATOM     30  C   UNL     1      99.811 111.014 116.119  1.00  0.00     0.048 C 
ATOM     31  O   UNL     1     100.924 111.284 115.596  1.00  0.00    -0.550 OA
ATOM     32  O   UNL     1      99.439 109.680 116.247  1.00  0.00    -0.550 OA
ENDBRANCH   1  30
BRANCH  27  33
ATOM     33  O   UNL     1     100.685 118.162 123.986  1.00  0.00    -0.393 OA
ATOM     34  H   UNL     1     100.519 118.843 124.690  1.00  0.00     0.210 HD
ENDBRANCH  27  33
TORSDOF 2
ENDMDL
MODEL 4
REMARK VINA RESULT:    14.831      4.466      7.892
REMARK INTER + INTRA:          16.365
REMARK INTER:                  16.035
REMARK INTRA:                   0.330
REMARK UNBOUND:                 0.234
REMARK SMILES CC1(C)CC[C@]2(C(=O)[O-])CC[C@@]3(C)C(=CC[C@@H]4[C@@]5(C)CC[C@H](O)C(C)(C)[C@H]5CC[C@]43C)[C@H]2C1
REMARK SMILES IDX 6 1 5 2 10 3 32 4 4 5 11 6 14 7 33 8 2 9 12 10 15 11 1 12
REMARK SMILES IDX 3 13 13 14 30 15 16 16 17 17 29 18 31 19 18 20 28 21 27 22
REMARK SMILES IDX 20 23 19 24 24 25 21 26 22 27 25 28 26 29 7 30 8 31 9 32
REMARK SMILES IDX 23 33
REMARK H PARENT 23 34
REMARK Flexibility Score: inf
ROOT
ATOM      1  C   UNL     1     100.380 117.005 123.087  1.00  0.00     0.017 C 
ATOM      2  C   UNL     1     100.621 118.540 123.325  1.00  0.00     0.014 C 
ATOM      3  C   UNL     1     101.664 116.395 122.482  1.00  0.00     0.014 C 
ATOM      4  C   UNL     1      99.239 116.780 122.048  1.00  0.00     0.028 C 
ATOM      5  C   UNL     1      99.510 119.463 122.797  1.00  0.00     0.007 C 
ATOM      6  C   UNL     1     101.576 114.870 122.347  1.00  0.00     0.013 C 
ATOM      7  C   UNL     1      99.096 115.311 121.596  1.00  0.00    -0.064 C 
ATOM      8  C   UNL     1      97.910 117.479 122.477  1.00  0.00     0.015 C 
ATOM      9  C   UNL     1      98.083 118.924 123.062  1.00  0.00    -0.035 C 
ATOM     10  C   UNL     1     100.284 114.304 121.631  1.00  0.00    -0.006 C 
ATOM     11  C   UNL     1      97.973 114.924 120.926  1.00  0.00    -0.027 C 
ATOM     12  C   UNL     1      97.078 119.883 122.379  1.00  0.00     0.011 C 
ATOM     13  C   UNL     1      97.779 118.948 124.578  1.00  0.00     0.011 C 
ATOM     14  C   UNL     1      99.776 113.177 122.605  1.00  0.00     0.017 C 
ATOM     15  C   UNL     1     100.607 113.730 120.120  1.00  0.00    -0.020 C 
ATOM     16  C   UNL     1      98.038 113.820 119.900  1.00  0.00     0.032 C 
ATOM     17  C   UNL     1      99.380 113.977 119.159  1.00  0.00     0.006 C 
ATOM     18  C   UNL     1     101.812 114.458 119.415  1.00  0.00     0.008 C 
ATOM     19  C   UNL     1     100.987 112.219 120.241  1.00  0.00     0.012 C 
ATOM     20  C   UNL     1      99.449 113.393 117.684  1.00  0.00    -0.025 C 
ATOM     21  C   UNL     1     101.749 114.581 117.862  1.00  0.00     0.005 C 
ATOM     22  C   UNL     1     100.950 113.452 117.139  1.00  0.00     0.003 C 
ATOM     23  C   UNL     1      98.450 114.247 116.799  1.00  0.00     0.010 C 
ATOM     24  C   UNL     1      98.953 111.919 117.664  1.00  0.00     0.012 C 
ATOM     25  C   UNL     1     101.128 113.402 115.536  1.00  0.00    -0.006 C 
ATOM     26  C   UNL     1      99.065 114.886 115.558  1.00  0.00     0.033 C 
ATOM     27  C   UNL     1      99.842 113.849 114.758  1.00  0.00     0.120 C 
ATOM     28  C   UNL     1     102.300 114.298 115.040  1.00  0.00     0.014 C 
ATOM     29  C   UNL     1     101.511 111.958 115.102  1.00  0.00     0.014 C 
ENDROOT
BRANCH   1  30
ATOM     30  C   UNL     1     100.104 116.343 124.436  1.00  0.00     0.048 C 
ATOM     31  O   UNL     1     100.996 116.246 125.320  1.00  0.00    -0.550 OA
ATOM     32  O   UNL     1      98.843 115.821 124.700  1.00  0.00    -0.550 OA
ENDBRANCH   1  30
BRANCH  27  33
ATOM     33  O   UNL     1      99.007 112.756 114.452  1.00  0.00    -0.393 OA
ATOM     34  H   UNL     1      98.431 112.596 115.246  1.00  0.00     0.210 HD
ENDBRANCH  27  33
TORSDOF 2
ENDMDL
MODEL 5
REMARK VINA RESULT:    16.136      2.673      3.918
REMARK INTER + INTRA:          17.784
REMARK INTER:                  17.152
REMARK INTRA:                   0.632
REMARK UNBOUND:                 0.234
REMARK SMILES CC1(C)CC[C@]2(C(=O)[O-])CC[C@@]3(C)C(=CC[C@@H]4[C@@]5(C)CC[C@H](O)C(C)(C)[C@H]5CC[C@]43C)[C@H]2C1
REMARK SMILES IDX 6 1 5 2 10 3 32 4 4 5 11 6 14 7 33 8 2 9 12 10 15 11 1 12
REMARK SMILES IDX 3 13 13 14 30 15 16 16 17 17 29 18 31 19 18 20 28 21 27 22
REMARK SMILES IDX 20 23 19 24 24 25 21 26 22 27 25 28 26 29 7 30 8 31 9 32
REMARK SMILES IDX 23 33
REMARK H PARENT 23 34
REMARK Flexibility Score: inf
ROOT
ATOM      1  C   UNL     1      99.398 111.612 118.293  1.00  0.00     0.017 C 
ATOM      2  C   UNL     1      99.120 110.297 119.108  1.00  0.00     0.014 C 
ATOM      3  C   UNL     1      98.194 111.875 117.360  1.00  0.00     0.014 C 
ATOM      4  C   UNL     1     100.650 111.442 117.379  1.00  0.00     0.028 C 
ATOM      5  C   UNL     1     100.277 109.284 119.121  1.00  0.00     0.007 C 
ATOM      6  C   UNL     1      98.308 113.216 116.627  1.00  0.00     0.013 C 
ATOM      7  C   UNL     1     100.853 112.607 116.388  1.00  0.00    -0.064 C 
ATOM      8  C   UNL     1     101.918 111.029 118.194  1.00  0.00     0.015 C 
ATOM      9  C   UNL     1     101.669 109.939 119.294  1.00  0.00    -0.035 C 
ATOM     10  C   UNL     1      99.677 113.494 115.884  1.00  0.00    -0.006 C 
ATOM     11  C   UNL     1     102.047 112.734 115.741  1.00  0.00    -0.027 C 
ATOM     12  C   UNL     1     102.738 108.827 119.171  1.00  0.00     0.011 C 
ATOM     13  C   UNL     1     101.801 110.544 120.712  1.00  0.00     0.011 C 
ATOM     14  C   UNL     1     100.080 114.938 116.363  1.00  0.00     0.017 C 
ATOM     15  C   UNL     1      99.529 113.394 114.245  1.00  0.00    -0.020 C 
ATOM     16  C   UNL     1     102.106 113.324 114.354  1.00  0.00     0.032 C 
ATOM     17  C   UNL     1     100.855 112.828 113.603  1.00  0.00     0.006 C 
ATOM     18  C   UNL     1      98.407 112.396 113.774  1.00  0.00     0.008 C 
ATOM     19  C   UNL     1      99.149 114.808 113.701  1.00  0.00     0.012 C 
ATOM     20  C   UNL     1     100.957 112.761 112.020  1.00  0.00    -0.025 C 
ATOM     21  C   UNL     1      98.643 111.657 112.422  1.00  0.00     0.005 C 
ATOM     22  C   UNL     1      99.526 112.428 111.390  1.00  0.00     0.003 C 
ATOM     23  C   UNL     1     102.043 111.662 111.670  1.00  0.00     0.010 C 
ATOM     24  C   UNL     1     101.462 114.119 111.455  1.00  0.00     0.012 C 
ATOM     25  C   UNL     1      99.531 111.817 109.897  1.00  0.00    -0.006 C 
ATOM     26  C   UNL     1     101.568 110.552 110.738  1.00  0.00     0.033 C 
ATOM     27  C   UNL     1     100.893 111.144 109.509  1.00  0.00     0.120 C 
ATOM     28  C   UNL     1      98.416 110.752 109.687  1.00  0.00     0.014 C 
ATOM     29  C   UNL     1      99.209 112.946 108.875  1.00  0.00     0.014 C 
ENDROOT
BRANCH   1  30
ATOM     30  C   UNL     1      99.524 112.774 119.277  1.00  0.00     0.048 C 
ATOM     31  O   UNL     1      98.769 112.878 120.280  1.00  0.00    -0.550 OA
ATOM     32  O   UNL     1     100.488 113.754 119.064  1.00  0.00    -0.550 OA
ENDBRANCH   1  30
BRANCH  27  33
ATOM     33  O   UNL     1     101.764 112.052 108.875  1.00  0.00    -0.393 OA
ATOM     34  H   UNL     1     102.692 111.777 109.103  1.00  0.00     0.210 HD
ENDBRANCH  27  33
TORSDOF 2
ENDMDL
