MODEL 1
REMARK VINA RESULT:    -5.226      0.000      0.000
REMARK INTER + INTRA:          -5.531
REMARK INTER:                  -5.531
REMARK INTRA:                   0.000
REMARK UNBOUND:                 0.000
REMARK SMILES O=c1ccc2cc(O)c(O)cc2o1
REMARK SMILES IDX 4 1 3 2 2 3 1 4 13 5 12 6 11 7 9 8 7 9 6 10 5 11 8 12 10 14
REMARK H PARENT 8 13 10 15
REMARK Flexibility Score: inf
ROOT
ATOM      1  C   UNL     1      13.441  17.445   8.049  1.00  0.00     0.019 A 
ATOM      2  C   UNL     1      14.695  17.167   7.507  1.00  0.00     0.094 A 
ATOM      3  C   UNL     1      15.453  16.125   8.052  1.00  0.00     0.336 A 
ATOM      4  O   UNL     1      16.588  15.859   7.577  1.00  0.00    -0.246 OA
ATOM      5  O   UNL     1      14.983  15.413   9.073  1.00  0.00    -0.423 OA
ATOM      6  C   UNL     1      13.791  15.646   9.619  1.00  0.00     0.142 A 
ATOM      7  C   UNL     1      13.349  14.864  10.691  1.00  0.00     0.098 A 
ATOM      8  C   UNL     1      12.095  15.105  11.271  1.00  0.00     0.161 A 
ATOM      9  C   UNL     1      11.278  16.137  10.774  1.00  0.00     0.158 A 
ATOM     10  C   UNL     1      11.718  16.920   9.701  1.00  0.00     0.062 A 
ATOM     11  C   UNL     1      12.971  16.680   9.121  1.00  0.00     0.022 A 
ENDROOT
BRANCH   9  12
ATOM     12  O   UNL     1      10.026  16.397  11.332  1.00  0.00    -0.504 OA
ATOM     13  H   UNL     1       9.829  16.233  12.312  1.00  0.00     0.293 HD
ENDBRANCH   9  12
BRANCH   8  14
ATOM     14  O   UNL     1      11.658  14.323  12.339  1.00  0.00    -0.504 OA
ATOM     15  H   UNL     1      12.308  13.919  13.004  1.00  0.00     0.293 HD
ENDBRANCH   8  14
TORSDOF 2
ENDMDL
MODEL 2
REMARK VINA RESULT:    -5.033      1.908      2.081
REMARK INTER + INTRA:          -5.327
REMARK INTER:                  -5.327
REMARK INTRA:                   0.000
REMARK UNBOUND:                 0.000
REMARK SMILES O=c1ccc2cc(O)c(O)cc2o1
REMARK SMILES IDX 4 1 3 2 2 3 1 4 13 5 12 6 11 7 9 8 7 9 6 10 5 11 8 12 10 14
REMARK H PARENT 8 13 10 15
REMARK Flexibility Score: inf
ROOT
ATOM      1  C   UNL     1      14.730  17.013   7.753  1.00  0.00     0.019 A 
ATOM      2  C   UNL     1      16.119  17.103   7.810  1.00  0.00     0.094 A 
ATOM      3  C   UNL     1      16.734  17.328   9.046  1.00  0.00     0.336 A 
ATOM      4  O   UNL     1      17.988  17.411   9.118  1.00  0.00    -0.246 OA
ATOM      5  O   UNL     1      16.001  17.455  10.150  1.00  0.00    -0.423 OA
ATOM      6  C   UNL     1      14.672  17.377  10.139  1.00  0.00     0.142 A 
ATOM      7  C   UNL     1      13.954  17.518  11.330  1.00  0.00     0.098 A 
ATOM      8  C   UNL     1      12.553  17.437  11.325  1.00  0.00     0.161 A 
ATOM      9  C   UNL     1      11.868  17.212  10.118  1.00  0.00     0.158 A 
ATOM     10  C   UNL     1      12.584  17.069   8.924  1.00  0.00     0.062 A 
ATOM     11  C   UNL     1      13.983  17.151   8.928  1.00  0.00     0.022 A 
ENDROOT
BRANCH   9  12
ATOM     12  O   UNL     1      10.476  17.126  10.085  1.00  0.00    -0.504 OA
ATOM     13  H   UNL     1       9.924  17.010  10.926  1.00  0.00     0.293 HD
ENDBRANCH   9  12
BRANCH   8  14
ATOM     14  O   UNL     1      11.841  17.579  12.515  1.00  0.00    -0.504 OA
ATOM     15  H   UNL     1      12.082  17.049  13.345  1.00  0.00     0.293 HD
ENDBRANCH   8  14
TORSDOF 2
ENDMDL
MODEL 3
REMARK VINA RESULT:    -4.927      3.027      4.174
REMARK INTER + INTRA:          -5.215
REMARK INTER:                  -5.215
REMARK INTRA:                   0.000
REMARK UNBOUND:                 0.000
REMARK SMILES O=c1ccc2cc(O)c(O)cc2o1
REMARK SMILES IDX 4 1 3 2 2 3 1 4 13 5 12 6 11 7 9 8 7 9 6 10 5 11 8 12 10 14
REMARK H PARENT 8 13 10 15
REMARK Flexibility Score: inf
ROOT
ATOM      1  C   UNL     1      15.727  17.089  11.002  1.00  0.00     0.019 A 
ATOM      2  C   UNL     1      16.020  17.374  12.334  1.00  0.00     0.094 A 
ATOM      3  C   UNL     1      14.983  17.761  13.189  1.00  0.00     0.336 A 
ATOM      4  O   UNL     1      15.228  18.023  14.396  1.00  0.00    -0.246 OA
ATOM      5  O   UNL     1      13.736  17.858  12.734  1.00  0.00    -0.423 OA
ATOM      6  C   UNL     1      13.413  17.595  11.470  1.00  0.00     0.142 A 
ATOM      7  C   UNL     1      12.086  17.714  11.049  1.00  0.00     0.098 A 
ATOM      8  C   UNL     1      11.739  17.439   9.717  1.00  0.00     0.161 A 
ATOM      9  C   UNL     1      12.731  17.043   8.801  1.00  0.00     0.158 A 
ATOM     10  C   UNL     1      14.061  16.923   9.221  1.00  0.00     0.062 A 
ATOM     11  C   UNL     1      14.408  17.198  10.551  1.00  0.00     0.022 A 
ENDROOT
BRANCH   9  12
ATOM     12  O   UNL     1      12.413  16.763   7.472  1.00  0.00    -0.504 OA
ATOM     13  H   UNL     1      11.593  16.228   7.216  1.00  0.00     0.293 HD
ENDBRANCH   9  12
BRANCH   8  14
ATOM     14  O   UNL     1      10.414  17.558   9.302  1.00  0.00    -0.504 OA
ATOM     15  H   UNL     1       9.710  17.994   9.887  1.00  0.00     0.293 HD
ENDBRANCH   8  14
TORSDOF 2
ENDMDL
MODEL 4
REMARK VINA RESULT:    -4.890      1.753      4.701
REMARK INTER + INTRA:          -5.176
REMARK INTER:                  -5.176
REMARK INTRA:                   0.000
REMARK UNBOUND:                 0.000
REMARK SMILES O=c1ccc2cc(O)c(O)cc2o1
REMARK SMILES IDX 4 1 3 2 2 3 1 4 13 5 12 6 11 7 9 8 7 9 6 10 5 11 8 12 10 14
REMARK H PARENT 8 13 10 15
REMARK Flexibility Score: inf
ROOT
ATOM      1  C   UNL     1      12.628  16.915   7.888  1.00  0.00     0.019 A 
ATOM      2  C   UNL     1      11.518  16.657   8.692  1.00  0.00     0.094 A 
ATOM      3  C   UNL     1      11.700  16.507  10.070  1.00  0.00     0.336 A 
ATOM      4  O   UNL     1      10.710  16.273  10.813  1.00  0.00    -0.246 OA
ATOM      5  O   UNL     1      12.915  16.608  10.605  1.00  0.00    -0.423 OA
ATOM      6  C   UNL     1      14.000  16.853   9.873  1.00  0.00     0.142 A 
ATOM      7  C   UNL     1      15.250  16.948  10.490  1.00  0.00     0.098 A 
ATOM      8  C   UNL     1      16.398  17.206   9.725  1.00  0.00     0.161 A 
ATOM      9  C   UNL     1      16.291  17.369   8.332  1.00  0.00     0.158 A 
ATOM     10  C   UNL     1      15.039  17.274   7.712  1.00  0.00     0.062 A 
ATOM     11  C   UNL     1      13.893  17.017   8.476  1.00  0.00     0.022 A 
ENDROOT
BRANCH   9  12
ATOM     12  O   UNL     1      17.415  17.627   7.548  1.00  0.00    -0.504 OA
ATOM     13  H   UNL     1      17.378  17.624   6.536  1.00  0.00     0.293 HD
ENDBRANCH   9  12
BRANCH   8  14
ATOM     14  O   UNL     1      17.643  17.301  10.344  1.00  0.00    -0.504 OA
ATOM     15  H   UNL     1      17.850  18.032  11.015  1.00  0.00     0.293 HD
ENDBRANCH   8  14
TORSDOF 2
ENDMDL
MODEL 5
REMARK VINA RESULT:    -4.874      2.095      2.762
REMARK INTER + INTRA:          -5.159
REMARK INTER:                  -5.159
REMARK INTRA:                   0.000
REMARK UNBOUND:                 0.000
REMARK SMILES O=c1ccc2cc(O)c(O)cc2o1
REMARK SMILES IDX 4 1 3 2 2 3 1 4 13 5 12 6 11 7 9 8 7 9 6 10 5 11 8 12 10 14
REMARK H PARENT 8 13 10 15
REMARK Flexibility Score: inf
ROOT
ATOM      1  C   UNL     1      15.535  17.363  11.746  1.00  0.00     0.019 A 
ATOM      2  C   UNL     1      16.640  16.985  10.986  1.00  0.00     0.094 A 
ATOM      3  C   UNL     1      16.452  16.627   9.647  1.00  0.00     0.336 A 
ATOM      4  O   UNL     1      17.437  16.282   8.944  1.00  0.00    -0.246 OA
ATOM      5  O   UNL     1      15.234  16.647   9.110  1.00  0.00    -0.423 OA
ATOM      6  C   UNL     1      14.153  17.002   9.801  1.00  0.00     0.142 A 
ATOM      7  C   UNL     1      12.899  17.005   9.183  1.00  0.00     0.098 A 
ATOM      8  C   UNL     1      11.756  17.377   9.906  1.00  0.00     0.161 A 
ATOM      9  C   UNL     1      11.870  17.750  11.257  1.00  0.00     0.158 A 
ATOM     10  C   UNL     1      13.125  17.749  11.878  1.00  0.00     0.062 A 
ATOM     11  C   UNL     1      14.267  17.376  11.156  1.00  0.00     0.022 A 
ENDROOT
BRANCH   9  12
ATOM     12  O   UNL     1      10.750  18.125  11.998  1.00  0.00    -0.504 OA
ATOM     13  H   UNL     1      10.140  17.444  12.434  1.00  0.00     0.293 HD
ENDBRANCH   9  12
BRANCH   8  14
ATOM     14  O   UNL     1      10.507  17.378   9.286  1.00  0.00    -0.504 OA
ATOM     15  H   UNL     1       9.663  17.621   9.791  1.00  0.00     0.293 HD
ENDBRANCH   8  14
TORSDOF 2
ENDMDL
MODEL 6
REMARK VINA RESULT:    -4.823      2.489      3.378
REMARK INTER + INTRA:          -5.105
REMARK INTER:                  -5.105
REMARK INTRA:                   0.000
REMARK UNBOUND:                 0.000
REMARK SMILES O=c1ccc2cc(O)c(O)cc2o1
REMARK SMILES IDX 4 1 3 2 2 3 1 4 13 5 12 6 11 7 9 8 7 9 6 10 5 11 8 12 10 14
REMARK H PARENT 8 13 10 15
REMARK Flexibility Score: inf
ROOT
ATOM      1  C   UNL     1      16.844  17.355   8.068  1.00  0.00     0.019 A 
ATOM      2  C   UNL     1      17.852  17.539   9.013  1.00  0.00     0.094 A 
ATOM      3  C   UNL     1      17.509  17.589  10.368  1.00  0.00     0.336 A 
ATOM      4  O   UNL     1      18.405  17.755  11.237  1.00  0.00    -0.246 OA
ATOM      5  O   UNL     1      16.239  17.465  10.747  1.00  0.00    -0.423 OA
ATOM      6  C   UNL     1      15.247  17.288   9.877  1.00  0.00     0.142 A 
ATOM      7  C   UNL     1      13.932  17.163  10.333  1.00  0.00     0.098 A 
ATOM      8  C   UNL     1      12.882  16.977   9.422  1.00  0.00     0.161 A 
ATOM      9  C   UNL     1      13.153  16.916   8.043  1.00  0.00     0.158 A 
ATOM     10  C   UNL     1      14.469  17.040   7.583  1.00  0.00     0.062 A 
ATOM     11  C   UNL     1      15.518  17.227   8.494  1.00  0.00     0.022 A 
ENDROOT
BRANCH   9  12
ATOM     12  O   UNL     1      12.128  16.732   7.115  1.00  0.00    -0.504 OA
ATOM     13  H   UNL     1      11.287  17.297   7.122  1.00  0.00     0.293 HD
ENDBRANCH   9  12
BRANCH   8  14
ATOM     14  O   UNL     1      11.572  16.853   9.881  1.00  0.00    -0.504 OA
ATOM     15  H   UNL     1      11.363  16.472  10.797  1.00  0.00     0.293 HD
ENDBRANCH   8  14
TORSDOF 2
ENDMDL
MODEL 7
REMARK VINA RESULT:    -4.758      1.958      4.071
REMARK INTER + INTRA:          -5.036
REMARK INTER:                  -5.036
REMARK INTRA:                   0.000
REMARK UNBOUND:                 0.000
REMARK SMILES O=c1ccc2cc(O)c(O)cc2o1
REMARK SMILES IDX 4 1 3 2 2 3 1 4 13 5 12 6 11 7 9 8 7 9 6 10 5 11 8 12 10 14
REMARK H PARENT 8 13 10 15
REMARK Flexibility Score: inf
ROOT
ATOM      1  C   UNL     1      14.771  14.327  10.327  1.00  0.00     0.019 A 
ATOM      2  C   UNL     1      14.652  13.390  11.351  1.00  0.00     0.094 A 
ATOM      3  C   UNL     1      13.465  13.340  12.090  1.00  0.00     0.336 A 
ATOM      4  O   UNL     1      13.337  12.500  13.019  1.00  0.00    -0.246 OA
ATOM      5  O   UNL     1      12.467  14.178  11.818  1.00  0.00    -0.423 OA
ATOM      6  C   UNL     1      12.540  15.088  10.849  1.00  0.00     0.142 A 
ATOM      7  C   UNL     1      11.460  15.941  10.608  1.00  0.00     0.098 A 
ATOM      8  C   UNL     1      11.531  16.902   9.589  1.00  0.00     0.161 A 
ATOM      9  C   UNL     1      12.694  17.009   8.805  1.00  0.00     0.158 A 
ATOM     10  C   UNL     1      13.778  16.155   9.044  1.00  0.00     0.062 A 
ATOM     11  C   UNL     1      13.707  15.195  10.062  1.00  0.00     0.022 A 
ENDROOT
BRANCH   9  12
ATOM     12  O   UNL     1      12.791  17.955   7.785  1.00  0.00    -0.504 OA
ATOM     13  H   UNL     1      12.557  18.930   7.931  1.00  0.00     0.293 HD
ENDBRANCH   9  12
BRANCH   8  14
ATOM     14  O   UNL     1      10.451  17.751   9.353  1.00  0.00    -0.504 OA
ATOM     15  H   UNL     1       9.515  17.392   9.201  1.00  0.00     0.293 HD
ENDBRANCH   8  14
TORSDOF 2
ENDMDL
MODEL 8
REMARK VINA RESULT:    -4.585      3.287      4.625
REMARK INTER + INTRA:          -4.853
REMARK INTER:                  -4.853
REMARK INTRA:                   0.000
REMARK UNBOUND:                 0.000
REMARK SMILES O=c1ccc2cc(O)c(O)cc2o1
REMARK SMILES IDX 4 1 3 2 2 3 1 4 13 5 12 6 11 7 9 8 7 9 6 10 5 11 8 12 10 14
REMARK H PARENT 8 13 10 15
REMARK Flexibility Score: inf
ROOT
ATOM      1  C   UNL     1      16.311  17.542  12.053  1.00  0.00     0.019 A 
ATOM      2  C   UNL     1      17.669  17.525  12.362  1.00  0.00     0.094 A 
ATOM      3  C   UNL     1      18.598  17.384  11.325  1.00  0.00     0.336 A 
ATOM      4  O   UNL     1      19.830  17.367  11.583  1.00  0.00    -0.246 OA
ATOM      5  O   UNL     1      18.188  17.267  10.065  1.00  0.00    -0.423 OA
ATOM      6  C   UNL     1      16.900  17.278   9.727  1.00  0.00     0.142 A 
ATOM      7  C   UNL     1      16.528  17.150   8.386  1.00  0.00     0.098 A 
ATOM      8  C   UNL     1      15.173  17.161   8.024  1.00  0.00     0.161 A 
ATOM      9  C   UNL     1      14.183  17.299   9.014  1.00  0.00     0.158 A 
ATOM     10  C   UNL     1      14.553  17.427  10.358  1.00  0.00     0.062 A 
ATOM     11  C   UNL     1      15.907  17.417  10.720  1.00  0.00     0.022 A 
ENDROOT
BRANCH   9  12
ATOM     12  O   UNL     1      12.829  17.313   8.681  1.00  0.00    -0.504 OA
ATOM     13  H   UNL     1      12.124  17.678   9.310  1.00  0.00     0.293 HD
ENDBRANCH   9  12
BRANCH   8  14
ATOM     14  O   UNL     1      14.806  17.033   6.685  1.00  0.00    -0.504 OA
ATOM     15  H   UNL     1      13.920  16.623   6.413  1.00  0.00     0.293 HD
ENDBRANCH   8  14
TORSDOF 2
ENDMDL
MODEL 9
REMARK VINA RESULT:    -4.202      1.530      2.821
REMARK INTER + INTRA:          -4.447
REMARK INTER:                  -4.447
REMARK INTRA:                   0.000
REMARK UNBOUND:                 0.000
REMARK SMILES O=c1ccc2cc(O)c(O)cc2o1
REMARK SMILES IDX 4 1 3 2 2 3 1 4 13 5 12 6 11 7 9 8 7 9 6 10 5 11 8 12 10 14
REMARK H PARENT 8 13 10 15
REMARK Flexibility Score: inf
ROOT
ATOM      1  C   UNL     1      14.512  14.526  11.741  1.00  0.00     0.019 A 
ATOM      2  C   UNL     1      15.739  14.402  11.093  1.00  0.00     0.094 A 
ATOM      3  C   UNL     1      15.986  15.176   9.954  1.00  0.00     0.336 A 
ATOM      4  O   UNL     1      17.089  15.078   9.355  1.00  0.00    -0.246 OA
ATOM      5  O   UNL     1      15.061  16.017   9.498  1.00  0.00    -0.423 OA
ATOM      6  C   UNL     1      13.877  16.166  10.088  1.00  0.00     0.142 A 
ATOM      7  C   UNL     1      12.944  17.066   9.563  1.00  0.00     0.098 A 
ATOM      8  C   UNL     1      11.694  17.227  10.179  1.00  0.00     0.161 A 
ATOM      9  C   UNL     1      11.377  16.481  11.329  1.00  0.00     0.158 A 
ATOM     10  C   UNL     1      12.309  15.580  11.856  1.00  0.00     0.062 A 
ATOM     11  C   UNL     1      13.558  15.418  11.241  1.00  0.00     0.022 A 
ENDROOT
BRANCH   9  12
ATOM     12  O   UNL     1      10.141  16.622  11.961  1.00  0.00    -0.504 OA
ATOM     13  H   UNL     1       9.271  16.384  11.501  1.00  0.00     0.293 HD
ENDBRANCH   9  12
BRANCH   8  14
ATOM     14  O   UNL     1      10.767  18.125   9.653  1.00  0.00    -0.504 OA
ATOM     15  H   UNL     1       9.809  18.155   9.984  1.00  0.00     0.293 HD
ENDBRANCH   8  14
TORSDOF 2
ENDMDL
