MODEL 1
REMARK VINA RESULT:    -7.653      0.000      0.000
REMARK INTER + INTRA:          -8.905
REMARK INTER:                  -9.218
REMARK INTRA:                   0.313
REMARK UNBOUND:                 0.313
REMARK SMILES O=c1c(O)c(-c2ccc(O)c(O)c2)oc2cc(O)cc(O)c12
REMARK SMILES IDX 5 1 3 2 2 3 1 4 22 5 20 6 19 7 17 8 16 9 15 10 14 11 6 12
REMARK SMILES IDX 7 13 8 14 9 15 13 16 11 17 10 18 12 20 4 22 21 24 18 26
REMARK H PARENT 10 19 12 21 4 23 21 25 18 27
REMARK Flexibility Score: inf
ROOT
ATOM      1  C   UNL     1      17.633  22.620  40.491  1.00  0.00     0.180 A 
ATOM      2  C   UNL     1      17.302  23.642  39.584  1.00  0.00     0.208 A 
ATOM      3  C   UNL     1      16.166  24.429  39.831  1.00  0.00     0.238 A 
ATOM      4  O   UNL     1      15.844  25.307  38.988  1.00  0.00    -0.285 OA
ATOM      5  C   UNL     1      15.385  24.195  40.989  1.00  0.00     0.111 A 
ATOM      6  C   UNL     1      14.236  24.959  41.359  1.00  0.00     0.134 A 
ATOM      7  C   UNL     1      13.465  24.556  42.455  1.00  0.00     0.093 A 
ATOM      8  C   UNL     1      13.836  23.457  43.233  1.00  0.00     0.123 A 
ATOM      9  C   UNL     1      14.989  22.743  42.916  1.00  0.00     0.094 A 
ATOM     10  C   UNL     1      15.759  23.098  41.806  1.00  0.00     0.146 A 
ATOM     11  O   UNL     1      16.844  22.383  41.532  1.00  0.00    -0.452 OA
ENDROOT
BRANCH   1  12
ATOM     12  C   UNL     1      18.830  21.766  40.312  1.00  0.00     0.025 A 
ATOM     13  C   UNL     1      18.843  20.426  40.738  1.00  0.00     0.016 A 
ATOM     14  C   UNL     1      19.975  19.632  40.536  1.00  0.00     0.051 A 
ATOM     15  C   UNL     1      21.104  20.160  39.897  1.00  0.00     0.157 A 
ATOM     16  C   UNL     1      19.957  22.284  39.653  1.00  0.00     0.062 A 
ATOM     17  C   UNL     1      21.094  21.492  39.451  1.00  0.00     0.158 A 
BRANCH  15  18
ATOM     18  O   UNL     1      22.234  19.366  39.701  1.00  0.00    -0.504 OA
ATOM     19  H   UNL     1      22.159  18.368  39.541  1.00  0.00     0.293 HD
ENDBRANCH  15  18
BRANCH  17  20
ATOM     20  O   UNL     1      22.198  22.045  38.805  1.00  0.00    -0.504 OA
ATOM     21  H   UNL     1      22.726  22.813  39.202  1.00  0.00     0.293 HD
ENDBRANCH  17  20
ENDBRANCH   1  12
BRANCH   2  22
ATOM     22  O   UNL     1      18.075  23.841  38.437  1.00  0.00    -0.502 OA
ATOM     23  H   UNL     1      18.283  23.094  37.786  1.00  0.00     0.293 HD
ENDBRANCH   2  22
BRANCH   6  24
ATOM     24  O   UNL     1      13.830  26.125  40.704  1.00  0.00    -0.507 OA
ATOM     25  H   UNL     1      12.954  26.234  40.216  1.00  0.00     0.293 HD
ENDBRANCH   6  24
BRANCH   8  26
ATOM     26  O   UNL     1      13.071  23.073  44.333  1.00  0.00    -0.508 OA
ATOM     27  H   UNL     1      12.738  23.750  45.009  1.00  0.00     0.293 HD
ENDBRANCH   8  26
TORSDOF 6
ENDMDL
MODEL 2
REMARK VINA RESULT:    -7.541      1.716      2.702
REMARK INTER + INTRA:          -8.771
REMARK INTER:                  -8.467
REMARK INTRA:                  -0.304
REMARK UNBOUND:                 0.313
REMARK SMILES O=c1c(O)c(-c2ccc(O)c(O)c2)oc2cc(O)cc(O)c12
REMARK SMILES IDX 5 1 3 2 2 3 1 4 22 5 20 6 19 7 17 8 16 9 15 10 14 11 6 12
REMARK SMILES IDX 7 13 8 14 9 15 13 16 11 17 10 18 12 20 4 22 21 24 18 26
REMARK H PARENT 10 19 12 21 4 23 21 25 18 27
REMARK Flexibility Score: inf
ROOT
ATOM      1  C   UNL     1      15.907  22.987  41.494  1.00  0.00     0.180 A 
ATOM      2  C   UNL     1      15.287  24.078  40.861  1.00  0.00     0.208 A 
ATOM      3  C   UNL     1      14.234  24.736  41.516  1.00  0.00     0.238 A 
ATOM      4  O   UNL     1      13.647  25.678  40.922  1.00  0.00    -0.285 OA
ATOM      5  C   UNL     1      13.826  24.305  42.802  1.00  0.00     0.111 A 
ATOM      6  C   UNL     1      12.796  24.924  43.574  1.00  0.00     0.134 A 
ATOM      7  C   UNL     1      12.387  24.334  44.776  1.00  0.00     0.093 A 
ATOM      8  C   UNL     1      13.013  23.185  45.265  1.00  0.00     0.123 A 
ATOM      9  C   UNL     1      14.058  22.608  44.547  1.00  0.00     0.094 A 
ATOM     10  C   UNL     1      14.465  23.153  43.327  1.00  0.00     0.146 A 
ATOM     11  O   UNL     1      15.458  22.566  42.670  1.00  0.00    -0.452 OA
ENDROOT
BRANCH   1  12
ATOM     12  C   UNL     1      17.040  22.259  40.877  1.00  0.00     0.025 A 
ATOM     13  C   UNL     1      18.347  22.778  40.906  1.00  0.00     0.016 A 
ATOM     14  C   UNL     1      19.404  22.062  40.339  1.00  0.00     0.051 A 
ATOM     15  C   UNL     1      19.176  20.813  39.748  1.00  0.00     0.157 A 
ATOM     16  C   UNL     1      16.820  20.996  40.302  1.00  0.00     0.062 A 
ATOM     17  C   UNL     1      17.877  20.276  39.732  1.00  0.00     0.158 A 
BRANCH  15  18
ATOM     18  O   UNL     1      20.232  20.102  39.180  1.00  0.00    -0.504 OA
ATOM     19  H   UNL     1      20.190  19.758  38.228  1.00  0.00     0.293 HD
ENDBRANCH  15  18
BRANCH  17  20
ATOM     20  O   UNL     1      17.618  19.032  39.159  1.00  0.00    -0.504 OA
ATOM     21  H   UNL     1      17.940  18.790  38.229  1.00  0.00     0.293 HD
ENDBRANCH  17  20
ENDBRANCH   1  12
BRANCH   2  22
ATOM     22  O   UNL     1      15.692  24.472  39.583  1.00  0.00    -0.502 OA
ATOM     23  H   UNL     1      15.290  25.272  39.108  1.00  0.00     0.293 HD
ENDBRANCH   2  22
BRANCH   6  24
ATOM     24  O   UNL     1      12.169  26.122  43.222  1.00  0.00    -0.507 OA
ATOM     25  H   UNL     1      11.752  26.309  42.322  1.00  0.00     0.293 HD
ENDBRANCH   6  24
BRANCH   8  26
ATOM     26  O   UNL     1      12.609  22.613  46.470  1.00  0.00    -0.508 OA
ATOM     27  H   UNL     1      13.240  22.541  47.259  1.00  0.00     0.293 HD
ENDBRANCH   8  26
TORSDOF 6
ENDMDL
MODEL 3
REMARK VINA RESULT:    -7.131      1.141      6.736
REMARK INTER + INTRA:          -8.277
REMARK INTER:                  -8.583
REMARK INTRA:                   0.306
REMARK UNBOUND:                 0.313
REMARK SMILES O=c1c(O)c(-c2ccc(O)c(O)c2)oc2cc(O)cc(O)c12
REMARK SMILES IDX 5 1 3 2 2 3 1 4 22 5 20 6 19 7 17 8 16 9 15 10 14 11 6 12
REMARK SMILES IDX 7 13 8 14 9 15 13 16 11 17 10 18 12 20 4 22 21 24 18 26
REMARK H PARENT 10 19 12 21 4 23 21 25 18 27
REMARK Flexibility Score: inf
ROOT
ATOM      1  C   UNL     1      16.536  23.319  40.882  1.00  0.00     0.180 A 
ATOM      2  C   UNL     1      17.091  24.170  39.911  1.00  0.00     0.208 A 
ATOM      3  C   UNL     1      18.240  23.755  39.218  1.00  0.00     0.238 A 
ATOM      4  O   UNL     1      18.762  24.544  38.388  1.00  0.00    -0.285 OA
ATOM      5  C   UNL     1      18.810  22.489  39.494  1.00  0.00     0.111 A 
ATOM      6  C   UNL     1      19.950  21.951  38.823  1.00  0.00     0.134 A 
ATOM      7  C   UNL     1      20.506  20.746  39.268  1.00  0.00     0.093 A 
ATOM      8  C   UNL     1      19.925  20.027  40.316  1.00  0.00     0.123 A 
ATOM      9  C   UNL     1      18.777  20.514  40.936  1.00  0.00     0.094 A 
ATOM     10  C   UNL     1      18.220  21.732  40.539  1.00  0.00     0.146 A 
ATOM     11  O   UNL     1      17.133  22.166  41.164  1.00  0.00    -0.452 OA
ENDROOT
BRANCH   1  12
ATOM     12  C   UNL     1      15.312  23.675  41.635  1.00  0.00     0.025 A 
ATOM     13  C   UNL     1      14.367  24.576  41.113  1.00  0.00     0.016 A 
ATOM     14  C   UNL     1      13.208  24.877  41.832  1.00  0.00     0.051 A 
ATOM     15  C   UNL     1      12.968  24.276  43.074  1.00  0.00     0.157 A 
ATOM     16  C   UNL     1      15.057  23.058  42.872  1.00  0.00     0.062 A 
ATOM     17  C   UNL     1      13.897  23.359  43.595  1.00  0.00     0.158 A 
BRANCH  15  18
ATOM     18  O   UNL     1      11.811  24.582  43.790  1.00  0.00    -0.504 OA
ATOM     19  H   UNL     1      11.641  25.514  44.149  1.00  0.00     0.293 HD
ENDBRANCH  15  18
BRANCH  17  20
ATOM     20  O   UNL     1      13.684  22.738  44.825  1.00  0.00    -0.504 OA
ATOM     21  H   UNL     1      12.936  22.070  44.969  1.00  0.00     0.293 HD
ENDBRANCH  17  20
ENDBRANCH   1  12
BRANCH   2  22
ATOM     22  O   UNL     1      16.524  25.424  39.669  1.00  0.00    -0.502 OA
ATOM     23  H   UNL     1      16.209  25.711  38.750  1.00  0.00     0.293 HD
ENDBRANCH   2  22
BRANCH   6  24
ATOM     24  O   UNL     1      20.552  22.542  37.709  1.00  0.00    -0.507 OA
ATOM     25  H   UNL     1      21.194  23.320  37.749  1.00  0.00     0.293 HD
ENDBRANCH   6  24
BRANCH   8  26
ATOM     26  O   UNL     1      20.476  18.820  40.742  1.00  0.00    -0.508 OA
ATOM     27  H   UNL     1      21.277  18.793  41.361  1.00  0.00     0.293 HD
ENDBRANCH   8  26
TORSDOF 6
ENDMDL
MODEL 4
REMARK VINA RESULT:    -6.593      1.565      7.201
REMARK INTER + INTRA:          -7.629
REMARK INTER:                  -7.461
REMARK INTRA:                  -0.168
REMARK UNBOUND:                 0.313
REMARK SMILES O=c1c(O)c(-c2ccc(O)c(O)c2)oc2cc(O)cc(O)c12
REMARK SMILES IDX 5 1 3 2 2 3 1 4 22 5 20 6 19 7 17 8 16 9 15 10 14 11 6 12
REMARK SMILES IDX 7 13 8 14 9 15 13 16 11 17 10 18 12 20 4 22 21 24 18 26
REMARK H PARENT 10 19 12 21 4 23 21 25 18 27
REMARK Flexibility Score: inf
ROOT
ATOM      1  C   UNL     1      16.996  22.335  41.176  1.00  0.00     0.180 A 
ATOM      2  C   UNL     1      17.069  20.944  40.987  1.00  0.00     0.208 A 
ATOM      3  C   UNL     1      18.260  20.385  40.497  1.00  0.00     0.238 A 
ATOM      4  O   UNL     1      18.301  19.146  40.279  1.00  0.00    -0.285 OA
ATOM      5  C   UNL     1      19.368  21.222  40.219  1.00  0.00     0.111 A 
ATOM      6  C   UNL     1      20.637  20.758  39.757  1.00  0.00     0.134 A 
ATOM      7  C   UNL     1      21.618  21.686  39.389  1.00  0.00     0.093 A 
ATOM      8  C   UNL     1      21.400  23.059  39.528  1.00  0.00     0.123 A 
ATOM      9  C   UNL     1      20.187  23.519  40.034  1.00  0.00     0.094 A 
ATOM     10  C   UNL     1      19.175  22.619  40.375  1.00  0.00     0.146 A 
ATOM     11  O   UNL     1      18.029  23.099  40.844  1.00  0.00    -0.452 OA
ENDROOT
BRANCH   1  12
ATOM     12  C   UNL     1      15.783  22.995  41.713  1.00  0.00     0.025 A 
ATOM     13  C   UNL     1      15.006  23.856  40.919  1.00  0.00     0.016 A 
ATOM     14  C   UNL     1      13.852  24.448  41.440  1.00  0.00     0.051 A 
ATOM     15  C   UNL     1      13.452  24.179  42.755  1.00  0.00     0.157 A 
ATOM     16  C   UNL     1      15.366  22.712  43.025  1.00  0.00     0.062 A 
ATOM     17  C   UNL     1      14.211  23.304  43.550  1.00  0.00     0.158 A 
BRANCH  15  18
ATOM     18  O   UNL     1      12.302  24.774  43.273  1.00  0.00    -0.504 OA
ATOM     19  H   UNL     1      11.382  24.560  42.905  1.00  0.00     0.293 HD
ENDBRANCH  15  18
BRANCH  17  20
ATOM     20  O   UNL     1      13.835  23.010  44.860  1.00  0.00    -0.504 OA
ATOM     21  H   UNL     1      14.373  23.326  45.658  1.00  0.00     0.293 HD
ENDBRANCH  17  20
ENDBRANCH   1  12
BRANCH   2  22
ATOM     22  O   UNL     1      15.956  20.140  41.249  1.00  0.00    -0.502 OA
ATOM     23  H   UNL     1      15.983  19.131  41.164  1.00  0.00     0.293 HD
ENDBRANCH   2  22
BRANCH   6  24
ATOM     24  O   UNL     1      20.990  19.409  39.668  1.00  0.00    -0.507 OA
ATOM     25  H   UNL     1      21.719  18.968  40.210  1.00  0.00     0.293 HD
ENDBRANCH   6  24
BRANCH   8  26
ATOM     26  O   UNL     1      22.388  23.975  39.174  1.00  0.00    -0.508 OA
ATOM     27  H   UNL     1      22.159  24.925  38.909  1.00  0.00     0.293 HD
ENDBRANCH   8  26
TORSDOF 6
ENDMDL
MODEL 5
REMARK VINA RESULT:    -6.539      2.235      7.296
REMARK INTER + INTRA:          -7.564
REMARK INTER:                  -7.235
REMARK INTRA:                  -0.328
REMARK UNBOUND:                 0.313
REMARK SMILES O=c1c(O)c(-c2ccc(O)c(O)c2)oc2cc(O)cc(O)c12
REMARK SMILES IDX 5 1 3 2 2 3 1 4 22 5 20 6 19 7 17 8 16 9 15 10 14 11 6 12
REMARK SMILES IDX 7 13 8 14 9 15 13 16 11 17 10 18 12 20 4 22 21 24 18 26
REMARK H PARENT 10 19 12 21 4 23 21 25 18 27
REMARK Flexibility Score: inf
ROOT
ATOM      1  C   UNL     1      14.016  23.902  43.009  1.00  0.00     0.180 A 
ATOM      2  C   UNL     1      13.828  25.002  42.155  1.00  0.00     0.208 A 
ATOM      3  C   UNL     1      14.617  25.110  40.999  1.00  0.00     0.238 A 
ATOM      4  O   UNL     1      14.481  26.125  40.267  1.00  0.00    -0.285 OA
ATOM      5  C   UNL     1      15.572  24.108  40.703  1.00  0.00     0.111 A 
ATOM      6  C   UNL     1      16.398  24.095  39.538  1.00  0.00     0.134 A 
ATOM      7  C   UNL     1      17.399  23.124  39.414  1.00  0.00     0.093 A 
ATOM      8  C   UNL     1      17.562  22.128  40.379  1.00  0.00     0.123 A 
ATOM      9  C   UNL     1      16.722  22.097  41.489  1.00  0.00     0.094 A 
ATOM     10  C   UNL     1      15.737  23.073  41.660  1.00  0.00     0.146 A 
ATOM     11  O   UNL     1      14.965  23.014  42.738  1.00  0.00    -0.452 OA
ENDROOT
BRANCH   1  12
ATOM     12  C   UNL     1      13.204  23.706  44.232  1.00  0.00     0.025 A 
ATOM     13  C   UNL     1      12.020  22.948  44.212  1.00  0.00     0.016 A 
ATOM     14  C   UNL     1      11.284  22.757  45.384  1.00  0.00     0.051 A 
ATOM     15  C   UNL     1      11.725  23.308  46.594  1.00  0.00     0.157 A 
ATOM     16  C   UNL     1      13.654  24.238  45.452  1.00  0.00     0.062 A 
ATOM     17  C   UNL     1      12.918  24.050  46.629  1.00  0.00     0.158 A 
BRANCH  15  18
ATOM     18  O   UNL     1      10.986  23.118  47.762  1.00  0.00    -0.504 OA
ATOM     19  H   UNL     1      10.882  22.201  48.180  1.00  0.00     0.293 HD
ENDBRANCH  15  18
BRANCH  17  20
ATOM     20  O   UNL     1      13.388  24.605  47.818  1.00  0.00    -0.504 OA
ATOM     21  H   UNL     1      14.258  24.307  48.244  1.00  0.00     0.293 HD
ENDBRANCH  17  20
ENDBRANCH   1  12
BRANCH   2  22
ATOM     22  O   UNL     1      12.894  25.990  42.478  1.00  0.00    -0.502 OA
ATOM     23  H   UNL     1      12.922  26.918  42.072  1.00  0.00     0.293 HD
ENDBRANCH   2  22
BRANCH   6  24
ATOM     24  O   UNL     1      16.259  24.989  38.473  1.00  0.00    -0.507 OA
ATOM     25  H   UNL     1      15.554  25.708  38.415  1.00  0.00     0.293 HD
ENDBRANCH   6  24
BRANCH   8  26
ATOM     26  O   UNL     1      18.551  21.156  40.239  1.00  0.00    -0.508 OA
ATOM     27  H   UNL     1      18.332  20.168  40.280  1.00  0.00     0.293 HD
ENDBRANCH   8  26
TORSDOF 6
ENDMDL
MODEL 6
REMARK VINA RESULT:    -5.998      1.439      7.455
REMARK INTER + INTRA:          -6.912
REMARK INTER:                  -7.436
REMARK INTRA:                   0.524
REMARK UNBOUND:                 0.313
REMARK SMILES O=c1c(O)c(-c2ccc(O)c(O)c2)oc2cc(O)cc(O)c12
REMARK SMILES IDX 5 1 3 2 2 3 1 4 22 5 20 6 19 7 17 8 16 9 15 10 14 11 6 12
REMARK SMILES IDX 7 13 8 14 9 15 13 16 11 17 10 18 12 20 4 22 21 24 18 26
REMARK H PARENT 10 19 12 21 4 23 21 25 18 27
REMARK Flexibility Score: inf
ROOT
ATOM      1  C   UNL     1      18.065  22.317  40.191  1.00  0.00     0.180 A 
ATOM      2  C   UNL     1      18.020  21.107  40.905  1.00  0.00     0.208 A 
ATOM      3  C   UNL     1      19.090  20.205  40.785  1.00  0.00     0.238 A 
ATOM      4  O   UNL     1      19.018  19.101  41.385  1.00  0.00    -0.285 OA
ATOM      5  C   UNL     1      20.198  20.532  39.967  1.00  0.00     0.111 A 
ATOM      6  C   UNL     1      21.355  19.711  39.805  1.00  0.00     0.134 A 
ATOM      7  C   UNL     1      22.331  20.072  38.869  1.00  0.00     0.093 A 
ATOM      8  C   UNL     1      22.225  21.257  38.137  1.00  0.00     0.123 A 
ATOM      9  C   UNL     1      21.129  22.095  38.333  1.00  0.00     0.094 A 
ATOM     10  C   UNL     1      20.120  21.743  39.232  1.00  0.00     0.146 A 
ATOM     11  O   UNL     1      19.088  22.564  39.380  1.00  0.00    -0.452 OA
ENDROOT
BRANCH   1  12
ATOM     12  C   UNL     1      16.988  23.328  40.285  1.00  0.00     0.025 A 
ATOM     13  C   UNL     1      16.926  24.418  39.399  1.00  0.00     0.016 A 
ATOM     14  C   UNL     1      15.887  25.346  39.493  1.00  0.00     0.051 A 
ATOM     15  C   UNL     1      14.888  25.195  40.462  1.00  0.00     0.157 A 
ATOM     16  C   UNL     1      15.972  23.169  41.243  1.00  0.00     0.062 A 
ATOM     17  C   UNL     1      14.930  24.098  41.340  1.00  0.00     0.158 A 
BRANCH  15  18
ATOM     18  O   UNL     1      13.853  26.125  40.555  1.00  0.00    -0.504 OA
ATOM     19  H   UNL     1      13.913  26.925  41.174  1.00  0.00     0.293 HD
ENDBRANCH  15  18
BRANCH  17  20
ATOM     20  O   UNL     1      13.947  23.914  42.311  1.00  0.00    -0.504 OA
ATOM     21  H   UNL     1      14.038  24.290  43.248  1.00  0.00     0.293 HD
ENDBRANCH  17  20
ENDBRANCH   1  12
BRANCH   2  22
ATOM     22  O   UNL     1      16.907  20.796  41.690  1.00  0.00    -0.502 OA
ATOM     23  H   UNL     1      16.695  21.286  42.551  1.00  0.00     0.293 HD
ENDBRANCH   2  22
BRANCH   6  24
ATOM     24  O   UNL     1      21.603  18.555  40.551  1.00  0.00    -0.507 OA
ATOM     25  H   UNL     1      22.258  17.833  40.290  1.00  0.00     0.293 HD
ENDBRANCH   6  24
BRANCH   8  26
ATOM     26  O   UNL     1      23.209  21.617  37.219  1.00  0.00    -0.508 OA
ATOM     27  H   UNL     1      23.738  20.920  36.709  1.00  0.00     0.293 HD
ENDBRANCH   8  26
TORSDOF 6
ENDMDL
MODEL 7
REMARK VINA RESULT:    -5.650     17.688     19.506
REMARK INTER + INTRA:          -6.493
REMARK INTER:                  -6.964
REMARK INTRA:                   0.471
REMARK UNBOUND:                 0.313
REMARK SMILES O=c1c(O)c(-c2ccc(O)c(O)c2)oc2cc(O)cc(O)c12
REMARK SMILES IDX 5 1 3 2 2 3 1 4 22 5 20 6 19 7 17 8 16 9 15 10 14 11 6 12
REMARK SMILES IDX 7 13 8 14 9 15 13 16 11 17 10 18 12 20 4 22 21 24 18 26
REMARK H PARENT 10 19 12 21 4 23 21 25 18 27
REMARK Flexibility Score: inf
ROOT
ATOM      1  C   UNL     1      30.973  10.524  41.223  1.00  0.00     0.180 A 
ATOM      2  C   UNL     1      30.908  11.638  40.368  1.00  0.00     0.208 A 
ATOM      3  C   UNL     1      30.844  11.429  38.981  1.00  0.00     0.238 A 
ATOM      4  O   UNL     1      30.840  12.431  38.219  1.00  0.00    -0.285 OA
ATOM      5  C   UNL     1      30.830  10.110  38.468  1.00  0.00     0.111 A 
ATOM      6  C   UNL     1      30.727   9.782  37.082  1.00  0.00     0.134 A 
ATOM      7  C   UNL     1      30.854   8.447  36.678  1.00  0.00     0.093 A 
ATOM      8  C   UNL     1      31.015   7.423  37.614  1.00  0.00     0.123 A 
ATOM      9  C   UNL     1      31.056   7.728  38.973  1.00  0.00     0.094 A 
ATOM     10  C   UNL     1      30.969   9.054  39.404  1.00  0.00     0.146 A 
ATOM     11  O   UNL     1      31.024   9.302  40.707  1.00  0.00    -0.452 OA
ENDROOT
BRANCH   1  12
ATOM     12  C   UNL     1      31.016  10.663  42.697  1.00  0.00     0.025 A 
ATOM     13  C   UNL     1      30.965  11.925  43.315  1.00  0.00     0.016 A 
ATOM     14  C   UNL     1      30.983  12.030  44.708  1.00  0.00     0.051 A 
ATOM     15  C   UNL     1      31.039  10.879  45.504  1.00  0.00     0.157 A 
ATOM     16  C   UNL     1      31.051   9.511  43.499  1.00  0.00     0.062 A 
ATOM     17  C   UNL     1      31.070   9.613  44.895  1.00  0.00     0.158 A 
BRANCH  15  18
ATOM     18  O   UNL     1      31.060  10.987  46.893  1.00  0.00    -0.504 OA
ATOM     19  H   UNL     1      30.205  11.016  47.436  1.00  0.00     0.293 HD
ENDBRANCH  15  18
BRANCH  17  20
ATOM     20  O   UNL     1      31.119   8.447  45.659  1.00  0.00    -0.504 OA
ATOM     21  H   UNL     1      30.389   8.203  46.317  1.00  0.00     0.293 HD
ENDBRANCH  17  20
ENDBRANCH   1  12
BRANCH   2  22
ATOM     22  O   UNL     1      30.945  12.932  40.896  1.00  0.00    -0.502 OA
ATOM     23  H   UNL     1      30.940  13.758  40.310  1.00  0.00     0.293 HD
ENDBRANCH   2  22
BRANCH   6  24
ATOM     24  O   UNL     1      30.475  10.717  36.074  1.00  0.00    -0.507 OA
ATOM     25  H   UNL     1      30.560  11.717  36.184  1.00  0.00     0.293 HD
ENDBRANCH   6  24
BRANCH   8  26
ATOM     26  O   UNL     1      31.125   6.096  37.205  1.00  0.00    -0.508 OA
ATOM     27  H   UNL     1      31.346   5.854  36.246  1.00  0.00     0.293 HD
ENDBRANCH   8  26
TORSDOF 6
ENDMDL
MODEL 8
REMARK VINA RESULT:    -5.149     17.874     19.594
REMARK INTER + INTRA:          -5.890
REMARK INTER:                  -6.443
REMARK INTRA:                   0.554
REMARK UNBOUND:                 0.313
REMARK SMILES O=c1c(O)c(-c2ccc(O)c(O)c2)oc2cc(O)cc(O)c12
REMARK SMILES IDX 5 1 3 2 2 3 1 4 22 5 20 6 19 7 17 8 16 9 15 10 14 11 6 12
REMARK SMILES IDX 7 13 8 14 9 15 13 16 11 17 10 18 12 20 4 22 21 24 18 26
REMARK H PARENT 10 19 12 21 4 23 21 25 18 27
REMARK Flexibility Score: inf
ROOT
ATOM      1  C   UNL     1      30.951   9.746  39.886  1.00  0.00     0.180 A 
ATOM      2  C   UNL     1      31.005   8.344  39.969  1.00  0.00     0.208 A 
ATOM      3  C   UNL     1      31.022   7.737  41.235  1.00  0.00     0.238 A 
ATOM      4  O   UNL     1      31.125   6.484  41.303  1.00  0.00    -0.285 OA
ATOM      5  C   UNL     1      30.969   8.539  42.400  1.00  0.00     0.111 A 
ATOM      6  C   UNL     1      30.941   8.027  43.734  1.00  0.00     0.134 A 
ATOM      7  C   UNL     1      31.020   8.915  44.814  1.00  0.00     0.093 A 
ATOM      8  C   UNL     1      31.062  10.296  44.611  1.00  0.00     0.123 A 
ATOM      9  C   UNL     1      31.029  10.806  43.315  1.00  0.00     0.094 A 
ATOM     10  C   UNL     1      30.987   9.945  42.216  1.00  0.00     0.146 A 
ATOM     11  O   UNL     1      30.968  10.472  40.997  1.00  0.00    -0.452 OA
ENDROOT
BRANCH   1  12
ATOM     12  C   UNL     1      30.903  10.457  38.588  1.00  0.00     0.025 A 
ATOM     13  C   UNL     1      30.865  11.861  38.523  1.00  0.00     0.016 A 
ATOM     14  C   UNL     1      30.845  12.510  37.286  1.00  0.00     0.051 A 
ATOM     15  C   UNL     1      30.876  11.770  36.097  1.00  0.00     0.157 A 
ATOM     16  C   UNL     1      30.956   9.720  37.393  1.00  0.00     0.062 A 
ATOM     17  C   UNL     1      30.935  10.367  36.152  1.00  0.00     0.158 A 
BRANCH  15  18
ATOM     18  O   UNL     1      30.853  12.421  34.865  1.00  0.00    -0.504 OA
ATOM     19  H   UNL     1      31.617  13.014  34.563  1.00  0.00     0.293 HD
ENDBRANCH  15  18
BRANCH  17  20
ATOM     20  O   UNL     1      30.975   9.602  34.988  1.00  0.00    -0.504 OA
ATOM     21  H   UNL     1      30.931   8.590  35.007  1.00  0.00     0.293 HD
ENDBRANCH  17  20
ENDBRANCH   1  12
BRANCH   2  22
ATOM     22  O   UNL     1      31.078   7.574  38.805  1.00  0.00    -0.502 OA
ATOM     23  H   UNL     1      31.605   7.867  37.991  1.00  0.00     0.293 HD
ENDBRANCH   2  22
BRANCH   6  24
ATOM     24  O   UNL     1      30.809   6.672  44.048  1.00  0.00    -0.507 OA
ATOM     25  H   UNL     1      31.441   5.947  43.741  1.00  0.00     0.293 HD
ENDBRANCH   6  24
BRANCH   8  26
ATOM     26  O   UNL     1      31.125  11.172  45.692  1.00  0.00    -0.508 OA
ATOM     27  H   UNL     1      30.849  12.143  45.604  1.00  0.00     0.293 HD
ENDBRANCH   8  26
TORSDOF 6
ENDMDL
