MODEL 1
REMARK VINA RESULT:    -7.295      0.000      0.000
REMARK INTER + INTRA:          -8.830
REMARK INTER:                  -8.788
REMARK INTRA:                  -0.042
REMARK UNBOUND:                -0.042
REMARK SMILES O=c1c(O)c(-c2ccc(O)c(O)c2)oc2cc(O)cc(O)c12
REMARK SMILES IDX 5 1 3 2 2 3 1 4 22 5 20 6 19 7 17 8 16 9 15 10 14 11 6 12
REMARK SMILES IDX 7 13 8 14 9 15 13 16 11 17 10 18 12 20 4 22 21 24 18 26
REMARK H PARENT 10 19 12 21 4 23 21 25 18 27
REMARK Flexibility Score: inf
ROOT
ATOM      1  C   UNL     1      83.529  93.963  84.784  1.00  0.00     0.180 A 
ATOM      2  C   UNL     1      82.624  93.025  85.310  1.00  0.00     0.208 A 
ATOM      3  C   UNL     1      82.204  91.956  84.502  1.00  0.00     0.238 A 
ATOM      4  O   UNL     1      81.337  91.163  84.953  1.00  0.00    -0.285 OA
ATOM      5  C   UNL     1      82.736  91.807  83.198  1.00  0.00     0.111 A 
ATOM      6  C   UNL     1      82.416  90.737  82.308  1.00  0.00     0.134 A 
ATOM      7  C   UNL     1      82.922  90.750  81.002  1.00  0.00     0.093 A 
ATOM      8  C   UNL     1      83.788  91.759  80.576  1.00  0.00     0.123 A 
ATOM      9  C   UNL     1      84.150  92.778  81.454  1.00  0.00     0.094 A 
ATOM     10  C   UNL     1      83.631  92.813  82.750  1.00  0.00     0.146 A 
ATOM     11  O   UNL     1      83.986  93.814  83.546  1.00  0.00    -0.452 OA
ENDROOT
BRANCH   1  12
ATOM     12  C   UNL     1      84.007  95.123  85.570  1.00  0.00     0.025 A 
ATOM     13  C   UNL     1      85.383  95.390  85.639  1.00  0.00     0.016 A 
ATOM     14  C   UNL     1      85.855  96.491  86.357  1.00  0.00     0.051 A 
ATOM     15  C   UNL     1      84.961  97.351  87.002  1.00  0.00     0.157 A 
ATOM     16  C   UNL     1      83.107  96.001  86.202  1.00  0.00     0.062 A 
ATOM     17  C   UNL     1      83.580  97.108  86.921  1.00  0.00     0.158 A 
BRANCH  15  18
ATOM     18  O   UNL     1      85.462  98.441  87.712  1.00  0.00    -0.504 OA
ATOM     19  H   UNL     1      84.944  99.307  87.805  1.00  0.00     0.293 HD
ENDBRANCH  15  18
BRANCH  17  20
ATOM     20  O   UNL     1      82.682  97.970  87.550  1.00  0.00    -0.504 OA
ATOM     21  H   UNL     1      81.682  97.812  87.517  1.00  0.00     0.293 HD
ENDBRANCH  17  20
ENDBRANCH   1  12
BRANCH   2  22
ATOM     22  O   UNL     1      82.169  93.147  86.626  1.00  0.00    -0.502 OA
ATOM     23  H   UNL     1      81.626  92.424  87.083  1.00  0.00     0.293 HD
ENDBRANCH   2  22
BRANCH   6  24
ATOM     24  O   UNL     1      81.632  89.633  82.659  1.00  0.00    -0.507 OA
ATOM     25  H   UNL     1      81.575  88.775  82.132  1.00  0.00     0.293 HD
ENDBRANCH   6  24
BRANCH   8  26
ATOM     26  O   UNL     1      84.301  91.755  79.280  1.00  0.00    -0.508 OA
ATOM     27  H   UNL     1      85.227  91.396  79.078  1.00  0.00     0.293 HD
ENDBRANCH   8  26
TORSDOF 6
ENDMDL
MODEL 2
REMARK VINA RESULT:    -7.241     15.089     16.447
REMARK INTER + INTRA:          -8.765
REMARK INTER:                  -8.738
REMARK INTRA:                  -0.027
REMARK UNBOUND:                -0.042
REMARK SMILES O=c1c(O)c(-c2ccc(O)c(O)c2)oc2cc(O)cc(O)c12
REMARK SMILES IDX 5 1 3 2 2 3 1 4 22 5 20 6 19 7 17 8 16 9 15 10 14 11 6 12
REMARK SMILES IDX 7 13 8 14 9 15 13 16 11 17 10 18 12 20 4 22 21 24 18 26
REMARK H PARENT 10 19 12 21 4 23 21 25 18 27
REMARK Flexibility Score: inf
ROOT
ATOM      1  C   UNL     1      97.324  86.790  84.841  1.00  0.00     0.180 A 
ATOM      2  C   UNL     1      98.195  87.761  85.365  1.00  0.00     0.208 A 
ATOM      3  C   UNL     1      98.579  88.840  84.554  1.00  0.00     0.238 A 
ATOM      4  O   UNL     1      99.417  89.664  85.004  1.00  0.00    -0.285 OA
ATOM      5  C   UNL     1      98.046  88.965  83.248  1.00  0.00     0.111 A 
ATOM      6  C   UNL     1      98.331  90.041  82.354  1.00  0.00     0.134 A 
ATOM      7  C   UNL     1      97.829  90.005  81.047  1.00  0.00     0.093 A 
ATOM      8  C   UNL     1      97.000  88.964  80.623  1.00  0.00     0.123 A 
ATOM      9  C   UNL     1      96.671  87.938  81.504  1.00  0.00     0.094 A 
ATOM     10  C   UNL     1      97.187  87.926  82.802  1.00  0.00     0.146 A 
ATOM     11  O   UNL     1      96.865  86.917  83.602  1.00  0.00    -0.452 OA
ENDROOT
BRANCH   1  12
ATOM     12  C   UNL     1      96.884  85.617  85.631  1.00  0.00     0.025 A 
ATOM     13  C   UNL     1      95.520  85.290  85.680  1.00  0.00     0.016 A 
ATOM     14  C   UNL     1      95.085  84.176  86.401  1.00  0.00     0.051 A 
ATOM     15  C   UNL     1      96.005  83.363  87.071  1.00  0.00     0.157 A 
ATOM     16  C   UNL     1      97.810  84.786  86.287  1.00  0.00     0.062 A 
ATOM     17  C   UNL     1      97.375  83.666  87.010  1.00  0.00     0.158 A 
BRANCH  15  18
ATOM     18  O   UNL     1      95.540  82.258  87.784  1.00  0.00    -0.504 OA
ATOM     19  H   UNL     1      95.707  81.309  87.473  1.00  0.00     0.293 HD
ENDBRANCH  15  18
BRANCH  17  20
ATOM     20  O   UNL     1      98.299  82.851  87.662  1.00  0.00    -0.504 OA
ATOM     21  H   UNL     1      98.572  81.951  87.286  1.00  0.00     0.293 HD
ENDBRANCH  17  20
ENDBRANCH   1  12
BRANCH   2  22
ATOM     22  O   UNL     1      98.650  87.660  86.683  1.00  0.00    -0.502 OA
ATOM     23  H   UNL     1      99.141  86.844  87.028  1.00  0.00     0.293 HD
ENDBRANCH   2  22
BRANCH   6  24
ATOM     24  O   UNL     1      99.075  91.173  82.702  1.00  0.00    -0.507 OA
ATOM     25  H   UNL     1      99.272  91.947  82.086  1.00  0.00     0.293 HD
ENDBRANCH   6  24
BRANCH   8  26
ATOM     26  O   UNL     1      96.490  88.945  79.325  1.00  0.00    -0.508 OA
ATOM     27  H   UNL     1      96.373  88.077  78.816  1.00  0.00     0.293 HD
ENDBRANCH   8  26
TORSDOF 6
ENDMDL
MODEL 3
REMARK VINA RESULT:    -7.042     14.988     16.306
REMARK INTER + INTRA:          -8.525
REMARK INTER:                  -8.217
REMARK INTRA:                  -0.308
REMARK UNBOUND:                -0.042
REMARK SMILES O=c1c(O)c(-c2ccc(O)c(O)c2)oc2cc(O)cc(O)c12
REMARK SMILES IDX 5 1 3 2 2 3 1 4 22 5 20 6 19 7 17 8 16 9 15 10 14 11 6 12
REMARK SMILES IDX 7 13 8 14 9 15 13 16 11 17 10 18 12 20 4 22 21 24 18 26
REMARK H PARENT 10 19 12 21 4 23 21 25 18 27
REMARK Flexibility Score: inf
ROOT
ATOM      1  C   UNL     1      96.754  86.218  84.613  1.00  0.00     0.180 A 
ATOM      2  C   UNL     1      97.626  86.469  85.686  1.00  0.00     0.208 A 
ATOM      3  C   UNL     1      97.580  85.631  86.812  1.00  0.00     0.238 A 
ATOM      4  O   UNL     1      98.310  85.906  87.799  1.00  0.00    -0.285 OA
ATOM      5  C   UNL     1      96.702  84.520  86.828  1.00  0.00     0.111 A 
ATOM      6  C   UNL     1      96.602  83.579  87.897  1.00  0.00     0.134 A 
ATOM      7  C   UNL     1      95.621  82.580  87.849  1.00  0.00     0.093 A 
ATOM      8  C   UNL     1      94.781  82.449  86.742  1.00  0.00     0.123 A 
ATOM      9  C   UNL     1      94.907  83.328  85.669  1.00  0.00     0.094 A 
ATOM     10  C   UNL     1      95.848  84.359  85.705  1.00  0.00     0.146 A 
ATOM     11  O   UNL     1      95.919  85.187  84.670  1.00  0.00    -0.452 OA
ENDROOT
BRANCH   1  12
ATOM     12  C   UNL     1      96.736  87.064  83.398  1.00  0.00     0.025 A 
ATOM     13  C   UNL     1      96.014  88.268  83.407  1.00  0.00     0.016 A 
ATOM     14  C   UNL     1      96.001  89.093  82.280  1.00  0.00     0.051 A 
ATOM     15  C   UNL     1      96.719  88.738  81.134  1.00  0.00     0.157 A 
ATOM     16  C   UNL     1      97.476  86.719  82.252  1.00  0.00     0.062 A 
ATOM     17  C   UNL     1      97.464  87.547  81.121  1.00  0.00     0.158 A 
BRANCH  15  18
ATOM     18  O   UNL     1      96.685  89.581  80.024  1.00  0.00    -0.504 OA
ATOM     19  H   UNL     1      96.257  90.498  80.058  1.00  0.00     0.293 HD
ENDBRANCH  15  18
BRANCH  17  20
ATOM     20  O   UNL     1      98.195  87.194  79.987  1.00  0.00    -0.504 OA
ATOM     21  H   UNL     1      97.800  86.608  79.262  1.00  0.00     0.293 HD
ENDBRANCH  17  20
ENDBRANCH   1  12
BRANCH   2  22
ATOM     22  O   UNL     1      98.540  87.525  85.619  1.00  0.00    -0.502 OA
ATOM     23  H   UNL     1      99.320  87.611  86.259  1.00  0.00     0.293 HD
ENDBRANCH   2  22
BRANCH   6  24
ATOM     24  O   UNL     1      97.449  83.564  89.010  1.00  0.00    -0.507 OA
ATOM     25  H   UNL     1      97.778  82.731  89.474  1.00  0.00     0.293 HD
ENDBRANCH   6  24
BRANCH   8  26
ATOM     26  O   UNL     1      93.820  81.441  86.694  1.00  0.00    -0.508 OA
ATOM     27  H   UNL     1      92.857  81.638  86.447  1.00  0.00     0.293 HD
ENDBRANCH   8  26
TORSDOF 6
ENDMDL
MODEL 4
REMARK VINA RESULT:    -6.921     15.184     16.093
REMARK INTER + INTRA:          -8.380
REMARK INTER:                  -8.456
REMARK INTRA:                   0.076
REMARK UNBOUND:                -0.042
REMARK SMILES O=c1c(O)c(-c2ccc(O)c(O)c2)oc2cc(O)cc(O)c12
REMARK SMILES IDX 5 1 3 2 2 3 1 4 22 5 20 6 19 7 17 8 16 9 15 10 14 11 6 12
REMARK SMILES IDX 7 13 8 14 9 15 13 16 11 17 10 18 12 20 4 22 21 24 18 26
REMARK H PARENT 10 19 12 21 4 23 21 25 18 27
REMARK Flexibility Score: inf
ROOT
ATOM      1  C   UNL     1      96.288  85.150  86.122  1.00  0.00     0.180 A 
ATOM      2  C   UNL     1      97.077  84.651  87.173  1.00  0.00     0.208 A 
ATOM      3  C   UNL     1      96.638  83.518  87.876  1.00  0.00     0.238 A 
ATOM      4  O   UNL     1      97.311  83.122  88.863  1.00  0.00    -0.285 OA
ATOM      5  C   UNL     1      95.444  82.864  87.484  1.00  0.00     0.111 A 
ATOM      6  C   UNL     1      94.927  81.683  88.096  1.00  0.00     0.134 A 
ATOM      7  C   UNL     1      93.681  81.185  87.694  1.00  0.00     0.093 A 
ATOM      8  C   UNL     1      92.965  81.789  86.659  1.00  0.00     0.123 A 
ATOM      9  C   UNL     1      93.486  82.910  86.018  1.00  0.00     0.094 A 
ATOM     10  C   UNL     1      94.708  83.453  86.423  1.00  0.00     0.146 A 
ATOM     11  O   UNL     1      95.157  84.535  85.799  1.00  0.00    -0.452 OA
ENDROOT
BRANCH   1  12
ATOM     12  C   UNL     1      96.678  86.348  85.344  1.00  0.00     0.025 A 
ATOM     13  C   UNL     1      97.124  87.494  86.020  1.00  0.00     0.016 A 
ATOM     14  C   UNL     1      97.518  88.628  85.305  1.00  0.00     0.051 A 
ATOM     15  C   UNL     1      97.489  88.629  83.907  1.00  0.00     0.157 A 
ATOM     16  C   UNL     1      96.670  86.343  83.937  1.00  0.00     0.062 A 
ATOM     17  C   UNL     1      97.067  87.479  83.219  1.00  0.00     0.158 A 
BRANCH  15  18
ATOM     18  O   UNL     1      97.886  89.776  83.221  1.00  0.00    -0.504 OA
ATOM     19  H   UNL     1      97.691  89.909  82.237  1.00  0.00     0.293 HD
ENDBRANCH  15  18
BRANCH  17  20
ATOM     20  O   UNL     1      97.050  87.468  81.825  1.00  0.00    -0.504 OA
ATOM     21  H   UNL     1      97.277  88.294  81.284  1.00  0.00     0.293 HD
ENDBRANCH  17  20
ENDBRANCH   1  12
BRANCH   2  22
ATOM     22  O   UNL     1      98.291  85.265  87.495  1.00  0.00    -0.502 OA
ATOM     23  H   UNL     1      99.010  85.443  86.804  1.00  0.00     0.293 HD
ENDBRANCH   2  22
BRANCH   6  24
ATOM     24  O   UNL     1      95.600  80.949  89.078  1.00  0.00    -0.507 OA
ATOM     25  H   UNL     1      95.314  80.876  90.043  1.00  0.00     0.293 HD
ENDBRANCH   6  24
BRANCH   8  26
ATOM     26  O   UNL     1      91.734  81.277  86.252  1.00  0.00    -0.508 OA
ATOM     27  H   UNL     1      91.585  80.280  86.142  1.00  0.00     0.293 HD
ENDBRANCH   8  26
TORSDOF 6
ENDMDL
MODEL 5
REMARK VINA RESULT:    -6.895      2.050      7.363
REMARK INTER + INTRA:          -8.348
REMARK INTER:                  -8.823
REMARK INTRA:                   0.474
REMARK UNBOUND:                -0.042
REMARK SMILES O=c1c(O)c(-c2ccc(O)c(O)c2)oc2cc(O)cc(O)c12
REMARK SMILES IDX 5 1 3 2 2 3 1 4 22 5 20 6 19 7 17 8 16 9 15 10 14 11 6 12
REMARK SMILES IDX 7 13 8 14 9 15 13 16 11 17 10 18 12 20 4 22 21 24 18 26
REMARK H PARENT 10 19 12 21 4 23 21 25 18 27
REMARK Flexibility Score: inf
ROOT
ATOM      1  C   UNL     1      84.416  95.717  86.331  1.00  0.00     0.180 A 
ATOM      2  C   UNL     1      83.719  96.173  87.463  1.00  0.00     0.208 A 
ATOM      3  C   UNL     1      84.190  97.309  88.141  1.00  0.00     0.238 A 
ATOM      4  O   UNL     1      83.605  97.667  89.196  1.00  0.00    -0.285 OA
ATOM      5  C   UNL     1      85.319  98.007  87.647  1.00  0.00     0.111 A 
ATOM      6  C   UNL     1      85.856  99.195  88.228  1.00  0.00     0.134 A 
ATOM      7  C   UNL     1      87.041  99.740  87.716  1.00  0.00     0.093 A 
ATOM      8  C   UNL     1      87.671  99.176  86.605  1.00  0.00     0.123 A 
ATOM      9  C   UNL     1      87.124  98.049  85.997  1.00  0.00     0.094 A 
ATOM     10  C   UNL     1      85.965  97.460  86.508  1.00  0.00     0.146 A 
ATOM     11  O   UNL     1      85.491  96.374  85.911  1.00  0.00    -0.452 OA
ENDROOT
BRANCH   1  12
ATOM     12  C   UNL     1      83.989  94.520  85.572  1.00  0.00     0.025 A 
ATOM     13  C   UNL     1      84.755  94.086  84.478  1.00  0.00     0.016 A 
ATOM     14  C   UNL     1      84.383  92.947  83.761  1.00  0.00     0.051 A 
ATOM     15  C   UNL     1      83.251  92.214  84.133  1.00  0.00     0.157 A 
ATOM     16  C   UNL     1      82.863  93.770  85.958  1.00  0.00     0.062 A 
ATOM     17  C   UNL     1      82.489  92.625  85.240  1.00  0.00     0.158 A 
BRANCH  15  18
ATOM     18  O   UNL     1      82.903  91.083  83.397  1.00  0.00    -0.504 OA
ATOM     19  H   UNL     1      83.348  90.185  83.549  1.00  0.00     0.293 HD
ENDBRANCH  15  18
BRANCH  17  20
ATOM     20  O   UNL     1      81.368  91.891  85.626  1.00  0.00    -0.504 OA
ATOM     21  H   UNL     1      81.169  90.980  85.232  1.00  0.00     0.293 HD
ENDBRANCH  17  20
ENDBRANCH   1  12
BRANCH   2  22
ATOM     22  O   UNL     1      82.562  95.514  87.889  1.00  0.00    -0.502 OA
ATOM     23  H   UNL     1      82.155  94.743  87.375  1.00  0.00     0.293 HD
ENDBRANCH   2  22
BRANCH   6  24
ATOM     24  O   UNL     1      85.260  99.890  89.285  1.00  0.00    -0.507 OA
ATOM     25  H   UNL     1      84.717 100.735  89.188  1.00  0.00     0.293 HD
ENDBRANCH   6  24
BRANCH   8  26
ATOM     26  O   UNL     1      88.840  99.735  86.090  1.00  0.00    -0.508 OA
ATOM     27  H   UNL     1      89.432 100.334  86.653  1.00  0.00     0.293 HD
ENDBRANCH   8  26
TORSDOF 6
ENDMDL
MODEL 6
REMARK VINA RESULT:    -6.480      1.485      6.982
REMARK INTER + INTRA:          -7.848
REMARK INTER:                  -8.388
REMARK INTRA:                   0.541
REMARK UNBOUND:                -0.042
REMARK SMILES O=c1c(O)c(-c2ccc(O)c(O)c2)oc2cc(O)cc(O)c12
REMARK SMILES IDX 5 1 3 2 2 3 1 4 22 5 20 6 19 7 17 8 16 9 15 10 14 11 6 12
REMARK SMILES IDX 7 13 8 14 9 15 13 16 11 17 10 18 12 20 4 22 21 24 18 26
REMARK H PARENT 10 19 12 21 4 23 21 25 18 27
REMARK Flexibility Score: inf
ROOT
ATOM      1  C   UNL     1      83.854  94.638  85.512  1.00  0.00     0.180 A 
ATOM      2  C   UNL     1      83.168  94.823  86.725  1.00  0.00     0.208 A 
ATOM      3  C   UNL     1      83.527  95.899  87.553  1.00  0.00     0.238 A 
ATOM      4  O   UNL     1      82.960  96.015  88.671  1.00  0.00    -0.285 OA
ATOM      5  C   UNL     1      84.529  96.808  87.134  1.00  0.00     0.111 A 
ATOM      6  C   UNL     1      84.942  97.958  87.872  1.00  0.00     0.134 A 
ATOM      7  C   UNL     1      86.018  98.726  87.409  1.00  0.00     0.093 A 
ATOM      8  C   UNL     1      86.652  98.423  86.202  1.00  0.00     0.123 A 
ATOM      9  C   UNL     1      86.220  97.336  85.447  1.00  0.00     0.094 A 
ATOM     10  C   UNL     1      85.176  96.528  85.902  1.00  0.00     0.146 A 
ATOM     11  O   UNL     1      84.811  95.488  85.161  1.00  0.00    -0.452 OA
ENDROOT
BRANCH   1  12
ATOM     12  C   UNL     1      83.541  93.521  84.593  1.00  0.00     0.025 A 
ATOM     13  C   UNL     1      82.605  92.549  84.981  1.00  0.00     0.016 A 
ATOM     14  C   UNL     1      82.278  91.498  84.122  1.00  0.00     0.051 A 
ATOM     15  C   UNL     1      82.867  91.409  82.856  1.00  0.00     0.157 A 
ATOM     16  C   UNL     1      84.116  93.442  83.311  1.00  0.00     0.062 A 
ATOM     17  C   UNL     1      83.788  92.388  82.447  1.00  0.00     0.158 A 
BRANCH  15  18
ATOM     18  O   UNL     1      82.522  90.348  82.021  1.00  0.00    -0.504 OA
ATOM     19  H   UNL     1      82.639  89.382  82.302  1.00  0.00     0.293 HD
ENDBRANCH  15  18
BRANCH  17  20
ATOM     20  O   UNL     1      84.368  92.314  81.181  1.00  0.00    -0.504 OA
ATOM     21  H   UNL     1      85.364  92.180  81.061  1.00  0.00     0.293 HD
ENDBRANCH  17  20
ENDBRANCH   1  12
BRANCH   2  22
ATOM     22  O   UNL     1      82.129  93.960  87.086  1.00  0.00    -0.502 OA
ATOM     23  H   UNL     1      81.690  93.331  86.424  1.00  0.00     0.293 HD
ENDBRANCH   2  22
BRANCH   6  24
ATOM     24  O   UNL     1      84.322  98.402  89.044  1.00  0.00    -0.507 OA
ATOM     25  H   UNL     1      84.172  99.369  89.287  1.00  0.00     0.293 HD
ENDBRANCH   6  24
BRANCH   8  26
ATOM     26  O   UNL     1      87.710  99.204  85.739  1.00  0.00    -0.508 OA
ATOM     27  H   UNL     1      88.017  99.161  84.774  1.00  0.00     0.293 HD
ENDBRANCH   8  26
TORSDOF 6
ENDMDL
MODEL 7
REMARK VINA RESULT:    -6.361     15.779     16.876
REMARK INTER + INTRA:          -7.705
REMARK INTER:                  -7.397
REMARK INTRA:                  -0.308
REMARK UNBOUND:                -0.042
REMARK SMILES O=c1c(O)c(-c2ccc(O)c(O)c2)oc2cc(O)cc(O)c12
REMARK SMILES IDX 5 1 3 2 2 3 1 4 22 5 20 6 19 7 17 8 16 9 15 10 14 11 6 12
REMARK SMILES IDX 7 13 8 14 9 15 13 16 11 17 10 18 12 20 4 22 21 24 18 26
REMARK H PARENT 10 19 12 21 4 23 21 25 18 27
REMARK Flexibility Score: inf
ROOT
ATOM      1  C   UNL     1      97.240  85.758  86.883  1.00  0.00     0.180 A 
ATOM      2  C   UNL     1      97.940  84.553  86.701  1.00  0.00     0.208 A 
ATOM      3  C   UNL     1      97.807  83.536  87.659  1.00  0.00     0.238 A 
ATOM      4  O   UNL     1      98.493  82.489  87.528  1.00  0.00    -0.285 OA
ATOM      5  C   UNL     1      96.934  83.715  88.760  1.00  0.00     0.111 A 
ATOM      6  C   UNL     1      96.688  82.735  89.769  1.00  0.00     0.134 A 
ATOM      7  C   UNL     1      95.886  83.063  90.870  1.00  0.00     0.093 A 
ATOM      8  C   UNL     1      95.269  84.312  90.965  1.00  0.00     0.123 A 
ATOM      9  C   UNL     1      95.459  85.256  89.958  1.00  0.00     0.094 A 
ATOM     10  C   UNL     1      96.284  84.973  88.868  1.00  0.00     0.146 A 
ATOM     11  O   UNL     1      96.454  85.909  87.943  1.00  0.00    -0.452 OA
ENDROOT
BRANCH   1  12
ATOM     12  C   UNL     1      97.340  86.880  85.923  1.00  0.00     0.025 A 
ATOM     13  C   UNL     1      98.426  87.765  86.005  1.00  0.00     0.016 A 
ATOM     14  C   UNL     1      98.553  88.818  85.096  1.00  0.00     0.051 A 
ATOM     15  C   UNL     1      97.606  88.994  84.082  1.00  0.00     0.157 A 
ATOM     16  C   UNL     1      96.400  87.047  84.889  1.00  0.00     0.062 A 
ATOM     17  C   UNL     1      96.526  88.102  83.974  1.00  0.00     0.158 A 
BRANCH  15  18
ATOM     18  O   UNL     1      97.757  90.055  83.190  1.00  0.00    -0.504 OA
ATOM     19  H   UNL     1      98.610  90.197  82.663  1.00  0.00     0.293 HD
ENDBRANCH  15  18
BRANCH  17  20
ATOM     20  O   UNL     1      95.587  88.263  82.957  1.00  0.00    -0.504 OA
ATOM     21  H   UNL     1      94.779  88.863  83.070  1.00  0.00     0.293 HD
ENDBRANCH  17  20
ENDBRANCH   1  12
BRANCH   2  22
ATOM     22  O   UNL     1      98.736  84.366  85.567  1.00  0.00    -0.502 OA
ATOM     23  H   UNL     1      99.687  84.710  85.508  1.00  0.00     0.293 HD
ENDBRANCH   2  22
BRANCH   6  24
ATOM     24  O   UNL     1      97.182  81.427  89.729  1.00  0.00    -0.507 OA
ATOM     25  H   UNL     1      98.061  81.154  89.317  1.00  0.00     0.293 HD
ENDBRANCH   6  24
BRANCH   8  26
ATOM     26  O   UNL     1      94.458  84.624  92.054  1.00  0.00    -0.508 OA
ATOM     27  H   UNL     1      93.888  83.920  92.509  1.00  0.00     0.293 HD
ENDBRANCH   8  26
TORSDOF 6
ENDMDL
MODEL 8
REMARK VINA RESULT:    -6.340     14.962     16.403
REMARK INTER + INTRA:          -7.679
REMARK INTER:                  -8.230
REMARK INTRA:                   0.550
REMARK UNBOUND:                -0.042
REMARK SMILES O=c1c(O)c(-c2ccc(O)c(O)c2)oc2cc(O)cc(O)c12
REMARK SMILES IDX 5 1 3 2 2 3 1 4 22 5 20 6 19 7 17 8 16 9 15 10 14 11 6 12
REMARK SMILES IDX 7 13 8 14 9 15 13 16 11 17 10 18 12 20 4 22 21 24 18 26
REMARK H PARENT 10 19 12 21 4 23 21 25 18 27
REMARK Flexibility Score: inf
ROOT
ATOM      1  C   UNL     1      96.460  85.388  85.995  1.00  0.00     0.180 A 
ATOM      2  C   UNL     1      97.519  85.894  86.769  1.00  0.00     0.208 A 
ATOM      3  C   UNL     1      98.221  87.019  86.310  1.00  0.00     0.238 A 
ATOM      4  O   UNL     1      99.215  87.422  86.969  1.00  0.00    -0.285 OA
ATOM      5  C   UNL     1      97.822  87.658  85.110  1.00  0.00     0.111 A 
ATOM      6  C   UNL     1      98.433  88.832  84.573  1.00  0.00     0.134 A 
ATOM      7  C   UNL     1      98.022  89.314  83.323  1.00  0.00     0.093 A 
ATOM      8  C   UNL     1      96.980  88.704  82.624  1.00  0.00     0.123 A 
ATOM      9  C   UNL     1      96.340  87.591  83.165  1.00  0.00     0.094 A 
ATOM     10  C   UNL     1      96.753  87.064  84.390  1.00  0.00     0.146 A 
ATOM     11  O   UNL     1      96.130  85.989  84.859  1.00  0.00    -0.452 OA
ENDROOT
BRANCH   1  12
ATOM     12  C   UNL     1      95.682  84.198  86.407  1.00  0.00     0.025 A 
ATOM     13  C   UNL     1      95.998  83.550  87.611  1.00  0.00     0.016 A 
ATOM     14  C   UNL     1      95.264  82.438  88.031  1.00  0.00     0.051 A 
ATOM     15  C   UNL     1      94.193  81.967  87.264  1.00  0.00     0.157 A 
ATOM     16  C   UNL     1      94.591  83.736  85.648  1.00  0.00     0.062 A 
ATOM     17  C   UNL     1      93.852  82.621  86.069  1.00  0.00     0.158 A 
BRANCH  15  18
ATOM     18  O   UNL     1      93.479  80.855  87.708  1.00  0.00    -0.504 OA
ATOM     19  H   UNL     1      93.503  79.969  87.216  1.00  0.00     0.293 HD
ENDBRANCH  15  18
BRANCH  17  20
ATOM     20  O   UNL     1      92.776  82.166  85.307  1.00  0.00    -0.504 OA
ATOM     21  H   UNL     1      91.903  82.677  85.262  1.00  0.00     0.293 HD
ENDBRANCH  17  20
ENDBRANCH   1  12
BRANCH   2  22
ATOM     22  O   UNL     1      97.848  85.295  87.988  1.00  0.00    -0.502 OA
ATOM     23  H   UNL     1      97.926  84.291  88.098  1.00  0.00     0.293 HD
ENDBRANCH   2  22
BRANCH   6  24
ATOM     24  O   UNL     1      99.423  89.571  85.229  1.00  0.00    -0.507 OA
ATOM     25  H   UNL     1     100.199  90.026  84.775  1.00  0.00     0.293 HD
ENDBRANCH   6  24
BRANCH   8  26
ATOM     26  O   UNL     1      96.565  89.201  81.389  1.00  0.00    -0.508 OA
ATOM     27  H   UNL     1      97.048  88.958  80.531  1.00  0.00     0.293 HD
ENDBRANCH   8  26
TORSDOF 6
ENDMDL
