MODEL 1
REMARK VINA RESULT:    -5.287      0.000      0.000
REMARK INTER + INTRA:         -10.883
REMARK INTER:                  -9.614
REMARK INTRA:                  -1.269
REMARK UNBOUND:                -1.269
REMARK SMILES CCCCCCCCCCCCCCCC(=O)[O-]
REMARK SMILES IDX 9 1 10 2 11 3 12 4 13 5 14 6 15 7 16 8 17 9 18 10 8 11 7 12
REMARK SMILES IDX 6 13 5 14 4 15 3 16 2 17 1 18
REMARK H PARENT
REMARK Flexibility Score: inf
ROOT
ATOM      1  C   UNL     1       0.108  -2.478   9.334  1.00  0.00     0.000 C 
ENDROOT
BRANCH   1   2
ATOM      2  C   UNL     1       1.310  -3.427   9.493  1.00  0.00     0.000 C 
BRANCH   2   3
ATOM      3  C   UNL     1       1.033  -4.831   8.931  1.00  0.00     0.000 C 
BRANCH   3   4
ATOM      4  C   UNL     1      -0.338  -4.934   8.248  1.00  0.00     0.000 C 
BRANCH   4   5
ATOM      5  C   UNL     1      -0.223  -5.650   6.894  1.00  0.00     0.000 C 
BRANCH   5   6
ATOM      6  C   UNL     1      -0.570  -7.148   6.979  1.00  0.00     0.006 C 
BRANCH   6   7
ATOM      7  C   UNL     1      -1.713  -7.480   7.951  1.00  0.00     0.053 C 
BRANCH   7   8
ATOM      8  C   UNL     1      -2.202  -8.886   7.784  1.00  0.00     0.041 C 
ATOM      9  O   UNL     1      -3.417  -9.161   7.967  1.00  0.00    -0.550 OA
ATOM     10  O   UNL     1      -1.321  -9.888   7.396  1.00  0.00    -0.550 OA
ENDBRANCH   7   8
ENDBRANCH   6   7
ENDBRANCH   5   6
ENDBRANCH   4   5
ENDBRANCH   3   4
ENDBRANCH   2   3
ENDBRANCH   1   2
BRANCH   1  11
ATOM     11  C   UNL     1       0.398  -1.060   9.852  1.00  0.00     0.000 C 
BRANCH  11  12
ATOM     12  C   UNL     1      -0.261   0.028   8.987  1.00  0.00    -0.000 C 
BRANCH  12  13
ATOM     13  C   UNL     1      -1.134  -0.549   7.858  1.00  0.00    -0.000 C 
BRANCH  13  14
ATOM     14  C   UNL     1      -1.097   0.238   6.535  1.00  0.00    -0.000 C 
BRANCH  14  15
ATOM     15  C   UNL     1      -1.448  -0.624   5.313  1.00  0.00    -0.000 C 
BRANCH  15  16
ATOM     16  C   UNL     1      -1.309  -2.118   5.639  1.00  0.00    -0.000 C 
BRANCH  16  17
ATOM     17  C   UNL     1      -1.578  -3.016   4.421  1.00  0.00    -0.003 C 
ATOM     18  C   UNL     1      -1.391  -2.282   3.093  1.00  0.00     0.004 C 
ENDBRANCH  16  17
ENDBRANCH  15  16
ENDBRANCH  14  15
ENDBRANCH  13  14
ENDBRANCH  12  13
ENDBRANCH  11  12
ENDBRANCH   1  11
TORSDOF 14
ENDMDL
MODEL 2
REMARK VINA RESULT:    -5.050      2.582      5.819
REMARK INTER + INTRA:         -10.452
REMARK INTER:                  -9.519
REMARK INTRA:                  -0.933
REMARK UNBOUND:                -1.269
REMARK SMILES CCCCCCCCCCCCCCCC(=O)[O-]
REMARK SMILES IDX 9 1 10 2 11 3 12 4 13 5 14 6 15 7 16 8 17 9 18 10 8 11 7 12
REMARK SMILES IDX 6 13 5 14 4 15 3 16 2 17 1 18
REMARK H PARENT
REMARK Flexibility Score: inf
ROOT
ATOM      1  C   UNL     1       1.201  -1.735  10.042  1.00  0.00     0.000 C 
ENDROOT
BRANCH   1   2
ATOM      2  C   UNL     1      -0.030  -0.835   9.832  1.00  0.00     0.000 C 
BRANCH   2   3
ATOM      3  C   UNL     1      -0.645  -0.993   8.432  1.00  0.00     0.000 C 
BRANCH   3   4
ATOM      4  C   UNL     1      -1.069   0.350   7.818  1.00  0.00     0.000 C 
BRANCH   4   5
ATOM      5  C   UNL     1      -1.309   0.211   6.308  1.00  0.00     0.000 C 
BRANCH   5   6
ATOM      6  C   UNL     1      -1.283  -1.253   5.831  1.00  0.00     0.006 C 
BRANCH   6   7
ATOM      7  C   UNL     1      -1.475  -1.431   4.316  1.00  0.00     0.053 C 
BRANCH   7   8
ATOM      8  C   UNL     1      -1.519  -2.875   3.921  1.00  0.00     0.041 C 
ATOM      9  O   UNL     1      -1.795  -3.758   4.775  1.00  0.00    -0.550 OA
ATOM     10  O   UNL     1      -1.289  -3.242   2.601  1.00  0.00    -0.550 OA
ENDBRANCH   7   8
ENDBRANCH   6   7
ENDBRANCH   5   6
ENDBRANCH   4   5
ENDBRANCH   3   4
ENDBRANCH   2   3
ENDBRANCH   1   2
BRANCH   1  11
ATOM     11  C   UNL     1       0.863  -3.232   9.960  1.00  0.00     0.000 C 
BRANCH  11  12
ATOM     12  C   UNL     1       2.022  -4.067   9.390  1.00  0.00    -0.000 C 
BRANCH  12  13
ATOM     13  C   UNL     1       1.542  -5.240   8.515  1.00  0.00    -0.000 C 
BRANCH  13  14
ATOM     14  C   UNL     1       0.070  -5.163   8.066  1.00  0.00    -0.000 C 
BRANCH  14  15
ATOM     15  C   UNL     1      -0.280  -6.186   6.975  1.00  0.00    -0.000 C 
BRANCH  15  16
ATOM     16  C   UNL     1      -1.399  -7.126   7.445  1.00  0.00    -0.000 C 
BRANCH  16  17
ATOM     17  C   UNL     1      -0.996  -8.607   7.372  1.00  0.00    -0.003 C 
ATOM     18  C   UNL     1      -2.105  -9.546   7.848  1.00  0.00     0.004 C 
ENDBRANCH  16  17
ENDBRANCH  15  16
ENDBRANCH  14  15
ENDBRANCH  13  14
ENDBRANCH  12  13
ENDBRANCH  11  12
ENDBRANCH   1  11
TORSDOF 14
ENDMDL
MODEL 3
REMARK VINA RESULT:    -4.844      2.861      5.522
REMARK INTER + INTRA:         -10.078
REMARK INTER:                  -8.867
REMARK INTRA:                  -1.211
REMARK UNBOUND:                -1.269
REMARK SMILES CCCCCCCCCCCCCCCC(=O)[O-]
REMARK SMILES IDX 9 1 10 2 11 3 12 4 13 5 14 6 15 7 16 8 17 9 18 10 8 11 7 12
REMARK SMILES IDX 6 13 5 14 4 15 3 16 2 17 1 18
REMARK H PARENT
REMARK Flexibility Score: inf
ROOT
ATOM      1  C   UNL     1      -0.047   0.157   8.863  1.00  0.00     0.000 C 
ENDROOT
BRANCH   1   2
ATOM      2  C   UNL     1      -1.249  -0.193   7.968  1.00  0.00     0.000 C 
BRANCH   2   3
ATOM      3  C   UNL     1      -1.224   0.557   6.626  1.00  0.00     0.000 C 
BRANCH   3   4
ATOM      4  C   UNL     1      -1.346  -0.387   5.420  1.00  0.00     0.000 C 
BRANCH   4   5
ATOM      5  C   UNL     1      -1.300  -1.855   5.866  1.00  0.00     0.000 C 
BRANCH   5   6
ATOM      6  C   UNL     1      -1.614  -2.837   4.721  1.00  0.00     0.006 C 
BRANCH   6   7
ATOM      7  C   UNL     1      -1.495  -2.229   3.314  1.00  0.00     0.053 C 
BRANCH   7   8
ATOM      8  C   UNL     1      -1.277  -3.277   2.266  1.00  0.00     0.041 C 
ATOM      9  O   UNL     1      -2.128  -3.447   1.353  1.00  0.00    -0.550 OA
ATOM     10  O   UNL     1      -0.119  -4.043   2.278  1.00  0.00    -0.550 OA
ENDBRANCH   7   8
ENDBRANCH   6   7
ENDBRANCH   5   6
ENDBRANCH   4   5
ENDBRANCH   3   4
ENDBRANCH   2   3
ENDBRANCH   1   2
BRANCH   1  11
ATOM     11  C   UNL     1       0.073  -0.770  10.084  1.00  0.00     0.000 C 
BRANCH  11  12
ATOM     12  C   UNL     1       1.414  -1.523  10.121  1.00  0.00    -0.000 C 
BRANCH  12  13
ATOM     13  C   UNL     1       1.274  -3.014   9.762  1.00  0.00    -0.000 C 
BRANCH  13  14
ATOM     14  C   UNL     1      -0.142  -3.458   9.349  1.00  0.00    -0.000 C 
BRANCH  14  15
ATOM     15  C   UNL     1      -0.276  -4.982   9.205  1.00  0.00    -0.000 C 
BRANCH  15  16
ATOM     16  C   UNL     1       0.782  -5.536   8.240  1.00  0.00    -0.000 C 
BRANCH  16  17
ATOM     17  C   UNL     1       0.187  -5.943   6.882  1.00  0.00    -0.003 C 
ATOM     18  C   UNL     1      -0.739  -7.155   6.982  1.00  0.00     0.004 C 
ENDBRANCH  16  17
ENDBRANCH  15  16
ENDBRANCH  14  15
ENDBRANCH  13  14
ENDBRANCH  12  13
ENDBRANCH  11  12
ENDBRANCH   1  11
TORSDOF 14
ENDMDL
MODEL 4
REMARK VINA RESULT:    -4.438      1.419      3.730
REMARK INTER + INTRA:          -9.340
REMARK INTER:                  -8.256
REMARK INTRA:                  -1.084
REMARK UNBOUND:                -1.269
REMARK SMILES CCCCCCCCCCCCCCCC(=O)[O-]
REMARK SMILES IDX 9 1 10 2 11 3 12 4 13 5 14 6 15 7 16 8 17 9 18 10 8 11 7 12
REMARK SMILES IDX 6 13 5 14 4 15 3 16 2 17 1 18
REMARK H PARENT
REMARK Flexibility Score: inf
ROOT
ATOM      1  C   UNL     1      -1.152  -3.684   5.811  1.00  0.00     0.000 C 
ENDROOT
BRANCH   1   2
ATOM      2  C   UNL     1      -0.529  -5.021   6.251  1.00  0.00     0.000 C 
BRANCH   2   3
ATOM      3  C   UNL     1      -0.180  -5.047   7.748  1.00  0.00     0.000 C 
BRANCH   3   4
ATOM      4  C   UNL     1      -0.764  -6.271   8.469  1.00  0.00     0.000 C 
BRANCH   4   5
ATOM      5  C   UNL     1      -1.279  -7.308   7.461  1.00  0.00     0.000 C 
BRANCH   5   6
ATOM      6  C   UNL     1      -2.125  -8.413   8.121  1.00  0.00     0.006 C 
BRANCH   6   7
ATOM      7  C   UNL     1      -3.359  -7.899   8.881  1.00  0.00     0.053 C 
BRANCH   7   8
ATOM      8  C   UNL     1      -4.619  -8.073   8.090  1.00  0.00     0.041 C 
ATOM      9  O   UNL     1      -5.149  -9.211   7.984  1.00  0.00    -0.550 OA
ATOM     10  O   UNL     1      -5.226  -6.974   7.497  1.00  0.00    -0.550 OA
ENDBRANCH   7   8
ENDBRANCH   6   7
ENDBRANCH   5   6
ENDBRANCH   4   5
ENDBRANCH   3   4
ENDBRANCH   2   3
ENDBRANCH   1   2
BRANCH   1  11
ATOM     11  C   UNL     1      -1.332  -3.585   4.288  1.00  0.00     0.000 C 
BRANCH  11  12
ATOM     12  C   UNL     1      -1.457  -2.131   3.803  1.00  0.00    -0.000 C 
BRANCH  12  13
ATOM     13  C   UNL     1      -1.955  -1.173   4.901  1.00  0.00    -0.000 C 
BRANCH  13  14
ATOM     14  C   UNL     1      -1.213   0.175   4.978  1.00  0.00    -0.000 C 
BRANCH  14  15
ATOM     15  C   UNL     1      -1.034   0.680   6.418  1.00  0.00    -0.000 C 
BRANCH  15  16
ATOM     16  C   UNL     1      -1.226  -0.462   7.427  1.00  0.00    -0.000 C 
BRANCH  16  17
ATOM     17  C   UNL     1      -0.653  -0.127   8.813  1.00  0.00    -0.003 C 
ATOM     18  C   UNL     1      -0.079  -1.351   9.527  1.00  0.00     0.004 C 
ENDBRANCH  16  17
ENDBRANCH  15  16
ENDBRANCH  14  15
ENDBRANCH  13  14
ENDBRANCH  12  13
ENDBRANCH  11  12
ENDBRANCH   1  11
TORSDOF 14
ENDMDL
MODEL 5
REMARK VINA RESULT:    -4.324      1.381      2.736
REMARK INTER + INTRA:          -9.131
REMARK INTER:                  -8.100
REMARK INTRA:                  -1.031
REMARK UNBOUND:                -1.269
REMARK SMILES CCCCCCCCCCCCCCCC(=O)[O-]
REMARK SMILES IDX 9 1 10 2 11 3 12 4 13 5 14 6 15 7 16 8 17 9 18 10 8 11 7 12
REMARK SMILES IDX 6 13 5 14 4 15 3 16 2 17 1 18
REMARK H PARENT
REMARK Flexibility Score: inf
ROOT
ATOM      1  C   UNL     1      -0.096  -4.599   8.734  1.00  0.00     0.000 C 
ENDROOT
BRANCH   1   2
ATOM      2  C   UNL     1      -0.202  -4.893   7.227  1.00  0.00     0.000 C 
BRANCH   2   3
ATOM      3  C   UNL     1      -0.342  -6.394   6.926  1.00  0.00     0.000 C 
BRANCH   3   4
ATOM      4  C   UNL     1      -1.419  -7.072   7.785  1.00  0.00     0.000 C 
BRANCH   4   5
ATOM      5  C   UNL     1      -1.492  -8.576   7.488  1.00  0.00     0.000 C 
BRANCH   5   6
ATOM      6  C   UNL     1      -2.380  -9.340   8.487  1.00  0.00     0.006 C 
BRANCH   6   7
ATOM      7  C   UNL     1      -3.600 -10.029   7.853  1.00  0.00     0.053 C 
BRANCH   7   8
ATOM      8  C   UNL     1      -4.874  -9.298   8.146  1.00  0.00     0.041 C 
ATOM      9  O   UNL     1      -5.245  -8.348   7.407  1.00  0.00    -0.550 OA
ATOM     10  O   UNL     1      -5.668  -9.686   9.218  1.00  0.00    -0.550 OA
ENDBRANCH   7   8
ENDBRANCH   6   7
ENDBRANCH   5   6
ENDBRANCH   4   5
ENDBRANCH   3   4
ENDBRANCH   2   3
ENDBRANCH   1   2
BRANCH   1  11
ATOM     11  C   UNL     1       1.126  -3.735   9.086  1.00  0.00     0.000 C 
BRANCH  11  12
ATOM     12  C   UNL     1       0.741  -2.443   9.825  1.00  0.00    -0.000 C 
BRANCH  12  13
ATOM     13  C   UNL     1      -0.574  -1.827   9.312  1.00  0.00    -0.000 C 
BRANCH  13  14
ATOM     14  C   UNL     1      -0.508  -0.324   8.984  1.00  0.00    -0.000 C 
BRANCH  14  15
ATOM     15  C   UNL     1      -0.990   0.002   7.562  1.00  0.00    -0.000 C 
BRANCH  15  16
ATOM     16  C   UNL     1      -1.116  -1.276   6.720  1.00  0.00    -0.000 C 
BRANCH  16  17
ATOM     17  C   UNL     1      -1.460  -0.984   5.251  1.00  0.00    -0.003 C 
ATOM     18  C   UNL     1      -1.584  -2.254   4.409  1.00  0.00     0.004 C 
ENDBRANCH  16  17
ENDBRANCH  15  16
ENDBRANCH  14  15
ENDBRANCH  13  14
ENDBRANCH  12  13
ENDBRANCH  11  12
ENDBRANCH   1  11
TORSDOF 14
ENDMDL
MODEL 6
REMARK VINA RESULT:    -4.214      3.970      7.119
REMARK INTER + INTRA:          -8.931
REMARK INTER:                  -7.819
REMARK INTRA:                  -1.112
REMARK UNBOUND:                -1.269
REMARK SMILES CCCCCCCCCCCCCCCC(=O)[O-]
REMARK SMILES IDX 9 1 10 2 11 3 12 4 13 5 14 6 15 7 16 8 17 9 18 10 8 11 7 12
REMARK SMILES IDX 6 13 5 14 4 15 3 16 2 17 1 18
REMARK H PARENT
REMARK Flexibility Score: inf
ROOT
ATOM      1  C   UNL     1      -1.951  -0.805   4.915  1.00  0.00     0.000 C 
ENDROOT
BRANCH   1   2
ATOM      2  C   UNL     1      -1.085   0.188   5.711  1.00  0.00     0.000 C 
BRANCH   2   3
ATOM      3  C   UNL     1      -1.481   0.260   7.194  1.00  0.00     0.000 C 
BRANCH   3   4
ATOM      4  C   UNL     1      -0.782  -0.810   8.046  1.00  0.00     0.000 C 
BRANCH   4   5
ATOM      5  C   UNL     1      -0.568  -0.313   9.483  1.00  0.00     0.000 C 
BRANCH   5   6
ATOM      6  C   UNL     1       0.868   0.182   9.737  1.00  0.00     0.006 C 
BRANCH   6   7
ATOM      7  C   UNL     1       1.864  -0.928  10.112  1.00  0.00     0.053 C 
BRANCH   7   8
ATOM      8  C   UNL     1       3.286  -0.479   9.964  1.00  0.00     0.041 C 
ATOM      9  O   UNL     1       4.184  -1.309   9.665  1.00  0.00    -0.550 OA
ATOM     10  O   UNL     1       3.613   0.861  10.125  1.00  0.00    -0.550 OA
ENDBRANCH   7   8
ENDBRANCH   6   7
ENDBRANCH   5   6
ENDBRANCH   4   5
ENDBRANCH   3   4
ENDBRANCH   2   3
ENDBRANCH   1   2
BRANCH   1  11
ATOM     11  C   UNL     1      -1.178  -2.069   4.503  1.00  0.00     0.000 C 
BRANCH  11  12
ATOM     12  C   UNL     1      -1.685  -3.330   5.221  1.00  0.00    -0.000 C 
BRANCH  12  13
ATOM     13  C   UNL     1      -0.754  -3.788   6.359  1.00  0.00    -0.000 C 
BRANCH  13  14
ATOM     14  C   UNL     1      -0.456  -5.299   6.392  1.00  0.00    -0.000 C 
BRANCH  14  15
ATOM     15  C   UNL     1       0.653  -5.671   7.388  1.00  0.00    -0.000 C 
BRANCH  15  16
ATOM     16  C   UNL     1       0.465  -4.929   8.719  1.00  0.00    -0.000 C 
BRANCH  16  17
ATOM     17  C   UNL     1       1.551  -5.279   9.749  1.00  0.00    -0.003 C 
ATOM     18  C   UNL     1       2.964  -5.010   9.232  1.00  0.00     0.004 C 
ENDBRANCH  16  17
ENDBRANCH  15  16
ENDBRANCH  14  15
ENDBRANCH  13  14
ENDBRANCH  12  13
ENDBRANCH  11  12
ENDBRANCH   1  11
TORSDOF 14
ENDMDL
MODEL 7
REMARK VINA RESULT:    -4.076      2.960      6.384
REMARK INTER + INTRA:          -8.681
REMARK INTER:                  -8.044
REMARK INTRA:                  -0.637
REMARK UNBOUND:                -1.269
REMARK SMILES CCCCCCCCCCCCCCCC(=O)[O-]
REMARK SMILES IDX 9 1 10 2 11 3 12 4 13 5 14 6 15 7 16 8 17 9 18 10 8 11 7 12
REMARK SMILES IDX 6 13 5 14 4 15 3 16 2 17 1 18
REMARK H PARENT
REMARK Flexibility Score: inf
ROOT
ATOM      1  C   UNL     1      -0.037  -3.619   8.448  1.00  0.00     0.000 C 
ENDROOT
BRANCH   1   2
ATOM      2  C   UNL     1       0.357  -2.493   9.421  1.00  0.00     0.000 C 
BRANCH   2   3
ATOM      3  C   UNL     1      -0.721  -1.402   9.529  1.00  0.00     0.000 C 
BRANCH   3   4
ATOM      4  C   UNL     1      -0.351  -0.127   8.757  1.00  0.00     0.000 C 
BRANCH   4   5
ATOM      5  C   UNL     1      -1.216   0.022   7.497  1.00  0.00     0.000 C 
BRANCH   5   6
ATOM      6  C   UNL     1      -1.156  -1.215   6.582  1.00  0.00     0.006 C 
BRANCH   6   7
ATOM      7  C   UNL     1      -1.503  -0.934   5.111  1.00  0.00     0.053 C 
BRANCH   7   8
ATOM      8  C   UNL     1      -1.526  -2.186   4.289  1.00  0.00     0.041 C 
ATOM      9  O   UNL     1      -1.766  -3.297   4.833  1.00  0.00    -0.550 OA
ATOM     10  O   UNL     1      -1.315  -2.123   2.918  1.00  0.00    -0.550 OA
ENDBRANCH   7   8
ENDBRANCH   6   7
ENDBRANCH   5   6
ENDBRANCH   4   5
ENDBRANCH   3   4
ENDBRANCH   2   3
ENDBRANCH   1   2
BRANCH   1  11
ATOM     11  C   UNL     1       0.670  -4.948   8.761  1.00  0.00     0.000 C 
BRANCH  11  12
ATOM     12  C   UNL     1       0.167  -5.590  10.065  1.00  0.00    -0.000 C 
BRANCH  12  13
ATOM     13  C   UNL     1      -1.364  -5.755  10.100  1.00  0.00    -0.000 C 
BRANCH  13  14
ATOM     14  C   UNL     1      -1.871  -7.197   9.907  1.00  0.00    -0.000 C 
BRANCH  14  15
ATOM     15  C   UNL     1      -2.142  -7.547   8.436  1.00  0.00    -0.000 C 
BRANCH  15  16
ATOM     16  C   UNL     1      -2.616  -9.002   8.298  1.00  0.00    -0.000 C 
BRANCH  16  17
ATOM     17  C   UNL     1      -4.135  -9.110   8.094  1.00  0.00    -0.003 C 
ATOM     18  C   UNL     1      -4.821  -7.746   8.022  1.00  0.00     0.004 C 
ENDBRANCH  16  17
ENDBRANCH  15  16
ENDBRANCH  14  15
ENDBRANCH  13  14
ENDBRANCH  12  13
ENDBRANCH  11  12
ENDBRANCH   1  11
TORSDOF 14
ENDMDL
MODEL 8
REMARK VINA RESULT:    -4.021      3.550      7.199
REMARK INTER + INTRA:          -8.581
REMARK INTER:                  -7.531
REMARK INTRA:                  -1.050
REMARK UNBOUND:                -1.269
REMARK SMILES CCCCCCCCCCCCCCCC(=O)[O-]
REMARK SMILES IDX 9 1 10 2 11 3 12 4 13 5 14 6 15 7 16 8 17 9 18 10 8 11 7 12
REMARK SMILES IDX 6 13 5 14 4 15 3 16 2 17 1 18
REMARK H PARENT
REMARK Flexibility Score: inf
ROOT
ATOM      1  C   UNL     1      -0.594  -5.048   7.302  1.00  0.00     0.000 C 
ENDROOT
BRANCH   1   2
ATOM      2  C   UNL     1       0.407  -4.409   8.282  1.00  0.00     0.000 C 
BRANCH   2   3
ATOM      3  C   UNL     1      -0.277  -3.833   9.532  1.00  0.00     0.000 C 
BRANCH   3   4
ATOM      4  C   UNL     1       0.424  -2.573  10.061  1.00  0.00     0.000 C 
BRANCH   4   5
ATOM      5  C   UNL     1      -0.503  -1.351   9.972  1.00  0.00     0.000 C 
BRANCH   5   6
ATOM      6  C   UNL     1      -0.137  -0.407   8.812  1.00  0.00     0.006 C 
BRANCH   6   7
ATOM      7  C   UNL     1      -1.342   0.112   8.012  1.00  0.00     0.053 C 
BRANCH   7   8
ATOM      8  C   UNL     1      -1.240  -0.227   6.557  1.00  0.00     0.041 C 
ATOM      9  O   UNL     1      -1.170   0.690   5.696  1.00  0.00    -0.550 OA
ATOM     10  O   UNL     1      -1.187  -1.555   6.154  1.00  0.00    -0.550 OA
ENDBRANCH   7   8
ENDBRANCH   6   7
ENDBRANCH   5   6
ENDBRANCH   4   5
ENDBRANCH   3   4
ENDBRANCH   2   3
ENDBRANCH   1   2
BRANCH   1  11
ATOM     11  C   UNL     1      -0.058  -6.339   6.664  1.00  0.00     0.000 C 
BRANCH  11  12
ATOM     12  C   UNL     1      -0.802  -7.592   7.156  1.00  0.00    -0.000 C 
BRANCH  12  13
ATOM     13  C   UNL     1      -2.110  -7.261   7.897  1.00  0.00    -0.000 C 
BRANCH  13  14
ATOM     14  C   UNL     1      -2.338  -8.044   9.204  1.00  0.00    -0.000 C 
BRANCH  14  15
ATOM     15  C   UNL     1      -3.583  -8.943   9.155  1.00  0.00    -0.000 C 
BRANCH  15  16
ATOM     16  C   UNL     1      -4.440  -8.625   7.922  1.00  0.00    -0.000 C 
BRANCH  16  17
ATOM     17  C   UNL     1      -5.937  -8.519   8.255  1.00  0.00    -0.003 C 
ATOM     18  C   UNL     1      -6.300  -7.197   8.930  1.00  0.00     0.004 C 
ENDBRANCH  16  17
ENDBRANCH  15  16
ENDBRANCH  14  15
ENDBRANCH  13  14
ENDBRANCH  12  13
ENDBRANCH  11  12
ENDBRANCH   1  11
TORSDOF 14
ENDMDL
MODEL 9
REMARK VINA RESULT:    -3.924     10.589     12.285
REMARK INTER + INTRA:          -8.404
REMARK INTER:                  -7.338
REMARK INTRA:                  -1.066
REMARK UNBOUND:                -1.269
REMARK SMILES CCCCCCCCCCCCCCCC(=O)[O-]
REMARK SMILES IDX 9 1 10 2 11 3 12 4 13 5 14 6 15 7 16 8 17 9 18 10 8 11 7 12
REMARK SMILES IDX 6 13 5 14 4 15 3 16 2 17 1 18
REMARK H PARENT
REMARK Flexibility Score: inf
ROOT
ATOM      1  C   UNL     1       8.747   5.069   9.578  1.00  0.00     0.000 C 
ENDROOT
BRANCH   1   2
ATOM      2  C   UNL     1       8.938   3.558   9.350  1.00  0.00     0.000 C 
BRANCH   2   3
ATOM      3  C   UNL     1       9.535   3.240   7.969  1.00  0.00     0.000 C 
BRANCH   3   4
ATOM      4  C   UNL     1       9.930   1.763   7.823  1.00  0.00     0.000 C 
BRANCH   4   5
ATOM      5  C   UNL     1       8.933   1.014   6.927  1.00  0.00     0.000 C 
BRANCH   5   6
ATOM      6  C   UNL     1       8.567  -0.378   7.474  1.00  0.00     0.006 C 
BRANCH   6   7
ATOM      7  C   UNL     1       7.618  -0.355   8.684  1.00  0.00     0.053 C 
BRANCH   7   8
ATOM      8  C   UNL     1       6.317   0.315   8.365  1.00  0.00     0.041 C 
ATOM      9  O   UNL     1       5.546  -0.176   7.499  1.00  0.00    -0.550 OA
ATOM     10  O   UNL     1       5.941   1.465   9.048  1.00  0.00    -0.550 OA
ENDBRANCH   7   8
ENDBRANCH   6   7
ENDBRANCH   5   6
ENDBRANCH   4   5
ENDBRANCH   3   4
ENDBRANCH   2   3
ENDBRANCH   1   2
BRANCH   1  11
ATOM     11  C   UNL     1       9.579   5.925   8.610  1.00  0.00     0.000 C 
BRANCH  11  12
ATOM     12  C   UNL     1       9.010   7.344   8.441  1.00  0.00    -0.000 C 
BRANCH  12  13
ATOM     13  C   UNL     1       7.516   7.438   8.802  1.00  0.00    -0.000 C 
BRANCH  13  14
ATOM     14  C   UNL     1       6.681   8.361   7.895  1.00  0.00    -0.000 C 
BRANCH  14  15
ATOM     15  C   UNL     1       7.536   9.375   7.119  1.00  0.00    -0.000 C 
BRANCH  15  16
ATOM     16  C   UNL     1       6.994   9.573   5.696  1.00  0.00    -0.000 C 
BRANCH  16  17
ATOM     17  C   UNL     1       5.487   9.293   5.593  1.00  0.00    -0.003 C 
ATOM     18  C   UNL     1       5.156   8.198   4.580  1.00  0.00     0.004 C 
ENDBRANCH  16  17
ENDBRANCH  15  16
ENDBRANCH  14  15
ENDBRANCH  13  14
ENDBRANCH  12  13
ENDBRANCH  11  12
ENDBRANCH   1  11
TORSDOF 14
ENDMDL
