MODEL 1
REMARK VINA RESULT:    -4.077      0.000      0.000
REMARK INTER + INTRA:          -4.196
REMARK INTER:                  -4.196
REMARK INTRA:                   0.000
REMARK UNBOUND:                 0.000
REMARK SMILES Cc1ccccc1O
REMARK SMILES IDX 1 1 2 2 3 3 4 4 5 5 6 6 7 7 8 8
REMARK H PARENT 8 9
REMARK Flexibility Score: inf
ROOT
ATOM      1  C   UNL     1     160.047 160.629 179.927  1.00  0.00     0.048 C 
ATOM      2  C   UNL     1     160.272 161.441 181.173  1.00  0.00    -0.009 A 
ATOM      3  C   UNL     1     160.476 160.787 182.401  1.00  0.00     0.007 A 
ATOM      4  C   UNL     1     160.687 161.524 183.569  1.00  0.00     0.001 A 
ATOM      5  C   UNL     1     160.696 162.918 183.525  1.00  0.00     0.004 A 
ATOM      6  C   UNL     1     160.495 163.580 182.312  1.00  0.00     0.046 A 
ATOM      7  C   UNL     1     160.282 162.855 181.133  1.00  0.00     0.118 A 
ENDROOT
BRANCH   7   8
ATOM      8  O   UNL     1     160.085 163.563 179.946  1.00  0.00    -0.508 OA
ATOM      9  H   UNL     1     160.537 164.448 179.751  1.00  0.00     0.293 HD
ENDBRANCH   7   8
TORSDOF 1
ENDMDL
MODEL 2
REMARK VINA RESULT:    -4.027      0.560      2.452
REMARK INTER + INTRA:          -4.144
REMARK INTER:                  -4.144
REMARK INTRA:                   0.000
REMARK UNBOUND:                 0.000
REMARK SMILES Cc1ccccc1O
REMARK SMILES IDX 1 1 2 2 3 3 4 4 5 5 6 6 7 7 8 8
REMARK H PARENT 8 9
REMARK Flexibility Score: inf
ROOT
ATOM      1  C   UNL     1     160.461 165.003 182.119  1.00  0.00     0.048 C 
ATOM      2  C   UNL     1     160.433 163.500 182.125  1.00  0.00    -0.009 A 
ATOM      3  C   UNL     1     160.571 162.806 183.340  1.00  0.00     0.007 A 
ATOM      4  C   UNL     1     160.547 161.410 183.366  1.00  0.00     0.001 A 
ATOM      5  C   UNL     1     160.384 160.691 182.181  1.00  0.00     0.004 A 
ATOM      6  C   UNL     1     160.245 161.367 180.967  1.00  0.00     0.046 A 
ATOM      7  C   UNL     1     160.268 162.767 180.926  1.00  0.00     0.118 A 
ENDROOT
BRANCH   7   8
ATOM      8  O   UNL     1     160.126 163.395 179.688  1.00  0.00    -0.508 OA
ATOM      9  H   UNL     1     159.996 164.395 179.588  1.00  0.00     0.293 HD
ENDBRANCH   7   8
TORSDOF 1
ENDMDL
MODEL 3
REMARK VINA RESULT:    -3.710      2.434      3.324
REMARK INTER + INTRA:          -3.819
REMARK INTER:                  -3.819
REMARK INTRA:                   0.000
REMARK UNBOUND:                 0.000
REMARK SMILES Cc1ccccc1O
REMARK SMILES IDX 1 1 2 2 3 3 4 4 5 5 6 6 7 7 8 8
REMARK H PARENT 8 9
REMARK Flexibility Score: inf
ROOT
ATOM      1  C   UNL     1     164.060 161.023 182.858  1.00  0.00     0.048 C 
ATOM      2  C   UNL     1     162.679 161.010 182.263  1.00  0.00    -0.009 A 
ATOM      3  C   UNL     1     161.569 161.297 183.077  1.00  0.00     0.007 A 
ATOM      4  C   UNL     1     160.278 161.289 182.543  1.00  0.00     0.001 A 
ATOM      5  C   UNL     1     160.081 160.996 181.193  1.00  0.00     0.004 A 
ATOM      6  C   UNL     1     161.175 160.709 180.374  1.00  0.00     0.046 A 
ATOM      7  C   UNL     1     162.474 160.713 180.895  1.00  0.00     0.118 A 
ENDROOT
BRANCH   7   8
ATOM      8  O   UNL     1     163.534 160.420 180.035  1.00  0.00    -0.508 OA
ATOM      9  H   UNL     1     163.448 160.442 179.026  1.00  0.00     0.293 HD
ENDBRANCH   7   8
TORSDOF 1
ENDMDL
MODEL 4
REMARK VINA RESULT:    -3.701      2.103      2.289
REMARK INTER + INTRA:          -3.809
REMARK INTER:                  -3.809
REMARK INTRA:                   0.000
REMARK UNBOUND:                 0.000
REMARK SMILES Cc1ccccc1O
REMARK SMILES IDX 1 1 2 2 3 3 4 4 5 5 6 6 7 7 8 8
REMARK H PARENT 8 9
REMARK Flexibility Score: inf
ROOT
ATOM      1  C   UNL     1     159.879 160.209 180.503  1.00  0.00     0.048 C 
ATOM      2  C   UNL     1     160.800 160.921 181.455  1.00  0.00    -0.009 A 
ATOM      3  C   UNL     1     160.268 161.578 182.577  1.00  0.00     0.007 A 
ATOM      4  C   UNL     1     161.107 162.245 183.473  1.00  0.00     0.001 A 
ATOM      5  C   UNL     1     162.486 162.261 183.260  1.00  0.00     0.004 A 
ATOM      6  C   UNL     1     163.029 161.611 182.149  1.00  0.00     0.046 A 
ATOM      7  C   UNL     1     162.199 160.940 181.242  1.00  0.00     0.118 A 
ENDROOT
BRANCH   7   8
ATOM      8  O   UNL     1     162.790 160.306 180.148  1.00  0.00    -0.508 OA
ATOM      9  H   UNL     1     162.402 159.477 179.715  1.00  0.00     0.293 HD
ENDBRANCH   7   8
TORSDOF 1
ENDMDL
MODEL 5
REMARK VINA RESULT:    -3.639      1.874      2.197
REMARK INTER + INTRA:          -3.745
REMARK INTER:                  -3.745
REMARK INTRA:                   0.000
REMARK UNBOUND:                 0.000
REMARK SMILES Cc1ccccc1O
REMARK SMILES IDX 1 1 2 2 3 3 4 4 5 5 6 6 7 7 8 8
REMARK H PARENT 8 9
REMARK Flexibility Score: inf
ROOT
ATOM      1  C   UNL     1     162.786 160.617 179.446  1.00  0.00     0.048 C 
ATOM      2  C   UNL     1     162.081 160.882 180.748  1.00  0.00    -0.009 A 
ATOM      3  C   UNL     1     162.829 160.992 181.933  1.00  0.00     0.007 A 
ATOM      4  C   UNL     1     162.193 161.238 183.152  1.00  0.00     0.001 A 
ATOM      5  C   UNL     1     160.805 161.378 183.202  1.00  0.00     0.004 A 
ATOM      6  C   UNL     1     160.050 161.271 182.031  1.00  0.00     0.046 A 
ATOM      7  C   UNL     1     160.674 161.024 180.802  1.00  0.00     0.118 A 
ENDROOT
BRANCH   7   8
ATOM      8  O   UNL     1     159.876 160.926 179.662  1.00  0.00    -0.508 OA
ATOM      9  H   UNL     1     159.886 161.615 178.920  1.00  0.00     0.293 HD
ENDBRANCH   7   8
TORSDOF 1
ENDMDL
MODEL 6
REMARK VINA RESULT:    -3.619      2.253      3.527
REMARK INTER + INTRA:          -3.725
REMARK INTER:                  -3.725
REMARK INTRA:                   0.000
REMARK UNBOUND:                 0.000
REMARK SMILES Cc1ccccc1O
REMARK SMILES IDX 1 1 2 2 3 3 4 4 5 5 6 6 7 7 8 8
REMARK H PARENT 8 9
REMARK Flexibility Score: inf
ROOT
ATOM      1  C   UNL     1     162.857 162.431 183.218  1.00  0.00     0.048 C 
ATOM      2  C   UNL     1     161.945 161.643 182.318  1.00  0.00    -0.009 A 
ATOM      3  C   UNL     1     162.332 161.382 180.992  1.00  0.00     0.007 A 
ATOM      4  C   UNL     1     161.499 160.653 180.141  1.00  0.00     0.001 A 
ATOM      5  C   UNL     1     160.272 160.175 180.603  1.00  0.00     0.004 A 
ATOM      6  C   UNL     1     159.875 160.427 181.918  1.00  0.00     0.046 A 
ATOM      7  C   UNL     1     160.700 161.157 182.783  1.00  0.00     0.118 A 
ENDROOT
BRANCH   7   8
ATOM      8  O   UNL     1     160.258 161.382 184.087  1.00  0.00    -0.508 OA
ATOM      9  H   UNL     1     159.551 160.813 184.536  1.00  0.00     0.293 HD
ENDBRANCH   7   8
TORSDOF 1
ENDMDL
MODEL 7
REMARK VINA RESULT:    -3.444      2.318      2.762
REMARK INTER + INTRA:          -3.545
REMARK INTER:                  -3.545
REMARK INTRA:                   0.000
REMARK UNBOUND:                 0.000
REMARK SMILES Cc1ccccc1O
REMARK SMILES IDX 1 1 2 2 3 3 4 4 5 5 6 6 7 7 8 8
REMARK H PARENT 8 9
REMARK Flexibility Score: inf
ROOT
ATOM      1  C   UNL     1     162.766 160.625 179.375  1.00  0.00     0.048 C 
ATOM      2  C   UNL     1     161.982 160.763 180.651  1.00  0.00    -0.009 A 
ATOM      3  C   UNL     1     160.622 160.407 180.673  1.00  0.00     0.007 A 
ATOM      4  C   UNL     1     159.876 160.528 181.848  1.00  0.00     0.001 A 
ATOM      5  C   UNL     1     160.479 161.003 183.013  1.00  0.00     0.004 A 
ATOM      6  C   UNL     1     161.829 161.360 183.006  1.00  0.00     0.046 A 
ATOM      7  C   UNL     1     162.589 161.245 181.835  1.00  0.00     0.118 A 
ENDROOT
BRANCH   7   8
ATOM      8  O   UNL     1     163.934 161.615 181.879  1.00  0.00    -0.508 OA
ATOM      9  H   UNL     1     164.498 161.744 181.049  1.00  0.00     0.293 HD
ENDBRANCH   7   8
TORSDOF 1
ENDMDL
MODEL 8
REMARK VINA RESULT:    -3.384      2.664      3.815
REMARK INTER + INTRA:          -3.483
REMARK INTER:                  -3.483
REMARK INTRA:                   0.000
REMARK UNBOUND:                 0.000
REMARK SMILES Cc1ccccc1O
REMARK SMILES IDX 1 1 2 2 3 3 4 4 5 5 6 6 7 7 8 8
REMARK H PARENT 8 9
REMARK Flexibility Score: inf
ROOT
ATOM      1  C   UNL     1     164.088 163.313 183.517  1.00  0.00     0.048 C 
ATOM      2  C   UNL     1     162.759 162.715 183.147  1.00  0.00    -0.009 A 
ATOM      3  C   UNL     1     161.647 163.554 182.958  1.00  0.00     0.007 A 
ATOM      4  C   UNL     1     160.404 163.017 182.613  1.00  0.00     0.001 A 
ATOM      5  C   UNL     1     160.258 161.639 182.453  1.00  0.00     0.004 A 
ATOM      6  C   UNL     1     161.354 160.793 182.637  1.00  0.00     0.046 A 
ATOM      7  C   UNL     1     162.606 161.317 182.983  1.00  0.00     0.118 A 
ENDROOT
BRANCH   7   8
ATOM      8  O   UNL     1     163.670 160.431 183.156  1.00  0.00    -0.508 OA
ATOM      9  H   UNL     1     163.542 159.437 183.299  1.00  0.00     0.293 HD
ENDBRANCH   7   8
TORSDOF 1
ENDMDL
MODEL 9
REMARK VINA RESULT:    -3.318     12.579     13.727
REMARK INTER + INTRA:          -3.415
REMARK INTER:                  -3.415
REMARK INTRA:                   0.000
REMARK UNBOUND:                 0.000
REMARK SMILES Cc1ccccc1O
REMARK SMILES IDX 1 1 2 2 3 3 4 4 5 5 6 6 7 7 8 8
REMARK H PARENT 8 9
REMARK Flexibility Score: inf
ROOT
ATOM      1  C   UNL     1     163.835 175.745 181.394  1.00  0.00     0.048 C 
ATOM      2  C   UNL     1     162.515 175.536 182.085  1.00  0.00    -0.009 A 
ATOM      3  C   UNL     1     162.186 174.264 182.584  1.00  0.00     0.007 A 
ATOM      4  C   UNL     1     160.965 174.049 183.227  1.00  0.00     0.001 A 
ATOM      5  C   UNL     1     160.061 175.101 183.381  1.00  0.00     0.004 A 
ATOM      6  C   UNL     1     160.375 176.370 182.890  1.00  0.00     0.046 A 
ATOM      7  C   UNL     1     161.595 176.600 182.242  1.00  0.00     0.118 A 
ENDROOT
BRANCH   7   8
ATOM      8  O   UNL     1     161.862 177.885 181.770  1.00  0.00    -0.508 OA
ATOM      9  H   UNL     1     161.630 178.187 180.831  1.00  0.00     0.293 HD
ENDBRANCH   7   8
TORSDOF 1
ENDMDL
