MODEL 1
REMARK VINA RESULT:    -5.403      0.000      0.000
REMARK INTER + INTRA:          -9.885
REMARK INTER:                  -8.561
REMARK INTRA:                  -1.324
REMARK UNBOUND:                -1.324
REMARK SMILES CCCCCCCCCCCC(=O)[O-]
REMARK SMILES IDX 7 1 8 2 9 3 10 4 11 5 12 6 13 7 14 8 6 9 5 10 4 11 3 12 2 13
REMARK SMILES IDX 1 14
REMARK H PARENT
REMARK Flexibility Score: inf
ROOT
ATOM      1  C   UNL     1       4.880  15.784   4.694  1.00  0.00     0.000 C 
ENDROOT
BRANCH   1   2
ATOM      2  C   UNL     1       5.849  16.161   3.557  1.00  0.00     0.000 C 
BRANCH   2   3
ATOM      3  C   UNL     1       7.331  15.839   3.821  1.00  0.00     0.000 C 
BRANCH   3   4
ATOM      4  C   UNL     1       7.846  14.653   2.989  1.00  0.00     0.006 C 
BRANCH   4   5
ATOM      5  C   UNL     1       8.931  15.074   1.988  1.00  0.00     0.053 C 
BRANCH   5   6
ATOM      6  C   UNL     1       9.492  13.898   1.249  1.00  0.00     0.041 C 
ATOM      7  O   UNL     1      10.568  13.365   1.629  1.00  0.00    -0.550 OA
ATOM      8  O   UNL     1       8.841  13.409   0.124  1.00  0.00    -0.550 OA
ENDBRANCH   5   6
ENDBRANCH   4   5
ENDBRANCH   3   4
ENDBRANCH   2   3
ENDBRANCH   1   2
BRANCH   1   9
ATOM      9  C   UNL     1       3.878  14.691   4.291  1.00  0.00     0.000 C 
BRANCH   9  10
ATOM     10  C   UNL     1       3.156  14.996   2.965  1.00  0.00    -0.000 C 
BRANCH  10  11
ATOM     11  C   UNL     1       3.197  13.865   1.919  1.00  0.00    -0.000 C 
BRANCH  11  12
ATOM     12  C   UNL     1       4.545  13.128   1.804  1.00  0.00    -0.000 C 
BRANCH  12  13
ATOM     13  C   UNL     1       5.286  13.389   0.477  1.00  0.00    -0.003 C 
ATOM     14  C   UNL     1       5.409  14.878   0.153  1.00  0.00     0.004 C 
ENDBRANCH  12  13
ENDBRANCH  11  12
ENDBRANCH  10  11
ENDBRANCH   9  10
ENDBRANCH   1   9
TORSDOF 10
ENDMDL
MODEL 2
REMARK VINA RESULT:    -5.364      3.418      6.039
REMARK INTER + INTRA:          -9.824
REMARK INTER:                  -8.757
REMARK INTRA:                  -1.067
REMARK UNBOUND:                -1.324
REMARK SMILES CCCCCCCCCCCC(=O)[O-]
REMARK SMILES IDX 7 1 8 2 9 3 10 4 11 5 12 6 13 7 14 8 6 9 5 10 4 11 3 12 2 13
REMARK SMILES IDX 1 14
REMARK H PARENT
REMARK Flexibility Score: inf
ROOT
ATOM      1  C   UNL     1       6.310  13.686   0.762  1.00  0.00     0.000 C 
ENDROOT
BRANCH   1   2
ATOM      2  C   UNL     1       5.650  14.934   0.149  1.00  0.00     0.000 C 
BRANCH   2   3
ATOM      3  C   UNL     1       4.195  15.189   0.580  1.00  0.00     0.000 C 
BRANCH   3   4
ATOM      4  C   UNL     1       3.469  13.910   1.032  1.00  0.00     0.006 C 
BRANCH   4   5
ATOM      5  C   UNL     1       1.962  13.968   0.750  1.00  0.00     0.053 C 
BRANCH   5   6
ATOM      6  C   UNL     1       1.164  14.086   2.012  1.00  0.00     0.041 C 
ATOM      7  O   UNL     1       0.054  13.499   2.118  1.00  0.00    -0.550 OA
ATOM      8  O   UNL     1       1.633  14.866   3.061  1.00  0.00    -0.550 OA
ENDBRANCH   5   6
ENDBRANCH   4   5
ENDBRANCH   3   4
ENDBRANCH   2   3
ENDBRANCH   1   2
BRANCH   1   9
ATOM      9  C   UNL     1       7.842  13.792   0.840  1.00  0.00     0.000 C 
BRANCH   9  10
ATOM     10  C   UNL     1       8.321  14.850   1.852  1.00  0.00    -0.000 C 
BRANCH  10  11
ATOM     11  C   UNL     1       7.735  14.715   3.270  1.00  0.00    -0.000 C 
BRANCH  11  12
ATOM     12  C   UNL     1       6.713  15.799   3.663  1.00  0.00    -0.000 C 
BRANCH  12  13
ATOM     13  C   UNL     1       5.312  15.244   3.992  1.00  0.00    -0.003 C 
ATOM     14  C   UNL     1       4.562  16.102   5.011  1.00  0.00     0.004 C 
ENDBRANCH  12  13
ENDBRANCH  11  12
ENDBRANCH  10  11
ENDBRANCH   9  10
ENDBRANCH   1   9
TORSDOF 10
ENDMDL
MODEL 3
REMARK VINA RESULT:    -5.334      2.644      4.255
REMARK INTER + INTRA:          -9.777
REMARK INTER:                  -8.843
REMARK INTRA:                  -0.934
REMARK UNBOUND:                -1.324
REMARK SMILES CCCCCCCCCCCC(=O)[O-]
REMARK SMILES IDX 7 1 8 2 9 3 10 4 11 5 12 6 13 7 14 8 6 9 5 10 4 11 3 12 2 13
REMARK SMILES IDX 1 14
REMARK H PARENT
REMARK Flexibility Score: inf
ROOT
ATOM      1  C   UNL     1       6.412  13.217   1.014  1.00  0.00     0.000 C 
ENDROOT
BRANCH   1   2
ATOM      2  C   UNL     1       7.385  14.368   0.695  1.00  0.00     0.000 C 
BRANCH   2   3
ATOM      3  C   UNL     1       8.399  14.699   1.805  1.00  0.00     0.000 C 
BRANCH   3   4
ATOM      4  C   UNL     1       7.797  14.606   3.218  1.00  0.00     0.006 C 
BRANCH   4   5
ATOM      5  C   UNL     1       7.273  15.959   3.715  1.00  0.00     0.053 C 
BRANCH   5   6
ATOM      6  C   UNL     1       5.778  16.034   3.652  1.00  0.00     0.041 C 
ATOM      7  O   UNL     1       5.211  16.539   2.647  1.00  0.00    -0.550 OA
ATOM      8  O   UNL     1       5.013  15.571   4.715  1.00  0.00    -0.550 OA
ENDBRANCH   5   6
ENDBRANCH   4   5
ENDBRANCH   3   4
ENDBRANCH   2   3
ENDBRANCH   1   2
BRANCH   1   9
ATOM      9  C   UNL     1       4.956  13.543   0.646  1.00  0.00     0.000 C 
BRANCH   9  10
ATOM     10  C   UNL     1       3.971  13.278   1.800  1.00  0.00    -0.000 C 
BRANCH  10  11
ATOM     11  C   UNL     1       2.567  13.887   1.620  1.00  0.00    -0.000 C 
BRANCH  11  12
ATOM     12  C   UNL     1       2.021  14.647   2.843  1.00  0.00    -0.000 C 
BRANCH  12  13
ATOM     13  C   UNL     1       0.481  14.737   2.884  1.00  0.00    -0.003 C 
ATOM     14  C   UNL     1      -0.198  13.484   2.331  1.00  0.00     0.004 C 
ENDBRANCH  12  13
ENDBRANCH  11  12
ENDBRANCH  10  11
ENDBRANCH   9  10
ENDBRANCH   1   9
TORSDOF 10
ENDMDL
MODEL 4
REMARK VINA RESULT:    -5.324      3.237      4.740
REMARK INTER + INTRA:          -9.761
REMARK INTER:                  -8.452
REMARK INTRA:                  -1.309
REMARK UNBOUND:                -1.324
REMARK SMILES CCCCCCCCCCCC(=O)[O-]
REMARK SMILES IDX 7 1 8 2 9 3 10 4 11 5 12 6 13 7 14 8 6 9 5 10 4 11 3 12 2 13
REMARK SMILES IDX 1 14
REMARK H PARENT
REMARK Flexibility Score: inf
ROOT
ATOM      1  C   UNL     1       7.943  14.756   1.699  1.00  0.00     0.000 C 
ENDROOT
BRANCH   1   2
ATOM      2  C   UNL     1       7.873  14.680   3.235  1.00  0.00     0.000 C 
BRANCH   2   3
ATOM      3  C   UNL     1       7.208  15.884   3.925  1.00  0.00     0.000 C 
BRANCH   3   4
ATOM      4  C   UNL     1       5.745  16.091   3.496  1.00  0.00     0.006 C 
BRANCH   4   5
ATOM      5  C   UNL     1       4.807  15.042   4.108  1.00  0.00     0.053 C 
BRANCH   5   6
ATOM      6  C   UNL     1       3.866  15.651   5.101  1.00  0.00     0.041 C 
ATOM      7  O   UNL     1       4.240  16.612   5.824  1.00  0.00    -0.550 OA
ATOM      8  O   UNL     1       2.583  15.138   5.248  1.00  0.00    -0.550 OA
ENDBRANCH   5   6
ENDBRANCH   4   5
ENDBRANCH   3   4
ENDBRANCH   2   3
ENDBRANCH   1   2
BRANCH   1   9
ATOM      9  C   UNL     1       7.401  13.493   1.009  1.00  0.00     0.000 C 
BRANCH   9  10
ATOM     10  C   UNL     1       5.868  13.503   0.856  1.00  0.00    -0.000 C 
BRANCH  10  11
ATOM     11  C   UNL     1       5.280  14.773   0.211  1.00  0.00    -0.000 C 
BRANCH  11  12
ATOM     12  C   UNL     1       3.794  15.036   0.519  1.00  0.00    -0.000 C 
BRANCH  12  13
ATOM     13  C   UNL     1       3.006  13.771   0.915  1.00  0.00    -0.003 C 
ATOM     14  C   UNL     1       1.865  14.067   1.889  1.00  0.00     0.004 C 
ENDBRANCH  12  13
ENDBRANCH  11  12
ENDBRANCH  10  11
ENDBRANCH   9  10
ENDBRANCH   1   9
TORSDOF 10
ENDMDL
MODEL 5
REMARK VINA RESULT:    -5.321      4.390      6.773
REMARK INTER + INTRA:          -9.755
REMARK INTER:                  -8.675
REMARK INTRA:                  -1.080
REMARK UNBOUND:                -1.324
REMARK SMILES CCCCCCCCCCCC(=O)[O-]
REMARK SMILES IDX 7 1 8 2 9 3 10 4 11 5 12 6 13 7 14 8 6 9 5 10 4 11 3 12 2 13
REMARK SMILES IDX 1 14
REMARK H PARENT
REMARK Flexibility Score: inf
ROOT
ATOM      1  C   UNL     1       5.110  12.897   1.294  1.00  0.00     0.000 C 
ENDROOT
BRANCH   1   2
ATOM      2  C   UNL     1       3.838  13.128   2.130  1.00  0.00     0.000 C 
BRANCH   2   3
ATOM      3  C   UNL     1       2.926  14.267   1.640  1.00  0.00     0.000 C 
BRANCH   3   4
ATOM      4  C   UNL     1       1.429  13.941   1.777  1.00  0.00     0.006 C 
BRANCH   4   5
ATOM      5  C   UNL     1       0.781  14.673   2.960  1.00  0.00     0.053 C 
BRANCH   5   6
ATOM      6  C   UNL     1      -0.626  14.214   3.194  1.00  0.00     0.041 C 
ATOM      7  O   UNL     1      -1.392  13.994   2.219  1.00  0.00    -0.550 OA
ATOM      8  O   UNL     1      -1.099  14.056   4.490  1.00  0.00    -0.550 OA
ENDBRANCH   5   6
ENDBRANCH   4   5
ENDBRANCH   3   4
ENDBRANCH   2   3
ENDBRANCH   1   2
BRANCH   1   9
ATOM      9  C   UNL     1       5.400  14.043   0.311  1.00  0.00     0.000 C 
BRANCH   9  10
ATOM     10  C   UNL     1       6.550  14.957   0.777  1.00  0.00    -0.000 C 
BRANCH  10  11
ATOM     11  C   UNL     1       7.410  14.397   1.925  1.00  0.00    -0.000 C 
BRANCH  11  12
ATOM     12  C   UNL     1       7.196  15.071   3.294  1.00  0.00    -0.000 C 
BRANCH  12  13
ATOM     13  C   UNL     1       6.009  16.056   3.324  1.00  0.00    -0.003 C 
ATOM     14  C   UNL     1       5.052  15.791   4.486  1.00  0.00     0.004 C 
ENDBRANCH  12  13
ENDBRANCH  11  12
ENDBRANCH  10  11
ENDBRANCH   9  10
ENDBRANCH   1   9
TORSDOF 10
ENDMDL
MODEL 6
REMARK VINA RESULT:    -5.304      1.064      2.955
REMARK INTER + INTRA:          -9.728
REMARK INTER:                  -8.502
REMARK INTRA:                  -1.226
REMARK UNBOUND:                -1.324
REMARK SMILES CCCCCCCCCCCC(=O)[O-]
REMARK SMILES IDX 7 1 8 2 9 3 10 4 11 5 12 6 13 7 14 8 6 9 5 10 4 11 3 12 2 13
REMARK SMILES IDX 1 14
REMARK H PARENT
REMARK Flexibility Score: inf
ROOT
ATOM      1  C   UNL     1       5.005  13.104   0.862  1.00  0.00     0.000 C 
ENDROOT
BRANCH   1   2
ATOM      2  C   UNL     1       5.304  14.510   0.310  1.00  0.00     0.000 C 
BRANCH   2   3
ATOM      3  C   UNL     1       6.756  14.990   0.482  1.00  0.00     0.000 C 
BRANCH   3   4
ATOM      4  C   UNL     1       7.720  13.859   0.879  1.00  0.00     0.006 C 
BRANCH   4   5
ATOM      5  C   UNL     1       8.654  14.268   2.026  1.00  0.00     0.053 C 
BRANCH   5   6
ATOM      6  C   UNL     1      10.059  14.480   1.551  1.00  0.00     0.041 C 
ATOM      7  O   UNL     1      10.829  13.495   1.390  1.00  0.00    -0.550 OA
ATOM      8  O   UNL     1      10.526  15.766   1.313  1.00  0.00    -0.550 OA
ENDBRANCH   5   6
ENDBRANCH   4   5
ENDBRANCH   3   4
ENDBRANCH   2   3
ENDBRANCH   1   2
BRANCH   1   9
ATOM      9  C   UNL     1       4.035  13.120   2.055  1.00  0.00     0.000 C 
BRANCH   9  10
ATOM     10  C   UNL     1       2.923  14.177   1.912  1.00  0.00    -0.000 C 
BRANCH  10  11
ATOM     11  C   UNL     1       2.612  14.979   3.189  1.00  0.00    -0.000 C 
BRANCH  11  12
ATOM     12  C   UNL     1       3.818  15.234   4.113  1.00  0.00    -0.000 C 
BRANCH  12  13
ATOM     13  C   UNL     1       4.815  16.274   3.563  1.00  0.00    -0.003 C 
ATOM     14  C   UNL     1       6.245  16.035   4.049  1.00  0.00     0.004 C 
ENDBRANCH  12  13
ENDBRANCH  11  12
ENDBRANCH  10  11
ENDBRANCH   9  10
ENDBRANCH   1   9
TORSDOF 10
ENDMDL
MODEL 7
REMARK VINA RESULT:    -5.200      1.315      3.134
REMARK INTER + INTRA:          -9.564
REMARK INTER:                  -8.724
REMARK INTRA:                  -0.839
REMARK UNBOUND:                -1.324
REMARK SMILES CCCCCCCCCCCC(=O)[O-]
REMARK SMILES IDX 7 1 8 2 9 3 10 4 11 5 12 6 13 7 14 8 6 9 5 10 4 11 3 12 2 13
REMARK SMILES IDX 1 14
REMARK H PARENT
REMARK Flexibility Score: inf
ROOT
ATOM      1  C   UNL     1       5.318  13.345   0.601  1.00  0.00     0.000 C 
ENDROOT
BRANCH   1   2
ATOM      2  C   UNL     1       6.457  14.366   0.781  1.00  0.00     0.000 C 
BRANCH   2   3
ATOM      3  C   UNL     1       7.880  13.792   0.664  1.00  0.00     0.000 C 
BRANCH   3   4
ATOM      4  C   UNL     1       8.817  14.274   1.784  1.00  0.00     0.006 C 
BRANCH   4   5
ATOM      5  C   UNL     1      10.222  13.666   1.668  1.00  0.00     0.053 C 
BRANCH   5   6
ATOM      6  C   UNL     1      11.185  14.613   1.021  1.00  0.00     0.041 C 
ATOM      7  O   UNL     1      12.199  14.172   0.417  1.00  0.00    -0.550 OA
ATOM      8  O   UNL     1      10.979  15.984   1.109  1.00  0.00    -0.550 OA
ENDBRANCH   5   6
ENDBRANCH   4   5
ENDBRANCH   3   4
ENDBRANCH   2   3
ENDBRANCH   1   2
BRANCH   1   9
ATOM      9  C   UNL     1       4.446  13.189   1.858  1.00  0.00     0.000 C 
BRANCH   9  10
ATOM     10  C   UNL     1       3.242  14.150   1.877  1.00  0.00    -0.000 C 
BRANCH  10  11
ATOM     11  C   UNL     1       3.075  14.968   3.171  1.00  0.00    -0.000 C 
BRANCH  11  12
ATOM     12  C   UNL     1       4.148  14.718   4.248  1.00  0.00    -0.000 C 
BRANCH  12  13
ATOM     13  C   UNL     1       4.962  15.974   4.619  1.00  0.00    -0.003 C 
ATOM     14  C   UNL     1       6.326  16.018   3.929  1.00  0.00     0.004 C 
ENDBRANCH  12  13
ENDBRANCH  11  12
ENDBRANCH  10  11
ENDBRANCH   9  10
ENDBRANCH   1   9
TORSDOF 10
ENDMDL
MODEL 8
REMARK VINA RESULT:    -5.178      3.000      5.537
REMARK INTER + INTRA:          -9.529
REMARK INTER:                  -8.835
REMARK INTRA:                  -0.694
REMARK UNBOUND:                -1.324
REMARK SMILES CCCCCCCCCCCC(=O)[O-]
REMARK SMILES IDX 7 1 8 2 9 3 10 4 11 5 12 6 13 7 14 8 6 9 5 10 4 11 3 12 2 13
REMARK SMILES IDX 1 14
REMARK H PARENT
REMARK Flexibility Score: inf
ROOT
ATOM      1  C   UNL     1       8.562  14.581   0.713  1.00  0.00     0.000 C 
ENDROOT
BRANCH   1   2
ATOM      2  C   UNL     1       7.374  13.604   0.789  1.00  0.00     0.000 C 
BRANCH   2   3
ATOM      3  C   UNL     1       6.006  14.200   0.414  1.00  0.00     0.000 C 
BRANCH   3   4
ATOM      4  C   UNL     1       4.846  13.207   0.599  1.00  0.00     0.006 C 
BRANCH   4   5
ATOM      5  C   UNL     1       3.986  13.540   1.825  1.00  0.00     0.053 C 
BRANCH   5   6
ATOM      6  C   UNL     1       2.605  13.971   1.436  1.00  0.00     0.041 C 
ATOM      7  O   UNL     1       2.250  13.945   0.227  1.00  0.00    -0.550 OA
ATOM      8  O   UNL     1       1.720  14.428   2.404  1.00  0.00    -0.550 OA
ENDBRANCH   5   6
ENDBRANCH   4   5
ENDBRANCH   3   4
ENDBRANCH   2   3
ENDBRANCH   1   2
BRANCH   1   9
ATOM      9  C   UNL     1       9.097  14.985   2.097  1.00  0.00     0.000 C 
BRANCH   9  10
ATOM     10  C   UNL     1       8.139  14.613   3.244  1.00  0.00    -0.000 C 
BRANCH  10  11
ATOM     11  C   UNL     1       7.172  15.730   3.681  1.00  0.00    -0.000 C 
BRANCH  11  12
ATOM     12  C   UNL     1       5.715  15.284   3.908  1.00  0.00    -0.000 C 
BRANCH  12  13
ATOM     13  C   UNL     1       4.903  16.241   4.804  1.00  0.00    -0.003 C 
ATOM     14  C   UNL     1       3.515  15.697   5.143  1.00  0.00     0.004 C 
ENDBRANCH  12  13
ENDBRANCH  11  12
ENDBRANCH  10  11
ENDBRANCH   9  10
ENDBRANCH   1   9
TORSDOF 10
ENDMDL
MODEL 9
REMARK VINA RESULT:    -5.147      2.752      5.440
REMARK INTER + INTRA:          -9.480
REMARK INTER:                  -8.759
REMARK INTRA:                  -0.722
REMARK UNBOUND:                -1.324
REMARK SMILES CCCCCCCCCCCC(=O)[O-]
REMARK SMILES IDX 7 1 8 2 9 3 10 4 11 5 12 6 13 7 14 8 6 9 5 10 4 11 3 12 2 13
REMARK SMILES IDX 1 14
REMARK H PARENT
REMARK Flexibility Score: inf
ROOT
ATOM      1  C   UNL     1       5.391  13.432   0.576  1.00  0.00     0.000 C 
ENDROOT
BRANCH   1   2
ATOM      2  C   UNL     1       4.347  13.110   1.660  1.00  0.00     0.000 C 
BRANCH   2   3
ATOM      3  C   UNL     1       3.156  14.082   1.737  1.00  0.00     0.000 C 
BRANCH   3   4
ATOM      4  C   UNL     1       3.136  14.908   3.035  1.00  0.00     0.006 C 
BRANCH   4   5
ATOM      5  C   UNL     1       4.313  14.566   3.958  1.00  0.00     0.053 C 
BRANCH   5   6
ATOM      6  C   UNL     1       4.895  15.792   4.594  1.00  0.00     0.041 C 
ATOM      7  O   UNL     1       4.220  16.456   5.424  1.00  0.00    -0.550 OA
ATOM      8  O   UNL     1       6.172  16.215   4.248  1.00  0.00    -0.550 OA
ENDBRANCH   5   6
ENDBRANCH   4   5
ENDBRANCH   3   4
ENDBRANCH   2   3
ENDBRANCH   1   2
BRANCH   1   9
ATOM      9  C   UNL     1       6.240  14.669   0.908  1.00  0.00     0.000 C 
BRANCH   9  10
ATOM     10  C   UNL     1       7.547  14.322   1.647  1.00  0.00    -0.000 C 
BRANCH  10  11
ATOM     11  C   UNL     1       8.776  14.108   0.743  1.00  0.00    -0.000 C 
BRANCH  11  12
ATOM     12  C   UNL     1      10.063  13.686   1.477  1.00  0.00    -0.000 C 
BRANCH  12  13
ATOM     13  C   UNL     1      11.296  14.536   1.109  1.00  0.00    -0.003 C 
ATOM     14  C   UNL     1      10.925  15.941   0.636  1.00  0.00     0.004 C 
ENDBRANCH  12  13
ENDBRANCH  11  12
ENDBRANCH  10  11
ENDBRANCH   9  10
ENDBRANCH   1   9
TORSDOF 10
ENDMDL
