MODEL 1
REMARK VINA RESULT:    -5.872      0.000      0.000
REMARK INTER + INTRA:         -13.121
REMARK INTER:                 -10.678
REMARK INTRA:                  -2.443
REMARK UNBOUND:                -2.443
REMARK SMILES CCCCCC=CCC=CCCCCCCCC(=O)[O-]
REMARK SMILES IDX 11 1 12 2 13 3 14 4 15 5 16 6 17 7 18 8 19 9 20 10 10 11
REMARK SMILES IDX 9 12 8 13 7 14 6 15 5 16 4 17 3 18 2 19 1 20
REMARK H PARENT
REMARK Flexibility Score: inf
ROOT
ATOM      1  C   UNL     1      22.375 -23.262 -13.186  1.00  0.00     0.027 C 
ENDROOT
BRANCH   1   2
ATOM      2  C   UNL     1      23.851 -22.991 -12.857  1.00  0.00     0.004 C 
BRANCH   2   3
ATOM      3  C   UNL     1      24.165 -23.171 -11.364  1.00  0.00     0.000 C 
BRANCH   3   4
ATOM      4  C   UNL     1      25.148 -22.111 -10.836  1.00  0.00     0.000 C 
BRANCH   4   5
ATOM      5  C   UNL     1      24.617 -21.380  -9.593  1.00  0.00     0.000 C 
BRANCH   5   6
ATOM      6  C   UNL     1      23.083 -21.435  -9.486  1.00  0.00     0.006 C 
BRANCH   6   7
ATOM      7  C   UNL     1      22.601 -21.335  -8.033  1.00  0.00     0.053 C 
BRANCH   7   8
ATOM      8  C   UNL     1      21.109 -21.209  -7.950  1.00  0.00     0.041 C 
ATOM      9  O   UNL     1      20.399 -21.380  -8.975  1.00  0.00    -0.550 OA
ATOM     10  O   UNL     1      20.507 -20.870  -6.744  1.00  0.00    -0.550 OA
ENDBRANCH   7   8
ENDBRANCH   6   7
ENDBRANCH   5   6
ENDBRANCH   4   5
ENDBRANCH   3   4
ENDBRANCH   2   3
ENDBRANCH   1   2
BRANCH   1  11
ATOM     11  C   UNL     1      21.665 -23.879 -12.013  1.00  0.00    -0.031 C 
ATOM     12  C   UNL     1      21.432 -25.199 -11.949  1.00  0.00    -0.027 C 
BRANCH  12  13
ATOM     13  C   UNL     1      20.716 -25.816 -10.781  1.00  0.00     0.054 C 
BRANCH  13  14
ATOM     14  C   UNL     1      20.672 -24.873  -9.605  1.00  0.00    -0.027 C 
ATOM     15  C   UNL     1      21.622 -24.793  -8.654  1.00  0.00    -0.031 C 
BRANCH  15  16
ATOM     16  C   UNL     1      22.909 -25.583  -8.659  1.00  0.00     0.027 C 
BRANCH  16  17
ATOM     17  C   UNL     1      23.936 -25.012  -7.667  1.00  0.00     0.004 C 
BRANCH  17  18
ATOM     18  C   UNL     1      25.338 -24.824  -8.287  1.00  0.00     0.000 C 
BRANCH  18  19
ATOM     19  C   UNL     1      26.426 -25.677  -7.614  1.00  0.00    -0.003 C 
ATOM     20  C   UNL     1      25.968 -27.105  -7.320  1.00  0.00     0.004 C 
ENDBRANCH  18  19
ENDBRANCH  17  18
ENDBRANCH  16  17
ENDBRANCH  15  16
ENDBRANCH  13  14
ENDBRANCH  12  13
ENDBRANCH   1  11
TORSDOF 14
ENDMDL
MODEL 2
REMARK VINA RESULT:    -5.791      2.309      5.171
REMARK INTER + INTRA:         -12.973
REMARK INTER:                 -10.504
REMARK INTRA:                  -2.469
REMARK UNBOUND:                -2.443
REMARK SMILES CCCCCC=CCC=CCCCCCCCC(=O)[O-]
REMARK SMILES IDX 11 1 12 2 13 3 14 4 15 5 16 6 17 7 18 8 19 9 20 10 10 11
REMARK SMILES IDX 9 12 8 13 7 14 6 15 5 16 4 17 3 18 2 19 1 20
REMARK H PARENT
REMARK Flexibility Score: inf
ROOT
ATOM      1  C   UNL     1      22.450 -22.173  -5.637  1.00  0.00     0.027 C 
ENDROOT
BRANCH   1   2
ATOM      2  C   UNL     1      22.275 -21.562  -7.035  1.00  0.00     0.004 C 
BRANCH   2   3
ATOM      3  C   UNL     1      20.837 -21.089  -7.296  1.00  0.00     0.000 C 
BRANCH   3   4
ATOM      4  C   UNL     1      20.424 -21.246  -8.771  1.00  0.00     0.000 C 
BRANCH   4   5
ATOM      5  C   UNL     1      21.299 -22.260  -9.525  1.00  0.00     0.000 C 
BRANCH   5   6
ATOM      6  C   UNL     1      20.707 -23.680  -9.505  1.00  0.00     0.006 C 
BRANCH   6   7
ATOM      7  C   UNL     1      20.081 -24.064 -10.853  1.00  0.00     0.053 C 
BRANCH   7   8
ATOM      8  C   UNL     1      21.089 -24.668 -11.782  1.00  0.00     0.041 C 
ATOM      9  O   UNL     1      21.309 -25.907 -11.762  1.00  0.00    -0.550 OA
ATOM     10  O   UNL     1      21.810 -23.856 -12.649  1.00  0.00    -0.550 OA
ENDBRANCH   7   8
ENDBRANCH   6   7
ENDBRANCH   5   6
ENDBRANCH   4   5
ENDBRANCH   3   4
ENDBRANCH   2   3
ENDBRANCH   1   2
BRANCH   1  11
ATOM     11  C   UNL     1      22.957 -23.586  -5.726  1.00  0.00    -0.031 C 
ATOM     12  C   UNL     1      23.005 -24.242  -6.895  1.00  0.00    -0.027 C 
BRANCH  12  13
ATOM     13  C   UNL     1      23.504 -25.656  -6.986  1.00  0.00     0.054 C 
BRANCH  13  14
ATOM     14  C   UNL     1      24.908 -25.708  -7.534  1.00  0.00    -0.027 C 
ATOM     15  C   UNL     1      25.241 -25.429  -8.809  1.00  0.00    -0.031 C 
BRANCH  15  16
ATOM     16  C   UNL     1      24.271 -24.953  -9.863  1.00  0.00     0.027 C 
BRANCH  16  17
ATOM     17  C   UNL     1      24.692 -23.599 -10.458  1.00  0.00     0.004 C 
BRANCH  17  18
ATOM     18  C   UNL     1      25.017 -22.538  -9.383  1.00  0.00     0.000 C 
BRANCH  18  19
ATOM     19  C   UNL     1      24.945 -21.094  -9.904  1.00  0.00    -0.003 C 
ATOM     20  C   UNL     1      24.611 -21.012 -11.393  1.00  0.00     0.004 C 
ENDBRANCH  18  19
ENDBRANCH  17  18
ENDBRANCH  16  17
ENDBRANCH  15  16
ENDBRANCH  13  14
ENDBRANCH  12  13
ENDBRANCH   1  11
TORSDOF 14
ENDMDL
MODEL 3
REMARK VINA RESULT:    -5.767      2.127      4.972
REMARK INTER + INTRA:         -12.931
REMARK INTER:                 -10.484
REMARK INTRA:                  -2.447
REMARK UNBOUND:                -2.443
REMARK SMILES CCCCCC=CCC=CCCCCCCCC(=O)[O-]
REMARK SMILES IDX 11 1 12 2 13 3 14 4 15 5 16 6 17 7 18 8 19 9 20 10 10 11
REMARK SMILES IDX 9 12 8 13 7 14 6 15 5 16 4 17 3 18 2 19 1 20
REMARK H PARENT
REMARK Flexibility Score: inf
ROOT
ATOM      1  C   UNL     1      22.110 -25.613  -7.425  1.00  0.00     0.027 C 
ENDROOT
BRANCH   1   2
ATOM      2  C   UNL     1      23.316 -24.742  -7.041  1.00  0.00     0.004 C 
BRANCH   2   3
ATOM      3  C   UNL     1      24.642 -25.296  -7.587  1.00  0.00     0.000 C 
BRANCH   3   4
ATOM      4  C   UNL     1      25.246 -24.402  -8.685  1.00  0.00     0.000 C 
BRANCH   4   5
ATOM      5  C   UNL     1      24.570 -24.605 -10.050  1.00  0.00     0.000 C 
BRANCH   5   6
ATOM      6  C   UNL     1      24.624 -23.342 -10.928  1.00  0.00     0.006 C 
BRANCH   6   7
ATOM      7  C   UNL     1      25.450 -22.222 -10.280  1.00  0.00     0.053 C 
BRANCH   7   8
ATOM      8  C   UNL     1      25.085 -20.875 -10.826  1.00  0.00     0.041 C 
ATOM      9  O   UNL     1      25.233 -19.843 -10.122  1.00  0.00    -0.550 OA
ATOM     10  O   UNL     1      24.552 -20.764 -12.105  1.00  0.00    -0.550 OA
ENDBRANCH   7   8
ENDBRANCH   6   7
ENDBRANCH   5   6
ENDBRANCH   4   5
ENDBRANCH   3   4
ENDBRANCH   2   3
ENDBRANCH   1   2
BRANCH   1  11
ATOM     11  C   UNL     1      21.332 -24.991  -8.551  1.00  0.00    -0.031 C 
ATOM     12  C   UNL     1      21.055 -25.674  -9.673  1.00  0.00    -0.027 C 
BRANCH  12  13
ATOM     13  C   UNL     1      20.284 -25.052 -10.803  1.00  0.00     0.054 C 
BRANCH  13  14
ATOM     14  C   UNL     1      21.184 -24.232 -11.693  1.00  0.00    -0.027 C 
ATOM     15  C   UNL     1      21.383 -22.907 -11.566  1.00  0.00    -0.031 C 
BRANCH  15  16
ATOM     16  C   UNL     1      20.794 -22.053 -10.468  1.00  0.00     0.027 C 
BRANCH  16  17
ATOM     17  C   UNL     1      21.878 -21.506  -9.524  1.00  0.00     0.004 C 
BRANCH  17  18
ATOM     18  C   UNL     1      21.429 -21.460  -8.047  1.00  0.00     0.000 C 
BRANCH  18  19
ATOM     19  C   UNL     1      19.951 -21.078  -7.865  1.00  0.00    -0.003 C 
ATOM     20  C   UNL     1      19.764 -19.665  -7.313  1.00  0.00     0.004 C 
ENDBRANCH  18  19
ENDBRANCH  17  18
ENDBRANCH  16  17
ENDBRANCH  15  16
ENDBRANCH  13  14
ENDBRANCH  12  13
ENDBRANCH   1  11
TORSDOF 14
ENDMDL
MODEL 4
REMARK VINA RESULT:    -5.754      1.876      2.836
REMARK INTER + INTRA:         -12.907
REMARK INTER:                 -10.537
REMARK INTRA:                  -2.369
REMARK UNBOUND:                -2.443
REMARK SMILES CCCCCC=CCC=CCCCCCCCC(=O)[O-]
REMARK SMILES IDX 11 1 12 2 13 3 14 4 15 5 16 6 17 7 18 8 19 9 20 10 10 11
REMARK SMILES IDX 9 12 8 13 7 14 6 15 5 16 4 17 3 18 2 19 1 20
REMARK H PARENT
REMARK Flexibility Score: inf
ROOT
ATOM      1  C   UNL     1      24.392 -22.229 -11.772  1.00  0.00     0.027 C 
ENDROOT
BRANCH   1   2
ATOM      2  C   UNL     1      24.079 -20.991 -10.918  1.00  0.00     0.004 C 
BRANCH   2   3
ATOM      3  C   UNL     1      24.872 -20.966  -9.602  1.00  0.00     0.000 C 
BRANCH   3   4
ATOM      4  C   UNL     1      24.162 -21.734  -8.473  1.00  0.00     0.000 C 
BRANCH   4   5
ATOM      5  C   UNL     1      22.748 -21.201  -8.194  1.00  0.00     0.000 C 
BRANCH   5   6
ATOM      6  C   UNL     1      22.059 -21.938  -7.031  1.00  0.00     0.006 C 
BRANCH   6   7
ATOM      7  C   UNL     1      22.911 -21.929  -5.756  1.00  0.00     0.053 C 
BRANCH   7   8
ATOM      8  C   UNL     1      22.707 -23.171  -4.942  1.00  0.00     0.041 C 
ATOM      9  O   UNL     1      22.172 -23.104  -3.804  1.00  0.00    -0.550 OA
ATOM     10  O   UNL     1      23.136 -24.400  -5.429  1.00  0.00    -0.550 OA
ENDBRANCH   7   8
ENDBRANCH   6   7
ENDBRANCH   5   6
ENDBRANCH   4   5
ENDBRANCH   3   4
ENDBRANCH   2   3
ENDBRANCH   1   2
BRANCH   1  11
ATOM     11  C   UNL     1      23.163 -23.073 -11.968  1.00  0.00    -0.031 C 
ATOM     12  C   UNL     1      21.981 -22.725 -11.437  1.00  0.00    -0.027 C 
BRANCH  12  13
ATOM     13  C   UNL     1      20.754 -23.571 -11.625  1.00  0.00     0.054 C 
BRANCH  13  14
ATOM     14  C   UNL     1      21.112 -25.025 -11.802  1.00  0.00    -0.027 C 
ATOM     15  C   UNL     1      21.284 -25.898 -10.792  1.00  0.00    -0.031 C 
BRANCH  15  16
ATOM     16  C   UNL     1      21.073 -25.573  -9.333  1.00  0.00     0.027 C 
BRANCH  16  17
ATOM     17  C   UNL     1      22.322 -24.937  -8.701  1.00  0.00     0.004 C 
BRANCH  17  18
ATOM     18  C   UNL     1      23.643 -25.473  -9.297  1.00  0.00     0.000 C 
BRANCH  18  19
ATOM     19  C   UNL     1      24.891 -25.040  -8.511  1.00  0.00    -0.003 C 
ATOM     20  C   UNL     1      25.605 -26.208  -7.832  1.00  0.00     0.004 C 
ENDBRANCH  18  19
ENDBRANCH  17  18
ENDBRANCH  16  17
ENDBRANCH  15  16
ENDBRANCH  13  14
ENDBRANCH  12  13
ENDBRANCH   1  11
TORSDOF 14
ENDMDL
MODEL 5
REMARK VINA RESULT:    -5.687      2.049      4.728
REMARK INTER + INTRA:         -12.785
REMARK INTER:                 -10.513
REMARK INTRA:                  -2.271
REMARK UNBOUND:                -2.443
REMARK SMILES CCCCCC=CCC=CCCCCCCCC(=O)[O-]
REMARK SMILES IDX 11 1 12 2 13 3 14 4 15 5 16 6 17 7 18 8 19 9 20 10 10 11
REMARK SMILES IDX 9 12 8 13 7 14 6 15 5 16 4 17 3 18 2 19 1 20
REMARK H PARENT
REMARK Flexibility Score: inf
ROOT
ATOM      1  C   UNL     1      24.899 -21.157  -9.287  1.00  0.00     0.027 C 
ENDROOT
BRANCH   1   2
ATOM      2  C   UNL     1      24.803 -21.294 -10.814  1.00  0.00     0.004 C 
BRANCH   2   3
ATOM      3  C   UNL     1      25.348 -22.638 -11.322  1.00  0.00     0.000 C 
BRANCH   3   4
ATOM      4  C   UNL     1      24.263 -23.727 -11.384  1.00  0.00     0.000 C 
BRANCH   4   5
ATOM      5  C   UNL     1      24.533 -24.887 -10.412  1.00  0.00     0.000 C 
BRANCH   5   6
ATOM      6  C   UNL     1      23.599 -24.861  -9.189  1.00  0.00     0.006 C 
BRANCH   6   7
ATOM      7  C   UNL     1      24.361 -25.071  -7.874  1.00  0.00     0.053 C 
BRANCH   7   8
ATOM      8  C   UNL     1      23.433 -25.158  -6.701  1.00  0.00     0.041 C 
ATOM      9  O   UNL     1      22.214 -25.419  -6.873  1.00  0.00    -0.550 OA
ATOM     10  O   UNL     1      23.910 -24.919  -5.418  1.00  0.00    -0.550 OA
ENDBRANCH   7   8
ENDBRANCH   6   7
ENDBRANCH   5   6
ENDBRANCH   4   5
ENDBRANCH   3   4
ENDBRANCH   2   3
ENDBRANCH   1   2
BRANCH   1  11
ATOM     11  C   UNL     1      23.572 -21.436  -8.637  1.00  0.00    -0.031 C 
ATOM     12  C   UNL     1      23.441 -21.483  -7.302  1.00  0.00    -0.027 C 
BRANCH  12  13
ATOM     13  C   UNL     1      22.118 -21.769  -6.650  1.00  0.00     0.054 C 
BRANCH  13  14
ATOM     14  C   UNL     1      21.008 -20.978  -7.295  1.00  0.00    -0.027 C 
ATOM     15  C   UNL     1      20.325 -21.371  -8.387  1.00  0.00    -0.031 C 
BRANCH  15  16
ATOM     16  C   UNL     1      20.518 -22.694  -9.089  1.00  0.00     0.027 C 
BRANCH  16  17
ATOM     17  C   UNL     1      21.023 -22.510 -10.529  1.00  0.00     0.004 C 
BRANCH  17  18
ATOM     18  C   UNL     1      20.634 -23.678 -11.463  1.00  0.00     0.000 C 
BRANCH  18  19
ATOM     19  C   UNL     1      20.327 -24.985 -10.715  1.00  0.00    -0.003 C 
ATOM     20  C   UNL     1      21.026 -26.200 -11.324  1.00  0.00     0.004 C 
ENDBRANCH  18  19
ENDBRANCH  17  18
ENDBRANCH  16  17
ENDBRANCH  15  16
ENDBRANCH  13  14
ENDBRANCH  12  13
ENDBRANCH   1  11
TORSDOF 14
ENDMDL
MODEL 6
REMARK VINA RESULT:    -5.660      1.480      3.899
REMARK INTER + INTRA:         -12.736
REMARK INTER:                 -10.143
REMARK INTRA:                  -2.593
REMARK UNBOUND:                -2.443
REMARK SMILES CCCCCC=CCC=CCCCCCCCC(=O)[O-]
REMARK SMILES IDX 11 1 12 2 13 3 14 4 15 5 16 6 17 7 18 8 19 9 20 10 10 11
REMARK SMILES IDX 9 12 8 13 7 14 6 15 5 16 4 17 3 18 2 19 1 20
REMARK H PARENT
REMARK Flexibility Score: inf
ROOT
ATOM      1  C   UNL     1      21.917 -25.633  -7.559  1.00  0.00     0.027 C 
ENDROOT
BRANCH   1   2
ATOM      2  C   UNL     1      22.886 -24.654  -6.877  1.00  0.00     0.004 C 
BRANCH   2   3
ATOM      3  C   UNL     1      24.085 -24.296  -7.768  1.00  0.00     0.000 C 
BRANCH   3   4
ATOM      4  C   UNL     1      24.095 -22.811  -8.174  1.00  0.00     0.000 C 
BRANCH   4   5
ATOM      5  C   UNL     1      22.989 -22.001  -7.478  1.00  0.00     0.000 C 
BRANCH   5   6
ATOM      6  C   UNL     1      22.100 -21.239  -8.476  1.00  0.00     0.006 C 
BRANCH   6   7
ATOM      7  C   UNL     1      20.615 -21.587  -8.311  1.00  0.00     0.053 C 
BRANCH   7   8
ATOM      8  C   UNL     1      19.860 -20.491  -7.621  1.00  0.00     0.041 C 
ATOM      9  O   UNL     1      19.166 -19.681  -8.288  1.00  0.00    -0.550 OA
ATOM     10  O   UNL     1      19.950 -20.348  -6.242  1.00  0.00    -0.550 OA
ENDBRANCH   7   8
ENDBRANCH   6   7
ENDBRANCH   5   6
ENDBRANCH   4   5
ENDBRANCH   3   4
ENDBRANCH   2   3
ENDBRANCH   1   2
BRANCH   1  11
ATOM     11  C   UNL     1      21.476 -25.110  -8.898  1.00  0.00    -0.031 C 
ATOM     12  C   UNL     1      20.839 -25.894  -9.781  1.00  0.00    -0.027 C 
BRANCH  12  13
ATOM     13  C   UNL     1      20.404 -25.376 -11.124  1.00  0.00     0.054 C 
BRANCH  13  14
ATOM     14  C   UNL     1      20.338 -23.869 -11.134  1.00  0.00    -0.027 C 
ATOM     15  C   UNL     1      21.298 -23.065 -11.628  1.00  0.00    -0.031 C 
BRANCH  15  16
ATOM     16  C   UNL     1      22.554 -23.551 -12.312  1.00  0.00     0.027 C 
BRANCH  16  17
ATOM     17  C   UNL     1      23.766 -23.526 -11.367  1.00  0.00     0.004 C 
BRANCH  17  18
ATOM     18  C   UNL     1      24.852 -22.515 -11.800  1.00  0.00     0.000 C 
BRANCH  18  19
ATOM     19  C   UNL     1      24.415 -21.048 -11.663  1.00  0.00    -0.003 C 
ATOM     20  C   UNL     1      25.091 -20.330 -10.495  1.00  0.00     0.004 C 
ENDBRANCH  18  19
ENDBRANCH  17  18
ENDBRANCH  16  17
ENDBRANCH  15  16
ENDBRANCH  13  14
ENDBRANCH  12  13
ENDBRANCH   1  11
TORSDOF 14
ENDMDL
MODEL 7
REMARK VINA RESULT:    -5.645      2.161      4.653
REMARK INTER + INTRA:         -12.709
REMARK INTER:                  -9.859
REMARK INTRA:                  -2.851
REMARK UNBOUND:                -2.443
REMARK SMILES CCCCCC=CCC=CCCCCCCCC(=O)[O-]
REMARK SMILES IDX 11 1 12 2 13 3 14 4 15 5 16 6 17 7 18 8 19 9 20 10 10 11
REMARK SMILES IDX 9 12 8 13 7 14 6 15 5 16 4 17 3 18 2 19 1 20
REMARK H PARENT
REMARK Flexibility Score: inf
ROOT
ATOM      1  C   UNL     1      20.408 -24.337 -10.863  1.00  0.00     0.027 C 
ENDROOT
BRANCH   1   2
ATOM      2  C   UNL     1      20.811 -25.526  -9.977  1.00  0.00     0.004 C 
BRANCH   2   3
ATOM      3  C   UNL     1      22.280 -25.458  -9.531  1.00  0.00     0.000 C 
BRANCH   3   4
ATOM      4  C   UNL     1      22.431 -25.432  -8.000  1.00  0.00     0.000 C 
BRANCH   4   5
ATOM      5  C   UNL     1      23.892 -25.581  -7.547  1.00  0.00     0.000 C 
BRANCH   5   6
ATOM      6  C   UNL     1      24.153 -24.930  -6.177  1.00  0.00     0.006 C 
BRANCH   6   7
ATOM      7  C   UNL     1      22.852 -24.606  -5.432  1.00  0.00     0.053 C 
BRANCH   7   8
ATOM      8  C   UNL     1      23.113 -23.895  -4.139  1.00  0.00     0.041 C 
ATOM      9  O   UNL     1      24.157 -24.138  -3.480  1.00  0.00    -0.550 OA
ATOM     10  O   UNL     1      22.185 -22.986  -3.646  1.00  0.00    -0.550 OA
ENDBRANCH   7   8
ENDBRANCH   6   7
ENDBRANCH   5   6
ENDBRANCH   4   5
ENDBRANCH   3   4
ENDBRANCH   2   3
ENDBRANCH   1   2
BRANCH   1  11
ATOM     11  C   UNL     1      20.924 -23.043 -10.296  1.00  0.00    -0.031 C 
ATOM     12  C   UNL     1      20.485 -22.569  -9.120  1.00  0.00    -0.027 C 
BRANCH  12  13
ATOM     13  C   UNL     1      20.993 -21.272  -8.555  1.00  0.00     0.054 C 
BRANCH  13  14
ATOM     14  C   UNL     1      21.968 -21.510  -7.430  1.00  0.00    -0.027 C 
ATOM     15  C   UNL     1      23.301 -21.624  -7.585  1.00  0.00    -0.031 C 
BRANCH  15  16
ATOM     16  C   UNL     1      24.028 -21.458  -8.898  1.00  0.00     0.027 C 
BRANCH  16  17
ATOM     17  C   UNL     1      24.946 -22.654  -9.198  1.00  0.00     0.004 C 
BRANCH  17  18
ATOM     18  C   UNL     1      25.115 -22.925 -10.710  1.00  0.00     0.000 C 
BRANCH  18  19
ATOM     19  C   UNL     1      24.168 -22.095 -11.592  1.00  0.00    -0.003 C 
ATOM     20  C   UNL     1      23.658 -22.866 -12.809  1.00  0.00     0.004 C 
ENDBRANCH  18  19
ENDBRANCH  17  18
ENDBRANCH  16  17
ENDBRANCH  15  16
ENDBRANCH  13  14
ENDBRANCH  12  13
ENDBRANCH   1  11
TORSDOF 14
ENDMDL
MODEL 8
REMARK VINA RESULT:    -5.641      2.996      5.538
REMARK INTER + INTRA:         -12.701
REMARK INTER:                 -10.463
REMARK INTRA:                  -2.238
REMARK UNBOUND:                -2.443
REMARK SMILES CCCCCC=CCC=CCCCCCCCC(=O)[O-]
REMARK SMILES IDX 11 1 12 2 13 3 14 4 15 5 16 6 17 7 18 8 19 9 20 10 10 11
REMARK SMILES IDX 9 12 8 13 7 14 6 15 5 16 4 17 3 18 2 19 1 20
REMARK H PARENT
REMARK Flexibility Score: inf
ROOT
ATOM      1  C   UNL     1      24.370 -25.623  -8.046  1.00  0.00     0.027 C 
ENDROOT
BRANCH   1   2
ATOM      2  C   UNL     1      23.038 -25.517  -7.288  1.00  0.00     0.004 C 
BRANCH   2   3
ATOM      3  C   UNL     1      23.003 -24.323  -6.321  1.00  0.00     0.000 C 
BRANCH   3   4
ATOM      4  C   UNL     1      22.883 -24.760  -4.850  1.00  0.00     0.000 C 
BRANCH   4   5
ATOM      5  C   UNL     1      22.269 -23.670  -3.958  1.00  0.00     0.000 C 
BRANCH   5   6
ATOM      6  C   UNL     1      22.646 -22.251  -4.418  1.00  0.00     0.006 C 
BRANCH   6   7
ATOM      7  C   UNL     1      23.592 -21.555  -3.431  1.00  0.00     0.053 C 
BRANCH   7   8
ATOM      8  C   UNL     1      22.881 -21.138  -2.178  1.00  0.00     0.041 C 
ATOM      9  O   UNL     1      23.394 -21.364  -1.052  1.00  0.00    -0.550 OA
ATOM     10  O   UNL     1      21.635 -20.528  -2.257  1.00  0.00    -0.550 OA
ENDBRANCH   7   8
ENDBRANCH   6   7
ENDBRANCH   5   6
ENDBRANCH   4   5
ENDBRANCH   3   4
ENDBRANCH   2   3
ENDBRANCH   1   2
BRANCH   1  11
ATOM     11  C   UNL     1      24.590 -24.418  -8.920  1.00  0.00    -0.031 C 
ATOM     12  C   UNL     1      24.290 -24.436 -10.227  1.00  0.00    -0.027 C 
BRANCH  12  13
ATOM     13  C   UNL     1      24.516 -23.237 -11.104  1.00  0.00     0.054 C 
BRANCH  13  14
ATOM     14  C   UNL     1      24.551 -21.965 -10.293  1.00  0.00    -0.027 C 
ATOM     15  C   UNL     1      23.481 -21.186 -10.048  1.00  0.00    -0.031 C 
BRANCH  15  16
ATOM     16  C   UNL     1      22.071 -21.504 -10.485  1.00  0.00     0.027 C 
BRANCH  16  17
ATOM     17  C   UNL     1      21.172 -21.872  -9.294  1.00  0.00     0.004 C 
BRANCH  17  18
ATOM     18  C   UNL     1      20.821 -23.376  -9.240  1.00  0.00     0.000 C 
BRANCH  18  19
ATOM     19  C   UNL     1      20.724 -24.034 -10.626  1.00  0.00    -0.003 C 
ATOM     20  C   UNL     1      20.747 -25.561 -10.566  1.00  0.00     0.004 C 
ENDBRANCH  18  19
ENDBRANCH  17  18
ENDBRANCH  16  17
ENDBRANCH  15  16
ENDBRANCH  13  14
ENDBRANCH  12  13
ENDBRANCH   1  11
TORSDOF 14
ENDMDL
MODEL 9
REMARK VINA RESULT:    -5.634      2.521      5.317
REMARK INTER + INTRA:         -12.688
REMARK INTER:                 -10.295
REMARK INTRA:                  -2.393
REMARK UNBOUND:                -2.443
REMARK SMILES CCCCCC=CCC=CCCCCCCCC(=O)[O-]
REMARK SMILES IDX 11 1 12 2 13 3 14 4 15 5 16 6 17 7 18 8 19 9 20 10 10 11
REMARK SMILES IDX 9 12 8 13 7 14 6 15 5 16 4 17 3 18 2 19 1 20
REMARK H PARENT
REMARK Flexibility Score: inf
ROOT
ATOM      1  C   UNL     1      21.318 -24.202 -12.016  1.00  0.00     0.027 C 
ENDROOT
BRANCH   1   2
ATOM      2  C   UNL     1      21.225 -25.702 -11.699  1.00  0.00     0.004 C 
BRANCH   2   3
ATOM      3  C   UNL     1      20.490 -25.982 -10.380  1.00  0.00     0.000 C 
BRANCH   3   4
ATOM      4  C   UNL     1      20.819 -24.946  -9.290  1.00  0.00     0.000 C 
BRANCH   4   5
ATOM      5  C   UNL     1      21.773 -25.498  -8.219  1.00  0.00     0.000 C 
BRANCH   5   6
ATOM      6  C   UNL     1      23.253 -25.285  -8.583  1.00  0.00     0.006 C 
BRANCH   6   7
ATOM      7  C   UNL     1      24.106 -24.935  -7.356  1.00  0.00     0.053 C 
BRANCH   7   8
ATOM      8  C   UNL     1      25.321 -25.807  -7.256  1.00  0.00     0.041 C 
ATOM      9  O   UNL     1      25.841 -26.293  -8.294  1.00  0.00    -0.550 OA
ATOM     10  O   UNL     1      25.859 -26.108  -6.011  1.00  0.00    -0.550 OA
ENDBRANCH   7   8
ENDBRANCH   6   7
ENDBRANCH   5   6
ENDBRANCH   4   5
ENDBRANCH   3   4
ENDBRANCH   2   3
ENDBRANCH   1   2
BRANCH   1  11
ATOM     11  C   UNL     1      22.701 -23.677 -11.744  1.00  0.00    -0.031 C 
ATOM     12  C   UNL     1      23.072 -22.447 -12.129  1.00  0.00    -0.027 C 
BRANCH  12  13
ATOM     13  C   UNL     1      24.456 -21.923 -11.865  1.00  0.00     0.054 C 
BRANCH  13  14
ATOM     14  C   UNL     1      25.116 -22.667 -10.732  1.00  0.00    -0.027 C 
ATOM     15  C   UNL     1      25.061 -22.295  -9.439  1.00  0.00    -0.031 C 
BRANCH  15  16
ATOM     16  C   UNL     1      24.272 -21.118  -8.919  1.00  0.00     0.027 C 
BRANCH  16  17
ATOM     17  C   UNL     1      22.990 -21.563  -8.195  1.00  0.00     0.004 C 
BRANCH  17  18
ATOM     18  C   UNL     1      21.704 -21.251  -8.992  1.00  0.00     0.000 C 
BRANCH  18  19
ATOM     19  C   UNL     1      20.414 -21.451  -8.178  1.00  0.00    -0.003 C 
ATOM     20  C   UNL     1      19.948 -20.176  -7.477  1.00  0.00     0.004 C 
ENDBRANCH  18  19
ENDBRANCH  17  18
ENDBRANCH  16  17
ENDBRANCH  15  16
ENDBRANCH  13  14
ENDBRANCH  12  13
ENDBRANCH   1  11
TORSDOF 14
ENDMDL
