MODEL 1
REMARK VINA RESULT:    -3.706      0.000      0.000
REMARK INTER + INTRA:          -5.282
REMARK INTER:                  -5.005
REMARK INTRA:                  -0.277
REMARK UNBOUND:                -0.277
REMARK SMILES CCCCCCC=CC(=O)[O-]
REMARK SMILES IDX 5 1 6 2 7 3 8 4 9 5 10 6 11 7 4 8 3 9 2 10 1 11
REMARK H PARENT
REMARK Flexibility Score: inf
ROOT
ATOM      1  C   UNL     1      56.940  28.107  50.410  1.00  0.00     0.004 C 
ENDROOT
BRANCH   1   2
ATOM      2  C   UNL     1      55.544  28.745  50.473  1.00  0.00     0.027 C 
BRANCH   2   3
ATOM      3  C   UNL     1      54.475  27.777  50.049  1.00  0.00    -0.025 C 
ATOM      4  C   UNL     1      54.771  26.538  49.645  1.00  0.00     0.020 C 
BRANCH   4   5
ATOM      5  C   UNL     1      53.733  25.595  49.200  1.00  0.00     0.064 C 
ATOM      6  O   UNL     1      52.935  25.934  48.289  1.00  0.00    -0.545 OA
ATOM      7  O   UNL     1      53.620  24.332  49.771  1.00  0.00    -0.545 OA
ENDBRANCH   4   5
ENDBRANCH   2   3
ENDBRANCH   1   2
BRANCH   1   8
ATOM      8  C   UNL     1      58.052  29.162  50.288  1.00  0.00     0.000 C 
BRANCH   8   9
ATOM      9  C   UNL     1      58.985  28.902  49.095  1.00  0.00    -0.000 C 
BRANCH   9  10
ATOM     10  C   UNL     1      59.697  27.544  49.185  1.00  0.00    -0.003 C 
ATOM     11  C   UNL     1      61.171  27.719  49.539  1.00  0.00     0.004 C 
ENDBRANCH   9  10
ENDBRANCH   8   9
ENDBRANCH   1   8
TORSDOF 6
ENDMDL
MODEL 2
REMARK VINA RESULT:    -3.649      3.287      5.542
REMARK INTER + INTRA:          -5.206
REMARK INTER:                  -4.844
REMARK INTRA:                  -0.363
REMARK UNBOUND:                -0.277
REMARK SMILES CCCCCCC=CC(=O)[O-]
REMARK SMILES IDX 5 1 6 2 7 3 8 4 9 5 10 6 11 7 4 8 3 9 2 10 1 11
REMARK H PARENT
REMARK Flexibility Score: inf
ROOT
ATOM      1  C   UNL     1      55.480  28.397  51.052  1.00  0.00     0.004 C 
ENDROOT
BRANCH   1   2
ATOM      2  C   UNL     1      56.759  29.056  50.516  1.00  0.00     0.027 C 
BRANCH   2   3
ATOM      3  C   UNL     1      57.813  28.034  50.195  1.00  0.00    -0.025 C 
ATOM      4  C   UNL     1      59.017  28.388  49.736  1.00  0.00     0.020 C 
BRANCH   4   5
ATOM      5  C   UNL     1      60.044  27.393  49.391  1.00  0.00     0.064 C 
ATOM      6  O   UNL     1      59.723  26.181  49.288  1.00  0.00    -0.545 OA
ATOM      7  O   UNL     1      61.364  27.771  49.178  1.00  0.00    -0.545 OA
ENDBRANCH   4   5
ENDBRANCH   2   3
ENDBRANCH   1   2
BRANCH   1   8
ATOM      8  C   UNL     1      54.247  28.751  50.203  1.00  0.00     0.000 C 
BRANCH   8   9
ATOM      9  C   UNL     1      53.536  27.508  49.646  1.00  0.00    -0.000 C 
BRANCH   9  10
ATOM     10  C   UNL     1      54.480  26.307  49.488  1.00  0.00    -0.003 C 
ATOM     11  C   UNL     1      53.703  24.993  49.499  1.00  0.00     0.004 C 
ENDBRANCH   9  10
ENDBRANCH   8   9
ENDBRANCH   1   8
TORSDOF 6
ENDMDL
MODEL 3
REMARK VINA RESULT:    -3.593     13.515     14.526
REMARK INTER + INTRA:          -5.130
REMARK INTER:                  -4.800
REMARK INTRA:                  -0.330
REMARK UNBOUND:                -0.277
REMARK SMILES CCCCCCC=CC(=O)[O-]
REMARK SMILES IDX 5 1 6 2 7 3 8 4 9 5 10 6 11 7 4 8 3 9 2 10 1 11
REMARK H PARENT
REMARK Flexibility Score: inf
ROOT
ATOM      1  C   UNL     1      62.250  33.984  59.962  1.00  0.00     0.004 C 
ENDROOT
BRANCH   1   2
ATOM      2  C   UNL     1      61.461  32.801  60.541  1.00  0.00     0.027 C 
BRANCH   2   3
ATOM      3  C   UNL     1      62.332  31.587  60.710  1.00  0.00    -0.025 C 
ATOM      4  C   UNL     1      61.893  30.490  61.333  1.00  0.00     0.020 C 
BRANCH   4   5
ATOM      5  C   UNL     1      62.749  29.310  61.529  1.00  0.00     0.064 C 
ATOM      6  O   UNL     1      62.221  28.198  61.793  1.00  0.00    -0.545 OA
ATOM      7  O   UNL     1      64.131  29.402  61.427  1.00  0.00    -0.545 OA
ENDBRANCH   4   5
ENDBRANCH   2   3
ENDBRANCH   1   2
BRANCH   1   8
ATOM      8  C   UNL     1      61.826  35.323  60.589  1.00  0.00     0.000 C 
BRANCH   8   9
ATOM      9  C   UNL     1      63.001  36.071  61.237  1.00  0.00    -0.000 C 
BRANCH   9  10
ATOM     10  C   UNL     1      64.227  35.173  61.454  1.00  0.00    -0.003 C 
ATOM     11  C   UNL     1      65.523  35.970  61.326  1.00  0.00     0.004 C 
ENDBRANCH   9  10
ENDBRANCH   8   9
ENDBRANCH   1   8
TORSDOF 6
ENDMDL
MODEL 4
REMARK VINA RESULT:    -3.579      3.287      5.497
REMARK INTER + INTRA:          -5.111
REMARK INTER:                  -4.765
REMARK INTRA:                  -0.346
REMARK UNBOUND:                -0.277
REMARK SMILES CCCCCCC=CC(=O)[O-]
REMARK SMILES IDX 5 1 6 2 7 3 8 4 9 5 10 6 11 7 4 8 3 9 2 10 1 11
REMARK H PARENT
REMARK Flexibility Score: inf
ROOT
ATOM      1  C   UNL     1      56.633  28.074  50.475  1.00  0.00     0.004 C 
ENDROOT
BRANCH   1   2
ATOM      2  C   UNL     1      57.765  29.006  50.020  1.00  0.00     0.027 C 
BRANCH   2   3
ATOM      3  C   UNL     1      59.054  28.256  49.828  1.00  0.00    -0.025 C 
ATOM      4  C   UNL     1      59.104  26.922  49.875  1.00  0.00     0.020 C 
BRANCH   4   5
ATOM      5  C   UNL     1      60.366  26.183  49.718  1.00  0.00     0.064 C 
ATOM      6  O   UNL     1      61.430  26.814  49.488  1.00  0.00    -0.545 OA
ATOM      7  O   UNL     1      60.402  24.797  49.821  1.00  0.00    -0.545 OA
ENDBRANCH   4   5
ENDBRANCH   2   3
ENDBRANCH   1   2
BRANCH   1   8
ATOM      8  C   UNL     1      55.258  28.760  50.413  1.00  0.00     0.000 C 
BRANCH   8   9
ATOM      9  C   UNL     1      54.137  27.800  49.988  1.00  0.00    -0.000 C 
BRANCH   9  10
ATOM     10  C   UNL     1      54.642  26.371  49.743  1.00  0.00    -0.003 C 
ATOM     11  C   UNL     1      53.688  25.600  48.833  1.00  0.00     0.004 C 
ENDBRANCH   9  10
ENDBRANCH   8   9
ENDBRANCH   1   8
TORSDOF 6
ENDMDL
MODEL 5
REMARK VINA RESULT:    -3.556     13.183     14.144
REMARK INTER + INTRA:          -5.080
REMARK INTER:                  -4.790
REMARK INTRA:                  -0.290
REMARK UNBOUND:                -0.277
REMARK SMILES CCCCCCC=CC(=O)[O-]
REMARK SMILES IDX 5 1 6 2 7 3 8 4 9 5 10 6 11 7 4 8 3 9 2 10 1 11
REMARK H PARENT
REMARK Flexibility Score: inf
ROOT
ATOM      1  C   UNL     1      61.116  31.759  60.474  1.00  0.00     0.004 C 
ENDROOT
BRANCH   1   2
ATOM      2  C   UNL     1      61.091  30.760  61.640  1.00  0.00     0.027 C 
BRANCH   2   3
ATOM      3  C   UNL     1      62.383  29.999  61.743  1.00  0.00    -0.025 C 
ATOM      4  C   UNL     1      62.711  29.051  60.860  1.00  0.00     0.020 C 
BRANCH   4   5
ATOM      5  C   UNL     1      63.960  28.281  60.971  1.00  0.00     0.064 C 
ATOM      6  O   UNL     1      65.062  28.887  61.000  1.00  0.00    -0.545 OA
ATOM      7  O   UNL     1      63.941  26.893  61.044  1.00  0.00    -0.545 OA
ENDBRANCH   4   5
ENDBRANCH   2   3
ENDBRANCH   1   2
BRANCH   1   8
ATOM      8  C   UNL     1      62.275  32.762  60.596  1.00  0.00     0.000 C 
BRANCH   8   9
ATOM      9  C   UNL     1      61.821  34.217  60.402  1.00  0.00    -0.000 C 
BRANCH   9  10
ATOM     10  C   UNL     1      62.839  35.232  60.943  1.00  0.00    -0.003 C 
ATOM     11  C   UNL     1      64.170  34.557  61.265  1.00  0.00     0.004 C 
ENDBRANCH   9  10
ENDBRANCH   8   9
ENDBRANCH   1   8
TORSDOF 6
ENDMDL
MODEL 6
REMARK VINA RESULT:    -3.529      3.353      5.542
REMARK INTER + INTRA:          -5.043
REMARK INTER:                  -4.628
REMARK INTRA:                  -0.415
REMARK UNBOUND:                -0.277
REMARK SMILES CCCCCCC=CC(=O)[O-]
REMARK SMILES IDX 5 1 6 2 7 3 8 4 9 5 10 6 11 7 4 8 3 9 2 10 1 11
REMARK H PARENT
REMARK Flexibility Score: inf
ROOT
ATOM      1  C   UNL     1      58.186  29.206  50.108  1.00  0.00     0.004 C 
ENDROOT
BRANCH   1   2
ATOM      2  C   UNL     1      59.197  28.612  49.117  1.00  0.00     0.027 C 
BRANCH   2   3
ATOM      3  C   UNL     1      59.488  27.169  49.423  1.00  0.00    -0.025 C 
ATOM      4  C   UNL     1      60.716  26.753  49.744  1.00  0.00     0.020 C 
BRANCH   4   5
ATOM      5  C   UNL     1      61.015  25.339  50.015  1.00  0.00     0.064 C 
ATOM      6  O   UNL     1      62.213  24.962  50.096  1.00  0.00    -0.545 OA
ATOM      7  O   UNL     1      59.995  24.411  50.185  1.00  0.00    -0.545 OA
ENDBRANCH   4   5
ENDBRANCH   2   3
ENDBRANCH   1   2
BRANCH   1   8
ATOM      8  C   UNL     1      57.169  28.160  50.593  1.00  0.00     0.000 C 
BRANCH   8   9
ATOM      9  C   UNL     1      55.715  28.629  50.430  1.00  0.00    -0.000 C 
BRANCH   9  10
ATOM     10  C   UNL     1      54.764  27.487  50.043  1.00  0.00    -0.003 C 
ATOM     11  C   UNL     1      55.534  26.194  49.788  1.00  0.00     0.004 C 
ENDBRANCH   9  10
ENDBRANCH   8   9
ENDBRANCH   1   8
TORSDOF 6
ENDMDL
MODEL 7
REMARK VINA RESULT:    -3.498     13.864     15.260
REMARK INTER + INTRA:          -5.002
REMARK INTER:                  -4.423
REMARK INTRA:                  -0.579
REMARK UNBOUND:                -0.277
REMARK SMILES CCCCCCC=CC(=O)[O-]
REMARK SMILES IDX 5 1 6 2 7 3 8 4 9 5 10 6 11 7 4 8 3 9 2 10 1 11
REMARK H PARENT
REMARK Flexibility Score: inf
ROOT
ATOM      1  C   UNL     1      63.245  32.499  59.430  1.00  0.00     0.004 C 
ENDROOT
BRANCH   1   2
ATOM      2  C   UNL     1      64.101  32.756  60.678  1.00  0.00     0.027 C 
BRANCH   2   3
ATOM      3  C   UNL     1      64.056  34.201  61.090  1.00  0.00    -0.025 C 
ATOM      4  C   UNL     1      62.961  34.947  60.917  1.00  0.00     0.020 C 
BRANCH   4   5
ATOM      5  C   UNL     1      62.920  36.369  61.290  1.00  0.00     0.064 C 
ATOM      6  O   UNL     1      63.947  36.915  61.769  1.00  0.00    -0.545 OA
ATOM      7  O   UNL     1      61.763  37.121  61.120  1.00  0.00    -0.545 OA
ENDBRANCH   4   5
ENDBRANCH   2   3
ENDBRANCH   1   2
BRANCH   1   8
ATOM      8  C   UNL     1      62.273  31.324  59.627  1.00  0.00     0.000 C 
BRANCH   8   9
ATOM      9  C   UNL     1      61.058  31.700  60.490  1.00  0.00    -0.000 C 
BRANCH   9  10
ATOM     10  C   UNL     1      60.964  30.866  61.775  1.00  0.00    -0.003 C 
ATOM     11  C   UNL     1      62.070  29.815  61.830  1.00  0.00     0.004 C 
ENDBRANCH   9  10
ENDBRANCH   8   9
ENDBRANCH   1   8
TORSDOF 6
ENDMDL
MODEL 8
REMARK VINA RESULT:    -3.467      1.585      2.301
REMARK INTER + INTRA:          -4.960
REMARK INTER:                  -4.329
REMARK INTRA:                  -0.631
REMARK UNBOUND:                -0.277
REMARK SMILES CCCCCCC=CC(=O)[O-]
REMARK SMILES IDX 5 1 6 2 7 3 8 4 9 5 10 6 11 7 4 8 3 9 2 10 1 11
REMARK H PARENT
REMARK Flexibility Score: inf
ROOT
ATOM      1  C   UNL     1      58.678  29.062  49.479  1.00  0.00     0.004 C 
ENDROOT
BRANCH   1   2
ATOM      2  C   UNL     1      57.794  28.947  50.728  1.00  0.00     0.027 C 
BRANCH   2   3
ATOM      3  C   UNL     1      56.385  28.560  50.374  1.00  0.00    -0.025 C 
ATOM      4  C   UNL     1      56.036  27.284  50.179  1.00  0.00     0.020 C 
BRANCH   4   5
ATOM      5  C   UNL     1      54.668  26.899  49.803  1.00  0.00     0.064 C 
ATOM      6  O   UNL     1      53.795  27.791  49.636  1.00  0.00    -0.545 OA
ATOM      7  O   UNL     1      54.321  25.565  49.627  1.00  0.00    -0.545 OA
ENDBRANCH   4   5
ENDBRANCH   2   3
ENDBRANCH   1   2
BRANCH   1   8
ATOM      8  C   UNL     1      59.930  28.174  49.573  1.00  0.00     0.000 C 
BRANCH   8   9
ATOM      9  C   UNL     1      59.625  26.692  49.309  1.00  0.00    -0.000 C 
BRANCH   9  10
ATOM     10  C   UNL     1      59.985  25.792  50.500  1.00  0.00    -0.003 C 
ATOM     11  C   UNL     1      58.775  24.984  50.963  1.00  0.00     0.004 C 
ENDBRANCH   9  10
ENDBRANCH   8   9
ENDBRANCH   1   8
TORSDOF 6
ENDMDL
MODEL 9
REMARK VINA RESULT:    -3.414     13.527     14.641
REMARK INTER + INTRA:          -4.888
REMARK INTER:                  -4.292
REMARK INTRA:                  -0.596
REMARK UNBOUND:                -0.277
REMARK SMILES CCCCCCC=CC(=O)[O-]
REMARK SMILES IDX 5 1 6 2 7 3 8 4 9 5 10 6 11 7 4 8 3 9 2 10 1 11
REMARK H PARENT
REMARK Flexibility Score: inf
ROOT
ATOM      1  C   UNL     1      60.732  30.854  60.651  1.00  0.00     0.004 C 
ENDROOT
BRANCH   1   2
ATOM      2  C   UNL     1      61.203  32.053  59.816  1.00  0.00     0.027 C 
BRANCH   2   3
ATOM      3  C   UNL     1      61.786  33.134  60.682  1.00  0.00    -0.025 C 
ATOM      4  C   UNL     1      62.699  33.991  60.216  1.00  0.00     0.020 C 
BRANCH   4   5
ATOM      5  C   UNL     1      63.297  35.033  61.065  1.00  0.00     0.064 C 
ATOM      6  O   UNL     1      62.655  36.091  61.294  1.00  0.00    -0.545 OA
ATOM      7  O   UNL     1      64.560  34.867  61.620  1.00  0.00    -0.545 OA
ENDBRANCH   4   5
ENDBRANCH   2   3
ENDBRANCH   1   2
BRANCH   1   8
ATOM      8  C   UNL     1      61.794  30.406  61.670  1.00  0.00     0.000 C 
BRANCH   8   9
ATOM      9  C   UNL     1      62.625  29.213  61.172  1.00  0.00    -0.000 C 
BRANCH   9  10
ATOM     10  C   UNL     1      64.136  29.443  61.316  1.00  0.00    -0.003 C 
ATOM     11  C   UNL     1      64.577  30.690  60.554  1.00  0.00     0.004 C 
ENDBRANCH   9  10
ENDBRANCH   8   9
ENDBRANCH   1   8
TORSDOF 6
ENDMDL
