MODEL 1
REMARK VINA RESULT:    -3.075      0.000      0.000
REMARK INTER + INTRA:          -3.271
REMARK INTER:                  -3.255
REMARK INTRA:                  -0.016
REMARK UNBOUND:                -0.016
REMARK SMILES O=C([O-])c1cccnc1
REMARK SMILES IDX 4 1 5 2 9 3 6 4 8 5 7 6 2 7 1 8 3 9
REMARK H PARENT
REMARK Flexibility Score: inf
ROOT
ATOM      1  C   UNL     1      72.504  31.195  60.304  1.00  0.00     0.016 A 
ATOM      2  C   UNL     1      73.835  30.756  60.378  1.00  0.00     0.013 A 
ATOM      3  C   UNL     1      71.481  30.282  60.616  1.00  0.00     0.120 A 
ATOM      4  C   UNL     1      74.121  29.441  60.754  1.00  0.00     0.021 A 
ATOM      5  N   UNL     1      71.785  29.007  60.979  1.00  0.00    -0.264 NA
ATOM      6  C   UNL     1      73.071  28.573  61.054  1.00  0.00     0.111 A 
ENDROOT
BRANCH   1   7
ATOM      7  C   UNL     1      72.190  32.584  59.907  1.00  0.00     0.073 C 
ATOM      8  O   UNL     1      72.059  33.485  60.778  1.00  0.00    -0.545 OA
ATOM      9  O   UNL     1      72.035  32.916  58.566  1.00  0.00    -0.545 OA
ENDBRANCH   1   7
TORSDOF 1
ENDMDL
MODEL 2
REMARK VINA RESULT:    -3.060      0.920      1.604
REMARK INTER + INTRA:          -3.255
REMARK INTER:                  -3.239
REMARK INTRA:                  -0.016
REMARK UNBOUND:                -0.016
REMARK SMILES O=C([O-])c1cccnc1
REMARK SMILES IDX 4 1 5 2 9 3 6 4 8 5 7 6 2 7 1 8 3 9
REMARK H PARENT
REMARK Flexibility Score: inf
ROOT
ATOM      1  C   UNL     1      72.501  31.295  60.357  1.00  0.00     0.016 A 
ATOM      2  C   UNL     1      71.476  30.372  60.618  1.00  0.00     0.013 A 
ATOM      3  C   UNL     1      73.834  30.871  60.497  1.00  0.00     0.120 A 
ATOM      4  C   UNL     1      71.789  29.068  61.008  1.00  0.00     0.021 A 
ATOM      5  N   UNL     1      74.113  29.595  60.878  1.00  0.00    -0.264 NA
ATOM      6  C   UNL     1      73.128  28.694  61.134  1.00  0.00     0.111 A 
ENDROOT
BRANCH   1   7
ATOM      7  C   UNL     1      72.181  32.678  59.944  1.00  0.00     0.073 C 
ATOM      8  O   UNL     1      71.964  33.570  60.806  1.00  0.00    -0.545 OA
ATOM      9  O   UNL     1      72.117  33.013  58.595  1.00  0.00    -0.545 OA
ENDBRANCH   1   7
TORSDOF 1
ENDMDL
MODEL 3
REMARK VINA RESULT:    -3.022      2.494      3.495
REMARK INTER + INTRA:          -3.214
REMARK INTER:                  -3.190
REMARK INTRA:                  -0.024
REMARK UNBOUND:                -0.016
REMARK SMILES O=C([O-])c1cccnc1
REMARK SMILES IDX 4 1 5 2 9 3 6 4 8 5 7 6 2 7 1 8 3 9
REMARK H PARENT
REMARK Flexibility Score: inf
ROOT
ATOM      1  C   UNL     1      72.629  30.882  60.548  1.00  0.00     0.016 A 
ATOM      2  C   UNL     1      72.639  32.286  60.571  1.00  0.00     0.013 A 
ATOM      3  C   UNL     1      71.858  30.236  59.566  1.00  0.00     0.120 A 
ATOM      4  C   UNL     1      71.897  33.008  59.634  1.00  0.00     0.021 A 
ATOM      5  N   UNL     1      71.144  30.962  58.664  1.00  0.00    -0.264 NA
ATOM      6  C   UNL     1      71.148  32.321  58.679  1.00  0.00     0.111 A 
ENDROOT
BRANCH   1   7
ATOM      7  C   UNL     1      73.411  30.107  61.535  1.00  0.00     0.073 C 
ATOM      8  O   UNL     1      74.036  30.692  62.459  1.00  0.00    -0.545 OA
ATOM      9  O   UNL     1      73.466  28.719  61.456  1.00  0.00    -0.545 OA
ENDBRANCH   1   7
TORSDOF 1
ENDMDL
MODEL 4
REMARK VINA RESULT:    -2.959     21.657     22.379
REMARK INTER + INTRA:          -3.148
REMARK INTER:                  -3.124
REMARK INTRA:                  -0.024
REMARK UNBOUND:                -0.016
REMARK SMILES O=C([O-])c1cccnc1
REMARK SMILES IDX 4 1 5 2 9 3 6 4 8 5 7 6 2 7 1 8 3 9
REMARK H PARENT
REMARK Flexibility Score: inf
ROOT
ATOM      1  C   UNL     1      58.014  17.245  50.595  1.00  0.00     0.016 A 
ATOM      2  C   UNL     1      58.410  17.242  51.942  1.00  0.00     0.013 A 
ATOM      3  C   UNL     1      56.853  17.954  50.242  1.00  0.00     0.120 A 
ATOM      4  C   UNL     1      57.657  17.930  52.896  1.00  0.00     0.021 A 
ATOM      5  N   UNL     1      56.137  18.617  51.190  1.00  0.00    -0.264 NA
ATOM      6  C   UNL     1      56.511  18.619  52.496  1.00  0.00     0.111 A 
ENDROOT
BRANCH   1   7
ATOM      7  C   UNL     1      58.804  16.520  49.576  1.00  0.00     0.073 C 
ATOM      8  O   UNL     1      59.931  16.036  49.864  1.00  0.00    -0.545 OA
ATOM      9  O   UNL     1      58.312  16.362  48.285  1.00  0.00    -0.545 OA
ENDBRANCH   1   7
TORSDOF 1
ENDMDL
MODEL 5
REMARK VINA RESULT:    -2.932      2.745      3.775
REMARK INTER + INTRA:          -3.119
REMARK INTER:                  -3.095
REMARK INTRA:                  -0.024
REMARK UNBOUND:                -0.016
REMARK SMILES O=C([O-])c1cccnc1
REMARK SMILES IDX 4 1 5 2 9 3 6 4 8 5 7 6 2 7 1 8 3 9
REMARK H PARENT
REMARK Flexibility Score: inf
ROOT
ATOM      1  C   UNL     1      72.614  30.856  60.594  1.00  0.00     0.016 A 
ATOM      2  C   UNL     1      71.796  30.250  59.628  1.00  0.00     0.013 A 
ATOM      3  C   UNL     1      72.699  32.260  60.612  1.00  0.00     0.120 A 
ATOM      4  C   UNL     1      71.090  31.035  58.713  1.00  0.00     0.021 A 
ATOM      5  N   UNL     1      72.002  33.002  59.710  1.00  0.00    -0.264 NA
ATOM      6  C   UNL     1      71.207  32.424  58.771  1.00  0.00     0.111 A 
ENDROOT
BRANCH   1   7
ATOM      7  C   UNL     1      73.366  30.035  61.567  1.00  0.00     0.073 C 
ATOM      8  O   UNL     1      73.383  28.780  61.468  1.00  0.00    -0.545 OA
ATOM      9  O   UNL     1      74.065  30.639  62.606  1.00  0.00    -0.545 OA
ENDBRANCH   1   7
TORSDOF 1
ENDMDL
MODEL 6
REMARK VINA RESULT:    -2.906     21.560     22.179
REMARK INTER + INTRA:          -3.092
REMARK INTER:                  -3.070
REMARK INTRA:                  -0.022
REMARK UNBOUND:                -0.016
REMARK SMILES O=C([O-])c1cccnc1
REMARK SMILES IDX 4 1 5 2 9 3 6 4 8 5 7 6 2 7 1 8 3 9
REMARK H PARENT
REMARK Flexibility Score: inf
ROOT
ATOM      1  C   UNL     1      57.762  17.549  50.802  1.00  0.00     0.016 A 
ATOM      2  C   UNL     1      58.534  17.114  51.891  1.00  0.00     0.013 A 
ATOM      3  C   UNL     1      58.123  17.119  49.513  1.00  0.00     0.120 A 
ATOM      4  C   UNL     1      59.630  16.275  51.684  1.00  0.00     0.021 A 
ATOM      5  N   UNL     1      59.196  16.302  49.338  1.00  0.00    -0.264 NA
ATOM      6  C   UNL     1      59.949  15.875  50.385  1.00  0.00     0.111 A 
ENDROOT
BRANCH   1   7
ATOM      7  C   UNL     1      56.599  18.438  51.011  1.00  0.00     0.073 C 
ATOM      8  O   UNL     1      55.656  18.466  50.176  1.00  0.00    -0.545 OA
ATOM      9  O   UNL     1      56.530  19.256  52.133  1.00  0.00    -0.545 OA
ENDBRANCH   1   7
TORSDOF 1
ENDMDL
MODEL 7
REMARK VINA RESULT:    -2.892      7.485      8.550
REMARK INTER + INTRA:          -3.077
REMARK INTER:                  -3.054
REMARK INTRA:                  -0.023
REMARK UNBOUND:                -0.016
REMARK SMILES O=C([O-])c1cccnc1
REMARK SMILES IDX 4 1 5 2 9 3 6 4 8 5 7 6 2 7 1 8 3 9
REMARK H PARENT
REMARK Flexibility Score: inf
ROOT
ATOM      1  C   UNL     1      64.762  29.096  60.888  1.00  0.00     0.016 A 
ATOM      2  C   UNL     1      63.453  29.234  61.378  1.00  0.00     0.013 A 
ATOM      3  C   UNL     1      65.259  27.799  60.667  1.00  0.00     0.120 A 
ATOM      4  C   UNL     1      62.677  28.102  61.635  1.00  0.00     0.021 A 
ATOM      5  N   UNL     1      64.482  26.713  60.926  1.00  0.00    -0.264 NA
ATOM      6  C   UNL     1      63.215  26.837  61.400  1.00  0.00     0.111 A 
ENDROOT
BRANCH   1   7
ATOM      7  C   UNL     1      65.593  30.288  60.612  1.00  0.00     0.073 C 
ATOM      8  O   UNL     1      66.666  30.183  59.961  1.00  0.00    -0.545 OA
ATOM      9  O   UNL     1      65.200  31.541  61.070  1.00  0.00    -0.545 OA
ENDBRANCH   1   7
TORSDOF 1
ENDMDL
MODEL 8
REMARK VINA RESULT:    -2.794      9.156     10.180
REMARK INTER + INTRA:          -2.973
REMARK INTER:                  -2.956
REMARK INTRA:                  -0.017
REMARK UNBOUND:                -0.016
REMARK SMILES O=C([O-])c1cccnc1
REMARK SMILES IDX 4 1 5 2 9 3 6 4 8 5 7 6 2 7 1 8 3 9
REMARK H PARENT
REMARK Flexibility Score: inf
ROOT
ATOM      1  C   UNL     1      63.289  27.646  61.383  1.00  0.00     0.016 A 
ATOM      2  C   UNL     1      63.289  29.035  61.584  1.00  0.00     0.013 A 
ATOM      3  C   UNL     1      64.463  27.041  60.901  1.00  0.00     0.120 A 
ATOM      4  C   UNL     1      64.434  29.785  61.308  1.00  0.00     0.021 A 
ATOM      5  N   UNL     1      65.566  27.793  60.640  1.00  0.00    -0.264 NA
ATOM      6  C   UNL     1      65.575  29.138  60.831  1.00  0.00     0.111 A 
ENDROOT
BRANCH   1   7
ATOM      7  C   UNL     1      62.082  26.842  61.673  1.00  0.00     0.073 C 
ATOM      8  O   UNL     1      61.054  26.947  60.952  1.00  0.00    -0.545 OA
ATOM      9  O   UNL     1      62.065  25.958  62.746  1.00  0.00    -0.545 OA
ENDBRANCH   1   7
TORSDOF 1
ENDMDL
MODEL 9
REMARK VINA RESULT:    -2.773     16.083     16.882
REMARK INTER + INTRA:          -2.951
REMARK INTER:                  -2.931
REMARK INTRA:                  -0.020
REMARK UNBOUND:                -0.016
REMARK SMILES O=C([O-])c1cccnc1
REMARK SMILES IDX 4 1 5 2 9 3 6 4 8 5 7 6 2 7 1 8 3 9
REMARK H PARENT
REMARK Flexibility Score: inf
ROOT
ATOM      1  C   UNL     1      60.872  25.133  50.044  1.00  0.00     0.016 A 
ATOM      2  C   UNL     1      60.311  26.357  49.646  1.00  0.00     0.013 A 
ATOM      3  C   UNL     1      62.272  25.035  50.124  1.00  0.00     0.120 A 
ATOM      4  C   UNL     1      61.136  27.440  49.338  1.00  0.00     0.021 A 
ATOM      5  N   UNL     1      63.054  26.105  49.819  1.00  0.00    -0.264 NA
ATOM      6  C   UNL     1      62.521  27.293  49.431  1.00  0.00     0.111 A 
ENDROOT
BRANCH   1   7
ATOM      7  C   UNL     1      60.007  23.979  50.373  1.00  0.00     0.073 C 
ATOM      8  O   UNL     1      60.346  22.811  50.044  1.00  0.00    -0.545 OA
ATOM      9  O   UNL     1      58.807  24.169  51.049  1.00  0.00    -0.545 OA
ENDBRANCH   1   7
TORSDOF 1
ENDMDL
