MODEL 1
REMARK VINA RESULT:    -6.490      0.000      0.000
REMARK INTER + INTRA:          -7.886
REMARK INTER:                  -7.628
REMARK INTRA:                  -0.258
REMARK UNBOUND:                -0.258
REMARK SMILES O=c1c(O)c(-c2ccc(O)cc2)oc2cc(O)cc(O)c12
REMARK SMILES IDX 5 1 3 2 2 3 1 4 21 5 19 6 18 7 16 8 15 9 14 10 13 11 6 12
REMARK SMILES IDX 7 13 8 14 9 15 12 16 11 17 10 18 4 20 20 22 17 24
REMARK H PARENT 10 19 4 21 20 23 17 25
REMARK Flexibility Score: inf
ROOT
ATOM      1  C   UNL     1      -1.932 -16.909  12.231  1.00  0.00     0.180 A 
ATOM      2  C   UNL     1      -2.776 -17.808  11.550  1.00  0.00     0.208 A 
ATOM      3  C   UNL     1      -3.452 -17.366  10.402  1.00  0.00     0.238 A 
ATOM      4  O   UNL     1      -4.220 -18.158   9.790  1.00  0.00    -0.285 OA
ATOM      5  C   UNL     1      -3.259 -16.047   9.944  1.00  0.00     0.111 A 
ATOM      6  C   UNL     1      -3.898 -15.525   8.794  1.00  0.00     0.134 A 
ATOM      7  C   UNL     1      -3.646 -14.203   8.397  1.00  0.00     0.093 A 
ATOM      8  C   UNL     1      -2.769 -13.396   9.125  1.00  0.00     0.123 A 
ATOM      9  C   UNL     1      -2.135 -13.905  10.262  1.00  0.00     0.094 A 
ATOM     10  C   UNL     1      -2.375 -15.220  10.675  1.00  0.00     0.146 A 
ATOM     11  O   UNL     1      -1.762 -15.677  11.762  1.00  0.00    -0.452 OA
ENDROOT
BRANCH   1  12
ATOM     12  C   UNL     1      -1.201 -17.294  13.460  1.00  0.00     0.021 A 
ATOM     13  C   UNL     1      -0.006 -18.026  13.352  1.00  0.00     0.016 A 
ATOM     14  C   UNL     1       0.712 -18.381  14.498  1.00  0.00     0.047 A 
ATOM     15  C   UNL     1       0.254 -17.996  15.763  1.00  0.00     0.115 A 
ATOM     16  C   UNL     1      -1.645 -16.894  14.734  1.00  0.00     0.016 A 
ATOM     17  C   UNL     1      -0.924 -17.250  15.877  1.00  0.00     0.047 A 
BRANCH  15  18
ATOM     18  O   UNL     1       0.961 -18.345  16.912  1.00  0.00    -0.508 OA
ATOM     19  H   UNL     1       1.490 -17.658  17.438  1.00  0.00     0.293 HD
ENDBRANCH  15  18
ENDBRANCH   1  12
BRANCH   2  20
ATOM     20  O   UNL     1      -2.914 -19.125  11.997  1.00  0.00    -0.502 OA
ATOM     21  H   UNL     1      -2.118 -19.700  12.247  1.00  0.00     0.293 HD
ENDBRANCH   2  20
BRANCH   6  22
ATOM     22  O   UNL     1      -4.779 -16.307   8.045  1.00  0.00    -0.507 OA
ATOM     23  H   UNL     1      -5.266 -15.936   7.237  1.00  0.00     0.293 HD
ENDBRANCH   6  22
BRANCH   8  24
ATOM     24  O   UNL     1      -2.535 -12.087   8.708  1.00  0.00    -0.508 OA
ATOM     25  H   UNL     1      -2.859 -11.751   7.810  1.00  0.00     0.293 HD
ENDBRANCH   8  24
TORSDOF 5
ENDMDL
MODEL 2
REMARK VINA RESULT:    -6.378      0.076      1.059
REMARK INTER + INTRA:          -7.755
REMARK INTER:                  -7.490
REMARK INTRA:                  -0.265
REMARK UNBOUND:                -0.258
REMARK SMILES O=c1c(O)c(-c2ccc(O)cc2)oc2cc(O)cc(O)c12
REMARK SMILES IDX 5 1 3 2 2 3 1 4 21 5 19 6 18 7 16 8 15 9 14 10 13 11 6 12
REMARK SMILES IDX 7 13 8 14 9 15 12 16 11 17 10 18 4 20 20 22 17 24
REMARK H PARENT 10 19 4 21 20 23 17 25
REMARK Flexibility Score: inf
ROOT
ATOM      1  C   UNL     1      -1.893 -16.909  12.257  1.00  0.00     0.180 A 
ATOM      2  C   UNL     1      -2.759 -17.813  11.612  1.00  0.00     0.208 A 
ATOM      3  C   UNL     1      -3.470 -17.382  10.481  1.00  0.00     0.238 A 
ATOM      4  O   UNL     1      -4.257 -18.179   9.901  1.00  0.00    -0.285 OA
ATOM      5  C   UNL     1      -3.289 -16.068  10.002  1.00  0.00     0.111 A 
ATOM      6  C   UNL     1      -3.962 -15.557   8.868  1.00  0.00     0.134 A 
ATOM      7  C   UNL     1      -3.721 -14.240   8.449  1.00  0.00     0.093 A 
ATOM      8  C   UNL     1      -2.820 -13.426   9.141  1.00  0.00     0.123 A 
ATOM      9  C   UNL     1      -2.152 -13.925  10.263  1.00  0.00     0.094 A 
ATOM     10  C   UNL     1      -2.381 -15.234  10.697  1.00  0.00     0.146 A 
ATOM     11  O   UNL     1      -1.736 -15.682  11.769  1.00  0.00    -0.452 OA
ENDROOT
BRANCH   1  12
ATOM     12  C   UNL     1      -1.125 -17.282  13.466  1.00  0.00     0.021 A 
ATOM     13  C   UNL     1      -1.627 -16.947  14.735  1.00  0.00     0.016 A 
ATOM     14  C   UNL     1      -0.930 -17.310  15.891  1.00  0.00     0.047 A 
ATOM     15  C   UNL     1       0.270 -18.025  15.794  1.00  0.00     0.115 A 
ATOM     16  C   UNL     1       0.071 -18.019  13.378  1.00  0.00     0.016 A 
ATOM     17  C   UNL     1       0.765 -18.381  14.536  1.00  0.00     0.047 A 
BRANCH  15  18
ATOM     18  O   UNL     1       0.974 -18.391  16.939  1.00  0.00    -0.508 OA
ATOM     19  H   UNL     1       1.306 -17.699  17.601  1.00  0.00     0.293 HD
ENDBRANCH  15  18
ENDBRANCH   1  12
BRANCH   2  20
ATOM     20  O   UNL     1      -2.885 -19.125  12.076  1.00  0.00    -0.502 OA
ATOM     21  H   UNL     1      -2.207 -19.845  11.859  1.00  0.00     0.293 HD
ENDBRANCH   2  20
BRANCH   6  22
ATOM     22  O   UNL     1      -4.867 -16.345   8.154  1.00  0.00    -0.507 OA
ATOM     23  H   UNL     1      -5.318 -17.151   8.572  1.00  0.00     0.293 HD
ENDBRANCH   6  22
BRANCH   8  24
ATOM     24  O   UNL     1      -2.597 -12.123   8.704  1.00  0.00    -0.508 OA
ATOM     25  H   UNL     1      -3.349 -11.446   8.650  1.00  0.00     0.293 HD
ENDBRANCH   8  24
TORSDOF 5
ENDMDL
MODEL 3
REMARK VINA RESULT:    -6.183      1.415      3.159
REMARK INTER + INTRA:          -7.525
REMARK INTER:                  -7.593
REMARK INTRA:                   0.068
REMARK UNBOUND:                -0.258
REMARK SMILES O=c1c(O)c(-c2ccc(O)cc2)oc2cc(O)cc(O)c12
REMARK SMILES IDX 5 1 3 2 2 3 1 4 21 5 19 6 18 7 16 8 15 9 14 10 13 11 6 12
REMARK SMILES IDX 7 13 8 14 9 15 12 16 11 17 10 18 4 20 20 22 17 24
REMARK H PARENT 10 19 4 21 20 23 17 25
REMARK Flexibility Score: inf
ROOT
ATOM      1  C   UNL     1      -2.486 -15.746  11.613  1.00  0.00     0.180 A 
ATOM      2  C   UNL     1      -2.261 -14.396  11.280  1.00  0.00     0.208 A 
ATOM      3  C   UNL     1      -2.774 -13.902  10.070  1.00  0.00     0.238 A 
ATOM      4  O   UNL     1      -2.570 -12.698   9.755  1.00  0.00    -0.285 OA
ATOM      5  C   UNL     1      -3.516 -14.754   9.227  1.00  0.00     0.111 A 
ATOM      6  C   UNL     1      -4.070 -14.334   7.994  1.00  0.00     0.134 A 
ATOM      7  C   UNL     1      -4.805 -15.241   7.216  1.00  0.00     0.093 A 
ATOM      8  C   UNL     1      -4.997 -16.556   7.646  1.00  0.00     0.123 A 
ATOM      9  C   UNL     1      -4.451 -16.978   8.862  1.00  0.00     0.094 A 
ATOM     10  C   UNL     1      -3.714 -16.089   9.651  1.00  0.00     0.146 A 
ATOM     11  O   UNL     1      -3.203 -16.517  10.801  1.00  0.00    -0.452 OA
ENDROOT
BRANCH   1  12
ATOM     12  C   UNL     1      -1.962 -16.346  12.861  1.00  0.00     0.021 A 
ATOM     13  C   UNL     1      -1.238 -17.549  12.799  1.00  0.00     0.016 A 
ATOM     14  C   UNL     1      -0.714 -18.122  13.961  1.00  0.00     0.047 A 
ATOM     15  C   UNL     1      -0.893 -17.491  15.198  1.00  0.00     0.115 A 
ATOM     16  C   UNL     1      -2.120 -15.708  14.105  1.00  0.00     0.016 A 
ATOM     17  C   UNL     1      -1.594 -16.283  15.266  1.00  0.00     0.047 A 
BRANCH  15  18
ATOM     18  O   UNL     1      -0.377 -18.052  16.364  1.00  0.00    -0.508 OA
ATOM     19  H   UNL     1       0.466 -17.692  16.798  1.00  0.00     0.293 HD
ENDBRANCH  15  18
ENDBRANCH   1  12
BRANCH   2  20
ATOM     20  O   UNL     1      -1.564 -13.559  12.155  1.00  0.00    -0.502 OA
ATOM     21  H   UNL     1      -1.736 -13.552  13.153  1.00  0.00     0.293 HD
ENDBRANCH   2  20
BRANCH   6  22
ATOM     22  O   UNL     1      -3.897 -13.026   7.538  1.00  0.00    -0.507 OA
ATOM     23  H   UNL     1      -3.707 -12.823   6.563  1.00  0.00     0.293 HD
ENDBRANCH   6  22
BRANCH   8  24
ATOM     24  O   UNL     1      -5.731 -17.437   6.855  1.00  0.00    -0.508 OA
ATOM     25  H   UNL     1      -6.354 -18.122   7.264  1.00  0.00     0.293 HD
ENDBRANCH   8  24
TORSDOF 5
ENDMDL
MODEL 4
REMARK VINA RESULT:    -4.579      1.174      1.453
REMARK INTER + INTRA:          -5.640
REMARK INTER:                  -5.826
REMARK INTRA:                   0.186
REMARK UNBOUND:                -0.258
REMARK SMILES O=c1c(O)c(-c2ccc(O)cc2)oc2cc(O)cc(O)c12
REMARK SMILES IDX 5 1 3 2 2 3 1 4 21 5 19 6 18 7 16 8 15 9 14 10 13 11 6 12
REMARK SMILES IDX 7 13 8 14 9 15 12 16 11 17 10 18 4 20 20 22 17 24
REMARK H PARENT 10 19 4 21 20 23 17 25
REMARK Flexibility Score: inf
ROOT
ATOM      1  C   UNL     1      -2.814 -16.757  11.289  1.00  0.00     0.180 A 
ATOM      2  C   UNL     1      -3.447 -17.819  10.613  1.00  0.00     0.208 A 
ATOM      3  C   UNL     1      -4.093 -17.558   9.395  1.00  0.00     0.238 A 
ATOM      4  O   UNL     1      -4.672 -18.498   8.785  1.00  0.00    -0.285 OA
ATOM      5  C   UNL     1      -4.079 -16.252   8.864  1.00  0.00     0.111 A 
ATOM      6  C   UNL     1      -4.702 -15.906   7.641  1.00  0.00     0.134 A 
ATOM      7  C   UNL     1      -4.635 -14.585   7.175  1.00  0.00     0.093 A 
ATOM      8  C   UNL     1      -3.959 -13.604   7.906  1.00  0.00     0.123 A 
ATOM      9  C   UNL     1      -3.343 -13.940   9.116  1.00  0.00     0.094 A 
ATOM     10  C   UNL     1      -3.400 -15.251   9.597  1.00  0.00     0.146 A 
ATOM     11  O   UNL     1      -2.809 -15.541  10.751  1.00  0.00    -0.452 OA
ENDROOT
BRANCH   1  12
ATOM     12  C   UNL     1      -2.130 -16.949  12.588  1.00  0.00     0.021 A 
ATOM     13  C   UNL     1      -1.315 -18.078  12.780  1.00  0.00     0.016 A 
ATOM     14  C   UNL     1      -0.641 -18.267  13.990  1.00  0.00     0.047 A 
ATOM     15  C   UNL     1      -0.760 -17.323  15.017  1.00  0.00     0.115 A 
ATOM     16  C   UNL     1      -2.228 -15.995  13.618  1.00  0.00     0.016 A 
ATOM     17  C   UNL     1      -1.552 -16.187  14.826  1.00  0.00     0.047 A 
BRANCH  15  18
ATOM     18  O   UNL     1      -0.094 -17.502  16.228  1.00  0.00    -0.508 OA
ATOM     19  H   UNL     1       0.846 -17.153  16.371  1.00  0.00     0.293 HD
ENDBRANCH  15  18
ENDBRANCH   1  12
BRANCH   2  20
ATOM     20  O   UNL     1      -3.405 -19.114  11.136  1.00  0.00    -0.502 OA
ATOM     21  H   UNL     1      -2.920 -19.872  10.671  1.00  0.00     0.293 HD
ENDBRANCH   2  20
BRANCH   6  22
ATOM     22  O   UNL     1      -5.383 -16.862   6.887  1.00  0.00    -0.507 OA
ATOM     23  H   UNL     1      -5.179 -17.852   6.969  1.00  0.00     0.293 HD
ENDBRANCH   6  22
BRANCH   8  24
ATOM     24  O   UNL     1      -3.907 -12.300   7.421  1.00  0.00    -0.508 OA
ATOM     25  H   UNL     1      -4.425 -11.549   7.862  1.00  0.00     0.293 HD
ENDBRANCH   8  24
TORSDOF 5
ENDMDL
MODEL 5
REMARK VINA RESULT:    -3.615      2.194      2.963
REMARK INTER + INTRA:          -4.507
REMARK INTER:                  -5.070
REMARK INTRA:                   0.563
REMARK UNBOUND:                -0.258
REMARK SMILES O=c1c(O)c(-c2ccc(O)cc2)oc2cc(O)cc(O)c12
REMARK SMILES IDX 5 1 3 2 2 3 1 4 21 5 19 6 18 7 16 8 15 9 14 10 13 11 6 12
REMARK SMILES IDX 7 13 8 14 9 15 12 16 11 17 10 18 4 20 20 22 17 24
REMARK H PARENT 10 19 4 21 20 23 17 25
REMARK Flexibility Score: inf
ROOT
ATOM      1  C   UNL     1      -2.245 -17.254  12.607  1.00  0.00     0.180 A 
ATOM      2  C   UNL     1      -3.393 -16.486  12.887  1.00  0.00     0.208 A 
ATOM      3  C   UNL     1      -4.335 -16.278  11.867  1.00  0.00     0.238 A 
ATOM      4  O   UNL     1      -5.361 -15.584  12.102  1.00  0.00    -0.285 OA
ATOM      5  C   UNL     1      -4.126 -16.854  10.597  1.00  0.00     0.111 A 
ATOM      6  C   UNL     1      -5.028 -16.696   9.518  1.00  0.00     0.134 A 
ATOM      7  C   UNL     1      -4.753 -17.309   8.286  1.00  0.00     0.093 A 
ATOM      8  C   UNL     1      -3.598 -18.076   8.114  1.00  0.00     0.123 A 
ATOM      9  C   UNL     1      -2.703 -18.234   9.176  1.00  0.00     0.094 A 
ATOM     10  C   UNL     1      -2.958 -17.630  10.411  1.00  0.00     0.146 A 
ATOM     11  O   UNL     1      -2.089 -17.794  11.402  1.00  0.00    -0.452 OA
ENDROOT
BRANCH   1  12
ATOM     12  C   UNL     1      -1.198 -17.501  13.624  1.00  0.00     0.021 A 
ATOM     13  C   UNL     1      -1.410 -17.086  14.950  1.00  0.00     0.016 A 
ATOM     14  C   UNL     1      -0.445 -17.329  15.931  1.00  0.00     0.047 A 
ATOM     15  C   UNL     1       0.738 -18.004  15.603  1.00  0.00     0.115 A 
ATOM     16  C   UNL     1      -0.016 -18.196  13.306  1.00  0.00     0.016 A 
ATOM     17  C   UNL     1       0.947 -18.438  14.290  1.00  0.00     0.047 A 
BRANCH  15  18
ATOM     18  O   UNL     1       1.708 -18.251  16.571  1.00  0.00    -0.508 OA
ATOM     19  H   UNL     1       1.858 -19.181  16.945  1.00  0.00     0.293 HD
ENDBRANCH  15  18
ENDBRANCH   1  12
BRANCH   2  20
ATOM     20  O   UNL     1      -3.601 -15.967  14.167  1.00  0.00    -0.502 OA
ATOM     21  H   UNL     1      -2.840 -15.784  14.810  1.00  0.00     0.293 HD
ENDBRANCH   2  20
BRANCH   6  22
ATOM     22  O   UNL     1      -6.191 -15.938   9.658  1.00  0.00    -0.507 OA
ATOM     23  H   UNL     1      -6.673 -15.860  10.547  1.00  0.00     0.293 HD
ENDBRANCH   6  22
BRANCH   8  24
ATOM     24  O   UNL     1      -3.349 -18.675   6.881  1.00  0.00    -0.508 OA
ATOM     25  H   UNL     1      -3.191 -19.672   6.799  1.00  0.00     0.293 HD
ENDBRANCH   8  24
TORSDOF 5
ENDMDL
