MODEL 1
REMARK VINA RESULT:    -5.480      0.000      0.000
REMARK INTER + INTRA:          -5.800
REMARK INTER:                  -5.800
REMARK INTRA:                   0.000
REMARK UNBOUND:                 0.000
REMARK SMILES O=c1ccc2cc(O)c(O)cc2o1
REMARK SMILES IDX 4 1 3 2 2 3 1 4 13 5 12 6 11 7 9 8 7 9 6 10 5 11 8 12 10 14
REMARK H PARENT 8 13 10 15
REMARK Flexibility Score: inf
ROOT
ATOM      1  C   UNL     1      83.019  61.166   6.458  1.00  0.00     0.019 A 
ATOM      2  C   UNL     1      84.248  61.480   7.039  1.00  0.00     0.094 A 
ATOM      3  C   UNL     1      84.310  62.522   7.971  1.00  0.00     0.336 A 
ATOM      4  O   UNL     1      85.410  62.820   8.506  1.00  0.00    -0.246 OA
ATOM      5  O   UNL     1      83.214  63.201   8.295  1.00  0.00    -0.423 OA
ATOM      6  C   UNL     1      82.022  62.935   7.765  1.00  0.00     0.142 A 
ATOM      7  C   UNL     1      80.904  63.684   8.144  1.00  0.00     0.098 A 
ATOM      8  C   UNL     1      79.648  63.409   7.591  1.00  0.00     0.161 A 
ATOM      9  C   UNL     1      79.506  62.376   6.647  1.00  0.00     0.158 A 
ATOM     10  C   UNL     1      80.626  61.622   6.262  1.00  0.00     0.062 A 
ATOM     11  C   UNL     1      81.883  61.897   6.818  1.00  0.00     0.022 A 
ENDROOT
BRANCH   9  12
ATOM     12  O   UNL     1      78.257  62.101   6.095  1.00  0.00    -0.504 OA
ATOM     13  H   UNL     1      77.481  62.747   6.188  1.00  0.00     0.293 HD
ENDBRANCH   9  12
BRANCH   8  14
ATOM     14  O   UNL     1      78.552  64.175   7.990  1.00  0.00    -0.504 OA
ATOM     15  H   UNL     1      77.946  63.890   8.750  1.00  0.00     0.293 HD
ENDBRANCH   8  14
TORSDOF 2
ENDMDL
MODEL 2
REMARK VINA RESULT:    -5.270      1.783      2.372
REMARK INTER + INTRA:          -5.579
REMARK INTER:                  -5.579
REMARK INTRA:                   0.000
REMARK UNBOUND:                 0.000
REMARK SMILES O=c1ccc2cc(O)c(O)cc2o1
REMARK SMILES IDX 4 1 3 2 2 3 1 4 13 5 12 6 11 7 9 8 7 9 6 10 5 11 8 12 10 14
REMARK H PARENT 8 13 10 15
REMARK Flexibility Score: inf
ROOT
ATOM      1  C   UNL     1      83.388  62.850   7.515  1.00  0.00     0.019 A 
ATOM      2  C   UNL     1      84.338  61.832   7.420  1.00  0.00     0.094 A 
ATOM      3  C   UNL     1      83.930  60.506   7.596  1.00  0.00     0.336 A 
ATOM      4  O   UNL     1      84.772  59.574   7.514  1.00  0.00    -0.246 OA
ATOM      5  O   UNL     1      82.656  60.222   7.851  1.00  0.00    -0.423 OA
ATOM      6  C   UNL     1      81.718  61.161   7.951  1.00  0.00     0.142 A 
ATOM      7  C   UNL     1      80.394  60.803   8.221  1.00  0.00     0.098 A 
ATOM      8  C   UNL     1      79.403  61.785   8.327  1.00  0.00     0.161 A 
ATOM      9  C   UNL     1      79.737  63.142   8.162  1.00  0.00     0.158 A 
ATOM     10  C   UNL     1      81.065  63.507   7.891  1.00  0.00     0.062 A 
ATOM     11  C   UNL     1      82.057  62.522   7.784  1.00  0.00     0.022 A 
ENDROOT
BRANCH   9  12
ATOM     12  O   UNL     1      78.751  64.121   8.267  1.00  0.00    -0.504 OA
ATOM     13  H   UNL     1      78.984  65.097   8.409  1.00  0.00     0.293 HD
ENDBRANCH   9  12
BRANCH   8  14
ATOM     14  O   UNL     1      78.091  61.395   8.598  1.00  0.00    -0.504 OA
ATOM     15  H   UNL     1      77.761  61.237   9.542  1.00  0.00     0.293 HD
ENDBRANCH   8  14
TORSDOF 2
ENDMDL
MODEL 3
REMARK VINA RESULT:    -5.174      3.282      5.271
REMARK INTER + INTRA:          -5.477
REMARK INTER:                  -5.477
REMARK INTRA:                   0.000
REMARK UNBOUND:                 0.000
REMARK SMILES O=c1ccc2cc(O)c(O)cc2o1
REMARK SMILES IDX 4 1 3 2 2 3 1 4 13 5 12 6 11 7 9 8 7 9 6 10 5 11 8 12 10 14
REMARK H PARENT 8 13 10 15
REMARK Flexibility Score: inf
ROOT
ATOM      1  C   UNL     1      82.994  61.315   5.983  1.00  0.00     0.019 A 
ATOM      2  C   UNL     1      82.117  60.238   6.111  1.00  0.00     0.094 A 
ATOM      3  C   UNL     1      82.196  59.431   7.252  1.00  0.00     0.336 A 
ATOM      4  O   UNL     1      81.413  58.455   7.385  1.00  0.00    -0.246 OA
ATOM      5  O   UNL     1      83.095  59.690   8.198  1.00  0.00    -0.423 OA
ATOM      6  C   UNL     1      83.950  60.706   8.115  1.00  0.00     0.142 A 
ATOM      7  C   UNL     1      84.874  60.929   9.141  1.00  0.00     0.098 A 
ATOM      8  C   UNL     1      85.776  61.995   9.061  1.00  0.00     0.161 A 
ATOM      9  C   UNL     1      85.757  62.851   7.944  1.00  0.00     0.158 A 
ATOM     10  C   UNL     1      84.832  62.631   6.911  1.00  0.00     0.062 A 
ATOM     11  C   UNL     1      83.928  61.562   6.993  1.00  0.00     0.022 A 
ENDROOT
BRANCH   9  12
ATOM     12  O   UNL     1      86.654  63.913   7.863  1.00  0.00    -0.504 OA
ATOM     13  H   UNL     1      87.273  64.146   8.632  1.00  0.00     0.293 HD
ENDBRANCH   9  12
BRANCH   8  14
ATOM     14  O   UNL     1      86.685  62.191  10.101  1.00  0.00    -0.504 OA
ATOM     15  H   UNL     1      86.920  63.115  10.444  1.00  0.00     0.293 HD
ENDBRANCH   8  14
TORSDOF 2
ENDMDL
MODEL 4
REMARK VINA RESULT:    -5.097      2.427      5.260
REMARK INTER + INTRA:          -5.395
REMARK INTER:                  -5.395
REMARK INTRA:                   0.000
REMARK UNBOUND:                 0.000
REMARK SMILES O=c1ccc2cc(O)c(O)cc2o1
REMARK SMILES IDX 4 1 3 2 2 3 1 4 13 5 12 6 11 7 9 8 7 9 6 10 5 11 8 12 10 14
REMARK H PARENT 8 13 10 15
REMARK Flexibility Score: inf
ROOT
ATOM      1  C   UNL     1      83.546  59.373   7.187  1.00  0.00     0.019 A 
ATOM      2  C   UNL     1      82.182  59.473   7.460  1.00  0.00     0.094 A 
ATOM      3  C   UNL     1      81.662  60.705   7.873  1.00  0.00     0.336 A 
ATOM      4  O   UNL     1      80.434  60.815   8.123  1.00  0.00    -0.246 OA
ATOM      5  O   UNL     1      82.459  61.762   8.003  1.00  0.00    -0.423 OA
ATOM      6  C   UNL     1      83.766  61.710   7.754  1.00  0.00     0.142 A 
ATOM      7  C   UNL     1      84.554  62.853   7.909  1.00  0.00     0.098 A 
ATOM      8  C   UNL     1      85.928  62.806   7.649  1.00  0.00     0.161 A 
ATOM      9  C   UNL     1      86.523  61.602   7.229  1.00  0.00     0.158 A 
ATOM     10  C   UNL     1      85.736  60.451   7.073  1.00  0.00     0.062 A 
ATOM     11  C   UNL     1      84.359  60.500   7.333  1.00  0.00     0.022 A 
ENDROOT
BRANCH   9  12
ATOM     12  O   UNL     1      87.891  61.554   6.969  1.00  0.00    -0.504 OA
ATOM     13  H   UNL     1      88.398  62.364   6.633  1.00  0.00     0.293 HD
ENDBRANCH   9  12
BRANCH   8  14
ATOM     14  O   UNL     1      86.688  63.965   7.813  1.00  0.00    -0.504 OA
ATOM     15  H   UNL     1      86.562  64.582   8.607  1.00  0.00     0.293 HD
ENDBRANCH   8  14
TORSDOF 2
ENDMDL
MODEL 5
REMARK VINA RESULT:    -5.022      3.328      5.742
REMARK INTER + INTRA:          -5.315
REMARK INTER:                  -5.315
REMARK INTRA:                   0.000
REMARK UNBOUND:                 0.000
REMARK SMILES O=c1ccc2cc(O)c(O)cc2o1
REMARK SMILES IDX 4 1 3 2 2 3 1 4 13 5 12 6 11 7 9 8 7 9 6 10 5 11 8 12 10 14
REMARK H PARENT 8 13 10 15
REMARK Flexibility Score: inf
ROOT
ATOM      1  C   UNL     1      82.549  61.485   6.901  1.00  0.00     0.019 A 
ATOM      2  C   UNL     1      81.932  60.253   6.688  1.00  0.00     0.094 A 
ATOM      3  C   UNL     1      82.725  59.102   6.614  1.00  0.00     0.336 A 
ATOM      4  O   UNL     1      82.186  57.980   6.423  1.00  0.00    -0.246 OA
ATOM      5  O   UNL     1      84.046  59.185   6.744  1.00  0.00    -0.423 OA
ATOM      6  C   UNL     1      84.675  60.340   6.947  1.00  0.00     0.142 A 
ATOM      7  C   UNL     1      86.067  60.367   7.075  1.00  0.00     0.098 A 
ATOM      8  C   UNL     1      86.735  61.577   7.288  1.00  0.00     0.161 A 
ATOM      9  C   UNL     1      86.005  62.777   7.375  1.00  0.00     0.158 A 
ATOM     10  C   UNL     1      84.607  62.756   7.246  1.00  0.00     0.062 A 
ATOM     11  C   UNL     1      83.940  61.543   7.033  1.00  0.00     0.022 A 
ENDROOT
BRANCH   9  12
ATOM     12  O   UNL     1      86.669  63.984   7.588  1.00  0.00    -0.504 OA
ATOM     13  H   UNL     1      87.324  64.358   6.911  1.00  0.00     0.293 HD
ENDBRANCH   9  12
BRANCH   8  14
ATOM     14  O   UNL     1      88.125  61.570   7.412  1.00  0.00    -0.504 OA
ATOM     15  H   UNL     1      88.676  60.737   7.241  1.00  0.00     0.293 HD
ENDBRANCH   8  14
TORSDOF 2
ENDMDL
MODEL 6
REMARK VINA RESULT:    -4.883      2.676      3.724
REMARK INTER + INTRA:          -5.169
REMARK INTER:                  -5.169
REMARK INTRA:                   0.000
REMARK UNBOUND:                 0.000
REMARK SMILES O=c1ccc2cc(O)c(O)cc2o1
REMARK SMILES IDX 4 1 3 2 2 3 1 4 13 5 12 6 11 7 9 8 7 9 6 10 5 11 8 12 10 14
REMARK H PARENT 8 13 10 15
REMARK Flexibility Score: inf
ROOT
ATOM      1  C   UNL     1      85.850  62.880   8.554  1.00  0.00     0.019 A 
ATOM      2  C   UNL     1      86.614  62.330   9.584  1.00  0.00     0.094 A 
ATOM      3  C   UNL     1      86.216  61.112  10.146  1.00  0.00     0.336 A 
ATOM      4  O   UNL     1      86.891  60.600  11.076  1.00  0.00    -0.246 OA
ATOM      5  O   UNL     1      85.126  60.490   9.704  1.00  0.00    -0.423 OA
ATOM      6  C   UNL     1      84.369  60.980   8.724  1.00  0.00     0.142 A 
ATOM      7  C   UNL     1      83.235  60.283   8.301  1.00  0.00     0.098 A 
ATOM      8  C   UNL     1      82.435  60.791   7.271  1.00  0.00     0.161 A 
ATOM      9  C   UNL     1      82.771  62.011   6.657  1.00  0.00     0.158 A 
ATOM     10  C   UNL     1      83.910  62.716   7.079  1.00  0.00     0.062 A 
ATOM     11  C   UNL     1      84.710  62.205   8.109  1.00  0.00     0.022 A 
ENDROOT
BRANCH   9  12
ATOM     12  O   UNL     1      81.976  62.518   5.631  1.00  0.00    -0.504 OA
ATOM     13  H   UNL     1      82.319  63.228   4.994  1.00  0.00     0.293 HD
ENDBRANCH   9  12
BRANCH   8  14
ATOM     14  O   UNL     1      81.308  60.070   6.872  1.00  0.00    -0.504 OA
ATOM     15  H   UNL     1      80.636  59.709   7.538  1.00  0.00     0.293 HD
ENDBRANCH   8  14
TORSDOF 2
ENDMDL
MODEL 7
REMARK VINA RESULT:    -4.839      1.661      5.077
REMARK INTER + INTRA:          -5.122
REMARK INTER:                  -5.122
REMARK INTRA:                   0.000
REMARK UNBOUND:                 0.000
REMARK SMILES O=c1ccc2cc(O)c(O)cc2o1
REMARK SMILES IDX 4 1 3 2 2 3 1 4 13 5 12 6 11 7 9 8 7 9 6 10 5 11 8 12 10 14
REMARK H PARENT 8 13 10 15
REMARK Flexibility Score: inf
ROOT
ATOM      1  C   UNL     1      82.125  60.732   7.104  1.00  0.00     0.019 A 
ATOM      2  C   UNL     1      81.098  61.613   7.446  1.00  0.00     0.094 A 
ATOM      3  C   UNL     1      81.429  62.875   7.952  1.00  0.00     0.336 A 
ATOM      4  O   UNL     1      80.518  63.684   8.266  1.00  0.00    -0.246 OA
ATOM      5  O   UNL     1      82.703  63.226   8.105  1.00  0.00    -0.423 OA
ATOM      6  C   UNL     1      83.713  62.415   7.793  1.00  0.00     0.142 A 
ATOM      7  C   UNL     1      85.032  62.838   7.976  1.00  0.00     0.098 A 
ATOM      8  C   UNL     1      86.098  61.993   7.650  1.00  0.00     0.161 A 
ATOM      9  C   UNL     1      85.844  60.708   7.135  1.00  0.00     0.158 A 
ATOM     10  C   UNL     1      84.520  60.278   6.950  1.00  0.00     0.062 A 
ATOM     11  C   UNL     1      83.454  61.127   7.276  1.00  0.00     0.022 A 
ENDROOT
BRANCH   9  12
ATOM     12  O   UNL     1      86.904  59.865   6.809  1.00  0.00    -0.504 OA
ATOM     13  H   UNL     1      87.472  59.424   7.524  1.00  0.00     0.293 HD
ENDBRANCH   9  12
BRANCH   8  14
ATOM     14  O   UNL     1      87.404  62.445   7.844  1.00  0.00    -0.504 OA
ATOM     15  H   UNL     1      88.200  61.991   7.413  1.00  0.00     0.293 HD
ENDBRANCH   8  14
TORSDOF 2
ENDMDL
MODEL 8
REMARK VINA RESULT:    -4.600      1.574      2.569
REMARK INTER + INTRA:          -4.869
REMARK INTER:                  -4.869
REMARK INTRA:                   0.000
REMARK UNBOUND:                 0.000
REMARK SMILES O=c1ccc2cc(O)c(O)cc2o1
REMARK SMILES IDX 4 1 3 2 2 3 1 4 13 5 12 6 11 7 9 8 7 9 6 10 5 11 8 12 10 14
REMARK H PARENT 8 13 10 15
REMARK Flexibility Score: inf
ROOT
ATOM      1  C   UNL     1      84.017  62.845   8.263  1.00  0.00     0.019 A 
ATOM      2  C   UNL     1      85.163  62.062   8.121  1.00  0.00     0.094 A 
ATOM      3  C   UNL     1      85.156  61.014   7.194  1.00  0.00     0.336 A 
ATOM      4  O   UNL     1      86.180  60.296   7.051  1.00  0.00    -0.246 OA
ATOM      5  O   UNL     1      84.073  60.770   6.461  1.00  0.00    -0.423 OA
ATOM      6  C   UNL     1      82.960  61.492   6.565  1.00  0.00     0.142 A 
ATOM      7  C   UNL     1      81.851  61.189   5.769  1.00  0.00     0.098 A 
ATOM      8  C   UNL     1      80.678  61.943   5.873  1.00  0.00     0.161 A 
ATOM      9  C   UNL     1      80.609  63.014   6.783  1.00  0.00     0.158 A 
ATOM     10  C   UNL     1      81.719  63.322   7.586  1.00  0.00     0.062 A 
ATOM     11  C   UNL     1      82.894  62.566   7.480  1.00  0.00     0.022 A 
ENDROOT
BRANCH   9  12
ATOM     12  O   UNL     1      79.441  63.767   6.888  1.00  0.00    -0.504 OA
ATOM     13  H   UNL     1      79.446  64.706   7.268  1.00  0.00     0.293 HD
ENDBRANCH   9  12
BRANCH   8  14
ATOM     14  O   UNL     1      79.589  61.615   5.065  1.00  0.00    -0.504 OA
ATOM     15  H   UNL     1      78.634  61.796   5.349  1.00  0.00     0.293 HD
ENDBRANCH   8  14
TORSDOF 2
ENDMDL
