MODEL 1
REMARK VINA RESULT:    -5.898      0.000      0.000
REMARK INTER + INTRA:          -7.115
REMARK INTER:                  -6.760
REMARK INTRA:                  -0.355
REMARK UNBOUND:                -0.355
REMARK SMILES O=C1C[C@H](c2ccc(O)cc2)Oc2cc(O)cc(O)c21
REMARK SMILES IDX 3 1 4 2 12 3 13 4 14 5 15 6 17 7 18 8 20 9 2 10 1 11 5 12
REMARK SMILES IDX 6 13 11 14 7 15 10 16 8 17 9 18 19 20 16 22
REMARK H PARENT 9 19 19 21 16 23
REMARK Flexibility Score: inf
ROOT
ATOM      1  C   UNL     1      10.912  50.979  22.828  1.00  0.00     0.131 C 
ATOM      2  C   UNL     1      12.248  50.641  22.139  1.00  0.00     0.211 C 
ATOM      3  O   UNL     1      12.125  50.658  20.711  1.00  0.00    -0.484 OA
ATOM      4  C   UNL     1      11.261  51.516  20.015  1.00  0.00     0.138 A 
ATOM      5  C   UNL     1      11.349  51.588  18.621  1.00  0.00     0.093 A 
ATOM      6  C   UNL     1      10.523  52.464  17.907  1.00  0.00     0.123 A 
ATOM      7  C   UNL     1       9.603  53.264  18.590  1.00  0.00     0.093 A 
ATOM      8  C   UNL     1       9.495  53.191  19.987  1.00  0.00     0.133 A 
ATOM      9  C   UNL     1      10.325  52.305  20.707  1.00  0.00     0.102 A 
ATOM     10  C   UNL     1      10.246  52.154  22.176  1.00  0.00     0.174 C 
ATOM     11  O   UNL     1       9.587  52.963  22.883  1.00  0.00    -0.294 OA
ENDROOT
BRANCH   2  12
ATOM     12  C   UNL     1      13.364  51.556  22.612  1.00  0.00    -0.007 A 
ATOM     13  C   UNL     1      13.765  51.604  23.961  1.00  0.00     0.011 A 
ATOM     14  C   UNL     1      14.064  52.332  21.670  1.00  0.00     0.011 A 
ATOM     15  C   UNL     1      14.821  52.430  24.358  1.00  0.00     0.046 A 
ATOM     16  C   UNL     1      15.119  53.156  22.070  1.00  0.00     0.046 A 
ATOM     17  C   UNL     1      15.499  53.208  23.417  1.00  0.00     0.115 A 
BRANCH  17  18
ATOM     18  O   UNL     1      16.550  54.027  23.828  1.00  0.00    -0.508 OA
ATOM     19  H   UNL     1      16.384  54.958  24.191  1.00  0.00     0.293 HD
ENDBRANCH  17  18
ENDBRANCH   2  12
BRANCH   8  20
ATOM     20  O   UNL     1       8.560  53.987  20.649  1.00  0.00    -0.507 OA
ATOM     21  H   UNL     1       8.007  53.630  21.420  1.00  0.00     0.293 HD
ENDBRANCH   8  20
BRANCH   6  22
ATOM     22  O   UNL     1      10.610  52.548  16.519  1.00  0.00    -0.508 OA
ATOM     23  H   UNL     1       9.832  52.873  15.958  1.00  0.00     0.293 HD
ENDBRANCH   6  22
TORSDOF 4
ENDMDL
MODEL 2
REMARK VINA RESULT:    -5.753      2.238      5.717
REMARK INTER + INTRA:          -6.949
REMARK INTER:                  -6.623
REMARK INTRA:                  -0.326
REMARK UNBOUND:                -0.355
REMARK SMILES O=C1C[C@H](c2ccc(O)cc2)Oc2cc(O)cc(O)c21
REMARK SMILES IDX 3 1 4 2 12 3 13 4 14 5 15 6 17 7 18 8 20 9 2 10 1 11 5 12
REMARK SMILES IDX 6 13 11 14 7 15 10 16 8 17 9 18 19 20 16 22
REMARK H PARENT 9 19 19 21 16 23
REMARK Flexibility Score: inf
ROOT
ATOM      1  C   UNL     1      12.301  51.244  20.760  1.00  0.00     0.131 C 
ATOM      2  C   UNL     1      12.252  50.637  22.176  1.00  0.00     0.211 C 
ATOM      3  O   UNL     1      13.454  50.909  22.908  1.00  0.00    -0.484 OA
ATOM      4  C   UNL     1      14.210  52.080  22.755  1.00  0.00     0.138 A 
ATOM      5  C   UNL     1      15.257  52.337  23.645  1.00  0.00     0.093 A 
ATOM      6  C   UNL     1      16.002  53.517  23.535  1.00  0.00     0.123 A 
ATOM      7  C   UNL     1      15.701  54.438  22.529  1.00  0.00     0.093 A 
ATOM      8  C   UNL     1      14.663  54.186  21.620  1.00  0.00     0.133 A 
ATOM      9  C   UNL     1      13.913  52.995  21.728  1.00  0.00     0.102 A 
ATOM     10  C   UNL     1      12.825  52.649  20.789  1.00  0.00     0.174 C 
ATOM     11  O   UNL     1      12.365  53.498  19.978  1.00  0.00    -0.294 OA
ENDROOT
BRANCH   2  12
ATOM     12  C   UNL     1      11.021  51.097  22.936  1.00  0.00    -0.007 A 
ATOM     13  C   UNL     1       9.976  51.798  22.303  1.00  0.00     0.011 A 
ATOM     14  C   UNL     1      10.885  50.761  24.295  1.00  0.00     0.011 A 
ATOM     15  C   UNL     1       8.838  52.175  23.023  1.00  0.00     0.046 A 
ATOM     16  C   UNL     1       9.746  51.139  25.011  1.00  0.00     0.046 A 
ATOM     17  C   UNL     1       8.720  51.850  24.376  1.00  0.00     0.115 A 
BRANCH  17  18
ATOM     18  O   UNL     1       7.580  52.233  25.080  1.00  0.00    -0.508 OA
ATOM     19  H   UNL     1       6.650  52.084  24.703  1.00  0.00     0.293 HD
ENDBRANCH  17  18
ENDBRANCH   2  12
BRANCH   8  20
ATOM     20  O   UNL     1      14.388  55.111  20.613  1.00  0.00    -0.507 OA
ATOM     21  H   UNL     1      15.037  55.856  20.383  1.00  0.00     0.293 HD
ENDBRANCH   8  20
BRANCH   6  22
ATOM     22  O   UNL     1      17.042  53.784  24.424  1.00  0.00    -0.508 OA
ATOM     23  H   UNL     1      18.011  53.756  24.129  1.00  0.00     0.293 HD
ENDBRANCH   6  22
TORSDOF 4
ENDMDL
MODEL 3
REMARK VINA RESULT:    -5.743      1.304      1.942
REMARK INTER + INTRA:          -6.938
REMARK INTER:                  -6.484
REMARK INTRA:                  -0.454
REMARK UNBOUND:                -0.355
REMARK SMILES O=C1C[C@H](c2ccc(O)cc2)Oc2cc(O)cc(O)c21
REMARK SMILES IDX 3 1 4 2 12 3 13 4 14 5 15 6 17 7 18 8 20 9 2 10 1 11 5 12
REMARK SMILES IDX 6 13 11 14 7 15 10 16 8 17 9 18 19 20 16 22
REMARK H PARENT 9 19 19 21 16 23
REMARK Flexibility Score: inf
ROOT
ATOM      1  C   UNL     1      12.262  50.659  22.756  1.00  0.00     0.131 C 
ATOM      2  C   UNL     1      13.116  51.031  21.529  1.00  0.00     0.211 C 
ATOM      3  O   UNL     1      12.302  51.272  20.373  1.00  0.00    -0.484 OA
ATOM      4  C   UNL     1      11.014  51.822  20.430  1.00  0.00     0.138 A 
ATOM      5  C   UNL     1      10.377  52.192  19.241  1.00  0.00     0.093 A 
ATOM      6  C   UNL     1       9.106  52.777  19.274  1.00  0.00     0.123 A 
ATOM      7  C   UNL     1       8.470  52.987  20.500  1.00  0.00     0.093 A 
ATOM      8  C   UNL     1       9.091  52.609  21.699  1.00  0.00     0.133 A 
ATOM      9  C   UNL     1      10.371  52.015  21.667  1.00  0.00     0.102 A 
ATOM     10  C   UNL     1      11.074  51.564  22.887  1.00  0.00     0.174 C 
ATOM     11  O   UNL     1      10.663  51.884  24.035  1.00  0.00    -0.294 OA
ENDROOT
BRANCH   2  12
ATOM     12  C   UNL     1      14.027  52.210  21.823  1.00  0.00    -0.007 A 
ATOM     13  C   UNL     1      14.161  53.288  20.927  1.00  0.00     0.011 A 
ATOM     14  C   UNL     1      14.708  52.264  23.053  1.00  0.00     0.011 A 
ATOM     15  C   UNL     1      14.979  54.377  21.244  1.00  0.00     0.046 A 
ATOM     16  C   UNL     1      15.524  53.354  23.367  1.00  0.00     0.046 A 
ATOM     17  C   UNL     1      15.663  54.413  22.461  1.00  0.00     0.115 A 
BRANCH  17  18
ATOM     18  O   UNL     1      16.474  55.505  22.763  1.00  0.00    -0.508 OA
ATOM     19  H   UNL     1      16.283  56.426  22.387  1.00  0.00     0.293 HD
ENDBRANCH  17  18
ENDBRANCH   2  12
BRANCH   8  20
ATOM     20  O   UNL     1       8.433  52.814  22.912  1.00  0.00    -0.507 OA
ATOM     21  H   UNL     1       8.044  52.042  23.443  1.00  0.00     0.293 HD
ENDBRANCH   8  20
BRANCH   6  22
ATOM     22  O   UNL     1       8.468  53.155  18.094  1.00  0.00    -0.508 OA
ATOM     23  H   UNL     1       8.825  53.908  17.517  1.00  0.00     0.293 HD
ENDBRANCH   6  22
TORSDOF 4
ENDMDL
MODEL 4
REMARK VINA RESULT:    -5.709      1.283      1.609
REMARK INTER + INTRA:          -6.898
REMARK INTER:                  -6.465
REMARK INTRA:                  -0.433
REMARK UNBOUND:                -0.355
REMARK SMILES O=C1C[C@H](c2ccc(O)cc2)Oc2cc(O)cc(O)c21
REMARK SMILES IDX 3 1 4 2 12 3 13 4 14 5 15 6 17 7 18 8 20 9 2 10 1 11 5 12
REMARK SMILES IDX 6 13 11 14 7 15 10 16 8 17 9 18 19 20 16 22
REMARK H PARENT 9 19 19 21 16 23
REMARK Flexibility Score: inf
ROOT
ATOM      1  C   UNL     1      12.232  50.628  22.777  1.00  0.00     0.131 C 
ATOM      2  C   UNL     1      13.121  51.036  21.586  1.00  0.00     0.211 C 
ATOM      3  O   UNL     1      12.340  51.306  20.414  1.00  0.00    -0.484 OA
ATOM      4  C   UNL     1      11.048  51.852  20.448  1.00  0.00     0.138 A 
ATOM      5  C   UNL     1      10.446  52.253  19.252  1.00  0.00     0.093 A 
ATOM      6  C   UNL     1       9.173  52.834  19.264  1.00  0.00     0.123 A 
ATOM      7  C   UNL     1       8.501  53.009  20.477  1.00  0.00     0.093 A 
ATOM      8  C   UNL     1       9.088  52.599  21.682  1.00  0.00     0.133 A 
ATOM      9  C   UNL     1      10.370  52.009  21.671  1.00  0.00     0.102 A 
ATOM     10  C   UNL     1      11.038  51.527  22.898  1.00  0.00     0.174 C 
ATOM     11  O   UNL     1      10.593  51.815  24.042  1.00  0.00    -0.294 OA
ENDROOT
BRANCH   2  12
ATOM     12  C   UNL     1      14.019  52.208  21.939  1.00  0.00    -0.007 A 
ATOM     13  C   UNL     1      14.757  52.245  23.137  1.00  0.00     0.011 A 
ATOM     14  C   UNL     1      14.173  53.259  21.016  1.00  0.00     0.011 A 
ATOM     15  C   UNL     1      15.604  53.322  23.416  1.00  0.00     0.046 A 
ATOM     16  C   UNL     1      15.021  54.334  21.297  1.00  0.00     0.046 A 
ATOM     17  C   UNL     1      15.738  54.369  22.500  1.00  0.00     0.115 A 
BRANCH  17  18
ATOM     18  O   UNL     1      16.586  55.435  22.791  1.00  0.00    -0.508 OA
ATOM     19  H   UNL     1      16.525  55.935  23.671  1.00  0.00     0.293 HD
ENDBRANCH  17  18
ENDBRANCH   2  12
BRANCH   8  20
ATOM     20  O   UNL     1       8.394  52.770  22.881  1.00  0.00    -0.507 OA
ATOM     21  H   UNL     1       8.796  53.278  23.661  1.00  0.00     0.293 HD
ENDBRANCH   8  20
BRANCH   6  22
ATOM     22  O   UNL     1       8.568  53.243  18.077  1.00  0.00    -0.508 OA
ATOM     23  H   UNL     1       8.073  52.589  17.482  1.00  0.00     0.293 HD
ENDBRANCH   6  22
TORSDOF 4
ENDMDL
MODEL 5
REMARK VINA RESULT:    -5.501      1.677      6.002
REMARK INTER + INTRA:          -6.660
REMARK INTER:                  -6.215
REMARK INTRA:                  -0.444
REMARK UNBOUND:                -0.355
REMARK SMILES O=C1C[C@H](c2ccc(O)cc2)Oc2cc(O)cc(O)c21
REMARK SMILES IDX 3 1 4 2 12 3 13 4 14 5 15 6 17 7 18 8 20 9 2 10 1 11 5 12
REMARK SMILES IDX 6 13 11 14 7 15 10 16 8 17 9 18 19 20 16 22
REMARK H PARENT 9 19 19 21 16 23
REMARK Flexibility Score: inf
ROOT
ATOM      1  C   UNL     1      12.972  51.673  19.225  1.00  0.00     0.131 C 
ATOM      2  C   UNL     1      12.055  51.055  20.298  1.00  0.00     0.211 C 
ATOM      3  O   UNL     1      12.730  50.926  21.557  1.00  0.00    -0.484 OA
ATOM      4  C   UNL     1      13.710  51.822  22.010  1.00  0.00     0.138 A 
ATOM      5  C   UNL     1      14.171  51.720  23.326  1.00  0.00     0.093 A 
ATOM      6  C   UNL     1      15.122  52.624  23.812  1.00  0.00     0.123 A 
ATOM      7  C   UNL     1      15.614  53.630  22.977  1.00  0.00     0.093 A 
ATOM      8  C   UNL     1      15.170  53.736  21.651  1.00  0.00     0.133 A 
ATOM      9  C   UNL     1      14.215  52.821  21.158  1.00  0.00     0.102 A 
ATOM     10  C   UNL     1      13.723  52.854  19.764  1.00  0.00     0.174 C 
ATOM     11  O   UNL     1      13.967  53.831  19.006  1.00  0.00    -0.294 OA
ENDROOT
BRANCH   2  12
ATOM     12  C   UNL     1      10.760  51.835  20.438  1.00  0.00    -0.007 A 
ATOM     13  C   UNL     1      10.279  52.258  21.692  1.00  0.00     0.011 A 
ATOM     14  C   UNL     1      10.051  52.204  19.281  1.00  0.00     0.011 A 
ATOM     15  C   UNL     1       9.101  53.007  21.783  1.00  0.00     0.046 A 
ATOM     16  C   UNL     1       8.874  52.953  19.375  1.00  0.00     0.046 A 
ATOM     17  C   UNL     1       8.396  53.355  20.629  1.00  0.00     0.115 A 
BRANCH  17  18
ATOM     18  O   UNL     1       7.224  54.102  20.737  1.00  0.00    -0.508 OA
ATOM     19  H   UNL     1       7.088  54.766  21.490  1.00  0.00     0.293 HD
ENDBRANCH  17  18
ENDBRANCH   2  12
BRANCH   8  20
ATOM     20  O   UNL     1      15.686  54.738  20.828  1.00  0.00    -0.507 OA
ATOM     21  H   UNL     1      15.759  55.699  21.144  1.00  0.00     0.293 HD
ENDBRANCH   8  20
BRANCH   6  22
ATOM     22  O   UNL     1      15.581  52.534  25.125  1.00  0.00    -0.508 OA
ATOM     23  H   UNL     1      15.256  53.168  25.845  1.00  0.00     0.293 HD
ENDBRANCH   6  22
TORSDOF 4
ENDMDL
MODEL 6
REMARK VINA RESULT:    -5.247      2.376      5.648
REMARK INTER + INTRA:          -6.369
REMARK INTER:                  -5.908
REMARK INTRA:                  -0.461
REMARK UNBOUND:                -0.355
REMARK SMILES O=C1C[C@H](c2ccc(O)cc2)Oc2cc(O)cc(O)c21
REMARK SMILES IDX 3 1 4 2 12 3 13 4 14 5 15 6 17 7 18 8 20 9 2 10 1 11 5 12
REMARK SMILES IDX 6 13 11 14 7 15 10 16 8 17 9 18 19 20 16 22
REMARK H PARENT 9 19 19 21 16 23
REMARK Flexibility Score: inf
ROOT
ATOM      1  C   UNL     1      10.368  53.884  20.247  1.00  0.00     0.131 C 
ATOM      2  C   UNL     1      11.729  53.303  19.818  1.00  0.00     0.211 C 
ATOM      3  O   UNL     1      12.326  52.529  20.867  1.00  0.00    -0.484 OA
ATOM      4  C   UNL     1      11.590  51.779  21.796  1.00  0.00     0.138 A 
ATOM      5  C   UNL     1      12.265  50.911  22.659  1.00  0.00     0.093 A 
ATOM      6  C   UNL     1      11.549  50.125  23.570  1.00  0.00     0.123 A 
ATOM      7  C   UNL     1      10.156  50.213  23.619  1.00  0.00     0.093 A 
ATOM      8  C   UNL     1       9.467  51.090  22.769  1.00  0.00     0.133 A 
ATOM      9  C   UNL     1      10.188  51.886  21.853  1.00  0.00     0.102 A 
ATOM     10  C   UNL     1       9.532  52.853  20.947  1.00  0.00     0.174 C 
ATOM     11  O   UNL     1       8.281  52.860  20.791  1.00  0.00    -0.294 OA
ENDROOT
BRANCH   2  12
ATOM     12  C   UNL     1      11.612  52.503  18.533  1.00  0.00    -0.007 A 
ATOM     13  C   UNL     1      10.765  52.904  17.482  1.00  0.00     0.011 A 
ATOM     14  C   UNL     1      12.418  51.364  18.356  1.00  0.00     0.011 A 
ATOM     15  C   UNL     1      10.707  52.166  16.297  1.00  0.00     0.046 A 
ATOM     16  C   UNL     1      12.359  50.628  17.169  1.00  0.00     0.046 A 
ATOM     17  C   UNL     1      11.501  51.027  16.136  1.00  0.00     0.115 A 
BRANCH  17  18
ATOM     18  O   UNL     1      11.433  50.302  14.948  1.00  0.00    -0.508 OA
ATOM     19  H   UNL     1      12.090  50.460  14.193  1.00  0.00     0.293 HD
ENDBRANCH  17  18
ENDBRANCH   2  12
BRANCH   8  20
ATOM     20  O   UNL     1       8.077  51.175  22.844  1.00  0.00    -0.507 OA
ATOM     21  H   UNL     1       7.515  50.403  23.187  1.00  0.00     0.293 HD
ENDBRANCH   8  20
BRANCH   6  22
ATOM     22  O   UNL     1      12.214  49.251  24.429  1.00  0.00    -0.508 OA
ATOM     23  H   UNL     1      12.078  49.289  25.432  1.00  0.00     0.293 HD
ENDBRANCH   6  22
TORSDOF 4
ENDMDL
MODEL 7
REMARK VINA RESULT:    -5.151      2.309      6.260
REMARK INTER + INTRA:          -6.259
REMARK INTER:                  -5.912
REMARK INTRA:                  -0.347
REMARK UNBOUND:                -0.355
REMARK SMILES O=C1C[C@H](c2ccc(O)cc2)Oc2cc(O)cc(O)c21
REMARK SMILES IDX 3 1 4 2 12 3 13 4 14 5 15 6 17 7 18 8 20 9 2 10 1 11 5 12
REMARK SMILES IDX 6 13 11 14 7 15 10 16 8 17 9 18 19 20 16 22
REMARK H PARENT 9 19 19 21 16 23
REMARK Flexibility Score: inf
ROOT
ATOM      1  C   UNL     1      10.525  53.702  18.183  1.00  0.00     0.131 C 
ATOM      2  C   UNL     1      11.853  53.135  17.645  1.00  0.00     0.211 C 
ATOM      3  O   UNL     1      12.738  52.764  18.710  1.00  0.00    -0.484 OA
ATOM      4  C   UNL     1      12.301  52.269  19.948  1.00  0.00     0.138 A 
ATOM      5  C   UNL     1      13.241  51.759  20.848  1.00  0.00     0.093 A 
ATOM      6  C   UNL     1      12.826  51.226  22.074  1.00  0.00     0.123 A 
ATOM      7  C   UNL     1      11.468  51.209  22.400  1.00  0.00     0.093 A 
ATOM      8  C   UNL     1      10.515  51.729  21.512  1.00  0.00     0.133 A 
ATOM      9  C   UNL     1      10.933  52.270  20.277  1.00  0.00     0.102 A 
ATOM     10  C   UNL     1       9.990  52.863  19.305  1.00  0.00     0.174 C 
ATOM     11  O   UNL     1       8.744  52.718  19.431  1.00  0.00    -0.294 OA
ENDROOT
BRANCH   2  12
ATOM     12  C   UNL     1      11.617  51.979  16.689  1.00  0.00    -0.007 A 
ATOM     13  C   UNL     1      10.914  52.145  15.481  1.00  0.00     0.011 A 
ATOM     14  C   UNL     1      12.170  50.719  16.983  1.00  0.00     0.011 A 
ATOM     15  C   UNL     1      10.745  51.069  14.604  1.00  0.00     0.046 A 
ATOM     16  C   UNL     1      12.000  49.645  16.104  1.00  0.00     0.046 A 
ATOM     17  C   UNL     1      11.285  49.818  14.912  1.00  0.00     0.115 A 
BRANCH  17  18
ATOM     18  O   UNL     1      11.109  48.755  14.028  1.00  0.00    -0.508 OA
ATOM     19  H   UNL     1      10.450  48.809  13.261  1.00  0.00     0.293 HD
ENDBRANCH  17  18
ENDBRANCH   2  12
BRANCH   8  20
ATOM     20  O   UNL     1       9.165  51.716  21.863  1.00  0.00    -0.507 OA
ATOM     21  H   UNL     1       8.501  52.358  21.445  1.00  0.00     0.293 HD
ENDBRANCH   8  20
BRANCH   6  22
ATOM     22  O   UNL     1      13.756  50.709  22.974  1.00  0.00    -0.508 OA
ATOM     23  H   UNL     1      13.579  49.853  23.486  1.00  0.00     0.293 HD
ENDBRANCH   6  22
TORSDOF 4
ENDMDL
MODEL 8
REMARK VINA RESULT:    -5.117      2.559      3.986
REMARK INTER + INTRA:          -6.219
REMARK INTER:                  -5.763
REMARK INTRA:                  -0.456
REMARK UNBOUND:                -0.355
REMARK SMILES O=C1C[C@H](c2ccc(O)cc2)Oc2cc(O)cc(O)c21
REMARK SMILES IDX 3 1 4 2 12 3 13 4 14 5 15 6 17 7 18 8 20 9 2 10 1 11 5 12
REMARK SMILES IDX 6 13 11 14 7 15 10 16 8 17 9 18 19 20 16 22
REMARK H PARENT 9 19 19 21 16 23
REMARK Flexibility Score: inf
ROOT
ATOM      1  C   UNL     1      12.442  51.027  20.354  1.00  0.00     0.131 C 
ATOM      2  C   UNL     1      12.204  51.586  18.937  1.00  0.00     0.211 C 
ATOM      3  O   UNL     1      10.813  51.832  18.694  1.00  0.00    -0.484 OA
ATOM      4  C   UNL     1       9.909  52.237  19.687  1.00  0.00     0.138 A 
ATOM      5  C   UNL     1       8.620  52.632  19.315  1.00  0.00     0.093 A 
ATOM      6  C   UNL     1       7.712  53.075  20.284  1.00  0.00     0.123 A 
ATOM      7  C   UNL     1       8.095  53.117  21.627  1.00  0.00     0.093 A 
ATOM      8  C   UNL     1       9.379  52.710  22.015  1.00  0.00     0.133 A 
ATOM      9  C   UNL     1      10.295  52.260  21.040  1.00  0.00     0.102 A 
ATOM     10  C   UNL     1      11.654  51.788  21.378  1.00  0.00     0.174 C 
ATOM     11  O   UNL     1      12.143  51.969  22.526  1.00  0.00    -0.294 OA
ENDROOT
BRANCH   2  12
ATOM     12  C   UNL     1      13.042  52.827  18.682  1.00  0.00    -0.007 A 
ATOM     13  C   UNL     1      12.558  53.905  17.917  1.00  0.00     0.011 A 
ATOM     14  C   UNL     1      14.311  52.935  19.279  1.00  0.00     0.011 A 
ATOM     15  C   UNL     1      13.340  55.050  17.731  1.00  0.00     0.046 A 
ATOM     16  C   UNL     1      15.090  54.081  19.092  1.00  0.00     0.046 A 
ATOM     17  C   UNL     1      14.605  55.141  18.315  1.00  0.00     0.115 A 
BRANCH  17  18
ATOM     18  O   UNL     1      15.372  56.289  18.121  1.00  0.00    -0.508 OA
ATOM     19  H   UNL     1      14.944  57.179  17.897  1.00  0.00     0.293 HD
ENDBRANCH  17  18
ENDBRANCH   2  12
BRANCH   8  20
ATOM     20  O   UNL     1       9.736  52.746  23.363  1.00  0.00    -0.507 OA
ATOM     21  H   UNL     1      10.343  52.043  23.772  1.00  0.00     0.293 HD
ENDBRANCH   8  20
BRANCH   6  22
ATOM     22  O   UNL     1       6.428  53.478  19.921  1.00  0.00    -0.508 OA
ATOM     23  H   UNL     1       6.140  53.515  18.950  1.00  0.00     0.293 HD
ENDBRANCH   6  22
TORSDOF 4
ENDMDL
MODEL 9
REMARK VINA RESULT:    -4.958      3.663      5.574
REMARK INTER + INTRA:          -6.038
REMARK INTER:                  -5.580
REMARK INTRA:                  -0.458
REMARK UNBOUND:                -0.355
REMARK SMILES O=C1C[C@H](c2ccc(O)cc2)Oc2cc(O)cc(O)c21
REMARK SMILES IDX 3 1 4 2 12 3 13 4 14 5 15 6 17 7 18 8 20 9 2 10 1 11 5 12
REMARK SMILES IDX 6 13 11 14 7 15 10 16 8 17 9 18 19 20 16 22
REMARK H PARENT 9 19 19 21 16 23
REMARK Flexibility Score: inf
ROOT
ATOM      1  C   UNL     1      15.081  52.292  19.440  1.00  0.00     0.131 C 
ATOM      2  C   UNL     1      16.164  51.866  20.450  1.00  0.00     0.211 C 
ATOM      3  O   UNL     1      15.653  51.834  21.789  1.00  0.00    -0.484 OA
ATOM      4  C   UNL     1      14.330  51.495  22.109  1.00  0.00     0.138 A 
ATOM      5  C   UNL     1      13.980  51.308  23.449  1.00  0.00     0.093 A 
ATOM      6  C   UNL     1      12.675  50.934  23.791  1.00  0.00     0.123 A 
ATOM      7  C   UNL     1      11.720  50.750  22.789  1.00  0.00     0.093 A 
ATOM      8  C   UNL     1      12.054  50.947  21.441  1.00  0.00     0.133 A 
ATOM      9  C   UNL     1      13.369  51.329  21.095  1.00  0.00     0.102 A 
ATOM     10  C   UNL     1      13.786  51.582  19.700  1.00  0.00     0.174 C 
ATOM     11  O   UNL     1      13.050  51.260  18.728  1.00  0.00    -0.294 OA
ENDROOT
BRANCH   2  12
ATOM     12  C   UNL     1      16.795  50.541  20.062  1.00  0.00    -0.007 A 
ATOM     13  C   UNL     1      17.176  49.589  21.027  1.00  0.00     0.011 A 
ATOM     14  C   UNL     1      16.944  50.221  18.701  1.00  0.00     0.011 A 
ATOM     15  C   UNL     1      17.720  48.362  20.637  1.00  0.00     0.046 A 
ATOM     16  C   UNL     1      17.487  48.993  18.313  1.00  0.00     0.046 A 
ATOM     17  C   UNL     1      17.879  48.060  19.282  1.00  0.00     0.115 A 
BRANCH  17  18
ATOM     18  O   UNL     1      18.422  46.832  18.908  1.00  0.00    -0.508 OA
ATOM     19  H   UNL     1      18.857  46.700  18.002  1.00  0.00     0.293 HD
ENDBRANCH  17  18
ENDBRANCH   2  12
BRANCH   8  20
ATOM     20  O   UNL     1      11.082  50.773  20.456  1.00  0.00    -0.507 OA
ATOM     21  H   UNL     1      11.068  51.341  19.616  1.00  0.00     0.293 HD
ENDBRANCH   8  20
BRANCH   6  22
ATOM     22  O   UNL     1      12.320  50.739  25.125  1.00  0.00    -0.508 OA
ATOM     23  H   UNL     1      11.367  50.519  25.392  1.00  0.00     0.293 HD
ENDBRANCH   6  22
TORSDOF 4
ENDMDL
