MODEL 1
REMARK VINA RESULT:    -4.057      0.000      0.000
REMARK INTER + INTRA:         -10.250
REMARK INTER:                  -7.851
REMARK INTRA:                  -2.399
REMARK UNBOUND:                -2.399
REMARK SMILES CCCCCCCCCCCCCCCCCC(=O)[O-]
REMARK SMILES IDX 10 1 11 2 12 3 13 4 14 5 15 6 16 7 17 8 18 9 19 10 20 11
REMARK SMILES IDX 9 12 8 13 7 14 6 15 5 16 4 17 3 18 2 19 1 20
REMARK H PARENT
REMARK Flexibility Score: inf
ROOT
ATOM      1  C   UNL     1     179.654 184.673 201.618  1.00  0.00     0.000 C 
ENDROOT
BRANCH   1   2
ATOM      2  C   UNL     1     179.635 186.139 201.148  1.00  0.00     0.000 C 
BRANCH   2   3
ATOM      3  C   UNL     1     180.771 186.971 201.764  1.00  0.00     0.000 C 
BRANCH   3   4
ATOM      4  C   UNL     1     182.147 186.308 201.600  1.00  0.00     0.000 C 
BRANCH   4   5
ATOM      5  C   UNL     1     182.470 186.079 200.115  1.00  0.00     0.000 C 
BRANCH   5   6
ATOM      6  C   UNL     1     183.249 187.248 199.491  1.00  0.00     0.000 C 
BRANCH   6   7
ATOM      7  C   UNL     1     184.754 187.189 199.805  1.00  0.00     0.006 C 
BRANCH   7   8
ATOM      8  C   UNL     1     185.458 188.522 199.519  1.00  0.00     0.053 C 
BRANCH   8   9
ATOM      9  C   UNL     1     186.935 188.343 199.339  1.00  0.00     0.041 C 
ATOM     10  O   UNL     1     187.550 188.992 198.452  1.00  0.00    -0.550 OA
ATOM     11  O   UNL     1     187.626 187.434 200.131  1.00  0.00    -0.550 OA
ENDBRANCH   8   9
ENDBRANCH   7   8
ENDBRANCH   6   7
ENDBRANCH   5   6
ENDBRANCH   4   5
ENDBRANCH   3   4
ENDBRANCH   2   3
ENDBRANCH   1   2
BRANCH   1  12
ATOM     12  C   UNL     1     179.645 183.683 200.435  1.00  0.00     0.000 C 
BRANCH  12  13
ATOM     13  C   UNL     1     180.809 182.677 200.467  1.00  0.00    -0.000 C 
BRANCH  13  14
ATOM     14  C   UNL     1     181.618 182.741 201.770  1.00  0.00    -0.000 C 
BRANCH  14  15
ATOM     15  C   UNL     1     182.386 181.436 202.005  1.00  0.00    -0.000 C 
BRANCH  15  16
ATOM     16  C   UNL     1     183.886 181.624 201.734  1.00  0.00    -0.000 C 
BRANCH  16  17
ATOM     17  C   UNL     1     184.301 183.105 201.662  1.00  0.00    -0.000 C 
BRANCH  17  18
ATOM     18  C   UNL     1     185.099 183.500 200.402  1.00  0.00    -0.000 C 
BRANCH  18  19
ATOM     19  C   UNL     1     184.441 183.110 199.067  1.00  0.00    -0.003 C 
ATOM     20  C   UNL     1     184.898 183.984 197.900  1.00  0.00     0.004 C 
ENDBRANCH  18  19
ENDBRANCH  17  18
ENDBRANCH  16  17
ENDBRANCH  15  16
ENDBRANCH  14  15
ENDBRANCH  13  14
ENDBRANCH  12  13
ENDBRANCH   1  12
TORSDOF 16
ENDMDL
MODEL 2
REMARK VINA RESULT:    -4.056      1.218      3.960
REMARK INTER + INTRA:         -10.250
REMARK INTER:                  -7.822
REMARK INTRA:                  -2.427
REMARK UNBOUND:                -2.399
REMARK SMILES CCCCCCCCCCCCCCCCCC(=O)[O-]
REMARK SMILES IDX 10 1 11 2 12 3 13 4 14 5 15 6 16 7 17 8 18 9 19 10 20 11
REMARK SMILES IDX 9 12 8 13 7 14 6 15 5 16 4 17 3 18 2 19 1 20
REMARK H PARENT
REMARK Flexibility Score: inf
ROOT
ATOM      1  C   UNL     1     184.059 182.235 198.894  1.00  0.00     0.000 C 
ENDROOT
BRANCH   1   2
ATOM      2  C   UNL     1     184.745 183.588 198.630  1.00  0.00     0.000 C 
BRANCH   2   3
ATOM      3  C   UNL     1     185.224 184.270 199.922  1.00  0.00     0.000 C 
BRANCH   3   4
ATOM      4  C   UNL     1     184.467 185.573 200.218  1.00  0.00     0.000 C 
BRANCH   4   5
ATOM      5  C   UNL     1     183.411 185.850 199.137  1.00  0.00     0.000 C 
BRANCH   5   6
ATOM      6  C   UNL     1     183.173 187.352 198.913  1.00  0.00     0.000 C 
BRANCH   6   7
ATOM      7  C   UNL     1     183.913 188.227 199.941  1.00  0.00     0.006 C 
BRANCH   7   8
ATOM      8  C   UNL     1     184.665 189.388 199.278  1.00  0.00     0.053 C 
BRANCH   8   9
ATOM      9  C   UNL     1     186.138 189.121 199.199  1.00  0.00     0.041 C 
ATOM     10  O   UNL     1     186.962 189.985 199.601  1.00  0.00    -0.550 OA
ATOM     11  O   UNL     1     186.600 187.932 198.650  1.00  0.00    -0.550 OA
ENDBRANCH   8   9
ENDBRANCH   7   8
ENDBRANCH   6   7
ENDBRANCH   5   6
ENDBRANCH   4   5
ENDBRANCH   3   4
ENDBRANCH   2   3
ENDBRANCH   1   2
BRANCH   1  12
ATOM     12  C   UNL     1     184.071 181.860 200.392  1.00  0.00     0.000 C 
BRANCH  12  13
ATOM     13  C   UNL     1     182.839 181.049 200.831  1.00  0.00    -0.000 C 
BRANCH  13  14
ATOM     14  C   UNL     1     182.038 181.736 201.945  1.00  0.00    -0.000 C 
BRANCH  14  15
ATOM     15  C   UNL     1     181.236 182.921 201.396  1.00  0.00    -0.000 C 
BRANCH  15  16
ATOM     16  C   UNL     1     181.606 184.221 202.125  1.00  0.00    -0.000 C 
BRANCH  16  17
ATOM     17  C   UNL     1     180.629 185.373 201.828  1.00  0.00    -0.000 C 
BRANCH  17  18
ATOM     18  C   UNL     1     181.220 186.789 201.985  1.00  0.00    -0.000 C 
BRANCH  18  19
ATOM     19  C   UNL     1     180.271 187.936 201.596  1.00  0.00    -0.003 C 
ATOM     20  C   UNL     1     179.402 187.605 200.384  1.00  0.00     0.004 C 
ENDBRANCH  18  19
ENDBRANCH  17  18
ENDBRANCH  16  17
ENDBRANCH  15  16
ENDBRANCH  14  15
ENDBRANCH  13  14
ENDBRANCH  12  13
ENDBRANCH   1  12
TORSDOF 16
ENDMDL
MODEL 3
REMARK VINA RESULT:    -3.981      1.391      3.777
REMARK INTER + INTRA:         -10.105
REMARK INTER:                  -7.950
REMARK INTRA:                  -2.154
REMARK UNBOUND:                -2.399
REMARK SMILES CCCCCCCCCCCCCCCCCC(=O)[O-]
REMARK SMILES IDX 10 1 11 2 12 3 13 4 14 5 15 6 16 7 17 8 18 9 19 10 20 11
REMARK SMILES IDX 9 12 8 13 7 14 6 15 5 16 4 17 3 18 2 19 1 20
REMARK H PARENT
REMARK Flexibility Score: inf
ROOT
ATOM      1  C   UNL     1     185.327 184.868 200.274  1.00  0.00     0.000 C 
ENDROOT
BRANCH   1   2
ATOM      2  C   UNL     1     183.861 185.106 199.871  1.00  0.00     0.000 C 
BRANCH   2   3
ATOM      3  C   UNL     1     183.367 186.513 200.245  1.00  0.00     0.000 C 
BRANCH   3   4
ATOM      4  C   UNL     1     182.614 187.200 199.096  1.00  0.00     0.000 C 
BRANCH   4   5
ATOM      5  C   UNL     1     182.212 188.631 199.484  1.00  0.00     0.000 C 
BRANCH   5   6
ATOM      6  C   UNL     1     183.002 189.698 198.711  1.00  0.00     0.000 C 
BRANCH   6   7
ATOM      7  C   UNL     1     184.499 189.701 199.071  1.00  0.00     0.006 C 
BRANCH   7   8
ATOM      8  C   UNL     1     185.384 189.360 197.865  1.00  0.00     0.053 C 
BRANCH   8   9
ATOM      9  C   UNL     1     186.074 188.041 198.039  1.00  0.00     0.041 C 
ATOM     10  O   UNL     1     185.908 187.121 197.195  1.00  0.00    -0.550 OA
ATOM     11  O   UNL     1     186.876 187.818 199.151  1.00  0.00    -0.550 OA
ENDBRANCH   8   9
ENDBRANCH   7   8
ENDBRANCH   6   7
ENDBRANCH   5   6
ENDBRANCH   4   5
ENDBRANCH   3   4
ENDBRANCH   2   3
ENDBRANCH   1   2
BRANCH   1  12
ATOM     12  C   UNL     1     185.614 183.381 200.573  1.00  0.00     0.000 C 
BRANCH  12  13
ATOM     13  C   UNL     1     184.536 182.710 201.441  1.00  0.00    -0.000 C 
BRANCH  13  14
ATOM     14  C   UNL     1     183.789 181.589 200.706  1.00  0.00    -0.000 C 
BRANCH  14  15
ATOM     15  C   UNL     1     182.507 181.200 201.452  1.00  0.00    -0.000 C 
BRANCH  15  16
ATOM     16  C   UNL     1     181.681 182.444 201.812  1.00  0.00    -0.000 C 
BRANCH  16  17
ATOM     17  C   UNL     1     181.007 183.089 200.588  1.00  0.00    -0.000 C 
BRANCH  17  18
ATOM     18  C   UNL     1     179.990 184.203 200.913  1.00  0.00    -0.000 C 
BRANCH  18  19
ATOM     19  C   UNL     1     180.435 185.190 202.006  1.00  0.00    -0.003 C 
ATOM     20  C   UNL     1     179.918 186.609 201.774  1.00  0.00     0.004 C 
ENDBRANCH  18  19
ENDBRANCH  17  18
ENDBRANCH  16  17
ENDBRANCH  15  16
ENDBRANCH  14  15
ENDBRANCH  13  14
ENDBRANCH  12  13
ENDBRANCH   1  12
TORSDOF 16
ENDMDL
MODEL 4
REMARK VINA RESULT:    -3.961      1.730      1.996
REMARK INTER + INTRA:         -10.066
REMARK INTER:                  -7.923
REMARK INTRA:                  -2.143
REMARK UNBOUND:                -2.399
REMARK SMILES CCCCCCCCCCCCCCCCCC(=O)[O-]
REMARK SMILES IDX 10 1 11 2 12 3 13 4 14 5 15 6 16 7 17 8 18 9 19 10 20 11
REMARK SMILES IDX 9 12 8 13 7 14 6 15 5 16 4 17 3 18 2 19 1 20
REMARK H PARENT
REMARK Flexibility Score: inf
ROOT
ATOM      1  C   UNL     1     179.586 184.696 201.572  1.00  0.00     0.000 C 
ENDROOT
BRANCH   1   2
ATOM      2  C   UNL     1     179.504 186.173 201.147  1.00  0.00     0.000 C 
BRANCH   2   3
ATOM      3  C   UNL     1     180.525 187.056 201.881  1.00  0.00     0.000 C 
BRANCH   3   4
ATOM      4  C   UNL     1     181.904 186.391 202.002  1.00  0.00     0.000 C 
BRANCH   4   5
ATOM      5  C   UNL     1     182.539 186.193 200.618  1.00  0.00     0.000 C 
BRANCH   5   6
ATOM      6  C   UNL     1     183.164 187.483 200.063  1.00  0.00     0.000 C 
BRANCH   6   7
ATOM      7  C   UNL     1     182.346 188.085 198.906  1.00  0.00     0.006 C 
BRANCH   7   8
ATOM      8  C   UNL     1     183.204 188.968 197.990  1.00  0.00     0.053 C 
BRANCH   8   9
ATOM      9  C   UNL     1     183.575 190.259 198.652  1.00  0.00     0.041 C 
ATOM     10  O   UNL     1     184.706 190.775 198.449  1.00  0.00    -0.550 OA
ATOM     11  O   UNL     1     182.683 190.877 199.520  1.00  0.00    -0.550 OA
ENDBRANCH   8   9
ENDBRANCH   7   8
ENDBRANCH   6   7
ENDBRANCH   5   6
ENDBRANCH   4   5
ENDBRANCH   3   4
ENDBRANCH   2   3
ENDBRANCH   1   2
BRANCH   1  12
ATOM     12  C   UNL     1     179.577 183.740 200.359  1.00  0.00     0.000 C 
BRANCH  12  13
ATOM     13  C   UNL     1     180.691 182.681 200.404  1.00  0.00    -0.000 C 
BRANCH  13  14
ATOM     14  C   UNL     1     181.515 182.735 201.697  1.00  0.00    -0.000 C 
BRANCH  14  15
ATOM     15  C   UNL     1     182.219 181.398 201.956  1.00  0.00    -0.000 C 
BRANCH  15  16
ATOM     16  C   UNL     1     183.743 181.547 201.839  1.00  0.00    -0.000 C 
BRANCH  16  17
ATOM     17  C   UNL     1     184.203 183.016 201.832  1.00  0.00    -0.000 C 
BRANCH  17  18
ATOM     18  C   UNL     1     184.978 183.453 200.571  1.00  0.00    -0.000 C 
BRANCH  18  19
ATOM     19  C   UNL     1     184.244 183.209 199.241  1.00  0.00    -0.003 C 
ATOM     20  C   UNL     1     184.852 183.987 198.074  1.00  0.00     0.004 C 
ENDBRANCH  18  19
ENDBRANCH  17  18
ENDBRANCH  16  17
ENDBRANCH  15  16
ENDBRANCH  14  15
ENDBRANCH  13  14
ENDBRANCH  12  13
ENDBRANCH   1  12
TORSDOF 16
ENDMDL
MODEL 5
REMARK VINA RESULT:    -3.908      1.886      3.341
REMARK INTER + INTRA:          -9.962
REMARK INTER:                  -7.599
REMARK INTRA:                  -2.362
REMARK UNBOUND:                -2.399
REMARK SMILES CCCCCCCCCCCCCCCCCC(=O)[O-]
REMARK SMILES IDX 10 1 11 2 12 3 13 4 14 5 15 6 16 7 17 8 18 9 19 10 20 11
REMARK SMILES IDX 9 12 8 13 7 14 6 15 5 16 4 17 3 18 2 19 1 20
REMARK H PARENT
REMARK Flexibility Score: inf
ROOT
ATOM      1  C   UNL     1     181.351 183.148 201.097  1.00  0.00     0.000 C 
ENDROOT
BRANCH   1   2
ATOM      2  C   UNL     1     180.632 184.040 202.125  1.00  0.00     0.000 C 
BRANCH   2   3
ATOM      3  C   UNL     1     179.888 185.215 201.469  1.00  0.00     0.000 C 
BRANCH   3   4
ATOM      4  C   UNL     1     180.421 186.581 201.926  1.00  0.00     0.000 C 
BRANCH   4   5
ATOM      5  C   UNL     1     181.949 186.647 201.788  1.00  0.00     0.000 C 
BRANCH   5   6
ATOM      6  C   UNL     1     182.416 187.828 200.923  1.00  0.00     0.000 C 
BRANCH   6   7
ATOM      7  C   UNL     1     181.866 187.763 199.487  1.00  0.00     0.006 C 
BRANCH   7   8
ATOM      8  C   UNL     1     181.650 189.158 198.886  1.00  0.00     0.053 C 
BRANCH   8   9
ATOM      9  C   UNL     1     182.875 189.654 198.181  1.00  0.00     0.041 C 
ATOM     10  O   UNL     1     183.408 188.963 197.272  1.00  0.00    -0.550 OA
ATOM     11  O   UNL     1     183.447 190.865 198.550  1.00  0.00    -0.550 OA
ENDBRANCH   8   9
ENDBRANCH   7   8
ENDBRANCH   6   7
ENDBRANCH   5   6
ENDBRANCH   4   5
ENDBRANCH   3   4
ENDBRANCH   2   3
ENDBRANCH   1   2
BRANCH   1  12
ATOM     12  C   UNL     1     182.020 181.924 201.757  1.00  0.00     0.000 C 
BRANCH  12  13
ATOM     13  C   UNL     1     183.538 181.852 201.520  1.00  0.00    -0.000 C 
BRANCH  13  14
ATOM     14  C   UNL     1     184.290 183.062 202.091  1.00  0.00    -0.000 C 
BRANCH  14  15
ATOM     15  C   UNL     1     185.367 183.550 201.116  1.00  0.00    -0.000 C 
BRANCH  15  16
ATOM     16  C   UNL     1     184.848 183.533 199.670  1.00  0.00    -0.000 C 
BRANCH  16  17
ATOM     17  C   UNL     1     184.115 184.830 199.281  1.00  0.00    -0.000 C 
BRANCH  17  18
ATOM     18  C   UNL     1     185.008 185.925 198.662  1.00  0.00    -0.000 C 
BRANCH  18  19
ATOM     19  C   UNL     1     185.728 186.828 199.679  1.00  0.00    -0.003 C 
ATOM     20  C   UNL     1     186.185 188.156 199.077  1.00  0.00     0.004 C 
ENDBRANCH  18  19
ENDBRANCH  17  18
ENDBRANCH  16  17
ENDBRANCH  15  16
ENDBRANCH  14  15
ENDBRANCH  13  14
ENDBRANCH  12  13
ENDBRANCH   1  12
TORSDOF 16
ENDMDL
MODEL 6
REMARK VINA RESULT:    -3.894      3.267      5.818
REMARK INTER + INTRA:          -9.936
REMARK INTER:                  -7.185
REMARK INTRA:                  -2.750
REMARK UNBOUND:                -2.399
REMARK SMILES CCCCCCCCCCCCCCCCCC(=O)[O-]
REMARK SMILES IDX 10 1 11 2 12 3 13 4 14 5 15 6 16 7 17 8 18 9 19 10 20 11
REMARK SMILES IDX 9 12 8 13 7 14 6 15 5 16 4 17 3 18 2 19 1 20
REMARK H PARENT
REMARK Flexibility Score: inf
ROOT
ATOM      1  C   UNL     1     186.315 189.731 198.065  1.00  0.00     0.000 C 
ENDROOT
BRANCH   1   2
ATOM      2  C   UNL     1     184.851 190.140 198.308  1.00  0.00     0.000 C 
BRANCH   2   3
ATOM      3  C   UNL     1     183.866 189.365 197.417  1.00  0.00     0.000 C 
BRANCH   3   4
ATOM      4  C   UNL     1     182.684 188.786 198.208  1.00  0.00     0.000 C 
BRANCH   4   5
ATOM      5  C   UNL     1     182.859 189.032 199.714  1.00  0.00     0.000 C 
BRANCH   5   6
ATOM      6  C   UNL     1     181.697 189.833 200.322  1.00  0.00     0.000 C 
BRANCH   6   7
ATOM      7  C   UNL     1     180.718 190.356 199.256  1.00  0.00     0.006 C 
BRANCH   7   8
ATOM      8  C   UNL     1     180.503 191.871 199.361  1.00  0.00     0.053 C 
BRANCH   8   9
ATOM      9  C   UNL     1     181.798 192.622 199.284  1.00  0.00     0.041 C 
ATOM     10  O   UNL     1     182.455 192.646 198.210  1.00  0.00    -0.550 OA
ATOM     11  O   UNL     1     182.295 193.267 200.410  1.00  0.00    -0.550 OA
ENDBRANCH   8   9
ENDBRANCH   7   8
ENDBRANCH   6   7
ENDBRANCH   5   6
ENDBRANCH   4   5
ENDBRANCH   3   4
ENDBRANCH   2   3
ENDBRANCH   1   2
BRANCH   1  12
ATOM     12  C   UNL     1     186.540 188.219 198.278  1.00  0.00     0.000 C 
BRANCH  12  13
ATOM     13  C   UNL     1     186.457 187.788 199.753  1.00  0.00    -0.000 C 
BRANCH  13  14
ATOM     14  C   UNL     1     185.637 186.506 199.955  1.00  0.00    -0.000 C 
BRANCH  14  15
ATOM     15  C   UNL     1     185.089 185.987 198.621  1.00  0.00    -0.000 C 
BRANCH  15  16
ATOM     16  C   UNL     1     183.778 185.215 198.827  1.00  0.00    -0.000 C 
BRANCH  16  17
ATOM     17  C   UNL     1     183.237 185.326 200.264  1.00  0.00    -0.000 C 
BRANCH  17  18
ATOM     18  C   UNL     1     182.969 183.979 200.968  1.00  0.00    -0.000 C 
BRANCH  18  19
ATOM     19  C   UNL     1     183.966 183.620 202.084  1.00  0.00    -0.003 C 
ATOM     20  C   UNL     1     185.218 182.917 201.560  1.00  0.00     0.004 C 
ENDBRANCH  18  19
ENDBRANCH  17  18
ENDBRANCH  16  17
ENDBRANCH  15  16
ENDBRANCH  14  15
ENDBRANCH  13  14
ENDBRANCH  12  13
ENDBRANCH   1  12
TORSDOF 16
ENDMDL
MODEL 7
REMARK VINA RESULT:    -3.877      1.483      4.047
REMARK INTER + INTRA:          -9.902
REMARK INTER:                  -7.724
REMARK INTRA:                  -2.178
REMARK UNBOUND:                -2.399
REMARK SMILES CCCCCCCCCCCCCCCCCC(=O)[O-]
REMARK SMILES IDX 10 1 11 2 12 3 13 4 14 5 15 6 16 7 17 8 18 9 19 10 20 11
REMARK SMILES IDX 9 12 8 13 7 14 6 15 5 16 4 17 3 18 2 19 1 20
REMARK H PARENT
REMARK Flexibility Score: inf
ROOT
ATOM      1  C   UNL     1     182.905 182.092 200.007  1.00  0.00     0.000 C 
ENDROOT
BRANCH   1   2
ATOM      2  C   UNL     1     184.142 182.531 200.812  1.00  0.00     0.000 C 
BRANCH   2   3
ATOM      3  C   UNL     1     185.176 183.272 199.949  1.00  0.00     0.000 C 
BRANCH   3   4
ATOM      4  C   UNL     1     184.992 184.796 199.982  1.00  0.00     0.000 C 
BRANCH   4   5
ATOM      5  C   UNL     1     184.794 185.355 198.565  1.00  0.00     0.000 C 
BRANCH   5   6
ATOM      6  C   UNL     1     185.311 186.795 198.419  1.00  0.00     0.000 C 
BRANCH   6   7
ATOM      7  C   UNL     1     186.042 187.291 199.680  1.00  0.00     0.006 C 
BRANCH   7   8
ATOM      8  C   UNL     1     185.681 188.742 200.025  1.00  0.00     0.053 C 
BRANCH   8   9
ATOM      9  C   UNL     1     186.550 189.719 199.294  1.00  0.00     0.041 C 
ATOM     10  O   UNL     1     187.715 189.964 199.706  1.00  0.00    -0.550 OA
ATOM     11  O   UNL     1     186.062 190.383 198.176  1.00  0.00    -0.550 OA
ENDBRANCH   8   9
ENDBRANCH   7   8
ENDBRANCH   6   7
ENDBRANCH   5   6
ENDBRANCH   4   5
ENDBRANCH   3   4
ENDBRANCH   2   3
ENDBRANCH   1   2
BRANCH   1  12
ATOM     12  C   UNL     1     181.593 182.310 200.792  1.00  0.00     0.000 C 
BRANCH  12  13
ATOM     13  C   UNL     1     181.656 183.489 201.777  1.00  0.00    -0.000 C 
BRANCH  13  14
ATOM     14  C   UNL     1     180.320 184.234 201.904  1.00  0.00    -0.000 C 
BRANCH  14  15
ATOM     15  C   UNL     1     180.542 185.746 202.021  1.00  0.00    -0.000 C 
BRANCH  15  16
ATOM     16  C   UNL     1     181.994 186.117 201.685  1.00  0.00    -0.000 C 
BRANCH  16  17
ATOM     17  C   UNL     1     182.118 186.937 200.389  1.00  0.00    -0.000 C 
BRANCH  17  18
ATOM     18  C   UNL     1     180.937 187.888 200.102  1.00  0.00    -0.000 C 
BRANCH  18  19
ATOM     19  C   UNL     1     180.966 188.562 198.718  1.00  0.00    -0.003 C 
ATOM     20  C   UNL     1     182.377 188.946 198.273  1.00  0.00     0.004 C 
ENDBRANCH  18  19
ENDBRANCH  17  18
ENDBRANCH  16  17
ENDBRANCH  15  16
ENDBRANCH  14  15
ENDBRANCH  13  14
ENDBRANCH  12  13
ENDBRANCH   1  12
TORSDOF 16
ENDMDL
MODEL 8
REMARK VINA RESULT:    -3.826      1.700      5.305
REMARK INTER + INTRA:          -9.803
REMARK INTER:                  -7.731
REMARK INTRA:                  -2.073
REMARK UNBOUND:                -2.399
REMARK SMILES CCCCCCCCCCCCCCCCCC(=O)[O-]
REMARK SMILES IDX 10 1 11 2 12 3 13 4 14 5 15 6 16 7 17 8 18 9 19 10 20 11
REMARK SMILES IDX 9 12 8 13 7 14 6 15 5 16 4 17 3 18 2 19 1 20
REMARK H PARENT
REMARK Flexibility Score: inf
ROOT
ATOM      1  C   UNL     1     181.690 185.201 202.110  1.00  0.00     0.000 C 
ENDROOT
BRANCH   1   2
ATOM      2  C   UNL     1     180.729 183.999 202.125  1.00  0.00     0.000 C 
BRANCH   2   3
ATOM      3  C   UNL     1     181.097 182.936 201.078  1.00  0.00     0.000 C 
BRANCH   3   4
ATOM      4  C   UNL     1     181.819 181.726 201.691  1.00  0.00     0.000 C 
BRANCH   4   5
ATOM      5  C   UNL     1     183.084 181.381 200.891  1.00  0.00     0.000 C 
BRANCH   5   6
ATOM      6  C   UNL     1     183.260 182.269 199.649  1.00  0.00     0.000 C 
BRANCH   6   7
ATOM      7  C   UNL     1     184.595 183.034 199.653  1.00  0.00     0.006 C 
BRANCH   7   8
ATOM      8  C   UNL     1     185.050 183.394 201.073  1.00  0.00     0.053 C 
BRANCH   8   9
ATOM      9  C   UNL     1     186.412 184.020 201.078  1.00  0.00     0.041 C 
ATOM     10  O   UNL     1     186.570 185.200 200.668  1.00  0.00    -0.550 OA
ATOM     11  O   UNL     1     187.513 183.286 201.503  1.00  0.00    -0.550 OA
ENDBRANCH   8   9
ENDBRANCH   7   8
ENDBRANCH   6   7
ENDBRANCH   5   6
ENDBRANCH   4   5
ENDBRANCH   3   4
ENDBRANCH   2   3
ENDBRANCH   1   2
BRANCH   1  12
ATOM     12  C   UNL     1     181.817 185.826 200.704  1.00  0.00     0.000 C 
BRANCH  12  13
ATOM     13  C   UNL     1     183.129 186.602 200.493  1.00  0.00    -0.000 C 
BRANCH  13  14
ATOM     14  C   UNL     1     183.606 186.584 199.034  1.00  0.00    -0.000 C 
BRANCH  14  15
ATOM     15  C   UNL     1     184.185 187.943 198.628  1.00  0.00    -0.000 C 
BRANCH  15  16
ATOM     16  C   UNL     1     185.708 187.861 198.448  1.00  0.00    -0.000 C 
BRANCH  16  17
ATOM     17  C   UNL     1     186.357 189.236 198.204  1.00  0.00    -0.000 C 
BRANCH  17  18
ATOM     18  C   UNL     1     187.251 189.750 199.351  1.00  0.00    -0.000 C 
BRANCH  18  19
ATOM     19  C   UNL     1     187.445 188.763 200.516  1.00  0.00    -0.003 C 
ATOM     20  C   UNL     1     187.153 189.387 201.880  1.00  0.00     0.004 C 
ENDBRANCH  18  19
ENDBRANCH  17  18
ENDBRANCH  16  17
ENDBRANCH  15  16
ENDBRANCH  14  15
ENDBRANCH  13  14
ENDBRANCH  12  13
ENDBRANCH   1  12
TORSDOF 16
ENDMDL
MODEL 9
REMARK VINA RESULT:    -3.825      1.833      4.783
REMARK INTER + INTRA:          -9.801
REMARK INTER:                  -7.675
REMARK INTRA:                  -2.126
REMARK UNBOUND:                -2.399
REMARK SMILES CCCCCCCCCCCCCCCCCC(=O)[O-]
REMARK SMILES IDX 10 1 11 2 12 3 13 4 14 5 15 6 16 7 17 8 18 9 19 10 20 11
REMARK SMILES IDX 9 12 8 13 7 14 6 15 5 16 4 17 3 18 2 19 1 20
REMARK H PARENT
REMARK Flexibility Score: inf
ROOT
ATOM      1  C   UNL     1     181.631 182.514 200.732  1.00  0.00     0.000 C 
ENDROOT
BRANCH   1   2
ATOM      2  C   UNL     1     182.943 181.723 200.575  1.00  0.00     0.000 C 
BRANCH   2   3
ATOM      3  C   UNL     1     184.151 182.631 200.298  1.00  0.00     0.000 C 
BRANCH   3   4
ATOM      4  C   UNL     1     184.496 182.717 198.804  1.00  0.00     0.000 C 
BRANCH   4   5
ATOM      5  C   UNL     1     184.508 184.178 198.327  1.00  0.00     0.000 C 
BRANCH   5   6
ATOM      6  C   UNL     1     183.871 185.137 199.345  1.00  0.00     0.000 C 
BRANCH   6   7
ATOM      7  C   UNL     1     184.060 186.615 198.962  1.00  0.00     0.006 C 
BRANCH   7   8
ATOM      8  C   UNL     1     185.105 187.312 199.843  1.00  0.00     0.053 C 
BRANCH   8   9
ATOM      9  C   UNL     1     186.340 187.660 199.070  1.00  0.00     0.041 C 
ATOM     10  O   UNL     1     187.423 187.890 199.672  1.00  0.00    -0.550 OA
ATOM     11  O   UNL     1     186.288 187.762 197.685  1.00  0.00    -0.550 OA
ENDBRANCH   8   9
ENDBRANCH   7   8
ENDBRANCH   6   7
ENDBRANCH   5   6
ENDBRANCH   4   5
ENDBRANCH   3   4
ENDBRANCH   2   3
ENDBRANCH   1   2
BRANCH   1  12
ATOM     12  C   UNL     1     181.663 183.455 201.955  1.00  0.00     0.000 C 
BRANCH  12  13
ATOM     13  C   UNL     1     180.553 184.521 201.939  1.00  0.00    -0.000 C 
BRANCH  13  14
ATOM     14  C   UNL     1     181.095 185.944 201.747  1.00  0.00    -0.000 C 
BRANCH  14  15
ATOM     15  C   UNL     1     180.506 186.591 200.488  1.00  0.00    -0.000 C 
BRANCH  15  16
ATOM     16  C   UNL     1     180.893 188.075 200.400  1.00  0.00    -0.000 C 
BRANCH  16  17
ATOM     17  C   UNL     1     180.599 188.689 199.019  1.00  0.00    -0.000 C 
BRANCH  17  18
ATOM     18  C   UNL     1     181.781 189.442 198.373  1.00  0.00    -0.000 C 
BRANCH  18  19
ATOM     19  C   UNL     1     182.751 190.104 199.368  1.00  0.00    -0.003 C 
ATOM     20  C   UNL     1     182.251 191.455 199.878  1.00  0.00     0.004 C 
ENDBRANCH  18  19
ENDBRANCH  17  18
ENDBRANCH  16  17
ENDBRANCH  15  16
ENDBRANCH  14  15
ENDBRANCH  13  14
ENDBRANCH  12  13
ENDBRANCH   1  12
TORSDOF 16
ENDMDL
