MODEL 1
REMARK VINA RESULT:    -5.198      0.000      0.000
REMARK INTER + INTRA:          -8.131
REMARK INTER:                  -7.629
REMARK INTRA:                  -0.501
REMARK UNBOUND:                -0.501
REMARK SMILES O=C([O-])CCCCCCCC(=O)[O-]
REMARK SMILES IDX 7 1 6 2 5 3 4 4 2 5 1 6 3 7 8 8 9 9 10 10 11 11 12 12 13 13
REMARK H PARENT
REMARK Flexibility Score: inf
ROOT
ATOM      1  C   UNL     1      17.734   7.977  49.512  1.00  0.00     0.000 C 
ENDROOT
BRANCH   1   2
ATOM      2  C   UNL     1      16.464   7.278  50.028  1.00  0.00     0.000 C 
BRANCH   2   3
ATOM      3  C   UNL     1      15.871   6.299  49.002  1.00  0.00     0.006 C 
BRANCH   3   4
ATOM      4  C   UNL     1      14.588   6.832  48.349  1.00  0.00     0.053 C 
BRANCH   4   5
ATOM      5  C   UNL     1      14.918   7.638  47.133  1.00  0.00     0.041 C 
ATOM      6  O   UNL     1      14.056   8.405  46.626  1.00  0.00    -0.550 OA
ATOM      7  O   UNL     1      16.162   7.507  46.529  1.00  0.00    -0.550 OA
ENDBRANCH   4   5
ENDBRANCH   3   4
ENDBRANCH   2   3
ENDBRANCH   1   2
BRANCH   1   8
ATOM      8  C   UNL     1      17.649   9.508  49.622  1.00  0.00     0.000 C 
BRANCH   8   9
ATOM      9  C   UNL     1      17.959  10.020  51.037  1.00  0.00     0.006 C 
BRANCH   9  10
ATOM     10  C   UNL     1      19.222   9.355  51.595  1.00  0.00     0.053 C 
BRANCH  10  11
ATOM     11  C   UNL     1      18.951   8.762  52.942  1.00  0.00     0.041 C 
ATOM     12  O   UNL     1      18.028   7.918  53.088  1.00  0.00    -0.550 OA
ATOM     13  O   UNL     1      19.685   9.179  54.045  1.00  0.00    -0.550 OA
ENDBRANCH  10  11
ENDBRANCH   9  10
ENDBRANCH   8   9
ENDBRANCH   1   8
TORSDOF 8
ENDMDL
MODEL 2
REMARK VINA RESULT:    -5.048      2.297      5.857
REMARK INTER + INTRA:          -7.910
REMARK INTER:                  -7.449
REMARK INTRA:                  -0.462
REMARK UNBOUND:                -0.501
REMARK SMILES O=C([O-])CCCCCCCC(=O)[O-]
REMARK SMILES IDX 7 1 6 2 5 3 4 4 2 5 1 6 3 7 8 8 9 9 10 10 11 11 12 12 13 13
REMARK H PARENT
REMARK Flexibility Score: inf
ROOT
ATOM      1  C   UNL     1      17.436   7.323  49.684  1.00  0.00     0.000 C 
ENDROOT
BRANCH   1   2
ATOM      2  C   UNL     1      17.352   8.540  50.623  1.00  0.00     0.000 C 
BRANCH   2   3
ATOM      3  C   UNL     1      17.806   9.842  49.943  1.00  0.00     0.006 C 
BRANCH   3   4
ATOM      4  C   UNL     1      19.131  10.373  50.507  1.00  0.00     0.053 C 
BRANCH   4   5
ATOM      5  C   UNL     1      20.242  10.145  49.531  1.00  0.00     0.041 C 
ATOM      6  O   UNL     1      20.346   9.040  48.936  1.00  0.00    -0.550 OA
ATOM      7  O   UNL     1      21.190  11.136  49.314  1.00  0.00    -0.550 OA
ENDBRANCH   4   5
ENDBRANCH   3   4
ENDBRANCH   2   3
ENDBRANCH   1   2
BRANCH   1   8
ATOM      8  C   UNL     1      16.153   6.477  49.700  1.00  0.00     0.000 C 
BRANCH   8   9
ATOM      9  C   UNL     1      14.895   7.300  49.382  1.00  0.00     0.006 C 
BRANCH   9  10
ATOM     10  C   UNL     1      14.367   6.974  47.981  1.00  0.00     0.053 C 
BRANCH  10  11
ATOM     11  C   UNL     1      14.631   8.110  47.044  1.00  0.00     0.041 C 
ATOM     12  O   UNL     1      13.952   8.233  45.991  1.00  0.00    -0.550 OA
ATOM     13  O   UNL     1      15.661   9.004  47.308  1.00  0.00    -0.550 OA
ENDBRANCH  10  11
ENDBRANCH   9  10
ENDBRANCH   8   9
ENDBRANCH   1   8
TORSDOF 8
ENDMDL
MODEL 3
REMARK VINA RESULT:    -4.998      0.804      6.131
REMARK INTER + INTRA:          -7.838
REMARK INTER:                  -7.424
REMARK INTRA:                  -0.413
REMARK UNBOUND:                -0.501
REMARK SMILES O=C([O-])CCCCCCCC(=O)[O-]
REMARK SMILES IDX 7 1 6 2 5 3 4 4 2 5 1 6 3 7 8 8 9 9 10 10 11 11 12 12 13 13
REMARK H PARENT
REMARK Flexibility Score: inf
ROOT
ATOM      1  C   UNL     1      17.744   7.759  49.361  1.00  0.00     0.000 C 
ENDROOT
BRANCH   1   2
ATOM      2  C   UNL     1      17.611   9.292  49.382  1.00  0.00     0.000 C 
BRANCH   2   3
ATOM      3  C   UNL     1      18.703   9.968  50.227  1.00  0.00     0.006 C 
BRANCH   3   4
ATOM      4  C   UNL     1      18.332  10.056  51.714  1.00  0.00     0.053 C 
BRANCH   4   5
ATOM      5  C   UNL     1      19.138   9.079  52.511  1.00  0.00     0.041 C 
ATOM      6  O   UNL     1      19.075   9.082  53.769  1.00  0.00    -0.550 OA
ATOM      7  O   UNL     1      19.996   8.197  51.866  1.00  0.00    -0.550 OA
ENDBRANCH   4   5
ENDBRANCH   3   4
ENDBRANCH   2   3
ENDBRANCH   1   2
BRANCH   1   8
ATOM      8  C   UNL     1      16.506   7.053  49.936  1.00  0.00     0.000 C 
BRANCH   8   9
ATOM      9  C   UNL     1      15.768   6.203  48.891  1.00  0.00     0.006 C 
BRANCH   9  10
ATOM     10  C   UNL     1      14.512   6.922  48.390  1.00  0.00     0.053 C 
BRANCH  10  11
ATOM     11  C   UNL     1      14.796   7.644  47.110  1.00  0.00     0.041 C 
ATOM     12  O   UNL     1      13.887   8.300  46.537  1.00  0.00    -0.550 OA
ATOM     13  O   UNL     1      16.052   7.552  46.525  1.00  0.00    -0.550 OA
ENDBRANCH  10  11
ENDBRANCH   9  10
ENDBRANCH   8   9
ENDBRANCH   1   8
TORSDOF 8
ENDMDL
MODEL 4
REMARK VINA RESULT:    -4.977      0.445      1.351
REMARK INTER + INTRA:          -7.806
REMARK INTER:                  -7.236
REMARK INTRA:                  -0.571
REMARK UNBOUND:                -0.501
REMARK SMILES O=C([O-])CCCCCCCC(=O)[O-]
REMARK SMILES IDX 7 1 6 2 5 3 4 4 2 5 1 6 3 7 8 8 9 9 10 10 11 11 12 12 13 13
REMARK H PARENT
REMARK Flexibility Score: inf
ROOT
ATOM      1  C   UNL     1      17.996   8.094  49.439  1.00  0.00     0.000 C 
ENDROOT
BRANCH   1   2
ATOM      2  C   UNL     1      16.901   7.101  49.866  1.00  0.00     0.000 C 
BRANCH   2   3
ATOM      3  C   UNL     1      15.488   7.592  49.509  1.00  0.00     0.006 C 
BRANCH   3   4
ATOM      4  C   UNL     1      14.906   6.879  48.281  1.00  0.00     0.053 C 
BRANCH   4   5
ATOM      5  C   UNL     1      15.042   7.740  47.065  1.00  0.00     0.041 C 
ATOM      6  O   UNL     1      16.149   7.830  46.472  1.00  0.00    -0.550 OA
ATOM      7  O   UNL     1      13.958   8.482  46.615  1.00  0.00    -0.550 OA
ENDBRANCH   4   5
ENDBRANCH   3   4
ENDBRANCH   2   3
ENDBRANCH   1   2
BRANCH   1   8
ATOM      8  C   UNL     1      17.594   9.556  49.684  1.00  0.00     0.000 C 
BRANCH   8   9
ATOM      9  C   UNL     1      18.211  10.136  50.966  1.00  0.00     0.006 C 
BRANCH   9  10
ATOM     10  C   UNL     1      19.331   9.232  51.491  1.00  0.00     0.053 C 
BRANCH  10  11
ATOM     11  C   UNL     1      19.014   8.754  52.873  1.00  0.00     0.041 C 
ATOM     12  O   UNL     1      19.730   9.107  53.846  1.00  0.00    -0.550 OA
ATOM     13  O   UNL     1      17.956   7.878  53.079  1.00  0.00    -0.550 OA
ENDBRANCH  10  11
ENDBRANCH   9  10
ENDBRANCH   8   9
ENDBRANCH   1   8
TORSDOF 8
ENDMDL
MODEL 5
REMARK VINA RESULT:    -4.960      1.148      5.981
REMARK INTER + INTRA:          -7.782
REMARK INTER:                  -7.420
REMARK INTRA:                  -0.362
REMARK UNBOUND:                -0.501
REMARK SMILES O=C([O-])CCCCCCCC(=O)[O-]
REMARK SMILES IDX 7 1 6 2 5 3 4 4 2 5 1 6 3 7 8 8 9 9 10 10 11 11 12 12 13 13
REMARK H PARENT
REMARK Flexibility Score: inf
ROOT
ATOM      1  C   UNL     1      15.731   7.395  50.098  1.00  0.00     0.000 C 
ENDROOT
BRANCH   1   2
ATOM      2  C   UNL     1      17.253   7.625  50.066  1.00  0.00     0.000 C 
BRANCH   2   3
ATOM      3  C   UNL     1      17.621   9.103  49.862  1.00  0.00     0.006 C 
BRANCH   3   4
ATOM      4  C   UNL     1      18.068   9.786  51.162  1.00  0.00     0.053 C 
BRANCH   4   5
ATOM      5  C   UNL     1      18.967   8.881  51.944  1.00  0.00     0.041 C 
ATOM      6  O   UNL     1      18.679   8.572  53.130  1.00  0.00    -0.550 OA
ATOM      7  O   UNL     1      20.148   8.418  51.378  1.00  0.00    -0.550 OA
ENDBRANCH   4   5
ENDBRANCH   3   4
ENDBRANCH   2   3
ENDBRANCH   1   2
BRANCH   1   8
ATOM      8  C   UNL     1      15.275   6.332  49.086  1.00  0.00     0.000 C 
BRANCH   8   9
ATOM      9  C   UNL     1      14.408   6.916  47.960  1.00  0.00     0.006 C 
BRANCH   9  10
ATOM     10  C   UNL     1      15.027   8.203  47.405  1.00  0.00     0.053 C 
BRANCH  10  11
ATOM     11  C   UNL     1      15.966   7.892  46.283  1.00  0.00     0.041 C 
ATOM     12  O   UNL     1      15.655   8.182  45.098  1.00  0.00    -0.550 OA
ATOM     13  O   UNL     1      17.164   7.236  46.540  1.00  0.00    -0.550 OA
ENDBRANCH  10  11
ENDBRANCH   9  10
ENDBRANCH   8   9
ENDBRANCH   1   8
TORSDOF 8
ENDMDL
MODEL 6
REMARK VINA RESULT:    -4.818      1.469      2.110
REMARK INTER + INTRA:          -7.573
REMARK INTER:                  -7.064
REMARK INTRA:                  -0.509
REMARK UNBOUND:                -0.501
REMARK SMILES O=C([O-])CCCCCCCC(=O)[O-]
REMARK SMILES IDX 7 1 6 2 5 3 4 4 2 5 1 6 3 7 8 8 9 9 10 10 11 11 12 12 13 13
REMARK H PARENT
REMARK Flexibility Score: inf
ROOT
ATOM      1  C   UNL     1      16.078   6.677  49.884  1.00  0.00     0.000 C 
ENDROOT
BRANCH   1   2
ATOM      2  C   UNL     1      14.630   7.044  49.516  1.00  0.00     0.000 C 
BRANCH   2   3
ATOM      3  C   UNL     1      14.267   6.641  48.077  1.00  0.00     0.006 C 
BRANCH   3   4
ATOM      4  C   UNL     1      14.152   7.848  47.136  1.00  0.00     0.053 C 
BRANCH   4   5
ATOM      5  C   UNL     1      15.510   8.380  46.801  1.00  0.00     0.041 C 
ATOM      6  O   UNL     1      16.301   7.700  46.097  1.00  0.00    -0.550 OA
ATOM      7  O   UNL     1      15.919   9.607  47.308  1.00  0.00    -0.550 OA
ENDBRANCH   4   5
ENDBRANCH   3   4
ENDBRANCH   2   3
ENDBRANCH   1   2
BRANCH   1   8
ATOM      8  C   UNL     1      16.941   7.913  50.183  1.00  0.00     0.000 C 
BRANCH   8   9
ATOM      9  C   UNL     1      18.350   7.814  49.578  1.00  0.00     0.006 C 
BRANCH   9  10
ATOM     10  C   UNL     1      19.421   8.077  50.641  1.00  0.00     0.053 C 
BRANCH  10  11
ATOM     11  C   UNL     1      19.145   9.360  51.358  1.00  0.00     0.041 C 
ATOM     12  O   UNL     1      19.127  10.449  50.726  1.00  0.00    -0.550 OA
ATOM     13  O   UNL     1      18.956   9.360  52.734  1.00  0.00    -0.550 OA
ENDBRANCH  10  11
ENDBRANCH   9  10
ENDBRANCH   8   9
ENDBRANCH   1   8
TORSDOF 8
ENDMDL
MODEL 7
REMARK VINA RESULT:    -4.811      2.214      2.525
REMARK INTER + INTRA:          -7.563
REMARK INTER:                  -7.134
REMARK INTRA:                  -0.428
REMARK UNBOUND:                -0.501
REMARK SMILES O=C([O-])CCCCCCCC(=O)[O-]
REMARK SMILES IDX 7 1 6 2 5 3 4 4 2 5 1 6 3 7 8 8 9 9 10 10 11 11 12 12 13 13
REMARK H PARENT
REMARK Flexibility Score: inf
ROOT
ATOM      1  C   UNL     1      17.050   7.768  50.228  1.00  0.00     0.000 C 
ENDROOT
BRANCH   1   2
ATOM      2  C   UNL     1      15.636   7.198  50.014  1.00  0.00     0.000 C 
BRANCH   2   3
ATOM      3  C   UNL     1      15.451   6.587  48.616  1.00  0.00     0.006 C 
BRANCH   3   4
ATOM      4  C   UNL     1      15.081   7.634  47.556  1.00  0.00     0.053 C 
BRANCH   4   5
ATOM      5  C   UNL     1      16.146   7.714  46.508  1.00  0.00     0.041 C 
ATOM      6  O   UNL     1      15.902   8.253  45.396  1.00  0.00    -0.550 OA
ATOM      7  O   UNL     1      17.393   7.150  46.741  1.00  0.00    -0.550 OA
ENDBRANCH   4   5
ENDBRANCH   3   4
ENDBRANCH   2   3
ENDBRANCH   1   2
BRANCH   1   8
ATOM      8  C   UNL     1      17.117   9.283  49.982  1.00  0.00     0.000 C 
BRANCH   8   9
ATOM      9  C   UNL     1      18.047  10.005  50.969  1.00  0.00     0.006 C 
BRANCH   9  10
ATOM     10  C   UNL     1      19.437   9.361  50.982  1.00  0.00     0.053 C 
BRANCH  10  11
ATOM     11  C   UNL     1      20.137   9.597  49.681  1.00  0.00     0.041 C 
ATOM     12  O   UNL     1      20.674  10.711  49.444  1.00  0.00    -0.550 OA
ATOM     13  O   UNL     1      20.152   8.604  48.710  1.00  0.00    -0.550 OA
ENDBRANCH  10  11
ENDBRANCH   9  10
ENDBRANCH   8   9
ENDBRANCH   1   8
TORSDOF 8
ENDMDL
MODEL 8
REMARK VINA RESULT:    -4.446      1.636      2.465
REMARK INTER + INTRA:          -7.027
REMARK INTER:                  -6.779
REMARK INTRA:                  -0.248
REMARK UNBOUND:                -0.501
REMARK SMILES O=C([O-])CCCCCCCC(=O)[O-]
REMARK SMILES IDX 7 1 6 2 5 3 4 4 2 5 1 6 3 7 8 8 9 9 10 10 11 11 12 12 13 13
REMARK H PARENT
REMARK Flexibility Score: inf
ROOT
ATOM      1  C   UNL     1      18.551   9.968  50.464  1.00  0.00     0.000 C 
ENDROOT
BRANCH   1   2
ATOM      2  C   UNL     1      17.454   9.664  49.429  1.00  0.00     0.000 C 
BRANCH   2   3
ATOM      3  C   UNL     1      16.903   8.234  49.556  1.00  0.00     0.006 C 
BRANCH   3   4
ATOM      4  C   UNL     1      15.772   7.944  48.559  1.00  0.00     0.053 C 
BRANCH   4   5
ATOM      5  C   UNL     1      15.099   6.651  48.897  1.00  0.00     0.041 C 
ATOM      6  O   UNL     1      15.759   5.706  49.402  1.00  0.00    -0.550 OA
ATOM      7  O   UNL     1      13.752   6.474  48.608  1.00  0.00    -0.550 OA
ENDBRANCH   4   5
ENDBRANCH   3   4
ENDBRANCH   2   3
ENDBRANCH   1   2
BRANCH   1   8
ATOM      8  C   UNL     1      19.855   9.206  50.183  1.00  0.00     0.000 C 
BRANCH   8   9
ATOM      9  C   UNL     1      20.085   8.042  51.159  1.00  0.00     0.006 C 
BRANCH   9  10
ATOM     10  C   UNL     1      19.042   8.054  52.280  1.00  0.00     0.053 C 
BRANCH  10  11
ATOM     11  C   UNL     1      19.648   8.550  53.555  1.00  0.00     0.041 C 
ATOM     12  O   UNL     1      20.687   8.008  54.016  1.00  0.00    -0.550 OA
ATOM     13  O   UNL     1      19.037   9.579  54.260  1.00  0.00    -0.550 OA
ENDBRANCH  10  11
ENDBRANCH   9  10
ENDBRANCH   8   9
ENDBRANCH   1   8
TORSDOF 8
ENDMDL
MODEL 9
REMARK VINA RESULT:    -4.438      2.043      2.574
REMARK INTER + INTRA:          -7.015
REMARK INTER:                  -6.542
REMARK INTRA:                  -0.473
REMARK UNBOUND:                -0.501
REMARK SMILES O=C([O-])CCCCCCCC(=O)[O-]
REMARK SMILES IDX 7 1 6 2 5 3 4 4 2 5 1 6 3 7 8 8 9 9 10 10 11 11 12 12 13 13
REMARK H PARENT
REMARK Flexibility Score: inf
ROOT
ATOM      1  C   UNL     1      18.119   7.684  47.315  1.00  0.00     0.000 C 
ENDROOT
BRANCH   1   2
ATOM      2  C   UNL     1      16.758   7.217  46.767  1.00  0.00     0.000 C 
BRANCH   2   3
ATOM      3  C   UNL     1      15.647   8.258  46.983  1.00  0.00     0.006 C 
BRANCH   3   4
ATOM      4  C   UNL     1      14.305   7.620  47.368  1.00  0.00     0.053 C 
BRANCH   4   5
ATOM      5  C   UNL     1      14.456   6.798  48.609  1.00  0.00     0.041 C 
ATOM      6  O   UNL     1      14.168   5.572  48.597  1.00  0.00    -0.550 OA
ATOM      7  O   UNL     1      14.868   7.396  49.793  1.00  0.00    -0.550 OA
ENDBRANCH   4   5
ENDBRANCH   3   4
ENDBRANCH   2   3
ENDBRANCH   1   2
BRANCH   1   8
ATOM      8  C   UNL     1      18.150   7.731  48.850  1.00  0.00     0.000 C 
BRANCH   8   9
ATOM      9  C   UNL     1      19.468   8.296  49.401  1.00  0.00     0.006 C 
BRANCH   9  10
ATOM     10  C   UNL     1      19.296   9.751  49.847  1.00  0.00     0.053 C 
BRANCH  10  11
ATOM     11  C   UNL     1      18.720   9.811  51.227  1.00  0.00     0.041 C 
ATOM     12  O   UNL     1      17.902  10.718  51.533  1.00  0.00    -0.550 OA
ATOM     13  O   UNL     1      19.126   8.896  52.190  1.00  0.00    -0.550 OA
ENDBRANCH  10  11
ENDBRANCH   9  10
ENDBRANCH   8   9
ENDBRANCH   1   8
TORSDOF 8
ENDMDL
