MODEL 1
REMARK VINA RESULT:    -5.419      0.000      0.000
REMARK INTER + INTRA:          -7.541
REMARK INTER:                  -6.845
REMARK INTRA:                  -0.696
REMARK UNBOUND:                -0.696
REMARK SMILES O=C(C=Cc1ccc(O)cc1)c1ccc(O)cc1O
REMARK SMILES IDX 4 1 3 2 5 3 6 4 7 5 8 6 11 7 10 8 9 9 2 11 1 12 12 13 18 14
REMARK SMILES IDX 13 15 17 16 14 17 15 18 19 19 16 21
REMARK H PARENT 9 10 19 20 16 22
REMARK Flexibility Score: inf
ROOT
ATOM      1  C   UNL     1       6.567  10.852   7.597  1.00  0.00     0.012 C 
ATOM      2  C   UNL     1       5.562  10.021   7.285  1.00  0.00     0.053 C 
ENDROOT
BRANCH   1   3
ATOM      3  C   UNL     1       7.512  11.408   6.599  1.00  0.00    -0.025 A 
ATOM      4  C   UNL     1       6.997  11.919   5.395  1.00  0.00     0.012 A 
ATOM      5  C   UNL     1       7.850  12.462   4.429  1.00  0.00     0.047 A 
ATOM      6  C   UNL     1       9.227  12.515   4.657  1.00  0.00     0.115 A 
ATOM      7  C   UNL     1       8.902  11.479   6.827  1.00  0.00     0.012 A 
ATOM      8  C   UNL     1       9.751  12.025   5.860  1.00  0.00     0.047 A 
BRANCH   6   9
ATOM      9  O   UNL     1      10.065  13.059   3.686  1.00  0.00    -0.508 OA
ATOM     10  H   UNL     1       9.886  13.972   3.284  1.00  0.00     0.293 HD
ENDBRANCH   6   9
ENDBRANCH   1   3
BRANCH   2  11
ATOM     11  C   UNL     1       4.628   9.497   8.306  1.00  0.00     0.189 C 
ATOM     12  O   UNL     1       4.880   8.406   8.887  1.00  0.00    -0.289 OA
BRANCH  11  13
ATOM     13  C   UNL     1       3.418  10.259   8.699  1.00  0.00     0.064 A 
ATOM     14  C   UNL     1       3.225  10.721  10.019  1.00  0.00     0.130 A 
ATOM     15  C   UNL     1       2.448  10.549   7.723  1.00  0.00     0.020 A 
ATOM     16  C   UNL     1       2.056  11.424  10.348  1.00  0.00     0.093 A 
ATOM     17  C   UNL     1       1.292  11.257   8.059  1.00  0.00     0.047 A 
ATOM     18  C   UNL     1       1.090  11.692   9.371  1.00  0.00     0.119 A 
BRANCH  14  19
ATOM     19  O   UNL     1       4.198  10.507  10.996  1.00  0.00    -0.507 OA
ATOM     20  H   UNL     1       4.731   9.647  11.037  1.00  0.00     0.293 HD
ENDBRANCH  14  19
BRANCH  18  21
ATOM     21  O   UNL     1      -0.071  12.392   9.692  1.00  0.00    -0.508 OA
ATOM     22  H   UNL     1      -0.464  12.365  10.625  1.00  0.00     0.293 HD
ENDBRANCH  18  21
ENDBRANCH  11  13
ENDBRANCH   2  11
TORSDOF 6
ENDMDL
MODEL 2
REMARK VINA RESULT:    -5.201      1.785      7.488
REMARK INTER + INTRA:          -7.265
REMARK INTER:                  -6.644
REMARK INTRA:                  -0.621
REMARK UNBOUND:                -0.696
REMARK SMILES O=C(C=Cc1ccc(O)cc1)c1ccc(O)cc1O
REMARK SMILES IDX 4 1 3 2 5 3 6 4 7 5 8 6 11 7 10 8 9 9 2 11 1 12 12 13 18 14
REMARK SMILES IDX 13 15 17 16 14 17 15 18 19 19 16 21
REMARK H PARENT 9 10 19 20 16 22
REMARK Flexibility Score: inf
ROOT
ATOM      1  C   UNL     1       5.692  10.932   8.633  1.00  0.00     0.012 C 
ATOM      2  C   UNL     1       6.220  11.489   7.532  1.00  0.00     0.053 C 
ENDROOT
BRANCH   1   3
ATOM      3  C   UNL     1       4.303  11.176   9.091  1.00  0.00    -0.025 A 
ATOM      4  C   UNL     1       3.847  12.502   9.181  1.00  0.00     0.012 A 
ATOM      5  C   UNL     1       2.542  12.778   9.599  1.00  0.00     0.047 A 
ATOM      6  C   UNL     1       1.670  11.735   9.921  1.00  0.00     0.115 A 
ATOM      7  C   UNL     1       3.413  10.128   9.403  1.00  0.00     0.012 A 
ATOM      8  C   UNL     1       2.108  10.408   9.820  1.00  0.00     0.047 A 
BRANCH   6   9
ATOM      9  O   UNL     1       0.373  12.025  10.336  1.00  0.00    -0.508 OA
ATOM     10  H   UNL     1      -0.340  12.320   9.679  1.00  0.00     0.293 HD
ENDBRANCH   6   9
ENDBRANCH   1   3
BRANCH   2  11
ATOM     11  C   UNL     1       7.606  11.210   7.096  1.00  0.00     0.189 C 
ATOM     12  O   UNL     1       8.357  10.491   7.811  1.00  0.00    -0.289 OA
BRANCH  11  13
ATOM     13  C   UNL     1       8.118  11.720   5.802  1.00  0.00     0.064 A 
ATOM     14  C   UNL     1       9.279  12.520   5.724  1.00  0.00     0.130 A 
ATOM     15  C   UNL     1       7.442  11.377   4.618  1.00  0.00     0.020 A 
ATOM     16  C   UNL     1       9.718  12.994   4.478  1.00  0.00     0.093 A 
ATOM     17  C   UNL     1       7.892  11.848   3.382  1.00  0.00     0.047 A 
ATOM     18  C   UNL     1       9.026  12.659   3.308  1.00  0.00     0.119 A 
BRANCH  14  19
ATOM     19  O   UNL     1      10.011  12.824   6.872  1.00  0.00    -0.507 OA
ATOM     20  H   UNL     1       9.976  13.743   7.298  1.00  0.00     0.293 HD
ENDBRANCH  14  19
BRANCH  18  21
ATOM     21  O   UNL     1       9.458  13.125   2.068  1.00  0.00    -0.508 OA
ATOM     22  H   UNL     1       9.392  12.552   1.235  1.00  0.00     0.293 HD
ENDBRANCH  18  21
ENDBRANCH  11  13
ENDBRANCH   2  11
TORSDOF 6
ENDMDL
MODEL 3
REMARK VINA RESULT:    -5.034      1.787      7.435
REMARK INTER + INTRA:          -7.054
REMARK INTER:                  -6.666
REMARK INTRA:                  -0.388
REMARK UNBOUND:                -0.696
REMARK SMILES O=C(C=Cc1ccc(O)cc1)c1ccc(O)cc1O
REMARK SMILES IDX 4 1 3 2 5 3 6 4 7 5 8 6 11 7 10 8 9 9 2 11 1 12 12 13 18 14
REMARK SMILES IDX 13 15 17 16 14 17 15 18 19 19 16 21
REMARK H PARENT 9 10 19 20 16 22
REMARK Flexibility Score: inf
ROOT
ATOM      1  C   UNL     1       5.230  10.957   8.036  1.00  0.00     0.012 C 
ATOM      2  C   UNL     1       6.303  11.745   7.875  1.00  0.00     0.053 C 
ENDROOT
BRANCH   1   3
ATOM      3  C   UNL     1       3.937  11.432   8.583  1.00  0.00    -0.025 A 
ATOM      4  C   UNL     1       2.810  10.601   8.465  1.00  0.00     0.012 A 
ATOM      5  C   UNL     1       1.572  11.005   8.974  1.00  0.00     0.047 A 
ATOM      6  C   UNL     1       1.444  12.237   9.620  1.00  0.00     0.115 A 
ATOM      7  C   UNL     1       3.803  12.668   9.250  1.00  0.00     0.012 A 
ATOM      8  C   UNL     1       2.564  13.067   9.759  1.00  0.00     0.047 A 
BRANCH   6   9
ATOM      9  O   UNL     1       0.205  12.625  10.123  1.00  0.00    -0.508 OA
ATOM     10  H   UNL     1      -0.089  13.595  10.117  1.00  0.00     0.293 HD
ENDBRANCH   6   9
ENDBRANCH   1   3
BRANCH   2  11
ATOM     11  C   UNL     1       7.574  11.239   7.311  1.00  0.00     0.189 C 
ATOM     12  O   UNL     1       8.241  10.373   7.941  1.00  0.00    -0.289 OA
BRANCH  11  13
ATOM     13  C   UNL     1       8.060  11.698   5.988  1.00  0.00     0.064 A 
ATOM     14  C   UNL     1       7.432  11.303   4.786  1.00  0.00     0.130 A 
ATOM     15  C   UNL     1       9.161  12.570   5.930  1.00  0.00     0.020 A 
ATOM     16  C   UNL     1       7.936  11.749   3.555  1.00  0.00     0.093 A 
ATOM     17  C   UNL     1       9.651  13.014   4.699  1.00  0.00     0.047 A 
ATOM     18  C   UNL     1       9.045  12.603   3.511  1.00  0.00     0.119 A 
BRANCH  14  19
ATOM     19  O   UNL     1       6.297  10.492   4.811  1.00  0.00    -0.507 OA
ATOM     20  H   UNL     1       6.033   9.971   5.639  1.00  0.00     0.293 HD
ENDBRANCH  14  19
BRANCH  18  21
ATOM     21  O   UNL     1       9.549  13.051   2.291  1.00  0.00    -0.508 OA
ATOM     22  H   UNL     1       9.683  14.038   2.105  1.00  0.00     0.293 HD
ENDBRANCH  18  21
ENDBRANCH  11  13
ENDBRANCH   2  11
TORSDOF 6
ENDMDL
MODEL 4
REMARK VINA RESULT:    -4.704      1.879      7.455
REMARK INTER + INTRA:          -6.638
REMARK INTER:                  -6.368
REMARK INTRA:                  -0.271
REMARK UNBOUND:                -0.696
REMARK SMILES O=C(C=Cc1ccc(O)cc1)c1ccc(O)cc1O
REMARK SMILES IDX 4 1 3 2 5 3 6 4 7 5 8 6 11 7 10 8 9 9 2 11 1 12 12 13 18 14
REMARK SMILES IDX 13 15 17 16 14 17 15 18 19 19 16 21
REMARK H PARENT 9 10 19 20 16 22
REMARK Flexibility Score: inf
ROOT
ATOM      1  C   UNL     1       5.846  10.666   8.132  1.00  0.00     0.012 C 
ATOM      2  C   UNL     1       6.742  11.616   7.827  1.00  0.00     0.053 C 
ENDROOT
BRANCH   1   3
ATOM      3  C   UNL     1       4.524  10.949   8.739  1.00  0.00    -0.025 A 
ATOM      4  C   UNL     1       4.167  12.286   8.983  1.00  0.00     0.012 A 
ATOM      5  C   UNL     1       2.926  12.600   9.545  1.00  0.00     0.047 A 
ATOM      6  C   UNL     1       2.019  11.585   9.860  1.00  0.00     0.115 A 
ATOM      7  C   UNL     1       3.597   9.931   9.046  1.00  0.00     0.012 A 
ATOM      8  C   UNL     1       2.356  10.250   9.607  1.00  0.00     0.047 A 
BRANCH   6   9
ATOM      9  O   UNL     1       0.786  11.913  10.420  1.00  0.00    -0.508 OA
ATOM     10  H   UNL     1       0.711  12.577  11.182  1.00  0.00     0.293 HD
ENDBRANCH   6   9
ENDBRANCH   1   3
BRANCH   2  11
ATOM     11  C   UNL     1       8.047  11.297   7.206  1.00  0.00     0.189 C 
ATOM     12  O   UNL     1       8.883  10.587   7.829  1.00  0.00    -0.289 OA
BRANCH  11  13
ATOM     13  C   UNL     1       8.376  11.759   5.836  1.00  0.00     0.064 A 
ATOM     14  C   UNL     1       7.627  11.347   4.711  1.00  0.00     0.130 A 
ATOM     15  C   UNL     1       9.447  12.651   5.655  1.00  0.00     0.020 A 
ATOM     16  C   UNL     1       7.985  11.797   3.432  1.00  0.00     0.093 A 
ATOM     17  C   UNL     1       9.791  13.100   4.378  1.00  0.00     0.047 A 
ATOM     18  C   UNL     1       9.065  12.672   3.264  1.00  0.00     0.119 A 
BRANCH  14  19
ATOM     19  O   UNL     1       6.518  10.515   4.863  1.00  0.00    -0.507 OA
ATOM     20  H   UNL     1       5.573  10.881   4.855  1.00  0.00     0.293 HD
ENDBRANCH  14  19
BRANCH  18  21
ATOM     21  O   UNL     1       9.424  13.124   1.995  1.00  0.00    -0.508 OA
ATOM     22  H   UNL     1       9.366  12.522   1.183  1.00  0.00     0.293 HD
ENDBRANCH  18  21
ENDBRANCH  11  13
ENDBRANCH   2  11
TORSDOF 6
ENDMDL
