MODEL 1
REMARK VINA RESULT:    -5.173      0.000      0.000
REMARK INTER + INTRA:          -6.256
REMARK INTER:                  -5.929
REMARK INTRA:                  -0.327
REMARK UNBOUND:                -0.327
REMARK SMILES COc1ccc(C(C)=O)c(O)c1
REMARK SMILES IDX 6 1 10 2 12 3 3 4 4 5 5 6 7 7 8 8 9 9 11 10 2 12 1 13
REMARK H PARENT 11 11
REMARK Flexibility Score: inf
ROOT
ATOM      1  C   UNL     1     -12.509  -7.535  38.034  1.00  0.00     0.059 A 
ATOM      2  C   UNL     1     -13.575  -7.250  37.149  1.00  0.00     0.130 A 
ATOM      3  C   UNL     1     -14.628  -6.419  37.560  1.00  0.00     0.093 A 
ATOM      4  C   UNL     1     -14.644  -5.859  38.840  1.00  0.00     0.122 A 
ATOM      5  C   UNL     1     -13.586  -6.137  39.720  1.00  0.00     0.047 A 
ATOM      6  C   UNL     1     -12.534  -6.964  39.322  1.00  0.00     0.019 A 
ENDROOT
BRANCH   1   7
ATOM      7  C   UNL     1     -11.382  -8.422  37.626  1.00  0.00     0.163 C 
ATOM      8  C   UNL     1     -10.823  -9.461  38.552  1.00  0.00     0.093 C 
ATOM      9  O   UNL     1     -10.892  -8.333  36.469  1.00  0.00    -0.294 OA
ENDBRANCH   1   7
BRANCH   2  10
ATOM     10  O   UNL     1     -13.589  -7.778  35.857  1.00  0.00    -0.507 OA
ATOM     11  H   UNL     1     -13.246  -7.252  35.061  1.00  0.00     0.293 HD
ENDBRANCH   2  10
BRANCH   4  12
ATOM     12  O   UNL     1     -15.723  -5.036  39.195  1.00  0.00    -0.497 OA
ATOM     13  C   UNL     1     -17.084  -5.456  39.208  1.00  0.00     0.278 C 
ENDBRANCH   4  12
TORSDOF 3
ENDMDL
MODEL 2
REMARK VINA RESULT:    -5.115      1.299      4.609
REMARK INTER + INTRA:          -6.190
REMARK INTER:                  -5.858
REMARK INTRA:                  -0.332
REMARK UNBOUND:                -0.327
REMARK SMILES COc1ccc(C(C)=O)c(O)c1
REMARK SMILES IDX 6 1 10 2 12 3 3 4 4 5 5 6 7 7 8 8 9 9 11 10 2 12 1 13
REMARK H PARENT 11 11
REMARK Flexibility Score: inf
ROOT
ATOM      1  C   UNL     1     -13.580  -6.689  38.351  1.00  0.00     0.059 A 
ATOM      2  C   UNL     1     -13.185  -7.262  37.119  1.00  0.00     0.130 A 
ATOM      3  C   UNL     1     -12.096  -8.146  37.072  1.00  0.00     0.093 A 
ATOM      4  C   UNL     1     -11.389  -8.477  38.230  1.00  0.00     0.122 A 
ATOM      5  C   UNL     1     -11.780  -7.912  39.454  1.00  0.00     0.047 A 
ATOM      6  C   UNL     1     -12.860  -7.030  39.513  1.00  0.00     0.019 A 
ENDROOT
BRANCH   1   7
ATOM      7  C   UNL     1     -14.726  -5.738  38.428  1.00  0.00     0.163 C 
ATOM      8  C   UNL     1     -14.668  -4.501  39.274  1.00  0.00     0.093 C 
ATOM      9  O   UNL     1     -15.769  -5.947  37.753  1.00  0.00    -0.294 OA
ENDBRANCH   1   7
BRANCH   2  10
ATOM     10  O   UNL     1     -13.875  -6.968  35.943  1.00  0.00    -0.507 OA
ATOM     11  H   UNL     1     -14.497  -6.171  35.873  1.00  0.00     0.293 HD
ENDBRANCH   2  10
BRANCH   4  12
ATOM     12  O   UNL     1     -10.309  -9.367  38.120  1.00  0.00    -0.497 OA
ATOM     13  C   UNL     1      -9.608  -9.635  36.910  1.00  0.00     0.278 C 
ENDBRANCH   4  12
TORSDOF 3
ENDMDL
MODEL 3
REMARK VINA RESULT:    -5.061      1.865      3.255
REMARK INTER + INTRA:          -6.127
REMARK INTER:                  -5.809
REMARK INTRA:                  -0.319
REMARK UNBOUND:                -0.327
REMARK SMILES COc1ccc(C(C)=O)c(O)c1
REMARK SMILES IDX 6 1 10 2 12 3 3 4 4 5 5 6 7 7 8 8 9 9 11 10 2 12 1 13
REMARK H PARENT 11 11
REMARK Flexibility Score: inf
ROOT
ATOM      1  C   UNL     1     -10.598  -9.229  39.032  1.00  0.00     0.059 A 
ATOM      2  C   UNL     1     -10.829  -9.362  37.643  1.00  0.00     0.130 A 
ATOM      3  C   UNL     1     -11.779  -8.549  37.007  1.00  0.00     0.093 A 
ATOM      4  C   UNL     1     -12.508  -7.598  37.726  1.00  0.00     0.122 A 
ATOM      5  C   UNL     1     -12.279  -7.461  39.104  1.00  0.00     0.047 A 
ATOM      6  C   UNL     1     -11.337  -8.266  39.748  1.00  0.00     0.019 A 
ENDROOT
BRANCH   1   7
ATOM      7  C   UNL     1      -9.601 -10.087  39.736  1.00  0.00     0.163 C 
ATOM      8  C   UNL     1      -9.841 -10.594  41.127  1.00  0.00     0.093 C 
ATOM      9  O   UNL     1      -8.537 -10.430  39.154  1.00  0.00    -0.294 OA
ENDBRANCH   1   7
BRANCH   2  10
ATOM     10  O   UNL     1     -10.112 -10.290  36.887  1.00  0.00    -0.507 OA
ATOM     11  H   UNL     1     -10.480 -10.674  36.024  1.00  0.00     0.293 HD
ENDBRANCH   2  10
BRANCH   4  12
ATOM     12  O   UNL     1     -13.444  -6.813  37.036  1.00  0.00    -0.497 OA
ATOM     13  C   UNL     1     -14.480  -6.063  37.660  1.00  0.00     0.278 C 
ENDBRANCH   4  12
TORSDOF 3
ENDMDL
MODEL 4
REMARK VINA RESULT:    -5.017      1.246      4.969
REMARK INTER + INTRA:          -6.078
REMARK INTER:                  -5.748
REMARK INTRA:                  -0.329
REMARK UNBOUND:                -0.327
REMARK SMILES COc1ccc(C(C)=O)c(O)c1
REMARK SMILES IDX 6 1 10 2 12 3 3 4 4 5 5 6 7 7 8 8 9 9 11 10 2 12 1 13
REMARK H PARENT 11 11
REMARK Flexibility Score: inf
ROOT
ATOM      1  C   UNL     1     -14.151  -6.080  38.564  1.00  0.00     0.059 A 
ATOM      2  C   UNL     1     -13.123  -6.639  39.359  1.00  0.00     0.130 A 
ATOM      3  C   UNL     1     -12.203  -7.534  38.792  1.00  0.00     0.093 A 
ATOM      4  C   UNL     1     -12.282  -7.886  37.442  1.00  0.00     0.122 A 
ATOM      5  C   UNL     1     -13.299  -7.330  36.649  1.00  0.00     0.047 A 
ATOM      6  C   UNL     1     -14.220  -6.440  37.203  1.00  0.00     0.019 A 
ENDROOT
BRANCH   1   7
ATOM      7  C   UNL     1     -15.148  -5.134  39.143  1.00  0.00     0.163 C 
ATOM      8  C   UNL     1     -16.605  -5.479  39.226  1.00  0.00     0.093 C 
ATOM      9  O   UNL     1     -14.774  -4.023  39.605  1.00  0.00    -0.294 OA
ENDBRANCH   1   7
BRANCH   2  10
ATOM     10  O   UNL     1     -13.002  -6.302  40.707  1.00  0.00    -0.507 OA
ATOM     11  H   UNL     1     -12.944  -7.009  41.431  1.00  0.00     0.293 HD
ENDBRANCH   2  10
BRANCH   4  12
ATOM     12  O   UNL     1     -11.334  -8.785  36.931  1.00  0.00    -0.497 OA
ATOM     13  C   UNL     1     -10.706  -9.811  37.694  1.00  0.00     0.278 C 
ENDBRANCH   4  12
TORSDOF 3
ENDMDL
MODEL 5
REMARK VINA RESULT:    -4.911      7.432      9.174
REMARK INTER + INTRA:          -5.956
REMARK INTER:                  -5.622
REMARK INTRA:                  -0.334
REMARK UNBOUND:                -0.327
REMARK SMILES COc1ccc(C(C)=O)c(O)c1
REMARK SMILES IDX 6 1 10 2 12 3 3 4 4 5 5 6 7 7 8 8 9 9 11 10 2 12 1 13
REMARK H PARENT 11 11
REMARK Flexibility Score: inf
ROOT
ATOM      1  C   UNL     1     -17.085  -8.946  44.315  1.00  0.00     0.059 A 
ATOM      2  C   UNL     1     -17.405  -8.480  45.612  1.00  0.00     0.130 A 
ATOM      3  C   UNL     1     -16.989  -9.201  46.741  1.00  0.00     0.093 A 
ATOM      4  C   UNL     1     -16.254 -10.382  46.609  1.00  0.00     0.122 A 
ATOM      5  C   UNL     1     -15.932 -10.846  45.324  1.00  0.00     0.047 A 
ATOM      6  C   UNL     1     -16.343 -10.137  44.193  1.00  0.00     0.019 A 
ENDROOT
BRANCH   1   7
ATOM      7  C   UNL     1     -17.524  -8.205  43.098  1.00  0.00     0.163 C 
ATOM      8  C   UNL     1     -18.125  -8.912  41.919  1.00  0.00     0.093 C 
ATOM      9  O   UNL     1     -17.422  -6.950  43.049  1.00  0.00    -0.294 OA
ENDBRANCH   1   7
BRANCH   2  10
ATOM     10  O   UNL     1     -18.125  -7.298  45.787  1.00  0.00    -0.507 OA
ATOM     11  H   UNL     1     -17.792  -6.554  46.389  1.00  0.00     0.293 HD
ENDBRANCH   2  10
BRANCH   4  12
ATOM     12  O   UNL     1     -15.864 -11.059  47.775  1.00  0.00    -0.497 OA
ATOM     13  C   UNL     1     -14.613 -11.718  47.941  1.00  0.00     0.278 C 
ENDBRANCH   4  12
TORSDOF 3
ENDMDL
MODEL 6
REMARK VINA RESULT:    -4.872      1.409      2.206
REMARK INTER + INTRA:          -5.911
REMARK INTER:                  -5.574
REMARK INTRA:                  -0.337
REMARK UNBOUND:                -0.327
REMARK SMILES COc1ccc(C(C)=O)c(O)c1
REMARK SMILES IDX 6 1 10 2 12 3 3 4 4 5 5 6 7 7 8 8 9 9 11 10 2 12 1 13
REMARK H PARENT 11 11
REMARK Flexibility Score: inf
ROOT
ATOM      1  C   UNL     1     -12.286  -7.740  37.847  1.00  0.00     0.059 A 
ATOM      2  C   UNL     1     -12.452  -7.306  39.183  1.00  0.00     0.130 A 
ATOM      3  C   UNL     1     -13.493  -6.424  39.512  1.00  0.00     0.093 A 
ATOM      4  C   UNL     1     -14.381  -5.964  38.535  1.00  0.00     0.122 A 
ATOM      5  C   UNL     1     -14.221  -6.396  37.209  1.00  0.00     0.047 A 
ATOM      6  C   UNL     1     -13.188  -7.271  36.870  1.00  0.00     0.019 A 
ENDROOT
BRANCH   1   7
ATOM      7  C   UNL     1     -11.183  -8.668  37.467  1.00  0.00     0.163 C 
ATOM      8  C   UNL     1     -10.248  -8.360  36.335  1.00  0.00     0.093 C 
ATOM      9  O   UNL     1     -10.996  -9.730  38.119  1.00  0.00    -0.294 OA
ENDBRANCH   1   7
BRANCH   2  10
ATOM     10  O   UNL     1     -11.596  -7.753  40.189  1.00  0.00    -0.507 OA
ATOM     11  H   UNL     1     -10.608  -7.525  40.190  1.00  0.00     0.293 HD
ENDBRANCH   2  10
BRANCH   4  12
ATOM     12  O   UNL     1     -15.403  -5.085  38.925  1.00  0.00    -0.497 OA
ATOM     13  C   UNL     1     -16.748  -5.477  39.177  1.00  0.00     0.278 C 
ENDBRANCH   4  12
TORSDOF 3
ENDMDL
MODEL 7
REMARK VINA RESULT:    -4.846      3.551      5.275
REMARK INTER + INTRA:          -5.882
REMARK INTER:                  -5.569
REMARK INTRA:                  -0.313
REMARK UNBOUND:                -0.327
REMARK SMILES COc1ccc(C(C)=O)c(O)c1
REMARK SMILES IDX 6 1 10 2 12 3 3 4 4 5 5 6 7 7 8 8 9 9 11 10 2 12 1 13
REMARK H PARENT 11 11
REMARK Flexibility Score: inf
ROOT
ATOM      1  C   UNL     1     -16.196  -6.244  40.392  1.00  0.00     0.059 A 
ATOM      2  C   UNL     1     -17.464  -6.868  40.327  1.00  0.00     0.130 A 
ATOM      3  C   UNL     1     -18.076  -7.338  41.498  1.00  0.00     0.093 A 
ATOM      4  C   UNL     1     -17.453  -7.198  42.742  1.00  0.00     0.122 A 
ATOM      5  C   UNL     1     -16.197  -6.576  42.810  1.00  0.00     0.047 A 
ATOM      6  C   UNL     1     -15.577  -6.106  41.650  1.00  0.00     0.019 A 
ENDROOT
BRANCH   1   7
ATOM      7  C   UNL     1     -15.517  -5.744  39.162  1.00  0.00     0.163 C 
ATOM      8  C   UNL     1     -14.644  -4.525  39.183  1.00  0.00     0.093 C 
ATOM      9  O   UNL     1     -15.645  -6.363  38.071  1.00  0.00    -0.294 OA
ENDBRANCH   1   7
BRANCH   2  10
ATOM     10  O   UNL     1     -18.125  -7.014  39.108  1.00  0.00    -0.507 OA
ATOM     11  H   UNL     1     -18.789  -7.762  38.946  1.00  0.00     0.293 HD
ENDBRANCH   2  10
BRANCH   4  12
ATOM     12  O   UNL     1     -18.115  -7.687  43.878  1.00  0.00    -0.497 OA
ATOM     13  C   UNL     1     -17.646  -8.766  44.679  1.00  0.00     0.278 C 
ENDBRANCH   4  12
TORSDOF 3
ENDMDL
MODEL 8
REMARK VINA RESULT:    -4.739      2.428      3.842
REMARK INTER + INTRA:          -5.759
REMARK INTER:                  -5.430
REMARK INTRA:                  -0.329
REMARK UNBOUND:                -0.327
REMARK SMILES COc1ccc(C(C)=O)c(O)c1
REMARK SMILES IDX 6 1 10 2 12 3 3 4 4 5 5 6 7 7 8 8 9 9 11 10 2 12 1 13
REMARK H PARENT 11 11
REMARK Flexibility Score: inf
ROOT
ATOM      1  C   UNL     1     -10.597  -9.394  39.201  1.00  0.00     0.059 A 
ATOM      2  C   UNL     1     -11.275  -8.347  39.868  1.00  0.00     0.130 A 
ATOM      3  C   UNL     1     -12.164  -7.522  39.162  1.00  0.00     0.093 A 
ATOM      4  C   UNL     1     -12.398  -7.720  37.798  1.00  0.00     0.122 A 
ATOM      5  C   UNL     1     -11.729  -8.760  37.134  1.00  0.00     0.047 A 
ATOM      6  C   UNL     1     -10.841  -9.585  37.826  1.00  0.00     0.019 A 
ENDROOT
BRANCH   1   7
ATOM      7  C   UNL     1      -9.639 -10.278  39.924  1.00  0.00     0.163 C 
ATOM      8  C   UNL     1      -8.329 -10.685  39.317  1.00  0.00     0.093 C 
ATOM      9  O   UNL     1      -9.904 -10.683  41.088  1.00  0.00    -0.294 OA
ENDBRANCH   1   7
BRANCH   2  10
ATOM     10  O   UNL     1     -11.080  -8.127  41.232  1.00  0.00    -0.507 OA
ATOM     11  H   UNL     1     -11.783  -7.675  41.805  1.00  0.00     0.293 HD
ENDBRANCH   2  10
BRANCH   4  12
ATOM     12  O   UNL     1     -13.298  -6.864  37.146  1.00  0.00    -0.497 OA
ATOM     13  C   UNL     1     -14.503  -6.372  37.725  1.00  0.00     0.278 C 
ENDBRANCH   4  12
TORSDOF 3
ENDMDL
MODEL 9
REMARK VINA RESULT:    -4.722      7.036      8.548
REMARK INTER + INTRA:          -5.740
REMARK INTER:                  -5.434
REMARK INTRA:                  -0.306
REMARK UNBOUND:                -0.327
REMARK SMILES COc1ccc(C(C)=O)c(O)c1
REMARK SMILES IDX 6 1 10 2 12 3 3 4 4 5 5 6 7 7 8 8 9 9 11 10 2 12 1 13
REMARK H PARENT 11 11
REMARK Flexibility Score: inf
ROOT
ATOM      1  C   UNL     1     -16.503  -8.546  44.167  1.00  0.00     0.059 A 
ATOM      2  C   UNL     1     -16.916  -9.890  44.017  1.00  0.00     0.130 A 
ATOM      3  C   UNL     1     -16.442 -10.875  44.897  1.00  0.00     0.093 A 
ATOM      4  C   UNL     1     -15.562 -10.549  45.933  1.00  0.00     0.122 A 
ATOM      5  C   UNL     1     -15.153  -9.215  46.087  1.00  0.00     0.047 A 
ATOM      6  C   UNL     1     -15.616  -8.228  45.216  1.00  0.00     0.019 A 
ENDROOT
BRANCH   1   7
ATOM      7  C   UNL     1     -16.983  -7.481  43.240  1.00  0.00     0.163 C 
ATOM      8  C   UNL     1     -16.124  -6.306  42.877  1.00  0.00     0.093 C 
ATOM      9  O   UNL     1     -18.125  -7.566  42.714  1.00  0.00    -0.294 OA
ENDBRANCH   1   7
BRANCH   2  10
ATOM     10  O   UNL     1     -17.805 -10.254  43.004  1.00  0.00    -0.507 OA
ATOM     11  H   UNL     1     -17.482 -10.637  42.123  1.00  0.00     0.293 HD
ENDBRANCH   2  10
BRANCH   4  12
ATOM     12  O   UNL     1     -15.123 -11.576  46.782  1.00  0.00    -0.497 OA
ATOM     13  C   UNL     1     -14.750 -11.389  48.143  1.00  0.00     0.278 C 
ENDBRANCH   4  12
TORSDOF 3
ENDMDL
