MODEL 1
REMARK VINA RESULT:    -4.614      0.000      0.000
REMARK INTER + INTRA:         -11.875
REMARK INTER:                  -8.929
REMARK INTRA:                  -2.946
REMARK UNBOUND:                -2.946
REMARK SMILES CCCCCCCCCCCCCCCCCC(=O)[O-]
REMARK SMILES IDX 10 1 11 2 12 3 13 4 14 5 15 6 16 7 17 8 18 9 19 10 20 11
REMARK SMILES IDX 9 12 8 13 7 14 6 15 5 16 4 17 3 18 2 19 1 20
REMARK H PARENT
REMARK Flexibility Score: inf
ROOT
ATOM      1  C   UNL     1      61.690  28.989  13.518  1.00  0.00     0.000 C 
ENDROOT
BRANCH   1   2
ATOM      2  C   UNL     1      63.082  28.724  12.921  1.00  0.00     0.000 C 
BRANCH   2   3
ATOM      3  C   UNL     1      64.190  29.525  13.626  1.00  0.00     0.000 C 
BRANCH   3   4
ATOM      4  C   UNL     1      63.643  30.752  14.374  1.00  0.00     0.000 C 
BRANCH   4   5
ATOM      5  C   UNL     1      64.345  32.055  13.964  1.00  0.00     0.000 C 
BRANCH   5   6
ATOM      6  C   UNL     1      63.328  33.099  13.481  1.00  0.00     0.000 C 
BRANCH   6   7
ATOM      7  C   UNL     1      61.975  32.478  13.100  1.00  0.00     0.006 C 
BRANCH   7   8
ATOM      8  C   UNL     1      60.789  33.181  13.773  1.00  0.00     0.053 C 
BRANCH   8   9
ATOM      9  C   UNL     1      59.961  32.195  14.533  1.00  0.00     0.041 C 
ATOM     10  O   UNL     1      58.859  31.801  14.067  1.00  0.00    -0.550 OA
ATOM     11  O   UNL     1      60.424  31.674  15.734  1.00  0.00    -0.550 OA
ENDBRANCH   8   9
ENDBRANCH   7   8
ENDBRANCH   6   7
ENDBRANCH   5   6
ENDBRANCH   4   5
ENDBRANCH   3   4
ENDBRANCH   2   3
ENDBRANCH   1   2
BRANCH   1  12
ATOM     12  C   UNL     1      60.568  28.250  12.766  1.00  0.00     0.000 C 
BRANCH  12  13
ATOM     13  C   UNL     1      59.637  29.214  12.006  1.00  0.00    -0.000 C 
BRANCH  13  14
ATOM     14  C   UNL     1      60.279  29.863  10.763  1.00  0.00    -0.000 C 
BRANCH  14  15
ATOM     15  C   UNL     1      60.925  28.858   9.789  1.00  0.00    -0.000 C 
BRANCH  15  16
ATOM     16  C   UNL     1      62.070  29.485   8.974  1.00  0.00    -0.000 C 
BRANCH  16  17
ATOM     17  C   UNL     1      63.451  28.913   9.342  1.00  0.00    -0.000 C 
BRANCH  17  18
ATOM     18  C   UNL     1      64.566  29.963   9.498  1.00  0.00    -0.000 C 
BRANCH  18  19
ATOM     19  C   UNL     1      64.121  31.192  10.302  1.00  0.00    -0.003 C 
ATOM     20  C   UNL     1      65.199  32.273  10.296  1.00  0.00     0.004 C 
ENDBRANCH  18  19
ENDBRANCH  17  18
ENDBRANCH  16  17
ENDBRANCH  15  16
ENDBRANCH  14  15
ENDBRANCH  13  14
ENDBRANCH  12  13
ENDBRANCH   1  12
TORSDOF 16
ENDMDL
MODEL 2
REMARK VINA RESULT:    -4.494      1.711      4.432
REMARK INTER + INTRA:         -11.643
REMARK INTER:                  -9.065
REMARK INTRA:                  -2.578
REMARK UNBOUND:                -2.946
REMARK SMILES CCCCCCCCCCCCCCCCCC(=O)[O-]
REMARK SMILES IDX 10 1 11 2 12 3 13 4 14 5 15 6 16 7 17 8 18 9 19 10 20 11
REMARK SMILES IDX 9 12 8 13 7 14 6 15 5 16 4 17 3 18 2 19 1 20
REMARK H PARENT
REMARK Flexibility Score: inf
ROOT
ATOM      1  C   UNL     1      60.476  28.929   9.534  1.00  0.00     0.000 C 
ENDROOT
BRANCH   1   2
ATOM      2  C   UNL     1      61.715  29.621   8.945  1.00  0.00     0.000 C 
BRANCH   2   3
ATOM      3  C   UNL     1      63.023  28.888   9.293  1.00  0.00     0.000 C 
BRANCH   3   4
ATOM      4  C   UNL     1      63.863  29.648  10.333  1.00  0.00     0.000 C 
BRANCH   4   5
ATOM      5  C   UNL     1      64.932  30.544   9.688  1.00  0.00     0.000 C 
BRANCH   5   6
ATOM      6  C   UNL     1      64.856  31.974  10.242  1.00  0.00     0.000 C 
BRANCH   6   7
ATOM      7  C   UNL     1      64.151  32.046  11.607  1.00  0.00     0.006 C 
BRANCH   7   8
ATOM      8  C   UNL     1      64.777  33.088  12.542  1.00  0.00     0.053 C 
BRANCH   8   9
ATOM      9  C   UNL     1      64.324  32.865  13.950  1.00  0.00     0.041 C 
ATOM     10  O   UNL     1      64.771  31.892  14.612  1.00  0.00    -0.550 OA
ATOM     11  O   UNL     1      63.444  33.757  14.548  1.00  0.00    -0.550 OA
ENDBRANCH   8   9
ENDBRANCH   7   8
ENDBRANCH   6   7
ENDBRANCH   5   6
ENDBRANCH   4   5
ENDBRANCH   3   4
ENDBRANCH   2   3
ENDBRANCH   1   2
BRANCH   1  12
ATOM     12  C   UNL     1      60.021  29.551  10.867  1.00  0.00     0.000 C 
BRANCH  12  13
ATOM     13  C   UNL     1      59.420  28.506  11.827  1.00  0.00    -0.000 C 
BRANCH  13  14
ATOM     14  C   UNL     1      60.283  28.222  13.074  1.00  0.00    -0.000 C 
BRANCH  14  15
ATOM     15  C   UNL     1      61.786  28.505  12.878  1.00  0.00    -0.000 C 
BRANCH  15  16
ATOM     16  C   UNL     1      62.300  29.615  13.812  1.00  0.00    -0.000 C 
BRANCH  16  17
ATOM     17  C   UNL     1      61.302  29.969  14.929  1.00  0.00    -0.000 C 
BRANCH  17  18
ATOM     18  C   UNL     1      60.890  31.451  14.984  1.00  0.00    -0.000 C 
BRANCH  18  19
ATOM     19  C   UNL     1      59.904  31.839  13.873  1.00  0.00    -0.003 C 
ATOM     20  C   UNL     1      60.595  32.656  12.784  1.00  0.00     0.004 C 
ENDBRANCH  18  19
ENDBRANCH  17  18
ENDBRANCH  16  17
ENDBRANCH  15  16
ENDBRANCH  14  15
ENDBRANCH  13  14
ENDBRANCH  12  13
ENDBRANCH   1  12
TORSDOF 16
ENDMDL
MODEL 3
REMARK VINA RESULT:    -4.474     12.175     14.831
REMARK INTER + INTRA:         -11.606
REMARK INTER:                  -9.029
REMARK INTRA:                  -2.577
REMARK UNBOUND:                -2.946
REMARK SMILES CCCCCCCCCCCCCCCCCC(=O)[O-]
REMARK SMILES IDX 10 1 11 2 12 3 13 4 14 5 15 6 16 7 17 8 18 9 19 10 20 11
REMARK SMILES IDX 9 12 8 13 7 14 6 15 5 16 4 17 3 18 2 19 1 20
REMARK H PARENT
REMARK Flexibility Score: inf
ROOT
ATOM      1  C   UNL     1      61.927  27.232  27.893  1.00  0.00     0.000 C 
ENDROOT
BRANCH   1   2
ATOM      2  C   UNL     1      60.823  27.740  26.953  1.00  0.00     0.000 C 
BRANCH   2   3
ATOM      3  C   UNL     1      60.921  27.133  25.542  1.00  0.00     0.000 C 
BRANCH   3   4
ATOM      4  C   UNL     1      61.482  28.127  24.513  1.00  0.00     0.000 C 
BRANCH   4   5
ATOM      5  C   UNL     1      62.829  27.675  23.928  1.00  0.00     0.000 C 
BRANCH   5   6
ATOM      6  C   UNL     1      63.397  26.484  24.715  1.00  0.00     0.000 C 
BRANCH   6   7
ATOM      7  C   UNL     1      64.926  26.376  24.607  1.00  0.00     0.006 C 
BRANCH   7   8
ATOM      8  C   UNL     1      65.382  25.706  23.304  1.00  0.00     0.053 C 
BRANCH   8   9
ATOM      9  C   UNL     1      66.123  26.681  22.447  1.00  0.00     0.041 C 
ATOM     10  O   UNL     1      66.446  27.809  22.904  1.00  0.00    -0.550 OA
ATOM     11  O   UNL     1      66.499  26.330  21.157  1.00  0.00    -0.550 OA
ENDBRANCH   8   9
ENDBRANCH   7   8
ENDBRANCH   6   7
ENDBRANCH   5   6
ENDBRANCH   4   5
ENDBRANCH   3   4
ENDBRANCH   2   3
ENDBRANCH   1   2
BRANCH   1  12
ATOM     12  C   UNL     1      62.570  28.359  28.723  1.00  0.00     0.000 C 
BRANCH  12  13
ATOM     13  C   UNL     1      62.129  29.759  28.253  1.00  0.00    -0.000 C 
BRANCH  13  14
ATOM     14  C   UNL     1      63.037  30.905  28.744  1.00  0.00    -0.000 C 
BRANCH  14  15
ATOM     15  C   UNL     1      64.463  30.462  29.125  1.00  0.00    -0.000 C 
BRANCH  15  16
ATOM     16  C   UNL     1      65.542  31.184  28.299  1.00  0.00    -0.000 C 
BRANCH  16  17
ATOM     17  C   UNL     1      66.291  30.243  27.338  1.00  0.00    -0.000 C 
BRANCH  17  18
ATOM     18  C   UNL     1      65.395  29.495  26.335  1.00  0.00    -0.000 C 
BRANCH  18  19
ATOM     19  C   UNL     1      65.113  30.308  25.063  1.00  0.00    -0.003 C 
ATOM     20  C   UNL     1      63.711  30.912  25.096  1.00  0.00     0.004 C 
ENDBRANCH  18  19
ENDBRANCH  17  18
ENDBRANCH  16  17
ENDBRANCH  15  16
ENDBRANCH  14  15
ENDBRANCH  13  14
ENDBRANCH  12  13
ENDBRANCH   1  12
TORSDOF 16
ENDMDL
MODEL 4
REMARK VINA RESULT:    -4.368      1.098      4.240
REMARK INTER + INTRA:         -11.399
REMARK INTER:                  -8.659
REMARK INTRA:                  -2.740
REMARK UNBOUND:                -2.946
REMARK SMILES CCCCCCCCCCCCCCCCCC(=O)[O-]
REMARK SMILES IDX 10 1 11 2 12 3 13 4 14 5 15 6 16 7 17 8 18 9 19 10 20 11
REMARK SMILES IDX 9 12 8 13 7 14 6 15 5 16 4 17 3 18 2 19 1 20
REMARK H PARENT
REMARK Flexibility Score: inf
ROOT
ATOM      1  C   UNL     1      61.697  29.599   9.139  1.00  0.00     0.000 C 
ENDROOT
BRANCH   1   2
ATOM      2  C   UNL     1      60.355  29.090   9.689  1.00  0.00     0.000 C 
BRANCH   2   3
ATOM      3  C   UNL     1      59.972  29.755  11.023  1.00  0.00     0.000 C 
BRANCH   3   4
ATOM      4  C   UNL     1      59.492  28.737  12.069  1.00  0.00     0.000 C 
BRANCH   4   5
ATOM      5  C   UNL     1      60.618  28.280  13.010  1.00  0.00     0.000 C 
BRANCH   5   6
ATOM      6  C   UNL     1      61.530  29.457  13.386  1.00  0.00     0.000 C 
BRANCH   6   7
ATOM      7  C   UNL     1      61.244  30.005  14.793  1.00  0.00     0.006 C 
BRANCH   7   8
ATOM      8  C   UNL     1      61.221  31.538  14.837  1.00  0.00     0.053 C 
BRANCH   8   9
ATOM      9  C   UNL     1      60.178  32.072  13.908  1.00  0.00     0.041 C 
ATOM     10  O   UNL     1      60.510  32.791  12.928  1.00  0.00    -0.550 OA
ATOM     11  O   UNL     1      58.843  31.738  14.094  1.00  0.00    -0.550 OA
ENDBRANCH   8   9
ENDBRANCH   7   8
ENDBRANCH   6   7
ENDBRANCH   5   6
ENDBRANCH   4   5
ENDBRANCH   3   4
ENDBRANCH   2   3
ENDBRANCH   1   2
BRANCH   1  12
ATOM     12  C   UNL     1      62.897  28.769   9.629  1.00  0.00     0.000 C 
BRANCH  12  13
ATOM     13  C   UNL     1      63.773  29.540  10.635  1.00  0.00    -0.000 C 
BRANCH  13  14
ATOM     14  C   UNL     1      64.719  30.573   9.989  1.00  0.00    -0.000 C 
BRANCH  14  15
ATOM     15  C   UNL     1      64.669  31.969  10.640  1.00  0.00    -0.000 C 
BRANCH  15  16
ATOM     16  C   UNL     1      63.763  32.005  11.883  1.00  0.00    -0.000 C 
BRANCH  16  17
ATOM     17  C   UNL     1      64.246  33.003  12.949  1.00  0.00    -0.000 C 
BRANCH  17  18
ATOM     18  C   UNL     1      64.420  32.411  14.360  1.00  0.00    -0.000 C 
BRANCH  18  19
ATOM     19  C   UNL     1      65.543  31.366  14.435  1.00  0.00    -0.003 C 
ATOM     20  C   UNL     1      64.978  29.966  14.659  1.00  0.00     0.004 C 
ENDBRANCH  18  19
ENDBRANCH  17  18
ENDBRANCH  16  17
ENDBRANCH  15  16
ENDBRANCH  14  15
ENDBRANCH  13  14
ENDBRANCH  12  13
ENDBRANCH   1  12
TORSDOF 16
ENDMDL
MODEL 5
REMARK VINA RESULT:    -4.329      1.200      2.652
REMARK INTER + INTRA:         -11.325
REMARK INTER:                  -8.958
REMARK INTRA:                  -2.367
REMARK UNBOUND:                -2.946
REMARK SMILES CCCCCCCCCCCCCCCCCC(=O)[O-]
REMARK SMILES IDX 10 1 11 2 12 3 13 4 14 5 15 6 16 7 17 8 18 9 19 10 20 11
REMARK SMILES IDX 9 12 8 13 7 14 6 15 5 16 4 17 3 18 2 19 1 20
REMARK H PARENT
REMARK Flexibility Score: inf
ROOT
ATOM      1  C   UNL     1      60.082  28.574  11.135  1.00  0.00     0.000 C 
ENDROOT
BRANCH   1   2
ATOM      2  C   UNL     1      59.701  29.007  12.560  1.00  0.00     0.000 C 
BRANCH   2   3
ATOM      3  C   UNL     1      60.813  28.717  13.584  1.00  0.00     0.000 C 
BRANCH   3   4
ATOM      4  C   UNL     1      62.188  28.534  12.921  1.00  0.00     0.000 C 
BRANCH   4   5
ATOM      5  C   UNL     1      63.161  29.676  13.256  1.00  0.00     0.000 C 
BRANCH   5   6
ATOM      6  C   UNL     1      62.661  30.487  14.460  1.00  0.00     0.000 C 
BRANCH   6   7
ATOM      7  C   UNL     1      62.736  32.005  14.226  1.00  0.00     0.006 C 
BRANCH   7   8
ATOM      8  C   UNL     1      61.481  32.741  14.711  1.00  0.00     0.053 C 
BRANCH   8   9
ATOM      9  C   UNL     1      60.307  32.393  13.852  1.00  0.00     0.041 C 
ATOM     10  O   UNL     1      59.222  32.031  14.379  1.00  0.00    -0.550 OA
ATOM     11  O   UNL     1      60.395  32.513  12.471  1.00  0.00    -0.550 OA
ENDBRANCH   8   9
ENDBRANCH   7   8
ENDBRANCH   6   7
ENDBRANCH   5   6
ENDBRANCH   4   5
ENDBRANCH   3   4
ENDBRANCH   2   3
ENDBRANCH   1   2
BRANCH   1  12
ATOM     12  C   UNL     1      60.086  29.745  10.136  1.00  0.00     0.000 C 
BRANCH  12  13
ATOM     13  C   UNL     1      61.114  29.548   9.005  1.00  0.00    -0.000 C 
BRANCH  13  14
ATOM     14  C   UNL     1      62.219  28.521   9.326  1.00  0.00    -0.000 C 
BRANCH  14  15
ATOM     15  C   UNL     1      63.651  29.045   9.101  1.00  0.00    -0.000 C 
BRANCH  15  16
ATOM     16  C   UNL     1      63.698  30.574   8.939  1.00  0.00    -0.000 C 
BRANCH  16  17
ATOM     17  C   UNL     1      64.934  31.209   9.601  1.00  0.00    -0.000 C 
BRANCH  17  18
ATOM     18  C   UNL     1      64.642  32.013  10.881  1.00  0.00    -0.000 C 
BRANCH  18  19
ATOM     19  C   UNL     1      65.649  33.148  11.117  1.00  0.00    -0.003 C 
ATOM     20  C   UNL     1      65.433  33.800  12.480  1.00  0.00     0.004 C 
ENDBRANCH  18  19
ENDBRANCH  17  18
ENDBRANCH  16  17
ENDBRANCH  15  16
ENDBRANCH  14  15
ENDBRANCH  13  14
ENDBRANCH  12  13
ENDBRANCH   1  12
TORSDOF 16
ENDMDL
MODEL 6
REMARK VINA RESULT:    -4.317     12.052     14.220
REMARK INTER + INTRA:         -11.302
REMARK INTER:                  -8.956
REMARK INTRA:                  -2.346
REMARK UNBOUND:                -2.946
REMARK SMILES CCCCCCCCCCCCCCCCCC(=O)[O-]
REMARK SMILES IDX 10 1 11 2 12 3 13 4 14 5 15 6 16 7 17 8 18 9 19 10 20 11
REMARK SMILES IDX 9 12 8 13 7 14 6 15 5 16 4 17 3 18 2 19 1 20
REMARK H PARENT
REMARK Flexibility Score: inf
ROOT
ATOM      1  C   UNL     1      61.285  27.846  24.546  1.00  0.00     0.000 C 
ENDROOT
BRANCH   1   2
ATOM      2  C   UNL     1      60.716  27.358  25.887  1.00  0.00     0.000 C 
BRANCH   2   3
ATOM      3  C   UNL     1      61.808  27.138  26.949  1.00  0.00     0.000 C 
BRANCH   3   4
ATOM      4  C   UNL     1      61.330  27.496  28.365  1.00  0.00     0.000 C 
BRANCH   4   5
ATOM      5  C   UNL     1      61.139  29.008  28.559  1.00  0.00     0.000 C 
BRANCH   5   6
ATOM      6  C   UNL     1      62.421  29.658  29.101  1.00  0.00     0.000 C 
BRANCH   6   7
ATOM      7  C   UNL     1      63.180  30.458  28.030  1.00  0.00     0.006 C 
BRANCH   7   8
ATOM      8  C   UNL     1      64.459  29.752  27.561  1.00  0.00     0.053 C 
BRANCH   8   9
ATOM      9  C   UNL     1      65.656  30.607  27.832  1.00  0.00     0.041 C 
ATOM     10  O   UNL     1      65.646  31.427  28.788  1.00  0.00    -0.550 OA
ATOM     11  O   UNL     1      66.801  30.468  27.057  1.00  0.00    -0.550 OA
ENDBRANCH   8   9
ENDBRANCH   7   8
ENDBRANCH   6   7
ENDBRANCH   5   6
ENDBRANCH   4   5
ENDBRANCH   3   4
ENDBRANCH   2   3
ENDBRANCH   1   2
BRANCH   1  12
ATOM     12  C   UNL     1      62.075  29.162  24.676  1.00  0.00     0.000 C 
BRANCH  12  13
ATOM     13  C   UNL     1      63.241  29.248  23.671  1.00  0.00    -0.000 C 
BRANCH  13  14
ATOM     14  C   UNL     1      64.449  30.065  24.173  1.00  0.00    -0.000 C 
BRANCH  14  15
ATOM     15  C   UNL     1      65.733  29.866  23.344  1.00  0.00    -0.000 C 
BRANCH  15  16
ATOM     16  C   UNL     1      66.413  28.516  23.630  1.00  0.00    -0.000 C 
BRANCH  16  17
ATOM     17  C   UNL     1      66.288  27.522  22.461  1.00  0.00    -0.000 C 
BRANCH  17  18
ATOM     18  C   UNL     1      65.935  26.081  22.871  1.00  0.00    -0.000 C 
BRANCH  18  19
ATOM     19  C   UNL     1      64.513  25.951  23.434  1.00  0.00    -0.003 C 
ATOM     20  C   UNL     1      64.523  25.957  24.960  1.00  0.00     0.004 C 
ENDBRANCH  18  19
ENDBRANCH  17  18
ENDBRANCH  16  17
ENDBRANCH  15  16
ENDBRANCH  14  15
ENDBRANCH  13  14
ENDBRANCH  12  13
ENDBRANCH   1  12
TORSDOF 16
ENDMDL
MODEL 7
REMARK VINA RESULT:    -4.310      2.603      5.438
REMARK INTER + INTRA:         -11.287
REMARK INTER:                  -8.516
REMARK INTRA:                  -2.770
REMARK UNBOUND:                -2.946
REMARK SMILES CCCCCCCCCCCCCCCCCC(=O)[O-]
REMARK SMILES IDX 10 1 11 2 12 3 13 4 14 5 15 6 16 7 17 8 18 9 19 10 20 11
REMARK SMILES IDX 9 12 8 13 7 14 6 15 5 16 4 17 3 18 2 19 1 20
REMARK H PARENT
REMARK Flexibility Score: inf
ROOT
ATOM      1  C   UNL     1      59.618  29.020  11.623  1.00  0.00     0.000 C 
ENDROOT
BRANCH   1   2
ATOM      2  C   UNL     1      60.448  29.737  10.547  1.00  0.00     0.000 C 
BRANCH   2   3
ATOM      3  C   UNL     1      60.907  28.790   9.424  1.00  0.00     0.000 C 
BRANCH   3   4
ATOM      4  C   UNL     1      62.433  28.603   9.401  1.00  0.00     0.000 C 
BRANCH   4   5
ATOM      5  C   UNL     1      63.189  29.935   9.280  1.00  0.00     0.000 C 
BRANCH   5   6
ATOM      6  C   UNL     1      64.653  29.701   8.880  1.00  0.00     0.000 C 
BRANCH   6   7
ATOM      7  C   UNL     1      65.498  30.983   8.942  1.00  0.00     0.006 C 
BRANCH   7   8
ATOM      8  C   UNL     1      64.880  32.056   9.847  1.00  0.00     0.053 C 
BRANCH   8   9
ATOM      9  C   UNL     1      65.947  32.770  10.613  1.00  0.00     0.041 C 
ATOM     10  O   UNL     1      67.030  33.082  10.051  1.00  0.00    -0.550 OA
ATOM     11  O   UNL     1      65.730  33.135  11.936  1.00  0.00    -0.550 OA
ENDBRANCH   8   9
ENDBRANCH   7   8
ENDBRANCH   6   7
ENDBRANCH   5   6
ENDBRANCH   4   5
ENDBRANCH   3   4
ENDBRANCH   2   3
ENDBRANCH   1   2
BRANCH   1  12
ATOM     12  C   UNL     1      60.477  28.142  12.553  1.00  0.00     0.000 C 
BRANCH  12  13
ATOM     13  C   UNL     1      61.461  28.971  13.400  1.00  0.00    -0.000 C 
BRANCH  13  14
ATOM     14  C   UNL     1      62.945  28.755  13.038  1.00  0.00    -0.000 C 
BRANCH  14  15
ATOM     15  C   UNL     1      63.773  30.053  12.968  1.00  0.00    -0.000 C 
BRANCH  15  16
ATOM     16  C   UNL     1      62.892  31.302  12.784  1.00  0.00    -0.000 C 
BRANCH  16  17
ATOM     17  C   UNL     1      62.937  32.250  13.995  1.00  0.00    -0.000 C 
BRANCH  17  18
ATOM     18  C   UNL     1      61.743  33.214  14.108  1.00  0.00    -0.000 C 
BRANCH  18  19
ATOM     19  C   UNL     1      60.519  32.746  13.308  1.00  0.00    -0.003 C 
ATOM     20  C   UNL     1      59.531  31.999  14.201  1.00  0.00     0.004 C 
ENDBRANCH  18  19
ENDBRANCH  17  18
ENDBRANCH  16  17
ENDBRANCH  15  16
ENDBRANCH  14  15
ENDBRANCH  13  14
ENDBRANCH  12  13
ENDBRANCH   1  12
TORSDOF 16
ENDMDL
MODEL 8
REMARK VINA RESULT:    -4.221     11.752     14.232
REMARK INTER + INTRA:         -11.116
REMARK INTER:                  -8.584
REMARK INTRA:                  -2.532
REMARK UNBOUND:                -2.946
REMARK SMILES CCCCCCCCCCCCCCCCCC(=O)[O-]
REMARK SMILES IDX 10 1 11 2 12 3 13 4 14 5 15 6 16 7 17 8 18 9 19 10 20 11
REMARK SMILES IDX 9 12 8 13 7 14 6 15 5 16 4 17 3 18 2 19 1 20
REMARK H PARENT
REMARK Flexibility Score: inf
ROOT
ATOM      1  C   UNL     1      63.148  30.769  28.197  1.00  0.00     0.000 C 
ENDROOT
BRANCH   1   2
ATOM      2  C   UNL     1      63.965  30.484  26.927  1.00  0.00     0.000 C 
BRANCH   2   3
ATOM      3  C   UNL     1      65.435  30.147  27.233  1.00  0.00     0.000 C 
BRANCH   3   4
ATOM      4  C   UNL     1      66.117  29.396  26.077  1.00  0.00     0.000 C 
BRANCH   4   5
ATOM      5  C   UNL     1      65.979  30.129  24.734  1.00  0.00     0.000 C 
BRANCH   5   6
ATOM      6  C   UNL     1      66.969  29.573  23.700  1.00  0.00     0.000 C 
BRANCH   6   7
ATOM      7  C   UNL     1      66.700  28.101  23.351  1.00  0.00     0.006 C 
BRANCH   7   8
ATOM      8  C   UNL     1      66.726  27.837  21.841  1.00  0.00     0.053 C 
BRANCH   8   9
ATOM      9  C   UNL     1      66.437  26.397  21.558  1.00  0.00     0.041 C 
ATOM     10  O   UNL     1      66.066  25.631  22.486  1.00  0.00    -0.550 OA
ATOM     11  O   UNL     1      66.531  25.909  20.261  1.00  0.00    -0.550 OA
ENDBRANCH   8   9
ENDBRANCH   7   8
ENDBRANCH   6   7
ENDBRANCH   5   6
ENDBRANCH   4   5
ENDBRANCH   3   4
ENDBRANCH   2   3
ENDBRANCH   1   2
BRANCH   1  12
ATOM     12  C   UNL     1      62.035  29.731  28.437  1.00  0.00     0.000 C 
BRANCH  12  13
ATOM     13  C   UNL     1      62.596  28.348  28.821  1.00  0.00    -0.000 C 
BRANCH  13  14
ATOM     14  C   UNL     1      62.046  27.184  27.972  1.00  0.00    -0.000 C 
BRANCH  14  15
ATOM     15  C   UNL     1      60.748  27.518  27.210  1.00  0.00    -0.000 C 
BRANCH  15  16
ATOM     16  C   UNL     1      60.841  27.171  25.713  1.00  0.00    -0.000 C 
BRANCH  16  17
ATOM     17  C   UNL     1      61.383  28.332  24.861  1.00  0.00    -0.000 C 
BRANCH  17  18
ATOM     18  C   UNL     1      62.840  28.168  24.394  1.00  0.00    -0.000 C 
BRANCH  18  19
ATOM     19  C   UNL     1      63.271  26.698  24.287  1.00  0.00    -0.003 C 
ATOM     20  C   UNL     1      64.321  26.355  25.340  1.00  0.00     0.004 C 
ENDBRANCH  18  19
ENDBRANCH  17  18
ENDBRANCH  16  17
ENDBRANCH  15  16
ENDBRANCH  14  15
ENDBRANCH  13  14
ENDBRANCH  12  13
ENDBRANCH   1  12
TORSDOF 16
ENDMDL
MODEL 9
REMARK VINA RESULT:    -4.213     11.972     14.362
REMARK INTER + INTRA:         -11.101
REMARK INTER:                  -8.898
REMARK INTRA:                  -2.203
REMARK UNBOUND:                -2.946
REMARK SMILES CCCCCCCCCCCCCCCCCC(=O)[O-]
REMARK SMILES IDX 10 1 11 2 12 3 13 4 14 5 15 6 16 7 17 8 18 9 19 10 20 11
REMARK SMILES IDX 9 12 8 13 7 14 6 15 5 16 4 17 3 18 2 19 1 20
REMARK H PARENT
REMARK Flexibility Score: inf
ROOT
ATOM      1  C   UNL     1      64.862  30.153  27.763  1.00  0.00     0.000 C 
ENDROOT
BRANCH   1   2
ATOM      2  C   UNL     1      64.059  31.218  28.527  1.00  0.00     0.000 C 
BRANCH   2   3
ATOM      3  C   UNL     1      62.672  30.714  28.963  1.00  0.00     0.000 C 
BRANCH   3   4
ATOM      4  C   UNL     1      62.574  29.180  28.951  1.00  0.00     0.000 C 
BRANCH   4   5
ATOM      5  C   UNL     1      61.128  28.681  28.805  1.00  0.00     0.000 C 
BRANCH   5   6
ATOM      6  C   UNL     1      61.072  27.407  27.950  1.00  0.00     0.000 C 
BRANCH   6   7
ATOM      7  C   UNL     1      62.116  27.401  26.822  1.00  0.00     0.006 C 
BRANCH   7   8
ATOM      8  C   UNL     1      61.487  27.570  25.433  1.00  0.00     0.053 C 
BRANCH   8   9
ATOM      9  C   UNL     1      62.140  28.698  24.699  1.00  0.00     0.041 C 
ATOM     10  O   UNL     1      62.548  28.534  23.519  1.00  0.00    -0.550 OA
ATOM     11  O   UNL     1      62.258  29.945  25.299  1.00  0.00    -0.550 OA
ENDBRANCH   8   9
ENDBRANCH   7   8
ENDBRANCH   6   7
ENDBRANCH   5   6
ENDBRANCH   4   5
ENDBRANCH   3   4
ENDBRANCH   2   3
ENDBRANCH   1   2
BRANCH   1  12
ATOM     12  C   UNL     1      66.319  30.576  27.502  1.00  0.00     0.000 C 
BRANCH  12  13
ATOM     13  C   UNL     1      66.855  30.038  26.161  1.00  0.00    -0.000 C 
BRANCH  13  14
ATOM     14  C   UNL     1      65.778  29.398  25.261  1.00  0.00    -0.000 C 
BRANCH  14  15
ATOM     15  C   UNL     1      65.605  30.091  23.895  1.00  0.00    -0.000 C 
BRANCH  15  16
ATOM     16  C   UNL     1      65.998  29.179  22.720  1.00  0.00    -0.000 C 
BRANCH  16  17
ATOM     17  C   UNL     1      66.568  27.825  23.177  1.00  0.00    -0.000 C 
BRANCH  17  18
ATOM     18  C   UNL     1      65.967  26.597  22.470  1.00  0.00    -0.000 C 
BRANCH  18  19
ATOM     19  C   UNL     1      64.766  26.004  23.220  1.00  0.00    -0.003 C 
ATOM     20  C   UNL     1      65.019  25.969  24.725  1.00  0.00     0.004 C 
ENDBRANCH  18  19
ENDBRANCH  17  18
ENDBRANCH  16  17
ENDBRANCH  15  16
ENDBRANCH  14  15
ENDBRANCH  13  14
ENDBRANCH  12  13
ENDBRANCH   1  12
TORSDOF 16
ENDMDL
