MODEL 1
REMARK VINA RESULT:    -3.983      0.000      0.000
REMARK INTER + INTRA:         -13.856
REMARK INTER:                  -9.106
REMARK INTRA:                  -4.749
REMARK UNBOUND:                -4.749
REMARK SMILES CCCCCCCCCCCCCCCCCCCCCCCC(=O)[O-]
REMARK SMILES IDX 13 1 14 2 15 3 16 4 17 5 18 6 19 7 20 8 21 9 22 10 23 11
REMARK SMILES IDX 24 12 25 13 26 14 12 15 11 16 10 17 9 18 8 19 7 20 6 21 5 22
REMARK SMILES IDX 4 23 3 24 2 25 1 26
REMARK H PARENT
REMARK Flexibility Score: inf
ROOT
ATOM      1  C   UNL     1       5.805  36.227   1.597  1.00  0.00     0.000 C 
ENDROOT
BRANCH   1   2
ATOM      2  C   UNL     1       7.196  36.881   1.727  1.00  0.00     0.000 C 
BRANCH   2   3
ATOM      3  C   UNL     1       7.211  38.224   2.479  1.00  0.00     0.000 C 
BRANCH   3   4
ATOM      4  C   UNL     1       8.630  38.771   2.692  1.00  0.00     0.000 C 
BRANCH   4   5
ATOM      5  C   UNL     1       9.668  37.905   1.963  1.00  0.00     0.000 C 
BRANCH   5   6
ATOM      6  C   UNL     1      10.737  38.740   1.240  1.00  0.00     0.000 C 
BRANCH   6   7
ATOM      7  C   UNL     1      10.957  38.290  -0.216  1.00  0.00     0.000 C 
BRANCH   7   8
ATOM      8  C   UNL     1       9.735  37.537  -0.784  1.00  0.00     0.000 C 
BRANCH   8   9
ATOM      9  C   UNL     1      10.016  36.056  -1.094  1.00  0.00     0.000 C 
BRANCH   9  10
ATOM     10  C   UNL     1       8.736  35.206  -1.164  1.00  0.00     0.006 C 
BRANCH  10  11
ATOM     11  C   UNL     1       8.777  34.014  -0.198  1.00  0.00     0.053 C 
BRANCH  11  12
ATOM     12  C   UNL     1       9.230  32.758  -0.877  1.00  0.00     0.041 C 
ATOM     13  O   UNL     1       9.667  31.792  -0.197  1.00  0.00    -0.550 OA
ATOM     14  O   UNL     1       9.136  32.640  -2.259  1.00  0.00    -0.550 OA
ENDBRANCH  11  12
ENDBRANCH  10  11
ENDBRANCH   9  10
ENDBRANCH   8   9
ENDBRANCH   7   8
ENDBRANCH   6   7
ENDBRANCH   5   6
ENDBRANCH   4   5
ENDBRANCH   3   4
ENDBRANCH   2   3
ENDBRANCH   1   2
BRANCH   1  15
ATOM     15  C   UNL     1       4.611  37.167   1.863  1.00  0.00     0.000 C 
BRANCH  15  16
ATOM     16  C   UNL     1       3.456  37.047   0.854  1.00  0.00     0.000 C 
BRANCH  16  17
ATOM     17  C   UNL     1       3.158  35.589   0.463  1.00  0.00     0.000 C 
BRANCH  17  18
ATOM     18  C   UNL     1       3.225  35.359  -1.056  1.00  0.00    -0.000 C 
BRANCH  18  19
ATOM     19  C   UNL     1       4.508  34.626  -1.484  1.00  0.00    -0.000 C 
BRANCH  19  20
ATOM     20  C   UNL     1       5.343  35.430  -2.503  1.00  0.00    -0.000 C 
BRANCH  20  21
ATOM     21  C   UNL     1       5.088  36.949  -2.459  1.00  0.00    -0.000 C 
BRANCH  21  22
ATOM     22  C   UNL     1       6.172  37.775  -1.742  1.00  0.00    -0.000 C 
BRANCH  22  23
ATOM     23  C   UNL     1       5.744  39.198  -1.338  1.00  0.00    -0.000 C 
BRANCH  23  24
ATOM     24  C   UNL     1       6.853  39.973  -0.608  1.00  0.00    -0.000 C 
BRANCH  24  25
ATOM     25  C   UNL     1       6.298  41.062   0.322  1.00  0.00    -0.003 C 
ATOM     26  C   UNL     1       4.903  40.731   0.851  1.00  0.00     0.004 C 
ENDBRANCH  24  25
ENDBRANCH  23  24
ENDBRANCH  22  23
ENDBRANCH  21  22
ENDBRANCH  20  21
ENDBRANCH  19  20
ENDBRANCH  18  19
ENDBRANCH  17  18
ENDBRANCH  16  17
ENDBRANCH  15  16
ENDBRANCH   1  15
TORSDOF 22
ENDMDL
MODEL 2
REMARK VINA RESULT:    -3.975      1.561      4.520
REMARK INTER + INTRA:         -13.836
REMARK INTER:                  -9.854
REMARK INTRA:                  -3.982
REMARK UNBOUND:                -4.749
REMARK SMILES CCCCCCCCCCCCCCCCCCCCCCCC(=O)[O-]
REMARK SMILES IDX 13 1 14 2 15 3 16 4 17 5 18 6 19 7 20 8 21 9 22 10 23 11
REMARK SMILES IDX 24 12 25 13 26 14 12 15 11 16 10 17 9 18 8 19 7 20 6 21 5 22
REMARK SMILES IDX 4 23 3 24 2 25 1 26
REMARK H PARENT
REMARK Flexibility Score: inf
ROOT
ATOM      1  C   UNL     1       4.018  35.629   0.754  1.00  0.00     0.000 C 
ENDROOT
BRANCH   1   2
ATOM      2  C   UNL     1       3.251  36.953   0.552  1.00  0.00     0.000 C 
BRANCH   2   3
ATOM      3  C   UNL     1       3.205  37.456  -0.901  1.00  0.00     0.000 C 
BRANCH   3   4
ATOM      4  C   UNL     1       4.382  38.381  -1.248  1.00  0.00     0.000 C 
BRANCH   4   5
ATOM      5  C   UNL     1       5.146  37.860  -2.475  1.00  0.00     0.000 C 
BRANCH   5   6
ATOM      6  C   UNL     1       5.032  36.337  -2.642  1.00  0.00     0.000 C 
BRANCH   6   7
ATOM      7  C   UNL     1       6.402  35.633  -2.612  1.00  0.00     0.000 C 
BRANCH   7   8
ATOM      8  C   UNL     1       6.329  34.247  -1.937  1.00  0.00     0.000 C 
BRANCH   8   9
ATOM      9  C   UNL     1       7.653  33.466  -1.995  1.00  0.00     0.000 C 
BRANCH   9  10
ATOM     10  C   UNL     1       8.530  33.681  -0.750  1.00  0.00     0.006 C 
BRANCH  10  11
ATOM     11  C   UNL     1      10.005  33.351  -1.014  1.00  0.00     0.053 C 
BRANCH  11  12
ATOM     12  C   UNL     1      10.244  31.874  -1.085  1.00  0.00     0.041 C 
ATOM     13  O   UNL     1      10.740  31.361  -2.124  1.00  0.00    -0.550 OA
ATOM     14  O   UNL     1       9.954  31.066   0.009  1.00  0.00    -0.550 OA
ENDBRANCH  11  12
ENDBRANCH  10  11
ENDBRANCH   9  10
ENDBRANCH   8   9
ENDBRANCH   7   8
ENDBRANCH   6   7
ENDBRANCH   5   6
ENDBRANCH   4   5
ENDBRANCH   3   4
ENDBRANCH   2   3
ENDBRANCH   1   2
BRANCH   1  15
ATOM     15  C   UNL     1       5.363  35.758   1.496  1.00  0.00     0.000 C 
BRANCH  15  16
ATOM     16  C   UNL     1       5.636  37.144   2.107  1.00  0.00     0.000 C 
BRANCH  16  17
ATOM     17  C   UNL     1       6.963  37.755   1.623  1.00  0.00     0.000 C 
BRANCH  17  18
ATOM     18  C   UNL     1       7.658  36.890   0.558  1.00  0.00    -0.000 C 
BRANCH  18  19
ATOM     19  C   UNL     1       8.280  37.733  -0.569  1.00  0.00    -0.000 C 
BRANCH  19  20
ATOM     20  C   UNL     1       9.720  37.296  -0.915  1.00  0.00    -0.000 C 
BRANCH  20  21
ATOM     21  C   UNL     1      10.809  38.107  -0.187  1.00  0.00    -0.000 C 
BRANCH  21  22
ATOM     22  C   UNL     1      10.852  37.922   1.341  1.00  0.00    -0.000 C 
BRANCH  22  23
ATOM     23  C   UNL     1      10.488  39.176   2.157  1.00  0.00    -0.000 C 
BRANCH  23  24
ATOM     24  C   UNL     1       9.929  40.315   1.288  1.00  0.00    -0.000 C 
BRANCH  24  25
ATOM     25  C   UNL     1       9.183  41.374   2.113  1.00  0.00    -0.003 C 
ATOM     26  C   UNL     1       9.574  41.355   3.590  1.00  0.00     0.004 C 
ENDBRANCH  24  25
ENDBRANCH  23  24
ENDBRANCH  22  23
ENDBRANCH  21  22
ENDBRANCH  20  21
ENDBRANCH  19  20
ENDBRANCH  18  19
ENDBRANCH  17  18
ENDBRANCH  16  17
ENDBRANCH  15  16
ENDBRANCH   1  15
TORSDOF 22
ENDMDL
MODEL 3
REMARK VINA RESULT:    -3.949      1.229      5.210
REMARK INTER + INTRA:         -13.776
REMARK INTER:                  -9.764
REMARK INTRA:                  -4.012
REMARK UNBOUND:                -4.749
REMARK SMILES CCCCCCCCCCCCCCCCCCCCCCCC(=O)[O-]
REMARK SMILES IDX 13 1 14 2 15 3 16 4 17 5 18 6 19 7 20 8 21 9 22 10 23 11
REMARK SMILES IDX 24 12 25 13 26 14 12 15 11 16 10 17 9 18 8 19 7 20 6 21 5 22
REMARK SMILES IDX 4 23 3 24 2 25 1 26
REMARK H PARENT
REMARK Flexibility Score: inf
ROOT
ATOM      1  C   UNL     1       6.273  35.124  -2.816  1.00  0.00     0.000 C 
ENDROOT
BRANCH   1   2
ATOM      2  C   UNL     1       5.456  34.171  -1.919  1.00  0.00     0.000 C 
BRANCH   2   3
ATOM      3  C   UNL     1       4.050  33.835  -2.446  1.00  0.00     0.000 C 
BRANCH   3   4
ATOM      4  C   UNL     1       2.961  33.978  -1.371  1.00  0.00     0.000 C 
BRANCH   4   5
ATOM      5  C   UNL     1       2.888  35.423  -0.854  1.00  0.00     0.000 C 
BRANCH   5   6
ATOM      6  C   UNL     1       3.243  35.539   0.637  1.00  0.00     0.000 C 
BRANCH   6   7
ATOM      7  C   UNL     1       4.510  36.378   0.881  1.00  0.00     0.000 C 
BRANCH   7   8
ATOM      8  C   UNL     1       5.603  35.581   1.624  1.00  0.00     0.000 C 
BRANCH   8   9
ATOM      9  C   UNL     1       7.034  35.997   1.241  1.00  0.00     0.000 C 
BRANCH   9  10
ATOM     10  C   UNL     1       7.947  34.796   0.943  1.00  0.00     0.006 C 
BRANCH  10  11
ATOM     11  C   UNL     1       8.947  35.092  -0.183  1.00  0.00     0.053 C 
BRANCH  11  12
ATOM     12  C   UNL     1       9.778  33.894  -0.524  1.00  0.00     0.041 C 
ATOM     13  O   UNL     1       9.401  32.742  -0.181  1.00  0.00    -0.550 OA
ATOM     14  O   UNL     1      10.953  34.044  -1.253  1.00  0.00    -0.550 OA
ENDBRANCH  11  12
ENDBRANCH  10  11
ENDBRANCH   9  10
ENDBRANCH   8   9
ENDBRANCH   7   8
ENDBRANCH   6   7
ENDBRANCH   5   6
ENDBRANCH   4   5
ENDBRANCH   3   4
ENDBRANCH   2   3
ENDBRANCH   1   2
BRANCH   1  15
ATOM     15  C   UNL     1       6.360  36.581  -2.317  1.00  0.00     0.000 C 
BRANCH  15  16
ATOM     16  C   UNL     1       5.162  37.469  -2.698  1.00  0.00     0.000 C 
BRANCH  16  17
ATOM     17  C   UNL     1       5.026  38.704  -1.790  1.00  0.00     0.000 C 
BRANCH  17  18
ATOM     18  C   UNL     1       6.362  39.118  -1.153  1.00  0.00    -0.000 C 
BRANCH  18  19
ATOM     19  C   UNL     1       6.196  39.608   0.297  1.00  0.00    -0.000 C 
BRANCH  19  20
ATOM     20  C   UNL     1       7.361  40.509   0.759  1.00  0.00    -0.000 C 
BRANCH  20  21
ATOM     21  C   UNL     1       8.376  40.837  -0.353  1.00  0.00    -0.000 C 
BRANCH  21  22
ATOM     22  C   UNL     1       9.854  40.628   0.027  1.00  0.00    -0.000 C 
BRANCH  22  23
ATOM     23  C   UNL     1      10.576  39.518  -0.760  1.00  0.00    -0.000 C 
BRANCH  23  24
ATOM     24  C   UNL     1      10.813  38.249   0.076  1.00  0.00    -0.000 C 
BRANCH  24  25
ATOM     25  C   UNL     1      10.776  38.524   1.587  1.00  0.00    -0.003 C 
ATOM     26  C   UNL     1       9.481  38.043   2.242  1.00  0.00     0.004 C 
ENDBRANCH  24  25
ENDBRANCH  23  24
ENDBRANCH  22  23
ENDBRANCH  21  22
ENDBRANCH  20  21
ENDBRANCH  19  20
ENDBRANCH  18  19
ENDBRANCH  17  18
ENDBRANCH  16  17
ENDBRANCH  15  16
ENDBRANCH   1  15
TORSDOF 22
ENDMDL
MODEL 4
REMARK VINA RESULT:    -3.938      1.542      3.273
REMARK INTER + INTRA:         -13.752
REMARK INTER:                  -9.480
REMARK INTRA:                  -4.272
REMARK UNBOUND:                -4.749
REMARK SMILES CCCCCCCCCCCCCCCCCCCCCCCC(=O)[O-]
REMARK SMILES IDX 13 1 14 2 15 3 16 4 17 5 18 6 19 7 20 8 21 9 22 10 23 11
REMARK SMILES IDX 24 12 25 13 26 14 12 15 11 16 10 17 9 18 8 19 7 20 6 21 5 22
REMARK SMILES IDX 4 23 3 24 2 25 1 26
REMARK H PARENT
REMARK Flexibility Score: inf
ROOT
ATOM      1  C   UNL     1       5.939  39.557  -0.211  1.00  0.00     0.000 C 
ENDROOT
BRANCH   1   2
ATOM      2  C   UNL     1       6.415  39.324   1.237  1.00  0.00     0.000 C 
BRANCH   2   3
ATOM      3  C   UNL     1       7.392  38.149   1.414  1.00  0.00     0.000 C 
BRANCH   3   4
ATOM      4  C   UNL     1       8.435  38.402   2.514  1.00  0.00     0.000 C 
BRANCH   4   5
ATOM      5  C   UNL     1       9.729  37.624   2.233  1.00  0.00     0.000 C 
BRANCH   5   6
ATOM      6  C   UNL     1      10.736  38.430   1.398  1.00  0.00     0.000 C 
BRANCH   6   7
ATOM      7  C   UNL     1      11.190  37.682   0.131  1.00  0.00     0.000 C 
BRANCH   7   8
ATOM      8  C   UNL     1      10.133  37.745  -0.992  1.00  0.00     0.000 C 
BRANCH   8   9
ATOM      9  C   UNL     1       9.438  36.398  -1.258  1.00  0.00     0.000 C 
BRANCH   9  10
ATOM     10  C   UNL     1      10.051  35.240  -0.454  1.00  0.00     0.006 C 
BRANCH  10  11
ATOM     11  C   UNL     1       8.992  34.230   0.009  1.00  0.00     0.053 C 
BRANCH  11  12
ATOM     12  C   UNL     1       8.942  33.024  -0.878  1.00  0.00     0.041 C 
ATOM     13  O   UNL     1       9.593  31.988  -0.578  1.00  0.00    -0.550 OA
ATOM     14  O   UNL     1       8.145  33.030  -2.017  1.00  0.00    -0.550 OA
ENDBRANCH  11  12
ENDBRANCH  10  11
ENDBRANCH   9  10
ENDBRANCH   8   9
ENDBRANCH   7   8
ENDBRANCH   6   7
ENDBRANCH   5   6
ENDBRANCH   4   5
ENDBRANCH   3   4
ENDBRANCH   2   3
ENDBRANCH   1   2
BRANCH   1  15
ATOM     15  C   UNL     1       6.422  38.512  -1.237  1.00  0.00     0.000 C 
BRANCH  15  16
ATOM     16  C   UNL     1       5.363  38.075  -2.264  1.00  0.00     0.000 C 
BRANCH  16  17
ATOM     17  C   UNL     1       4.795  36.675  -1.973  1.00  0.00     0.000 C 
BRANCH  17  18
ATOM     18  C   UNL     1       5.763  35.804  -1.155  1.00  0.00    -0.000 C 
BRANCH  18  19
ATOM     19  C   UNL     1       5.203  35.449   0.234  1.00  0.00    -0.000 C 
BRANCH  19  20
ATOM     20  C   UNL     1       3.789  36.019   0.471  1.00  0.00    -0.000 C 
BRANCH  20  21
ATOM     21  C   UNL     1       3.672  36.893   1.735  1.00  0.00    -0.000 C 
BRANCH  21  22
ATOM     22  C   UNL     1       4.511  36.420   2.937  1.00  0.00    -0.000 C 
BRANCH  22  23
ATOM     23  C   UNL     1       3.761  36.395   4.282  1.00  0.00    -0.000 C 
BRANCH  23  24
ATOM     24  C   UNL     1       4.468  37.214   5.376  1.00  0.00    -0.000 C 
BRANCH  24  25
ATOM     25  C   UNL     1       5.522  38.173   4.805  1.00  0.00    -0.003 C 
ATOM     26  C   UNL     1       5.367  39.601   5.329  1.00  0.00     0.004 C 
ENDBRANCH  24  25
ENDBRANCH  23  24
ENDBRANCH  22  23
ENDBRANCH  21  22
ENDBRANCH  20  21
ENDBRANCH  19  20
ENDBRANCH  18  19
ENDBRANCH  17  18
ENDBRANCH  16  17
ENDBRANCH  15  16
ENDBRANCH   1  15
TORSDOF 22
ENDMDL
MODEL 5
REMARK VINA RESULT:    -3.916      2.979      4.901
REMARK INTER + INTRA:         -13.703
REMARK INTER:                  -9.646
REMARK INTRA:                  -4.057
REMARK UNBOUND:                -4.749
REMARK SMILES CCCCCCCCCCCCCCCCCCCCCCCC(=O)[O-]
REMARK SMILES IDX 13 1 14 2 15 3 16 4 17 5 18 6 19 7 20 8 21 9 22 10 23 11
REMARK SMILES IDX 24 12 25 13 26 14 12 15 11 16 10 17 9 18 8 19 7 20 6 21 5 22
REMARK SMILES IDX 4 23 3 24 2 25 1 26
REMARK H PARENT
REMARK Flexibility Score: inf
ROOT
ATOM      1  C   UNL     1       6.096  33.846  -2.838  1.00  0.00     0.000 C 
ENDROOT
BRANCH   1   2
ATOM      2  C   UNL     1       6.833  33.994  -1.492  1.00  0.00     0.000 C 
BRANCH   2   3
ATOM      3  C   UNL     1       8.368  33.935  -1.586  1.00  0.00     0.000 C 
BRANCH   3   4
ATOM      4  C   UNL     1       9.039  33.693  -0.225  1.00  0.00     0.000 C 
BRANCH   4   5
ATOM      5  C   UNL     1       9.865  34.915   0.203  1.00  0.00     0.000 C 
BRANCH   5   6
ATOM      6  C   UNL     1      10.508  35.644  -0.987  1.00  0.00     0.000 C 
BRANCH   6   7
ATOM      7  C   UNL     1      10.031  37.103  -1.116  1.00  0.00     0.000 C 
BRANCH   7   8
ATOM      8  C   UNL     1      11.055  38.104  -0.539  1.00  0.00     0.000 C 
BRANCH   8   9
ATOM      9  C   UNL     1      10.427  39.155   0.394  1.00  0.00     0.000 C 
BRANCH   9  10
ATOM     10  C   UNL     1      10.387  38.702   1.863  1.00  0.00     0.006 C 
BRANCH  10  11
ATOM     11  C   UNL     1       9.030  38.989   2.521  1.00  0.00     0.053 C 
BRANCH  11  12
ATOM     12  C   UNL     1       8.796  40.457   2.706  1.00  0.00     0.041 C 
ATOM     13  O   UNL     1       9.476  41.107   3.544  1.00  0.00    -0.550 OA
ATOM     14  O   UNL     1       7.853  41.116   1.926  1.00  0.00    -0.550 OA
ENDBRANCH  11  12
ENDBRANCH  10  11
ENDBRANCH   9  10
ENDBRANCH   8   9
ENDBRANCH   7   8
ENDBRANCH   6   7
ENDBRANCH   5   6
ENDBRANCH   4   5
ENDBRANCH   3   4
ENDBRANCH   2   3
ENDBRANCH   1   2
BRANCH   1  15
ATOM     15  C   UNL     1       4.789  33.028  -2.784  1.00  0.00     0.000 C 
BRANCH  15  16
ATOM     16  C   UNL     1       3.633  33.704  -2.025  1.00  0.00     0.000 C 
BRANCH  16  17
ATOM     17  C   UNL     1       3.470  35.190  -2.393  1.00  0.00     0.000 C 
BRANCH  17  18
ATOM     18  C   UNL     1       2.886  36.023  -1.240  1.00  0.00    -0.000 C 
BRANCH  18  19
ATOM     19  C   UNL     1       3.067  35.341   0.128  1.00  0.00    -0.000 C 
BRANCH  19  20
ATOM     20  C   UNL     1       3.989  36.138   1.075  1.00  0.00    -0.000 C 
BRANCH  20  21
ATOM     21  C   UNL     1       5.395  35.530   1.235  1.00  0.00    -0.000 C 
BRANCH  21  22
ATOM     22  C   UNL     1       6.554  36.544   1.207  1.00  0.00    -0.000 C 
BRANCH  22  23
ATOM     23  C   UNL     1       6.305  37.792   0.339  1.00  0.00    -0.000 C 
BRANCH  23  24
ATOM     24  C   UNL     1       6.503  37.525  -1.163  1.00  0.00    -0.000 C 
BRANCH  24  25
ATOM     25  C   UNL     1       5.526  38.326  -2.037  1.00  0.00    -0.003 C 
ATOM     26  C   UNL     1       4.672  39.301  -1.226  1.00  0.00     0.004 C 
ENDBRANCH  24  25
ENDBRANCH  23  24
ENDBRANCH  22  23
ENDBRANCH  21  22
ENDBRANCH  20  21
ENDBRANCH  19  20
ENDBRANCH  18  19
ENDBRANCH  17  18
ENDBRANCH  16  17
ENDBRANCH  15  16
ENDBRANCH   1  15
TORSDOF 22
ENDMDL
MODEL 6
REMARK VINA RESULT:    -3.905      3.248      5.309
REMARK INTER + INTRA:         -13.677
REMARK INTER:                  -9.424
REMARK INTRA:                  -4.253
REMARK UNBOUND:                -4.749
REMARK SMILES CCCCCCCCCCCCCCCCCCCCCCCC(=O)[O-]
REMARK SMILES IDX 13 1 14 2 15 3 16 4 17 5 18 6 19 7 20 8 21 9 22 10 23 11
REMARK SMILES IDX 24 12 25 13 26 14 12 15 11 16 10 17 9 18 8 19 7 20 6 21 5 22
REMARK SMILES IDX 4 23 3 24 2 25 1 26
REMARK H PARENT
REMARK Flexibility Score: inf
ROOT
ATOM      1  C   UNL     1       8.244  33.356  -1.611  1.00  0.00     0.000 C 
ENDROOT
BRANCH   1   2
ATOM      2  C   UNL     1       9.686  32.861  -1.841  1.00  0.00     0.000 C 
BRANCH   2   3
ATOM      3  C   UNL     1      10.772  33.676  -1.117  1.00  0.00     0.000 C 
BRANCH   3   4
ATOM      4  C   UNL     1      10.660  35.185  -1.385  1.00  0.00     0.000 C 
BRANCH   4   5
ATOM      5  C   UNL     1      11.151  35.995  -0.176  1.00  0.00     0.000 C 
BRANCH   5   6
ATOM      6  C   UNL     1      11.053  37.513  -0.398  1.00  0.00     0.000 C 
BRANCH   6   7
ATOM      7  C   UNL     1      10.812  38.289   0.910  1.00  0.00     0.000 C 
BRANCH   7   8
ATOM      8  C   UNL     1      10.051  39.610   0.671  1.00  0.00     0.000 C 
BRANCH   8   9
ATOM      9  C   UNL     1       8.930  39.867   1.694  1.00  0.00     0.000 C 
BRANCH   9  10
ATOM     10  C   UNL     1       8.814  38.752   2.746  1.00  0.00     0.006 C 
BRANCH  10  11
ATOM     11  C   UNL     1       7.400  38.654   3.334  1.00  0.00     0.053 C 
BRANCH  11  12
ATOM     12  C   UNL     1       6.954  39.950   3.940  1.00  0.00     0.041 C 
ATOM     13  O   UNL     1       5.901  40.510   3.534  1.00  0.00    -0.550 OA
ATOM     14  O   UNL     1       7.680  40.520   4.980  1.00  0.00    -0.550 OA
ENDBRANCH  11  12
ENDBRANCH  10  11
ENDBRANCH   9  10
ENDBRANCH   8   9
ENDBRANCH   7   8
ENDBRANCH   6   7
ENDBRANCH   5   6
ENDBRANCH   4   5
ENDBRANCH   3   4
ENDBRANCH   2   3
ENDBRANCH   1   2
BRANCH   1  15
ATOM     15  C   UNL     1       7.342  33.351  -2.862  1.00  0.00     0.000 C 
BRANCH  15  16
ATOM     16  C   UNL     1       6.198  34.381  -2.840  1.00  0.00     0.000 C 
BRANCH  16  17
ATOM     17  C   UNL     1       4.878  33.791  -2.314  1.00  0.00     0.000 C 
BRANCH  17  18
ATOM     18  C   UNL     1       3.838  34.874  -1.981  1.00  0.00    -0.000 C 
BRANCH  18  19
ATOM     19  C   UNL     1       4.158  36.222  -2.652  1.00  0.00    -0.000 C 
BRANCH  19  20
ATOM     20  C   UNL     1       4.333  37.369  -1.633  1.00  0.00    -0.000 C 
BRANCH  20  21
ATOM     21  C   UNL     1       5.503  38.318  -1.956  1.00  0.00    -0.000 C 
BRANCH  21  22
ATOM     22  C   UNL     1       6.663  38.296  -0.943  1.00  0.00    -0.000 C 
BRANCH  22  23
ATOM     23  C   UNL     1       7.458  36.978  -0.895  1.00  0.00    -0.000 C 
BRANCH  23  24
ATOM     24  C   UNL     1       7.509  36.361   0.513  1.00  0.00    -0.000 C 
BRANCH  24  25
ATOM     25  C   UNL     1       6.409  35.313   0.737  1.00  0.00    -0.003 C 
ATOM     26  C   UNL     1       5.353  35.772   1.743  1.00  0.00     0.004 C 
ENDBRANCH  24  25
ENDBRANCH  23  24
ENDBRANCH  22  23
ENDBRANCH  21  22
ENDBRANCH  20  21
ENDBRANCH  19  20
ENDBRANCH  18  19
ENDBRANCH  17  18
ENDBRANCH  16  17
ENDBRANCH  15  16
ENDBRANCH   1  15
TORSDOF 22
ENDMDL
MODEL 7
REMARK VINA RESULT:    -3.838      2.623      6.751
REMARK INTER + INTRA:         -13.523
REMARK INTER:                  -9.867
REMARK INTRA:                  -3.656
REMARK UNBOUND:                -4.749
REMARK SMILES CCCCCCCCCCCCCCCCCCCCCCCC(=O)[O-]
REMARK SMILES IDX 13 1 14 2 15 3 16 4 17 5 18 6 19 7 20 8 21 9 22 10 23 11
REMARK SMILES IDX 24 12 25 13 26 14 12 15 11 16 10 17 9 18 8 19 7 20 6 21 5 22
REMARK SMILES IDX 4 23 3 24 2 25 1 26
REMARK H PARENT
REMARK Flexibility Score: inf
ROOT
ATOM      1  C   UNL     1       6.246  38.946  -1.405  1.00  0.00     0.000 C 
ENDROOT
BRANCH   1   2
ATOM      2  C   UNL     1       4.894  38.399  -1.908  1.00  0.00     0.000 C 
BRANCH   2   3
ATOM      3  C   UNL     1       3.858  38.123  -0.805  1.00  0.00     0.000 C 
BRANCH   3   4
ATOM      4  C   UNL     1       3.026  36.860  -1.072  1.00  0.00     0.000 C 
BRANCH   4   5
ATOM      5  C   UNL     1       3.468  36.177  -2.375  1.00  0.00     0.000 C 
BRANCH   5   6
ATOM      6  C   UNL     1       3.990  34.749  -2.149  1.00  0.00     0.000 C 
BRANCH   6   7
ATOM      7  C   UNL     1       5.511  34.633  -2.365  1.00  0.00     0.000 C 
BRANCH   7   8
ATOM      8  C   UNL     1       6.274  34.443  -1.037  1.00  0.00     0.000 C 
BRANCH   8   9
ATOM      9  C   UNL     1       7.112  35.668  -0.630  1.00  0.00     0.000 C 
BRANCH   9  10
ATOM     10  C   UNL     1       6.885  36.090   0.831  1.00  0.00     0.006 C 
BRANCH  10  11
ATOM     11  C   UNL     1       5.565  35.545   1.394  1.00  0.00     0.053 C 
BRANCH  11  12
ATOM     12  C   UNL     1       4.921  36.508   2.343  1.00  0.00     0.041 C 
ATOM     13  O   UNL     1       3.934  36.149   3.039  1.00  0.00    -0.550 OA
ATOM     14  O   UNL     1       5.434  37.792   2.489  1.00  0.00    -0.550 OA
ENDBRANCH  11  12
ENDBRANCH  10  11
ENDBRANCH   9  10
ENDBRANCH   8   9
ENDBRANCH   7   8
ENDBRANCH   6   7
ENDBRANCH   5   6
ENDBRANCH   4   5
ENDBRANCH   3   4
ENDBRANCH   2   3
ENDBRANCH   1   2
BRANCH   1  15
ATOM     15  C   UNL     1       6.152  40.179  -0.484  1.00  0.00     0.000 C 
BRANCH  15  16
ATOM     16  C   UNL     1       7.506  40.741  -0.014  1.00  0.00     0.000 C 
BRANCH  16  17
ATOM     17  C   UNL     1       8.591  39.656   0.103  1.00  0.00     0.000 C 
BRANCH  17  18
ATOM     18  C   UNL     1       9.983  40.166  -0.304  1.00  0.00    -0.000 C 
BRANCH  18  19
ATOM     19  C   UNL     1      10.889  39.041  -0.834  1.00  0.00    -0.000 C 
BRANCH  19  20
ATOM     20  C   UNL     1      10.664  37.699  -0.105  1.00  0.00    -0.000 C 
BRANCH  20  21
ATOM     21  C   UNL     1      10.503  36.494  -1.051  1.00  0.00    -0.000 C 
BRANCH  21  22
ATOM     22  C   UNL     1      10.748  35.117  -0.405  1.00  0.00    -0.000 C 
BRANCH  22  23
ATOM     23  C   UNL     1      10.360  33.911  -1.281  1.00  0.00    -0.000 C 
BRANCH  23  24
ATOM     24  C   UNL     1       9.545  32.854  -0.517  1.00  0.00    -0.000 C 
BRANCH  24  25
ATOM     25  C   UNL     1      10.036  31.424  -0.786  1.00  0.00    -0.003 C 
ATOM     26  C   UNL     1      11.107  31.362  -1.876  1.00  0.00     0.004 C 
ENDBRANCH  24  25
ENDBRANCH  23  24
ENDBRANCH  22  23
ENDBRANCH  21  22
ENDBRANCH  20  21
ENDBRANCH  19  20
ENDBRANCH  18  19
ENDBRANCH  17  18
ENDBRANCH  16  17
ENDBRANCH  15  16
ENDBRANCH   1  15
TORSDOF 22
ENDMDL
MODEL 8
REMARK VINA RESULT:    -3.829      1.281      4.931
REMARK INTER + INTRA:         -13.503
REMARK INTER:                  -9.318
REMARK INTRA:                  -4.185
REMARK UNBOUND:                -4.749
REMARK SMILES CCCCCCCCCCCCCCCCCCCCCCCC(=O)[O-]
REMARK SMILES IDX 13 1 14 2 15 3 16 4 17 5 18 6 19 7 20 8 21 9 22 10 23 11
REMARK SMILES IDX 24 12 25 13 26 14 12 15 11 16 10 17 9 18 8 19 7 20 6 21 5 22
REMARK SMILES IDX 4 23 3 24 2 25 1 26
REMARK H PARENT
REMARK Flexibility Score: inf
ROOT
ATOM      1  C   UNL     1       5.526  36.893   2.034  1.00  0.00     0.000 C 
ENDROOT
BRANCH   1   2
ATOM      2  C   UNL     1       4.131  36.503   1.503  1.00  0.00     0.000 C 
BRANCH   2   3
ATOM      3  C   UNL     1       4.142  35.684   0.201  1.00  0.00     0.000 C 
BRANCH   3   4
ATOM      4  C   UNL     1       3.665  36.492  -1.015  1.00  0.00     0.000 C 
BRANCH   4   5
ATOM      5  C   UNL     1       4.101  35.821  -2.326  1.00  0.00     0.000 C 
BRANCH   5   6
ATOM      6  C   UNL     1       4.556  34.367  -2.126  1.00  0.00     0.000 C 
BRANCH   6   7
ATOM      7  C   UNL     1       6.037  34.153  -2.491  1.00  0.00     0.000 C 
BRANCH   7   8
ATOM      8  C   UNL     1       6.814  35.484  -2.574  1.00  0.00     0.000 C 
BRANCH   8   9
ATOM      9  C   UNL     1       7.687  35.763  -1.338  1.00  0.00     0.000 C 
BRANCH   9  10
ATOM     10  C   UNL     1       7.747  34.573  -0.366  1.00  0.00     0.006 C 
BRANCH  10  11
ATOM     11  C   UNL     1       9.173  34.034  -0.195  1.00  0.00     0.053 C 
BRANCH  11  12
ATOM     12  C   UNL     1       9.381  32.751  -0.941  1.00  0.00     0.041 C 
ATOM     13  O   UNL     1       9.284  32.726  -2.197  1.00  0.00    -0.550 OA
ATOM     14  O   UNL     1       9.717  31.591  -0.253  1.00  0.00    -0.550 OA
ENDBRANCH  11  12
ENDBRANCH  10  11
ENDBRANCH   9  10
ENDBRANCH   8   9
ENDBRANCH   7   8
ENDBRANCH   6   7
ENDBRANCH   5   6
ENDBRANCH   4   5
ENDBRANCH   3   4
ENDBRANCH   2   3
ENDBRANCH   1   2
BRANCH   1  15
ATOM     15  C   UNL     1       5.817  38.407   2.062  1.00  0.00     0.000 C 
BRANCH  15  16
ATOM     16  C   UNL     1       4.870  39.264   1.203  1.00  0.00     0.000 C 
BRANCH  16  17
ATOM     17  C   UNL     1       5.446  39.570  -0.191  1.00  0.00     0.000 C 
BRANCH  17  18
ATOM     18  C   UNL     1       6.962  39.328  -0.269  1.00  0.00    -0.000 C 
BRANCH  18  19
ATOM     19  C   UNL     1       7.767  40.639  -0.285  1.00  0.00    -0.000 C 
BRANCH  19  20
ATOM     20  C   UNL     1       9.172  40.485   0.337  1.00  0.00    -0.000 C 
BRANCH  20  21
ATOM     21  C   UNL     1      10.323  40.680  -0.668  1.00  0.00    -0.000 C 
BRANCH  21  22
ATOM     22  C   UNL     1      11.099  39.400  -1.032  1.00  0.00    -0.000 C 
BRANCH  22  23
ATOM     23  C   UNL     1      10.401  38.084  -0.639  1.00  0.00    -0.000 C 
BRANCH  23  24
ATOM     24  C   UNL     1      11.317  37.133   0.149  1.00  0.00    -0.000 C 
BRANCH  24  25
ATOM     25  C   UNL     1      10.729  36.742   1.512  1.00  0.00    -0.003 C 
ATOM     26  C   UNL     1       9.311  37.276   1.718  1.00  0.00     0.004 C 
ENDBRANCH  24  25
ENDBRANCH  23  24
ENDBRANCH  22  23
ENDBRANCH  21  22
ENDBRANCH  20  21
ENDBRANCH  19  20
ENDBRANCH  18  19
ENDBRANCH  17  18
ENDBRANCH  16  17
ENDBRANCH  15  16
ENDBRANCH   1  15
TORSDOF 22
ENDMDL
MODEL 9
REMARK VINA RESULT:    -3.800      1.418      4.934
REMARK INTER + INTRA:         -13.438
REMARK INTER:                  -9.029
REMARK INTRA:                  -4.408
REMARK UNBOUND:                -4.749
REMARK SMILES CCCCCCCCCCCCCCCCCCCCCCCC(=O)[O-]
REMARK SMILES IDX 13 1 14 2 15 3 16 4 17 5 18 6 19 7 20 8 21 9 22 10 23 11
REMARK SMILES IDX 24 12 25 13 26 14 12 15 11 16 10 17 9 18 8 19 7 20 6 21 5 22
REMARK SMILES IDX 4 23 3 24 2 25 1 26
REMARK H PARENT
REMARK Flexibility Score: inf
ROOT
ATOM      1  C   UNL     1       4.793  38.109  -1.996  1.00  0.00     0.000 C 
ENDROOT
BRANCH   1   2
ATOM      2  C   UNL     1       4.745  36.845  -2.879  1.00  0.00     0.000 C 
BRANCH   2   3
ATOM      3  C   UNL     1       3.753  35.767  -2.409  1.00  0.00     0.000 C 
BRANCH   3   4
ATOM      4  C   UNL     1       4.450  34.477  -1.950  1.00  0.00     0.000 C 
BRANCH   4   5
ATOM      5  C   UNL     1       5.965  34.689  -1.817  1.00  0.00     0.000 C 
BRANCH   5   6
ATOM      6  C   UNL     1       6.413  34.873  -0.358  1.00  0.00     0.000 C 
BRANCH   6   7
ATOM      7  C   UNL     1       7.469  35.983  -0.197  1.00  0.00     0.000 C 
BRANCH   7   8
ATOM      8  C   UNL     1       8.231  36.257  -1.511  1.00  0.00     0.000 C 
BRANCH   8   9
ATOM      9  C   UNL     1       9.760  36.161  -1.366  1.00  0.00     0.000 C 
BRANCH   9  10
ATOM     10  C   UNL     1      10.198  35.108  -0.335  1.00  0.00     0.006 C 
BRANCH  10  11
ATOM     11  C   UNL     1      10.746  33.838  -1.000  1.00  0.00     0.053 C 
BRANCH  11  12
ATOM     12  C   UNL     1       9.710  32.759  -1.087  1.00  0.00     0.041 C 
ATOM     13  O   UNL     1       9.625  31.888  -0.181  1.00  0.00    -0.550 OA
ATOM     14  O   UNL     1       8.813  32.738  -2.149  1.00  0.00    -0.550 OA
ENDBRANCH  11  12
ENDBRANCH  10  11
ENDBRANCH   9  10
ENDBRANCH   8   9
ENDBRANCH   7   8
ENDBRANCH   6   7
ENDBRANCH   5   6
ENDBRANCH   4   5
ENDBRANCH   3   4
ENDBRANCH   2   3
ENDBRANCH   1   2
BRANCH   1  15
ATOM     15  C   UNL     1       4.240  37.932  -0.567  1.00  0.00     0.000 C 
BRANCH  15  16
ATOM     16  C   UNL     1       4.890  38.836   0.495  1.00  0.00     0.000 C 
BRANCH  16  17
ATOM     17  C   UNL     1       6.227  39.438   0.025  1.00  0.00     0.000 C 
BRANCH  17  18
ATOM     18  C   UNL     1       6.456  40.860   0.564  1.00  0.00    -0.000 C 
BRANCH  18  19
ATOM     19  C   UNL     1       6.465  40.912   2.102  1.00  0.00    -0.000 C 
BRANCH  19  20
ATOM     20  C   UNL     1       7.761  41.526   2.671  1.00  0.00    -0.000 C 
BRANCH  20  21
ATOM     21  C   UNL     1       8.733  40.491   3.268  1.00  0.00    -0.000 C 
BRANCH  21  22
ATOM     22  C   UNL     1       8.289  39.022   3.133  1.00  0.00    -0.000 C 
BRANCH  22  23
ATOM     23  C   UNL     1       9.085  38.196   2.105  1.00  0.00    -0.000 C 
BRANCH  23  24
ATOM     24  C   UNL     1      10.374  38.896   1.643  1.00  0.00    -0.000 C 
BRANCH  24  25
ATOM     25  C   UNL     1      10.383  39.178   0.133  1.00  0.00    -0.003 C 
ATOM     26  C   UNL     1      10.031  40.628  -0.200  1.00  0.00     0.004 C 
ENDBRANCH  24  25
ENDBRANCH  23  24
ENDBRANCH  22  23
ENDBRANCH  21  22
ENDBRANCH  20  21
ENDBRANCH  19  20
ENDBRANCH  18  19
ENDBRANCH  17  18
ENDBRANCH  16  17
ENDBRANCH  15  16
ENDBRANCH   1  15
TORSDOF 22
ENDMDL
