MODEL 1
REMARK VINA RESULT:    -4.796      0.000      0.000
REMARK INTER + INTRA:         -10.497
REMARK INTER:                  -8.721
REMARK INTRA:                  -1.776
REMARK UNBOUND:                -1.776
REMARK SMILES CCCCCC=CCC=CCCCCCCCC(=O)[O-]
REMARK SMILES IDX 11 1 12 2 13 3 14 4 15 5 16 6 17 7 18 8 19 9 20 10 10 11
REMARK SMILES IDX 9 12 8 13 7 14 6 15 5 16 4 17 3 18 2 19 1 20
REMARK H PARENT
REMARK Flexibility Score: inf
ROOT
ATOM      1  C   UNL     1       9.998   4.299  19.827  1.00  0.00     0.027 C 
ENDROOT
BRANCH   1   2
ATOM      2  C   UNL     1      10.012   3.503  21.144  1.00  0.00     0.004 C 
BRANCH   2   3
ATOM      3  C   UNL     1       8.848   2.502  21.302  1.00  0.00     0.000 C 
BRANCH   3   4
ATOM      4  C   UNL     1       7.706   2.962  22.227  1.00  0.00     0.000 C 
BRANCH   4   5
ATOM      5  C   UNL     1       6.324   2.875  21.559  1.00  0.00     0.000 C 
BRANCH   5   6
ATOM      6  C   UNL     1       6.365   3.196  20.053  1.00  0.00     0.006 C 
BRANCH   6   7
ATOM      7  C   UNL     1       5.790   2.082  19.159  1.00  0.00     0.053 C 
BRANCH   7   8
ATOM      8  C   UNL     1       6.609   1.854  17.926  1.00  0.00     0.041 C 
ATOM      9  O   UNL     1       6.204   1.063  17.034  1.00  0.00    -0.550 OA
ATOM     10  O   UNL     1       7.835   2.489  17.773  1.00  0.00    -0.550 OA
ENDBRANCH   7   8
ENDBRANCH   6   7
ENDBRANCH   5   6
ENDBRANCH   4   5
ENDBRANCH   3   4
ENDBRANCH   2   3
ENDBRANCH   1   2
BRANCH   1  11
ATOM     11  C   UNL     1       9.165   5.549  19.917  1.00  0.00    -0.031 C 
ATOM     12  C   UNL     1       9.012   6.213  21.073  1.00  0.00    -0.027 C 
BRANCH  12  13
ATOM     13  C   UNL     1       8.195   7.470  21.153  1.00  0.00     0.054 C 
BRANCH  13  14
ATOM     14  C   UNL     1       8.033   8.074  19.787  1.00  0.00    -0.027 C 
ATOM     15  C   UNL     1       8.479   9.308  19.508  1.00  0.00    -0.031 C 
BRANCH  15  16
ATOM     16  C   UNL     1       8.183   9.979  18.195  1.00  0.00     0.027 C 
BRANCH  16  17
ATOM     17  C   UNL     1       8.835   9.226  17.025  1.00  0.00     0.004 C 
BRANCH  17  18
ATOM     18  C   UNL     1       8.009   9.277  15.720  1.00  0.00     0.000 C 
BRANCH  18  19
ATOM     19  C   UNL     1       6.560   9.750  15.922  1.00  0.00    -0.003 C 
ATOM     20  C   UNL     1       5.544   8.613  15.850  1.00  0.00     0.004 C 
ENDBRANCH  18  19
ENDBRANCH  17  18
ENDBRANCH  16  17
ENDBRANCH  15  16
ENDBRANCH  13  14
ENDBRANCH  12  13
ENDBRANCH   1  11
TORSDOF 14
ENDMDL
MODEL 2
REMARK VINA RESULT:    -4.605      1.387      2.378
REMARK INTER + INTRA:         -10.151
REMARK INTER:                  -8.245
REMARK INTRA:                  -1.906
REMARK UNBOUND:                -1.776
REMARK SMILES CCCCCC=CCC=CCCCCCCCC(=O)[O-]
REMARK SMILES IDX 11 1 12 2 13 3 14 4 15 5 16 6 17 7 18 8 19 9 20 10 10 11
REMARK SMILES IDX 9 12 8 13 7 14 6 15 5 16 4 17 3 18 2 19 1 20
REMARK H PARENT
REMARK Flexibility Score: inf
ROOT
ATOM      1  C   UNL     1       8.827   6.478  20.327  1.00  0.00     0.027 C 
ENDROOT
BRANCH   1   2
ATOM      2  C   UNL     1       9.080   5.895  21.729  1.00  0.00     0.004 C 
BRANCH   2   3
ATOM      3  C   UNL     1       8.621   4.433  21.908  1.00  0.00     0.000 C 
BRANCH   3   4
ATOM      4  C   UNL     1       7.116   4.244  22.173  1.00  0.00     0.000 C 
BRANCH   4   5
ATOM      5  C   UNL     1       6.513   3.070  21.384  1.00  0.00     0.000 C 
BRANCH   5   6
ATOM      6  C   UNL     1       6.562   3.285  19.860  1.00  0.00     0.006 C 
BRANCH   6   7
ATOM      7  C   UNL     1       7.116   2.082  19.074  1.00  0.00     0.053 C 
BRANCH   7   8
ATOM      8  C   UNL     1       6.713   2.102  17.633  1.00  0.00     0.041 C 
ATOM      9  O   UNL     1       5.496   2.176  17.316  1.00  0.00    -0.550 OA
ATOM     10  O   UNL     1       7.676   2.006  16.636  1.00  0.00    -0.550 OA
ENDBRANCH   7   8
ENDBRANCH   6   7
ENDBRANCH   5   6
ENDBRANCH   4   5
ENDBRANCH   3   4
ENDBRANCH   2   3
ENDBRANCH   1   2
BRANCH   1  11
ATOM     11  C   UNL     1       7.742   7.521  20.322  1.00  0.00    -0.031 C 
ATOM     12  C   UNL     1       6.480   7.224  19.975  1.00  0.00    -0.027 C 
BRANCH  12  13
ATOM     13  C   UNL     1       5.397   8.264  19.990  1.00  0.00     0.054 C 
BRANCH  13  14
ATOM     14  C   UNL     1       5.493   9.133  18.769  1.00  0.00    -0.027 C 
ATOM     15  C   UNL     1       5.075   8.704  17.569  1.00  0.00    -0.031 C 
BRANCH  15  16
ATOM     16  C   UNL     1       5.311   9.504  16.316  1.00  0.00     0.027 C 
BRANCH  16  17
ATOM     17  C   UNL     1       6.394   8.858  15.439  1.00  0.00     0.004 C 
BRANCH  17  18
ATOM     18  C   UNL     1       7.621   9.768  15.201  1.00  0.00     0.000 C 
BRANCH  18  19
ATOM     19  C   UNL     1       8.257  10.300  16.495  1.00  0.00    -0.003 C 
ATOM     20  C   UNL     1       9.026   9.231  17.267  1.00  0.00     0.004 C 
ENDBRANCH  18  19
ENDBRANCH  17  18
ENDBRANCH  16  17
ENDBRANCH  15  16
ENDBRANCH  13  14
ENDBRANCH  12  13
ENDBRANCH   1  11
TORSDOF 14
ENDMDL
MODEL 3
REMARK VINA RESULT:    -4.499      1.527      2.106
REMARK INTER + INTRA:          -9.957
REMARK INTER:                  -7.800
REMARK INTRA:                  -2.157
REMARK UNBOUND:                -1.776
REMARK SMILES CCCCCC=CCC=CCCCCCCCC(=O)[O-]
REMARK SMILES IDX 11 1 12 2 13 3 14 4 15 5 16 6 17 7 18 8 19 9 20 10 10 11
REMARK SMILES IDX 9 12 8 13 7 14 6 15 5 16 4 17 3 18 2 19 1 20
REMARK H PARENT
REMARK Flexibility Score: inf
ROOT
ATOM      1  C   UNL     1       9.419   5.777  20.290  1.00  0.00     0.027 C 
ENDROOT
BRANCH   1   2
ATOM      2  C   UNL     1       9.953   4.574  21.089  1.00  0.00     0.004 C 
BRANCH   2   3
ATOM      3  C   UNL     1       8.959   3.995  22.117  1.00  0.00     0.000 C 
BRANCH   3   4
ATOM      4  C   UNL     1       8.239   2.705  21.680  1.00  0.00     0.000 C 
BRANCH   4   5
ATOM      5  C   UNL     1       6.722   2.895  21.514  1.00  0.00     0.000 C 
BRANCH   5   6
ATOM      6  C   UNL     1       6.252   2.720  20.059  1.00  0.00     0.006 C 
BRANCH   6   7
ATOM      7  C   UNL     1       7.379   2.359  19.074  1.00  0.00     0.053 C 
BRANCH   7   8
ATOM      8  C   UNL     1       6.914   2.331  17.651  1.00  0.00     0.041 C 
ATOM      9  O   UNL     1       5.727   2.643  17.367  1.00  0.00    -0.550 OA
ATOM     10  O   UNL     1       7.778   1.932  16.640  1.00  0.00    -0.550 OA
ENDBRANCH   7   8
ENDBRANCH   6   7
ENDBRANCH   5   6
ENDBRANCH   4   5
ENDBRANCH   3   4
ENDBRANCH   2   3
ENDBRANCH   1   2
BRANCH   1  11
ATOM     11  C   UNL     1       8.138   6.324  20.858  1.00  0.00    -0.031 C 
ATOM     12  C   UNL     1       6.985   6.273  20.174  1.00  0.00    -0.027 C 
BRANCH  12  13
ATOM     13  C   UNL     1       5.704   6.803  20.753  1.00  0.00     0.054 C 
BRANCH  13  14
ATOM     14  C   UNL     1       5.399   8.160  20.185  1.00  0.00    -0.027 C 
ATOM     15  C   UNL     1       5.733   8.484  18.927  1.00  0.00    -0.031 C 
BRANCH  15  16
ATOM     16  C   UNL     1       5.574   9.885  18.402  1.00  0.00     0.027 C 
BRANCH  16  17
ATOM     17  C   UNL     1       6.922  10.466  17.949  1.00  0.00     0.004 C 
BRANCH  17  18
ATOM     18  C   UNL     1       8.140   9.826  18.654  1.00  0.00     0.000 C 
BRANCH  18  19
ATOM     19  C   UNL     1       9.114   9.125  17.693  1.00  0.00    -0.003 C 
ATOM     20  C   UNL     1       8.827   9.429  16.225  1.00  0.00     0.004 C 
ENDBRANCH  18  19
ENDBRANCH  17  18
ENDBRANCH  16  17
ENDBRANCH  15  16
ENDBRANCH  13  14
ENDBRANCH  12  13
ENDBRANCH   1  11
TORSDOF 14
ENDMDL
MODEL 4
REMARK VINA RESULT:    -4.463      1.114      1.587
REMARK INTER + INTRA:          -9.891
REMARK INTER:                  -8.577
REMARK INTRA:                  -1.314
REMARK UNBOUND:                -1.776
REMARK SMILES CCCCCC=CCC=CCCCCCCCC(=O)[O-]
REMARK SMILES IDX 11 1 12 2 13 3 14 4 15 5 16 6 17 7 18 8 19 9 20 10 10 11
REMARK SMILES IDX 9 12 8 13 7 14 6 15 5 16 4 17 3 18 2 19 1 20
REMARK H PARENT
REMARK Flexibility Score: inf
ROOT
ATOM      1  C   UNL     1      11.315   4.489  22.455  1.00  0.00     0.027 C 
ENDROOT
BRANCH   1   2
ATOM      2  C   UNL     1      11.176   2.968  22.263  1.00  0.00     0.004 C 
BRANCH   2   3
ATOM      3  C   UNL     1      10.343   2.551  21.033  1.00  0.00     0.000 C 
BRANCH   3   4
ATOM      4  C   UNL     1       8.975   1.918  21.348  1.00  0.00     0.000 C 
BRANCH   4   5
ATOM      5  C   UNL     1       7.795   2.776  20.863  1.00  0.00     0.000 C 
BRANCH   5   6
ATOM      6  C   UNL     1       7.867   3.099  19.359  1.00  0.00     0.006 C 
BRANCH   6   7
ATOM      7  C   UNL     1       6.606   2.699  18.571  1.00  0.00     0.053 C 
BRANCH   7   8
ATOM      8  C   UNL     1       6.920   1.872  17.363  1.00  0.00     0.041 C 
ATOM      9  O   UNL     1       7.955   2.109  16.685  1.00  0.00    -0.550 OA
ATOM     10  O   UNL     1       6.057   0.860  16.964  1.00  0.00    -0.550 OA
ENDBRANCH   7   8
ENDBRANCH   6   7
ENDBRANCH   5   6
ENDBRANCH   4   5
ENDBRANCH   3   4
ENDBRANCH   2   3
ENDBRANCH   1   2
BRANCH   1  11
ATOM     11  C   UNL     1       9.992   5.203  22.386  1.00  0.00    -0.031 C 
ATOM     12  C   UNL     1       9.631   5.913  21.306  1.00  0.00    -0.027 C 
BRANCH  12  13
ATOM     13  C   UNL     1       8.301   6.608  21.233  1.00  0.00     0.054 C 
BRANCH  13  14
ATOM     14  C   UNL     1       8.233   7.474  20.008  1.00  0.00    -0.027 C 
ATOM     15  C   UNL     1       8.115   8.807  20.098  1.00  0.00    -0.031 C 
BRANCH  15  16
ATOM     16  C   UNL     1       7.889   9.665  18.883  1.00  0.00     0.027 C 
BRANCH  16  17
ATOM     17  C   UNL     1       8.813   9.251  17.728  1.00  0.00     0.004 C 
BRANCH  17  18
ATOM     18  C   UNL     1       8.545  10.021  16.414  1.00  0.00     0.000 C 
BRANCH  18  19
ATOM     19  C   UNL     1       7.830   9.183  15.342  1.00  0.00    -0.003 C 
ATOM     20  C   UNL     1       6.321   9.095  15.558  1.00  0.00     0.004 C 
ENDBRANCH  18  19
ENDBRANCH  17  18
ENDBRANCH  16  17
ENDBRANCH  15  16
ENDBRANCH  13  14
ENDBRANCH  12  13
ENDBRANCH   1  11
TORSDOF 14
ENDMDL
MODEL 5
REMARK VINA RESULT:    -4.422      4.012      7.355
REMARK INTER + INTRA:          -9.817
REMARK INTER:                  -8.621
REMARK INTRA:                  -1.196
REMARK UNBOUND:                -1.776
REMARK SMILES CCCCCC=CCC=CCCCCCCCC(=O)[O-]
REMARK SMILES IDX 11 1 12 2 13 3 14 4 15 5 16 6 17 7 18 8 19 9 20 10 10 11
REMARK SMILES IDX 9 12 8 13 7 14 6 15 5 16 4 17 3 18 2 19 1 20
REMARK H PARENT
REMARK Flexibility Score: inf
ROOT
ATOM      1  C   UNL     1       7.514   9.086  15.331  1.00  0.00     0.027 C 
ENDROOT
BRANCH   1   2
ATOM      2  C   UNL     1       8.520   9.568  16.391  1.00  0.00     0.004 C 
BRANCH   2   3
ATOM      3  C   UNL     1       7.896  10.377  17.547  1.00  0.00     0.000 C 
BRANCH   3   4
ATOM      4  C   UNL     1       8.257   9.889  18.962  1.00  0.00     0.000 C 
BRANCH   4   5
ATOM      5  C   UNL     1       8.640   8.400  19.000  1.00  0.00     0.000 C 
BRANCH   5   6
ATOM      6  C   UNL     1       7.758   7.578  19.958  1.00  0.00     0.006 C 
BRANCH   6   7
ATOM      7  C   UNL     1       8.521   6.976  21.152  1.00  0.00     0.053 C 
BRANCH   7   8
ATOM      8  C   UNL     1       8.852   5.530  20.953  1.00  0.00     0.041 C 
ATOM      9  O   UNL     1       7.952   4.655  21.049  1.00  0.00    -0.550 OA
ATOM     10  O   UNL     1      10.160   5.141  20.691  1.00  0.00    -0.550 OA
ENDBRANCH   7   8
ENDBRANCH   6   7
ENDBRANCH   5   6
ENDBRANCH   4   5
ENDBRANCH   3   4
ENDBRANCH   2   3
ENDBRANCH   1   2
BRANCH   1  11
ATOM     11  C   UNL     1       7.565   9.908  14.071  1.00  0.00    -0.031 C 
ATOM     12  C   UNL     1       7.487  11.248  14.100  1.00  0.00    -0.027 C 
BRANCH  12  13
ATOM     13  C   UNL     1       7.558  12.065  12.842  1.00  0.00     0.054 C 
BRANCH  13  14
ATOM     14  C   UNL     1       7.909  11.190  11.672  1.00  0.00    -0.027 C 
ATOM     15  C   UNL     1       7.951  11.675  10.422  1.00  0.00    -0.031 C 
BRANCH  15  16
ATOM     16  C   UNL     1       8.145  10.776   9.231  1.00  0.00     0.027 C 
BRANCH  16  17
ATOM     17  C   UNL     1       6.990   9.772   9.097  1.00  0.00     0.004 C 
BRANCH  17  18
ATOM     18  C   UNL     1       7.449   8.351   8.696  1.00  0.00     0.000 C 
BRANCH  18  19
ATOM     19  C   UNL     1       8.148   7.584   9.831  1.00  0.00    -0.003 C 
ATOM     20  C   UNL     1       7.389   7.652  11.154  1.00  0.00     0.004 C 
ENDBRANCH  18  19
ENDBRANCH  17  18
ENDBRANCH  16  17
ENDBRANCH  15  16
ENDBRANCH  13  14
ENDBRANCH  12  13
ENDBRANCH   1  11
TORSDOF 14
ENDMDL
MODEL 6
REMARK VINA RESULT:    -4.421      8.060     12.496
REMARK INTER + INTRA:          -9.815
REMARK INTER:                  -8.838
REMARK INTRA:                  -0.977
REMARK UNBOUND:                -1.776
REMARK SMILES CCCCCC=CCC=CCCCCCCCC(=O)[O-]
REMARK SMILES IDX 11 1 12 2 13 3 14 4 15 5 16 6 17 7 18 8 19 9 20 10 10 11
REMARK SMILES IDX 9 12 8 13 7 14 6 15 5 16 4 17 3 18 2 19 1 20
REMARK H PARENT
REMARK Flexibility Score: inf
ROOT
ATOM      1  C   UNL     1      10.235   8.390   7.366  1.00  0.00     0.027 C 
ENDROOT
BRANCH   1   2
ATOM      2  C   UNL     1      10.233   8.916   5.920  1.00  0.00     0.004 C 
BRANCH   2   3
ATOM      3  C   UNL     1      11.292  10.001   5.631  1.00  0.00     0.000 C 
BRANCH   3   4
ATOM      4  C   UNL     1      11.741  10.823   6.853  1.00  0.00     0.000 C 
BRANCH   4   5
ATOM      5  C   UNL     1      13.266  11.010   6.919  1.00  0.00     0.000 C 
BRANCH   5   6
ATOM      6  C   UNL     1      13.899  10.336   8.150  1.00  0.00     0.006 C 
BRANCH   6   7
ATOM      7  C   UNL     1      13.995  11.251   9.386  1.00  0.00     0.053 C 
BRANCH   7   8
ATOM      8  C   UNL     1      14.965  10.740  10.406  1.00  0.00     0.041 C 
ATOM      9  O   UNL     1      16.026  11.375  10.644  1.00  0.00    -0.550 OA
ATOM     10  O   UNL     1      14.716   9.547  11.072  1.00  0.00    -0.550 OA
ENDBRANCH   7   8
ENDBRANCH   6   7
ENDBRANCH   5   6
ENDBRANCH   4   5
ENDBRANCH   3   4
ENDBRANCH   2   3
ENDBRANCH   1   2
BRANCH   1  11
ATOM     11  C   UNL     1       8.964   8.720   8.102  1.00  0.00    -0.031 C 
ATOM     12  C   UNL     1       8.526   7.970   9.125  1.00  0.00    -0.027 C 
BRANCH  12  13
ATOM     13  C   UNL     1       7.267   8.315   9.868  1.00  0.00     0.054 C 
BRANCH  13  14
ATOM     14  C   UNL     1       7.340   9.722  10.390  1.00  0.00    -0.027 C 
ATOM     15  C   UNL     1       7.891   9.999  11.582  1.00  0.00    -0.031 C 
BRANCH  15  16
ATOM     16  C   UNL     1       7.827  11.378  12.181  1.00  0.00     0.027 C 
BRANCH  16  17
ATOM     17  C   UNL     1       7.458  11.321  13.671  1.00  0.00     0.004 C 
BRANCH  17  18
ATOM     18  C   UNL     1       7.719   9.942  14.320  1.00  0.00     0.000 C 
BRANCH  18  19
ATOM     19  C   UNL     1       7.642   9.957  15.856  1.00  0.00    -0.003 C 
ATOM     20  C   UNL     1       8.903   9.413  16.523  1.00  0.00     0.004 C 
ENDBRANCH  18  19
ENDBRANCH  17  18
ENDBRANCH  16  17
ENDBRANCH  15  16
ENDBRANCH  13  14
ENDBRANCH  12  13
ENDBRANCH   1  11
TORSDOF 14
ENDMDL
MODEL 7
REMARK VINA RESULT:    -4.365     10.370     13.441
REMARK INTER + INTRA:          -9.713
REMARK INTER:                  -7.675
REMARK INTRA:                  -2.038
REMARK UNBOUND:                -1.776
REMARK SMILES CCCCCC=CCC=CCCCCCCCC(=O)[O-]
REMARK SMILES IDX 11 1 12 2 13 3 14 4 15 5 16 6 17 7 18 8 19 9 20 10 10 11
REMARK SMILES IDX 9 12 8 13 7 14 6 15 5 16 4 17 3 18 2 19 1 20
REMARK H PARENT
REMARK Flexibility Score: inf
ROOT
ATOM      1  C   UNL     1      11.330   7.486   6.721  1.00  0.00     0.027 C 
ENDROOT
BRANCH   1   2
ATOM      2  C   UNL     1      12.553   7.019   7.530  1.00  0.00     0.004 C 
BRANCH   2   3
ATOM      3  C   UNL     1      13.908   7.229   6.823  1.00  0.00     0.000 C 
BRANCH   3   4
ATOM      4  C   UNL     1      14.939   8.058   7.611  1.00  0.00     0.000 C 
BRANCH   4   5
ATOM      5  C   UNL     1      14.288   9.028   8.611  1.00  0.00     0.000 C 
BRANCH   5   6
ATOM      6  C   UNL     1      14.109  10.446   8.040  1.00  0.00     0.006 C 
BRANCH   6   7
ATOM      7  C   UNL     1      14.396  11.571   9.052  1.00  0.00     0.053 C 
BRANCH   7   8
ATOM      8  C   UNL     1      15.706  11.393   9.754  1.00  0.00     0.041 C 
ATOM      9  O   UNL     1      15.735  11.152  10.990  1.00  0.00    -0.550 OA
ATOM     10  O   UNL     1      16.899  11.523   9.053  1.00  0.00    -0.550 OA
ENDBRANCH   7   8
ENDBRANCH   6   7
ENDBRANCH   5   6
ENDBRANCH   4   5
ENDBRANCH   3   4
ENDBRANCH   2   3
ENDBRANCH   1   2
BRANCH   1  11
ATOM     11  C   UNL     1      10.860   8.857   7.125  1.00  0.00    -0.031 C 
ATOM     12  C   UNL     1      11.048   9.927   6.337  1.00  0.00    -0.027 C 
BRANCH  12  13
ATOM     13  C   UNL     1      10.561  11.291   6.736  1.00  0.00     0.054 C 
BRANCH  13  14
ATOM     14  C   UNL     1       9.789  11.211   8.023  1.00  0.00    -0.027 C 
ATOM     15  C   UNL     1       8.667  11.921   8.212  1.00  0.00    -0.031 C 
BRANCH  15  16
ATOM     16  C   UNL     1       7.977  11.969   9.548  1.00  0.00     0.027 C 
BRANCH  16  17
ATOM     17  C   UNL     1       7.098  10.729   9.766  1.00  0.00     0.004 C 
BRANCH  17  18
ATOM     18  C   UNL     1       7.659   9.752  10.825  1.00  0.00     0.000 C 
BRANCH  18  19
ATOM     19  C   UNL     1       7.594   8.276  10.400  1.00  0.00    -0.003 C 
ATOM     20  C   UNL     1       7.585   8.090   8.885  1.00  0.00     0.004 C 
ENDBRANCH  18  19
ENDBRANCH  17  18
ENDBRANCH  16  17
ENDBRANCH  15  16
ENDBRANCH  13  14
ENDBRANCH  12  13
ENDBRANCH   1  11
TORSDOF 14
ENDMDL
MODEL 8
REMARK VINA RESULT:    -4.357      5.702      8.536
REMARK INTER + INTRA:          -9.699
REMARK INTER:                  -8.607
REMARK INTRA:                  -1.091
REMARK UNBOUND:                -1.776
REMARK SMILES CCCCCC=CCC=CCCCCCCCC(=O)[O-]
REMARK SMILES IDX 11 1 12 2 13 3 14 4 15 5 16 6 17 7 18 8 19 9 20 10 10 11
REMARK SMILES IDX 9 12 8 13 7 14 6 15 5 16 4 17 3 18 2 19 1 20
REMARK H PARENT
REMARK Flexibility Score: inf
ROOT
ATOM      1  C   UNL     1       7.534   9.125  15.341  1.00  0.00     0.027 C 
ENDROOT
BRANCH   1   2
ATOM      2  C   UNL     1       8.667   9.522  16.304  1.00  0.00     0.004 C 
BRANCH   2   3
ATOM      3  C   UNL     1       8.191  10.128  17.641  1.00  0.00     0.000 C 
BRANCH   3   4
ATOM      4  C   UNL     1       8.372   9.224  18.874  1.00  0.00     0.000 C 
BRANCH   4   5
ATOM      5  C   UNL     1       7.653   9.764  20.121  1.00  0.00     0.000 C 
BRANCH   5   6
ATOM      6  C   UNL     1       8.604  10.475  21.101  1.00  0.00     0.006 C 
BRANCH   6   7
ATOM      7  C   UNL     1       8.602   9.879  22.521  1.00  0.00     0.053 C 
BRANCH   7   8
ATOM      8  C   UNL     1       7.733  10.649  23.467  1.00  0.00     0.041 C 
ATOM      9  O   UNL     1       8.143  11.730  23.965  1.00  0.00    -0.550 OA
ATOM     10  O   UNL     1       6.483  10.160  23.824  1.00  0.00    -0.550 OA
ENDBRANCH   7   8
ENDBRANCH   6   7
ENDBRANCH   5   6
ENDBRANCH   4   5
ENDBRANCH   3   4
ENDBRANCH   2   3
ENDBRANCH   1   2
BRANCH   1  11
ATOM     11  C   UNL     1       7.534   9.948  14.081  1.00  0.00    -0.031 C 
ATOM     12  C   UNL     1       7.478  11.288  14.114  1.00  0.00    -0.027 C 
BRANCH  12  13
ATOM     13  C   UNL     1       7.497  12.106  12.854  1.00  0.00     0.054 C 
BRANCH  13  14
ATOM     14  C   UNL     1       7.878  11.246  11.682  1.00  0.00    -0.027 C 
ATOM     15  C   UNL     1       7.916  11.738  10.435  1.00  0.00    -0.031 C 
BRANCH  15  16
ATOM     16  C   UNL     1       8.141  10.851   9.240  1.00  0.00     0.027 C 
BRANCH  16  17
ATOM     17  C   UNL     1       7.001   9.835   9.079  1.00  0.00     0.004 C 
BRANCH  17  18
ATOM     18  C   UNL     1       7.476   8.443   8.603  1.00  0.00     0.000 C 
BRANCH  18  19
ATOM     19  C   UNL     1       8.173   7.620   9.699  1.00  0.00    -0.003 C 
ATOM     20  C   UNL     1       7.458   7.690  11.045  1.00  0.00     0.004 C 
ENDBRANCH  18  19
ENDBRANCH  17  18
ENDBRANCH  16  17
ENDBRANCH  15  16
ENDBRANCH  13  14
ENDBRANCH  12  13
ENDBRANCH   1  11
TORSDOF 14
ENDMDL
MODEL 9
REMARK VINA RESULT:    -4.278      2.068      3.007
REMARK INTER + INTRA:          -9.555
REMARK INTER:                  -7.696
REMARK INTRA:                  -1.858
REMARK UNBOUND:                -1.776
REMARK SMILES CCCCCC=CCC=CCCCCCCCC(=O)[O-]
REMARK SMILES IDX 11 1 12 2 13 3 14 4 15 5 16 6 17 7 18 8 19 9 20 10 10 11
REMARK SMILES IDX 9 12 8 13 7 14 6 15 5 16 4 17 3 18 2 19 1 20
REMARK H PARENT
REMARK Flexibility Score: inf
ROOT
ATOM      1  C   UNL     1      11.519   4.949  24.125  1.00  0.00     0.027 C 
ENDROOT
BRANCH   1   2
ATOM      2  C   UNL     1      11.593   3.495  23.627  1.00  0.00     0.004 C 
BRANCH   2   3
ATOM      3  C   UNL     1      11.741   3.348  22.098  1.00  0.00     0.000 C 
BRANCH   3   4
ATOM      4  C   UNL     1      10.510   2.779  21.370  1.00  0.00     0.000 C 
BRANCH   4   5
ATOM      5  C   UNL     1      10.117   3.598  20.129  1.00  0.00     0.000 C 
BRANCH   5   6
ATOM      6  C   UNL     1       8.596   3.649  19.901  1.00  0.00     0.006 C 
BRANCH   6   7
ATOM      7  C   UNL     1       7.765   3.123  21.086  1.00  0.00     0.053 C 
BRANCH   7   8
ATOM      8  C   UNL     1       6.291   3.251  20.858  1.00  0.00     0.041 C 
ATOM      9  O   UNL     1       5.694   2.433  20.110  1.00  0.00    -0.550 OA
ATOM     10  O   UNL     1       5.579   4.289  21.445  1.00  0.00    -0.550 OA
ENDBRANCH   7   8
ENDBRANCH   6   7
ENDBRANCH   5   6
ENDBRANCH   4   5
ENDBRANCH   3   4
ENDBRANCH   2   3
ENDBRANCH   1   2
BRANCH   1  11
ATOM     11  C   UNL     1      10.499   5.765  23.376  1.00  0.00    -0.031 C 
ATOM     12  C   UNL     1       9.189   5.684  23.655  1.00  0.00    -0.027 C 
BRANCH  12  13
ATOM     13  C   UNL     1       8.178   6.514  22.918  1.00  0.00     0.054 C 
BRANCH  13  14
ATOM     14  C   UNL     1       8.634   6.759  21.507  1.00  0.00    -0.027 C 
ATOM     15  C   UNL     1       8.176   7.797  20.793  1.00  0.00    -0.031 C 
BRANCH  15  16
ATOM     16  C   UNL     1       8.504   7.960  19.334  1.00  0.00     0.027 C 
BRANCH  16  17
ATOM     17  C   UNL     1       8.539   9.443  18.933  1.00  0.00     0.004 C 
BRANCH  17  18
ATOM     18  C   UNL     1       7.756   9.752  17.636  1.00  0.00     0.000 C 
BRANCH  18  19
ATOM     19  C   UNL     1       8.614   9.672  16.363  1.00  0.00    -0.003 C 
ATOM     20  C   UNL     1       7.795   9.379  15.108  1.00  0.00     0.004 C 
ENDBRANCH  18  19
ENDBRANCH  17  18
ENDBRANCH  16  17
ENDBRANCH  15  16
ENDBRANCH  13  14
ENDBRANCH  12  13
ENDBRANCH   1  11
TORSDOF 14
ENDMDL
