MODEL 1
REMARK VINA RESULT:    -4.039      0.000      0.000
REMARK INTER + INTRA:          -7.523
REMARK INTER:                  -6.873
REMARK INTRA:                  -0.650
REMARK UNBOUND:                -0.650
REMARK SMILES CCCCCCCCCCCCCC(=O)[O-]
REMARK SMILES IDX 8 1 9 2 10 3 11 4 12 5 13 6 14 7 15 8 16 9 7 10 6 11 5 12
REMARK SMILES IDX 4 13 3 14 2 15 1 16
REMARK H PARENT
REMARK Flexibility Score: inf
ROOT
ATOM      1  C   UNL     1      58.562   1.701  96.698  1.00  0.00     0.000 C 
ENDROOT
BRANCH   1   2
ATOM      2  C   UNL     1      60.060   1.644  97.036  1.00  0.00     0.000 C 
BRANCH   2   3
ATOM      3  C   UNL     1      60.607   0.220  96.863  1.00  0.00     0.000 C 
BRANCH   3   4
ATOM      4  C   UNL     1      60.033  -0.496  95.628  1.00  0.00     0.000 C 
BRANCH   4   5
ATOM      5  C   UNL     1      61.084  -0.997  94.615  1.00  0.00     0.006 C 
BRANCH   5   6
ATOM      6  C   UNL     1      60.659  -2.239  93.817  1.00  0.00     0.053 C 
BRANCH   6   7
ATOM      7  C   UNL     1      60.376  -1.912  92.383  1.00  0.00     0.041 C 
ATOM      8  O   UNL     1      59.972  -0.763  92.061  1.00  0.00    -0.550 OA
ATOM      9  O   UNL     1      60.593  -2.865  91.396  1.00  0.00    -0.550 OA
ENDBRANCH   6   7
ENDBRANCH   5   6
ENDBRANCH   4   5
ENDBRANCH   3   4
ENDBRANCH   2   3
ENDBRANCH   1   2
BRANCH   1  10
ATOM     10  C   UNL     1      57.923   3.060  97.039  1.00  0.00     0.000 C 
BRANCH  10  11
ATOM     11  C   UNL     1      58.368   4.234  96.143  1.00  0.00    -0.000 C 
BRANCH  11  12
ATOM     12  C   UNL     1      58.981   5.432  96.890  1.00  0.00    -0.000 C 
BRANCH  12  13
ATOM     13  C   UNL     1      60.312   5.898  96.281  1.00  0.00    -0.000 C 
BRANCH  13  14
ATOM     14  C   UNL     1      60.433   7.428  96.335  1.00  0.00    -0.000 C 
BRANCH  14  15
ATOM     15  C   UNL     1      60.726   8.046  94.959  1.00  0.00    -0.003 C 
ATOM     16  C   UNL     1      60.678   7.020  93.827  1.00  0.00     0.004 C 
ENDBRANCH  14  15
ENDBRANCH  13  14
ENDBRANCH  12  13
ENDBRANCH  11  12
ENDBRANCH  10  11
ENDBRANCH   1  10
TORSDOF 12
ENDMDL
MODEL 2
REMARK VINA RESULT:    -3.933      3.404      5.240
REMARK INTER + INTRA:          -7.342
REMARK INTER:                  -5.714
REMARK INTRA:                  -1.628
REMARK UNBOUND:                -0.650
REMARK SMILES CCCCCCCCCCCCCC(=O)[O-]
REMARK SMILES IDX 8 1 9 2 10 3 11 4 12 5 13 6 14 7 15 8 16 9 7 10 6 11 5 12
REMARK SMILES IDX 4 13 3 14 2 15 1 16
REMARK H PARENT
REMARK Flexibility Score: inf
ROOT
ATOM      1  C   UNL     1      60.172  -0.515  96.320  1.00  0.00     0.000 C 
ENDROOT
BRANCH   1   2
ATOM      2  C   UNL     1      60.988  -0.898  95.076  1.00  0.00     0.000 C 
BRANCH   2   3
ATOM      3  C   UNL     1      60.173  -1.811  94.147  1.00  0.00     0.000 C 
BRANCH   3   4
ATOM      4  C   UNL     1      60.361  -1.472  92.658  1.00  0.00     0.000 C 
BRANCH   4   5
ATOM      5  C   UNL     1      59.605  -0.218  92.172  1.00  0.00     0.006 C 
BRANCH   5   6
ATOM      6  C   UNL     1      58.174  -0.087  92.714  1.00  0.00     0.053 C 
BRANCH   6   7
ATOM      7  C   UNL     1      57.230  -1.032  92.036  1.00  0.00     0.041 C 
ATOM      8  O   UNL     1      56.808  -0.785  90.875  1.00  0.00    -0.550 OA
ATOM      9  O   UNL     1      56.843  -2.204  92.673  1.00  0.00    -0.550 OA
ENDBRANCH   6   7
ENDBRANCH   5   6
ENDBRANCH   4   5
ENDBRANCH   3   4
ENDBRANCH   2   3
ENDBRANCH   1   2
BRANCH   1  10
ATOM     10  C   UNL     1      60.510   0.892  96.846  1.00  0.00     0.000 C 
BRANCH  10  11
ATOM     11  C   UNL     1      59.322   1.875  96.894  1.00  0.00    -0.000 C 
BRANCH  11  12
ATOM     12  C   UNL     1      58.084   1.444  96.086  1.00  0.00    -0.000 C 
BRANCH  12  13
ATOM     13  C   UNL     1      56.770   1.648  96.854  1.00  0.00    -0.000 C 
BRANCH  13  14
ATOM     14  C   UNL     1      55.919   0.370  96.832  1.00  0.00    -0.000 C 
BRANCH  14  15
ATOM     15  C   UNL     1      56.597  -0.777  96.067  1.00  0.00    -0.003 C 
ATOM     16  C   UNL     1      56.796  -2.025  96.927  1.00  0.00     0.004 C 
ENDBRANCH  14  15
ENDBRANCH  13  14
ENDBRANCH  12  13
ENDBRANCH  11  12
ENDBRANCH  10  11
ENDBRANCH   1  10
TORSDOF 12
ENDMDL
MODEL 3
REMARK VINA RESULT:    -3.922      4.130      7.734
REMARK INTER + INTRA:          -7.323
REMARK INTER:                  -6.426
REMARK INTRA:                  -0.898
REMARK UNBOUND:                -0.650
REMARK SMILES CCCCCCCCCCCCCC(=O)[O-]
REMARK SMILES IDX 8 1 9 2 10 3 11 4 12 5 13 6 14 7 15 8 16 9 7 10 6 11 5 12
REMARK SMILES IDX 4 13 3 14 2 15 1 16
REMARK H PARENT
REMARK Flexibility Score: inf
ROOT
ATOM      1  C   UNL     1      57.446   2.760  95.843  1.00  0.00     0.000 C 
ENDROOT
BRANCH   1   2
ATOM      2  C   UNL     1      58.260   4.041  96.079  1.00  0.00     0.000 C 
BRANCH   2   3
ATOM      3  C   UNL     1      57.715   5.200  95.232  1.00  0.00     0.000 C 
BRANCH   3   4
ATOM      4  C   UNL     1      58.819   6.150  94.735  1.00  0.00     0.000 C 
BRANCH   4   5
ATOM      5  C   UNL     1      60.086   6.197  95.613  1.00  0.00     0.006 C 
BRANCH   5   6
ATOM      6  C   UNL     1      60.009   7.181  96.791  1.00  0.00     0.053 C 
BRANCH   6   7
ATOM      7  C   UNL     1      60.282   8.590  96.363  1.00  0.00     0.041 C 
ATOM      8  O   UNL     1      59.777   9.555  96.997  1.00  0.00    -0.550 OA
ATOM      9  O   UNL     1      61.122   8.839  95.285  1.00  0.00    -0.550 OA
ENDBRANCH   6   7
ENDBRANCH   5   6
ENDBRANCH   4   5
ENDBRANCH   3   4
ENDBRANCH   2   3
ENDBRANCH   1   2
BRANCH   1  10
ATOM     10  C   UNL     1      58.192   1.488  96.285  1.00  0.00     0.000 C 
BRANCH  10  11
ATOM     11  C   UNL     1      59.601   1.726  96.866  1.00  0.00    -0.000 C 
BRANCH  11  12
ATOM     12  C   UNL     1      60.556   0.522  96.779  1.00  0.00    -0.000 C 
BRANCH  12  13
ATOM     13  C   UNL     1      60.010  -0.611  95.898  1.00  0.00    -0.000 C 
BRANCH  13  14
ATOM     14  C   UNL     1      61.066  -1.076  94.885  1.00  0.00    -0.000 C 
BRANCH  14  15
ATOM     15  C   UNL     1      60.524  -1.127  93.449  1.00  0.00    -0.003 C 
ATOM     16  C   UNL     1      59.150  -0.472  93.311  1.00  0.00     0.004 C 
ENDBRANCH  14  15
ENDBRANCH  13  14
ENDBRANCH  12  13
ENDBRANCH  11  12
ENDBRANCH  10  11
ENDBRANCH   1  10
TORSDOF 12
ENDMDL
MODEL 4
REMARK VINA RESULT:    -3.910      3.808      7.408
REMARK INTER + INTRA:          -7.304
REMARK INTER:                  -6.430
REMARK INTRA:                  -0.874
REMARK UNBOUND:                -0.650
REMARK SMILES CCCCCCCCCCCCCC(=O)[O-]
REMARK SMILES IDX 8 1 9 2 10 3 11 4 12 5 13 6 14 7 15 8 16 9 7 10 6 11 5 12
REMARK SMILES IDX 4 13 3 14 2 15 1 16
REMARK H PARENT
REMARK Flexibility Score: inf
ROOT
ATOM      1  C   UNL     1      57.324   3.274  95.473  1.00  0.00     0.000 C 
ENDROOT
BRANCH   1   2
ATOM      2  C   UNL     1      57.779   4.377  96.441  1.00  0.00     0.000 C 
BRANCH   2   3
ATOM      3  C   UNL     1      58.758   5.340  95.753  1.00  0.00     0.000 C 
BRANCH   3   4
ATOM      4  C   UNL     1      60.026   5.601  96.584  1.00  0.00     0.000 C 
BRANCH   4   5
ATOM      5  C   UNL     1      60.973   6.676  96.013  1.00  0.00     0.006 C 
BRANCH   5   6
ATOM      6  C   UNL     1      60.882   6.863  94.491  1.00  0.00     0.053 C 
BRANCH   6   7
ATOM      7  C   UNL     1      60.580   8.282  94.118  1.00  0.00     0.041 C 
ATOM      8  O   UNL     1      59.835   8.536  93.135  1.00  0.00    -0.550 OA
ATOM      9  O   UNL     1      61.094   9.325  94.879  1.00  0.00    -0.550 OA
ENDBRANCH   6   7
ENDBRANCH   5   6
ENDBRANCH   4   5
ENDBRANCH   3   4
ENDBRANCH   2   3
ENDBRANCH   1   2
BRANCH   1  10
ATOM     10  C   UNL     1      58.070   1.945  95.689  1.00  0.00     0.000 C 
BRANCH  10  11
ATOM     11  C   UNL     1      58.913   1.871  96.979  1.00  0.00    -0.000 C 
BRANCH  11  12
ATOM     12  C   UNL     1      60.345   1.337  96.796  1.00  0.00    -0.000 C 
BRANCH  12  13
ATOM     13  C   UNL     1      60.402  -0.194  96.686  1.00  0.00    -0.000 C 
BRANCH  13  14
ATOM     14  C   UNL     1      60.941  -0.625  95.314  1.00  0.00    -0.000 C 
BRANCH  14  15
ATOM     15  C   UNL     1      59.852  -1.237  94.419  1.00  0.00    -0.003 C 
ATOM     16  C   UNL     1      60.304  -1.403  92.968  1.00  0.00     0.004 C 
ENDBRANCH  14  15
ENDBRANCH  13  14
ENDBRANCH  12  13
ENDBRANCH  11  12
ENDBRANCH  10  11
ENDBRANCH   1  10
TORSDOF 12
ENDMDL
MODEL 5
REMARK VINA RESULT:    -3.887      3.313      7.070
REMARK INTER + INTRA:          -7.264
REMARK INTER:                  -5.939
REMARK INTRA:                  -1.325
REMARK UNBOUND:                -0.650
REMARK SMILES CCCCCCCCCCCCCC(=O)[O-]
REMARK SMILES IDX 8 1 9 2 10 3 11 4 12 5 13 6 14 7 15 8 16 9 7 10 6 11 5 12
REMARK SMILES IDX 4 13 3 14 2 15 1 16
REMARK H PARENT
REMARK Flexibility Score: inf
ROOT
ATOM      1  C   UNL     1      58.925  -0.904  96.006  1.00  0.00     0.000 C 
ENDROOT
BRANCH   1   2
ATOM      2  C   UNL     1      57.876   0.212  95.893  1.00  0.00     0.000 C 
BRANCH   2   3
ATOM      3  C   UNL     1      58.548   1.576  95.676  1.00  0.00     0.000 C 
BRANCH   3   4
ATOM      4  C   UNL     1      58.273   2.569  96.819  1.00  0.00     0.000 C 
BRANCH   4   5
ATOM      5  C   UNL     1      58.232   4.053  96.401  1.00  0.00     0.006 C 
BRANCH   5   6
ATOM      6  C   UNL     1      59.407   4.894  96.922  1.00  0.00     0.053 C 
BRANCH   6   7
ATOM      7  C   UNL     1      59.661   6.094  96.061  1.00  0.00     0.041 C 
ATOM      8  O   UNL     1      59.338   6.081  94.843  1.00  0.00    -0.550 OA
ATOM      9  O   UNL     1      60.221   7.239  96.612  1.00  0.00    -0.550 OA
ENDBRANCH   6   7
ENDBRANCH   5   6
ENDBRANCH   4   5
ENDBRANCH   3   4
ENDBRANCH   2   3
ENDBRANCH   1   2
BRANCH   1  10
ATOM     10  C   UNL     1      60.369  -0.378  95.916  1.00  0.00     0.000 C 
BRANCH  10  11
ATOM     11  C   UNL     1      61.123  -0.756  94.624  1.00  0.00    -0.000 C 
BRANCH  11  12
ATOM     12  C   UNL     1      60.640  -2.047  93.939  1.00  0.00    -0.000 C 
BRANCH  12  13
ATOM     13  C   UNL     1      60.110  -1.806  92.517  1.00  0.00    -0.000 C 
BRANCH  13  14
ATOM     14  C   UNL     1      59.674  -0.345  92.336  1.00  0.00    -0.000 C 
BRANCH  14  15
ATOM     15  C   UNL     1      58.191  -0.215  91.955  1.00  0.00    -0.003 C 
ATOM     16  C   UNL     1      57.663   1.211  92.106  1.00  0.00     0.004 C 
ENDBRANCH  14  15
ENDBRANCH  13  14
ENDBRANCH  12  13
ENDBRANCH  11  12
ENDBRANCH  10  11
ENDBRANCH   1  10
TORSDOF 12
ENDMDL
MODEL 6
REMARK VINA RESULT:    -3.874      3.794      6.176
REMARK INTER + INTRA:          -7.242
REMARK INTER:                  -5.734
REMARK INTRA:                  -1.508
REMARK UNBOUND:                -0.650
REMARK SMILES CCCCCCCCCCCCCC(=O)[O-]
REMARK SMILES IDX 8 1 9 2 10 3 11 4 12 5 13 6 14 7 15 8 16 9 7 10 6 11 5 12
REMARK SMILES IDX 4 13 3 14 2 15 1 16
REMARK H PARENT
REMARK Flexibility Score: inf
ROOT
ATOM      1  C   UNL     1      58.014   1.768  96.048  1.00  0.00     0.000 C 
ENDROOT
BRANCH   1   2
ATOM      2  C   UNL     1      56.659   1.588  96.747  1.00  0.00     0.000 C 
BRANCH   2   3
ATOM      3  C   UNL     1      56.233   0.113  96.746  1.00  0.00     0.000 C 
BRANCH   3   4
ATOM      4  C   UNL     1      56.548  -0.601  95.420  1.00  0.00     0.000 C 
BRANCH   4   5
ATOM      5  C   UNL     1      56.969  -2.079  95.557  1.00  0.00     0.006 C 
BRANCH   5   6
ATOM      6  C   UNL     1      56.220  -2.856  96.650  1.00  0.00     0.053 C 
BRANCH   6   7
ATOM      7  C   UNL     1      55.481  -4.034  96.093  1.00  0.00     0.041 C 
ATOM      8  O   UNL     1      55.666  -4.393  94.900  1.00  0.00    -0.550 OA
ATOM      9  O   UNL     1      54.614  -4.757  96.902  1.00  0.00    -0.550 OA
ENDBRANCH   6   7
ENDBRANCH   5   6
ENDBRANCH   4   5
ENDBRANCH   3   4
ENDBRANCH   2   3
ENDBRANCH   1   2
BRANCH   1  10
ATOM     10  C   UNL     1      59.162   2.058  97.033  1.00  0.00     0.000 C 
BRANCH  10  11
ATOM     11  C   UNL     1      60.379   1.117  96.913  1.00  0.00    -0.000 C 
BRANCH  11  12
ATOM     12  C   UNL     1      60.067  -0.290  96.374  1.00  0.00    -0.000 C 
BRANCH  12  13
ATOM     13  C   UNL     1      60.868  -0.635  95.109  1.00  0.00    -0.000 C 
BRANCH  13  14
ATOM     14  C   UNL     1      59.966  -0.613  93.867  1.00  0.00    -0.000 C 
BRANCH  14  15
ATOM     15  C   UNL     1      60.384  -1.653  92.815  1.00  0.00    -0.003 C 
ATOM     16  C   UNL     1      60.264  -3.089  93.324  1.00  0.00     0.004 C 
ENDBRANCH  14  15
ENDBRANCH  13  14
ENDBRANCH  12  13
ENDBRANCH  11  12
ENDBRANCH  10  11
ENDBRANCH   1  10
TORSDOF 12
ENDMDL
MODEL 7
REMARK VINA RESULT:    -3.827      3.149      5.481
REMARK INTER + INTRA:          -7.163
REMARK INTER:                  -5.246
REMARK INTRA:                  -1.916
REMARK UNBOUND:                -0.650
REMARK SMILES CCCCCCCCCCCCCC(=O)[O-]
REMARK SMILES IDX 8 1 9 2 10 3 11 4 12 5 13 6 14 7 15 8 16 9 7 10 6 11 5 12
REMARK SMILES IDX 4 13 3 14 2 15 1 16
REMARK H PARENT
REMARK Flexibility Score: inf
ROOT
ATOM      1  C   UNL     1      58.202   2.046  95.648  1.00  0.00     0.000 C 
ENDROOT
BRANCH   1   2
ATOM      2  C   UNL     1      58.887   1.708  96.981  1.00  0.00     0.000 C 
BRANCH   2   3
ATOM      3  C   UNL     1      60.305   1.169  96.746  1.00  0.00     0.000 C 
BRANCH   3   4
ATOM      4  C   UNL     1      60.323  -0.314  96.335  1.00  0.00     0.000 C 
BRANCH   4   5
ATOM      5  C   UNL     1      61.057  -0.617  95.014  1.00  0.00     0.006 C 
BRANCH   5   6
ATOM      6  C   UNL     1      60.139  -0.754  93.790  1.00  0.00     0.053 C 
BRANCH   6   7
ATOM      7  C   UNL     1      60.370  -2.041  93.058  1.00  0.00     0.041 C 
ATOM      8  O   UNL     1      60.211  -2.098  91.810  1.00  0.00    -0.550 OA
ATOM      9  O   UNL     1      60.795  -3.168  93.749  1.00  0.00    -0.550 OA
ENDBRANCH   6   7
ENDBRANCH   5   6
ENDBRANCH   4   5
ENDBRANCH   3   4
ENDBRANCH   2   3
ENDBRANCH   1   2
BRANCH   1  10
ATOM     10  C   UNL     1      56.857   1.318  95.465  1.00  0.00     0.000 C 
BRANCH  10  11
ATOM     11  C   UNL     1      56.244   0.745  96.759  1.00  0.00    -0.000 C 
BRANCH  11  12
ATOM     12  C   UNL     1      55.812  -0.730  96.681  1.00  0.00    -0.000 C 
BRANCH  12  13
ATOM     13  C   UNL     1      57.000  -1.703  96.728  1.00  0.00    -0.000 C 
BRANCH  13  14
ATOM     14  C   UNL     1      57.270  -2.305  95.341  1.00  0.00    -0.000 C 
BRANCH  14  15
ATOM     15  C   UNL     1      56.112  -2.067  94.359  1.00  0.00    -0.003 C 
ATOM     16  C   UNL     1      56.593  -1.795  92.933  1.00  0.00     0.004 C 
ENDBRANCH  14  15
ENDBRANCH  13  14
ENDBRANCH  12  13
ENDBRANCH  11  12
ENDBRANCH  10  11
ENDBRANCH   1  10
TORSDOF 12
ENDMDL
MODEL 8
REMARK VINA RESULT:    -3.795      3.612      7.256
REMARK INTER + INTRA:          -7.108
REMARK INTER:                  -5.803
REMARK INTRA:                  -1.304
REMARK UNBOUND:                -0.650
REMARK SMILES CCCCCCCCCCCCCC(=O)[O-]
REMARK SMILES IDX 8 1 9 2 10 3 11 4 12 5 13 6 14 7 15 8 16 9 7 10 6 11 5 12
REMARK SMILES IDX 4 13 3 14 2 15 1 16
REMARK H PARENT
REMARK Flexibility Score: inf
ROOT
ATOM      1  C   UNL     1      60.036  -0.493  95.598  1.00  0.00     0.000 C 
ENDROOT
BRANCH   1   2
ATOM      2  C   UNL     1      60.721   0.181  96.797  1.00  0.00     0.000 C 
BRANCH   2   3
ATOM      3  C   UNL     1      60.053   1.524  97.125  1.00  0.00     0.000 C 
BRANCH   3   4
ATOM      4  C   UNL     1      58.693   1.704  96.426  1.00  0.00     0.000 C 
BRANCH   4   5
ATOM      5  C   UNL     1      58.207   3.162  96.307  1.00  0.00     0.006 C 
BRANCH   5   6
ATOM      6  C   UNL     1      59.161   4.204  96.911  1.00  0.00     0.053 C 
BRANCH   6   7
ATOM      7  C   UNL     1      58.805   5.598  96.493  1.00  0.00     0.041 C 
ATOM      8  O   UNL     1      57.657   5.851  96.039  1.00  0.00    -0.550 OA
ATOM      9  O   UNL     1      59.729   6.625  96.638  1.00  0.00    -0.550 OA
ENDBRANCH   6   7
ENDBRANCH   5   6
ENDBRANCH   4   5
ENDBRANCH   3   4
ENDBRANCH   2   3
ENDBRANCH   1   2
BRANCH   1  10
ATOM     10  C   UNL     1      61.040  -1.079  94.588  1.00  0.00     0.000 C 
BRANCH  10  11
ATOM     11  C   UNL     1      60.487  -1.283  93.162  1.00  0.00    -0.000 C 
BRANCH  11  12
ATOM     12  C   UNL     1      59.274  -0.408  92.799  1.00  0.00    -0.000 C 
BRANCH  12  13
ATOM     13  C   UNL     1      58.116  -1.215  92.194  1.00  0.00    -0.000 C 
BRANCH  13  14
ATOM     14  C   UNL     1      57.160  -1.708  93.289  1.00  0.00    -0.000 C 
BRANCH  14  15
ATOM     15  C   UNL     1      56.719  -0.583  94.238  1.00  0.00    -0.003 C 
ATOM     16  C   UNL     1      56.410  -1.085  95.648  1.00  0.00     0.004 C 
ENDBRANCH  14  15
ENDBRANCH  13  14
ENDBRANCH  12  13
ENDBRANCH  11  12
ENDBRANCH  10  11
ENDBRANCH   1  10
TORSDOF 12
ENDMDL
