MODEL 1
REMARK VINA RESULT:    -7.157      0.000      0.000
REMARK INTER + INTRA:          -8.703
REMARK INTER:                  -8.412
REMARK INTRA:                  -0.291
REMARK UNBOUND:                -0.291
REMARK SMILES O=c1cc(-c2ccc(O)c(O)c2)oc2cc(O)cc(O)c12
REMARK SMILES IDX 4 1 3 2 2 3 1 4 21 5 19 6 18 7 16 8 15 9 14 10 13 11 5 12
REMARK SMILES IDX 6 13 7 14 8 15 12 16 10 17 9 18 11 20 20 22 17 24
REMARK H PARENT 9 19 11 21 20 23 17 25
REMARK Flexibility Score: inf
ROOT
ATOM      1  C   UNL     1     110.402 103.184 136.789  1.00  0.00     0.138 A 
ATOM      2  C   UNL     1     109.042 103.483 136.630  1.00  0.00     0.100 A 
ATOM      3  C   UNL     1     108.079 102.592 137.103  1.00  0.00     0.197 A 
ATOM      4  O   UNL     1     106.868 102.862 136.896  1.00  0.00    -0.289 OA
ATOM      5  C   UNL     1     108.482 101.411 137.773  1.00  0.00     0.107 A 
ATOM      6  C   UNL     1     107.589 100.445 138.328  1.00  0.00     0.134 A 
ATOM      7  C   UNL     1     108.104  99.266 138.880  1.00  0.00     0.093 A 
ATOM      8  C   UNL     1     109.483  99.045 138.950  1.00  0.00     0.123 A 
ATOM      9  C   UNL     1     110.364 100.003 138.456  1.00  0.00     0.094 A 
ATOM     10  C   UNL     1     109.879 101.174 137.868  1.00  0.00     0.146 A 
ATOM     11  O   UNL     1     110.754 102.054 137.393  1.00  0.00    -0.456 OA
ENDROOT
BRANCH   1  12
ATOM     12  C   UNL     1     111.469 104.099 136.307  1.00  0.00     0.021 A 
ATOM     13  C   UNL     1     112.742 103.580 136.014  1.00  0.00     0.016 A 
ATOM     14  C   UNL     1     113.760 104.417 135.551  1.00  0.00     0.051 A 
ATOM     15  C   UNL     1     113.522 105.784 135.364  1.00  0.00     0.157 A 
ATOM     16  C   UNL     1     111.232 105.472 136.104  1.00  0.00     0.062 A 
ATOM     17  C   UNL     1     112.250 106.312 135.638  1.00  0.00     0.158 A 
BRANCH  15  18
ATOM     18  O   UNL     1     114.542 106.616 134.904  1.00  0.00    -0.504 OA
ATOM     19  H   UNL     1     114.658 107.559 135.257  1.00  0.00     0.293 HD
ENDBRANCH  15  18
BRANCH  17  20
ATOM     20  O   UNL     1     111.978 107.667 135.452  1.00  0.00    -0.504 OA
ATOM     21  H   UNL     1     111.723 108.276 136.220  1.00  0.00     0.293 HD
ENDBRANCH  17  20
ENDBRANCH   1  12
BRANCH   6  22
ATOM     22  O   UNL     1     106.201 100.602 138.384  1.00  0.00    -0.507 OA
ATOM     23  H   UNL     1     105.659 100.671 139.231  1.00  0.00     0.293 HD
ENDBRANCH   6  22
BRANCH   8  24
ATOM     24  O   UNL     1     109.987  97.875 139.515  1.00  0.00    -0.508 OA
ATOM     25  H   UNL     1     110.128  97.038 138.963  1.00  0.00     0.293 HD
ENDBRANCH   8  24
TORSDOF 5
ENDMDL
MODEL 2
REMARK VINA RESULT:    -6.561      1.257      2.690
REMARK INTER + INTRA:          -8.003
REMARK INTER:                  -7.686
REMARK INTRA:                  -0.317
REMARK UNBOUND:                -0.291
REMARK SMILES O=c1cc(-c2ccc(O)c(O)c2)oc2cc(O)cc(O)c12
REMARK SMILES IDX 4 1 3 2 2 3 1 4 21 5 19 6 18 7 16 8 15 9 14 10 13 11 5 12
REMARK SMILES IDX 6 13 7 14 8 15 12 16 10 17 9 18 11 20 20 22 17 24
REMARK H PARENT 9 19 11 21 20 23 17 25
REMARK Flexibility Score: inf
ROOT
ATOM      1  C   UNL     1     110.769 103.067 136.969  1.00  0.00     0.138 A 
ATOM      2  C   UNL     1     111.151 101.752 137.269  1.00  0.00     0.100 A 
ATOM      3  C   UNL     1     110.211 100.864 137.795  1.00  0.00     0.197 A 
ATOM      4  O   UNL     1     110.597  99.707 138.106  1.00  0.00    -0.289 OA
ATOM      5  C   UNL     1     108.873 101.286 137.985  1.00  0.00     0.107 A 
ATOM      6  C   UNL     1     107.821 100.458 138.482  1.00  0.00     0.134 A 
ATOM      7  C   UNL     1     106.559 101.016 138.722  1.00  0.00     0.093 A 
ATOM      8  C   UNL     1     106.296 102.357 138.428  1.00  0.00     0.123 A 
ATOM      9  C   UNL     1     107.302 103.160 137.897  1.00  0.00     0.094 A 
ATOM     10  C   UNL     1     108.580 102.642 137.678  1.00  0.00     0.146 A 
ATOM     11  O   UNL     1     109.515 103.448 137.187  1.00  0.00    -0.456 OA
ENDROOT
BRANCH   1  12
ATOM     12  C   UNL     1     111.728 104.052 136.405  1.00  0.00     0.021 A 
ATOM     13  C   UNL     1     112.997 103.618 135.987  1.00  0.00     0.016 A 
ATOM     14  C   UNL     1     113.914 104.522 135.446  1.00  0.00     0.051 A 
ATOM     15  C   UNL     1     113.575 105.873 135.303  1.00  0.00     0.157 A 
ATOM     16  C   UNL     1     111.388 105.409 136.247  1.00  0.00     0.062 A 
ATOM     17  C   UNL     1     112.305 106.317 135.703  1.00  0.00     0.158 A 
BRANCH  15  18
ATOM     18  O   UNL     1     114.495 106.773 134.764  1.00  0.00    -0.504 OA
ATOM     19  H   UNL     1     115.426 106.875 135.150  1.00  0.00     0.293 HD
ENDBRANCH  15  18
BRANCH  17  20
ATOM     20  O   UNL     1     111.934 107.654 135.564  1.00  0.00    -0.504 OA
ATOM     21  H   UNL     1     112.586 108.365 135.258  1.00  0.00     0.293 HD
ENDBRANCH  17  20
ENDBRANCH   1  12
BRANCH   6  22
ATOM     22  O   UNL     1     107.953  99.089 138.732  1.00  0.00    -0.507 OA
ATOM     23  H   UNL     1     108.779  98.542 138.545  1.00  0.00     0.293 HD
ENDBRANCH   6  22
BRANCH   8  24
ATOM     24  O   UNL     1     105.032 102.899 138.656  1.00  0.00    -0.508 OA
ATOM     25  H   UNL     1     104.700 103.093 139.593  1.00  0.00     0.293 HD
ENDBRANCH   8  24
TORSDOF 5
ENDMDL
MODEL 3
REMARK VINA RESULT:    -6.544      2.085      6.615
REMARK INTER + INTRA:          -7.982
REMARK INTER:                  -7.718
REMARK INTRA:                  -0.264
REMARK UNBOUND:                -0.291
REMARK SMILES O=c1cc(-c2ccc(O)c(O)c2)oc2cc(O)cc(O)c12
REMARK SMILES IDX 4 1 3 2 2 3 1 4 21 5 19 6 18 7 16 8 15 9 14 10 13 11 5 12
REMARK SMILES IDX 6 13 7 14 8 15 12 16 10 17 9 18 11 20 20 22 17 24
REMARK H PARENT 9 19 11 21 20 23 17 25
REMARK Flexibility Score: inf
ROOT
ATOM      1  C   UNL     1     109.618 102.542 137.871  1.00  0.00     0.138 A 
ATOM      2  C   UNL     1     108.423 102.538 137.139  1.00  0.00     0.100 A 
ATOM      3  C   UNL     1     108.100 103.633 136.337  1.00  0.00     0.197 A 
ATOM      4  O   UNL     1     106.994 103.623 135.736  1.00  0.00    -0.289 OA
ATOM      5  C   UNL     1     108.998 104.723 136.240  1.00  0.00     0.107 A 
ATOM      6  C   UNL     1     108.790 105.879 135.428  1.00  0.00     0.134 A 
ATOM      7  C   UNL     1     109.704 106.939 135.490  1.00  0.00     0.093 A 
ATOM      8  C   UNL     1     110.847 106.860 136.291  1.00  0.00     0.123 A 
ATOM      9  C   UNL     1     111.083 105.716 137.049  1.00  0.00     0.094 A 
ATOM     10  C   UNL     1     110.173 104.656 137.035  1.00  0.00     0.146 A 
ATOM     11  O   UNL     1     110.429 103.592 137.787  1.00  0.00    -0.456 OA
ENDROOT
BRANCH   1  12
ATOM     12  C   UNL     1     110.013 101.402 138.737  1.00  0.00     0.021 A 
ATOM     13  C   UNL     1     109.962 101.547 140.134  1.00  0.00     0.016 A 
ATOM     14  C   UNL     1     110.320 100.487 140.971  1.00  0.00     0.051 A 
ATOM     15  C   UNL     1     110.723  99.262 140.428  1.00  0.00     0.157 A 
ATOM     16  C   UNL     1     110.407 100.162 138.197  1.00  0.00     0.062 A 
ATOM     17  C   UNL     1     110.764  99.099 139.034  1.00  0.00     0.158 A 
BRANCH  15  18
ATOM     18  O   UNL     1     111.082  98.207 141.267  1.00  0.00    -0.504 OA
ATOM     19  H   UNL     1     110.387  97.588 141.668  1.00  0.00     0.293 HD
ENDBRANCH  15  18
BRANCH  17  20
ATOM     20  O   UNL     1     111.151  97.887 138.462  1.00  0.00    -0.504 OA
ATOM     21  H   UNL     1     111.838  97.838 137.719  1.00  0.00     0.293 HD
ENDBRANCH  17  20
ENDBRANCH   1  12
BRANCH   6  22
ATOM     22  O   UNL     1     107.727 106.027 134.533  1.00  0.00    -0.507 OA
ATOM     23  H   UNL     1     107.026 106.749 134.579  1.00  0.00     0.293 HD
ENDBRANCH   6  22
BRANCH   8  24
ATOM     24  O   UNL     1     111.757 107.914 136.334  1.00  0.00    -0.508 OA
ATOM     25  H   UNL     1     112.748 107.764 136.189  1.00  0.00     0.293 HD
ENDBRANCH   8  24
TORSDOF 5
ENDMDL
MODEL 4
REMARK VINA RESULT:    -6.371      3.007      6.837
REMARK INTER + INTRA:          -7.780
REMARK INTER:                  -7.493
REMARK INTRA:                  -0.286
REMARK UNBOUND:                -0.291
REMARK SMILES O=c1cc(-c2ccc(O)c(O)c2)oc2cc(O)cc(O)c12
REMARK SMILES IDX 4 1 3 2 2 3 1 4 21 5 19 6 18 7 16 8 15 9 14 10 13 11 5 12
REMARK SMILES IDX 6 13 7 14 8 15 12 16 10 17 9 18 11 20 20 22 17 24
REMARK H PARENT 9 19 11 21 20 23 17 25
REMARK Flexibility Score: inf
ROOT
ATOM      1  C   UNL     1     108.904 105.411 136.553  1.00  0.00     0.138 A 
ATOM      2  C   UNL     1     109.061 104.049 136.847  1.00  0.00     0.100 A 
ATOM      3  C   UNL     1     110.311 103.449 136.688  1.00  0.00     0.197 A 
ATOM      4  O   UNL     1     110.407 102.213 136.907  1.00  0.00    -0.289 OA
ATOM      5  C   UNL     1     111.417 104.226 136.267  1.00  0.00     0.107 A 
ATOM      6  C   UNL     1     112.745 103.729 136.103  1.00  0.00     0.134 A 
ATOM      7  C   UNL     1     113.738 104.571 135.585  1.00  0.00     0.093 A 
ATOM      8  C   UNL     1     113.463 105.907 135.280  1.00  0.00     0.123 A 
ATOM      9  C   UNL     1     112.182 106.414 135.483  1.00  0.00     0.094 A 
ATOM     10  C   UNL     1     111.162 105.591 135.966  1.00  0.00     0.146 A 
ATOM     11  O   UNL     1     109.951 106.111 136.128  1.00  0.00    -0.456 OA
ENDROOT
BRANCH   1  12
ATOM     12  C   UNL     1     107.598 106.101 136.707  1.00  0.00     0.021 A 
ATOM     13  C   UNL     1     107.574 107.462 137.057  1.00  0.00     0.016 A 
ATOM     14  C   UNL     1     106.359 108.138 137.201  1.00  0.00     0.051 A 
ATOM     15  C   UNL     1     105.149 107.468 136.987  1.00  0.00     0.157 A 
ATOM     16  C   UNL     1     106.377 105.437 136.481  1.00  0.00     0.062 A 
ATOM     17  C   UNL     1     105.159 106.112 136.622  1.00  0.00     0.158 A 
BRANCH  15  18
ATOM     18  O   UNL     1     103.938 108.145 137.134  1.00  0.00    -0.504 OA
ATOM     19  H   UNL     1     103.270 107.890 137.851  1.00  0.00     0.293 HD
ENDBRANCH  15  18
BRANCH  17  20
ATOM     20  O   UNL     1     103.970 105.420 136.392  1.00  0.00    -0.504 OA
ATOM     21  H   UNL     1     103.594 105.291 135.461  1.00  0.00     0.293 HD
ENDBRANCH  17  20
ENDBRANCH   1  12
BRANCH   6  22
ATOM     22  O   UNL     1     113.147 102.437 136.452  1.00  0.00    -0.507 OA
ATOM     23  H   UNL     1     113.627 101.794 135.842  1.00  0.00     0.293 HD
ENDBRANCH   6  22
BRANCH   8  24
ATOM     24  O   UNL     1     114.461 106.741 134.779  1.00  0.00    -0.508 OA
ATOM     25  H   UNL     1     114.927 106.541 133.903  1.00  0.00     0.293 HD
ENDBRANCH   8  24
TORSDOF 5
ENDMDL
MODEL 5
REMARK VINA RESULT:    -6.338     11.701     14.384
REMARK INTER + INTRA:          -7.741
REMARK INTER:                  -7.435
REMARK INTRA:                  -0.306
REMARK UNBOUND:                -0.291
REMARK SMILES O=c1cc(-c2ccc(O)c(O)c2)oc2cc(O)cc(O)c12
REMARK SMILES IDX 4 1 3 2 2 3 1 4 21 5 19 6 18 7 16 8 15 9 14 10 13 11 5 12
REMARK SMILES IDX 6 13 7 14 8 15 12 16 10 17 9 18 11 20 20 22 17 24
REMARK H PARENT 9 19 11 21 20 23 17 25
REMARK Flexibility Score: inf
ROOT
ATOM      1  C   UNL     1     104.849 114.148 137.015  1.00  0.00     0.138 A 
ATOM      2  C   UNL     1     105.306 113.590 135.813  1.00  0.00     0.100 A 
ATOM      3  C   UNL     1     104.642 113.880 134.621  1.00  0.00     0.197 A 
ATOM      4  O   UNL     1     105.041 113.319 133.567  1.00  0.00    -0.289 OA
ATOM      5  C   UNL     1     103.535 114.763 134.629  1.00  0.00     0.107 A 
ATOM      6  C   UNL     1     102.801 115.158 133.469  1.00  0.00     0.134 A 
ATOM      7  C   UNL     1     101.662 115.960 133.615  1.00  0.00     0.093 A 
ATOM      8  C   UNL     1     101.265 116.429 134.871  1.00  0.00     0.123 A 
ATOM      9  C   UNL     1     102.003 116.089 136.001  1.00  0.00     0.094 A 
ATOM     10  C   UNL     1     103.125 115.262 135.893  1.00  0.00     0.146 A 
ATOM     11  O   UNL     1     103.789 114.949 137.000  1.00  0.00    -0.456 OA
ENDROOT
BRANCH   1  12
ATOM     12  C   UNL     1     105.521 113.876 138.312  1.00  0.00     0.021 A 
ATOM     13  C   UNL     1     106.196 112.657 138.496  1.00  0.00     0.016 A 
ATOM     14  C   UNL     1     106.843 112.379 139.703  1.00  0.00     0.051 A 
ATOM     15  C   UNL     1     106.836 113.318 140.741  1.00  0.00     0.157 A 
ATOM     16  C   UNL     1     105.529 114.821 139.355  1.00  0.00     0.062 A 
ATOM     17  C   UNL     1     106.179 114.545 140.564  1.00  0.00     0.158 A 
BRANCH  15  18
ATOM     18  O   UNL     1     107.482 113.036 141.945  1.00  0.00    -0.504 OA
ATOM     19  H   UNL     1     108.491 113.063 142.025  1.00  0.00     0.293 HD
ENDBRANCH  15  18
BRANCH  17  20
ATOM     20  O   UNL     1     106.162 115.505 141.576  1.00  0.00    -0.504 OA
ATOM     21  H   UNL     1     105.298 115.855 141.973  1.00  0.00     0.293 HD
ENDBRANCH  17  20
ENDBRANCH   1  12
BRANCH   6  22
ATOM     22  O   UNL     1     103.156 114.814 132.162  1.00  0.00    -0.507 OA
ATOM     23  H   UNL     1     103.235 115.461 131.393  1.00  0.00     0.293 HD
ENDBRANCH   6  22
BRANCH   8  24
ATOM     24  O   UNL     1     100.139 117.239 135.003  1.00  0.00    -0.508 OA
ATOM     25  H   UNL     1     100.005 117.831 135.814  1.00  0.00     0.293 HD
ENDBRANCH   8  24
TORSDOF 5
ENDMDL
MODEL 6
REMARK VINA RESULT:    -6.311      1.439      3.116
REMARK INTER + INTRA:          -7.709
REMARK INTER:                  -7.418
REMARK INTRA:                  -0.291
REMARK UNBOUND:                -0.291
REMARK SMILES O=c1cc(-c2ccc(O)c(O)c2)oc2cc(O)cc(O)c12
REMARK SMILES IDX 4 1 3 2 2 3 1 4 21 5 19 6 18 7 16 8 15 9 14 10 13 11 5 12
REMARK SMILES IDX 6 13 7 14 8 15 12 16 10 17 9 18 11 20 20 22 17 24
REMARK H PARENT 9 19 11 21 20 23 17 25
REMARK Flexibility Score: inf
ROOT
ATOM      1  C   UNL     1     110.234 102.221 137.534  1.00  0.00     0.138 A 
ATOM      2  C   UNL     1     110.751 100.926 137.686  1.00  0.00     0.100 A 
ATOM      3  C   UNL     1     109.941  99.917 138.209  1.00  0.00     0.197 A 
ATOM      4  O   UNL     1     110.451  98.780 138.386  1.00  0.00    -0.289 OA
ATOM      5  C   UNL     1     108.596 100.199 138.547  1.00  0.00     0.107 A 
ATOM      6  C   UNL     1     107.667  99.241 139.058  1.00  0.00     0.134 A 
ATOM      7  C   UNL     1     106.390  99.660 139.450  1.00  0.00     0.093 A 
ATOM      8  C   UNL     1     105.988 100.991 139.297  1.00  0.00     0.123 A 
ATOM      9  C   UNL     1     106.870 101.922 138.755  1.00  0.00     0.094 A 
ATOM     10  C   UNL     1     108.163 101.542 138.385  1.00  0.00     0.146 A 
ATOM     11  O   UNL     1     108.977 102.467 137.889  1.00  0.00    -0.456 OA
ENDROOT
BRANCH   1  12
ATOM     12  C   UNL     1     111.050 103.331 136.979  1.00  0.00     0.021 A 
ATOM     13  C   UNL     1     110.714 104.659 137.295  1.00  0.00     0.016 A 
ATOM     14  C   UNL     1     111.469 105.721 136.793  1.00  0.00     0.051 A 
ATOM     15  C   UNL     1     112.580 105.476 135.977  1.00  0.00     0.157 A 
ATOM     16  C   UNL     1     112.176 103.091 136.168  1.00  0.00     0.062 A 
ATOM     17  C   UNL     1     112.935 104.154 135.666  1.00  0.00     0.158 A 
BRANCH  15  18
ATOM     18  O   UNL     1     113.330 106.539 135.476  1.00  0.00    -0.504 OA
ATOM     19  H   UNL     1     114.104 106.935 135.996  1.00  0.00     0.293 HD
ENDBRANCH  15  18
BRANCH  17  20
ATOM     20  O   UNL     1     114.042 103.876 134.864  1.00  0.00    -0.504 OA
ATOM     21  H   UNL     1     114.984 104.119 135.143  1.00  0.00     0.293 HD
ENDBRANCH  17  20
ENDBRANCH   1  12
BRANCH   6  22
ATOM     22  O   UNL     1     107.937  97.875 139.176  1.00  0.00    -0.507 OA
ATOM     23  H   UNL     1     108.738  97.405 138.785  1.00  0.00     0.293 HD
ENDBRANCH   6  22
BRANCH   8  24
ATOM     24  O   UNL     1     104.710 101.394 139.676  1.00  0.00    -0.508 OA
ATOM     25  H   UNL     1     104.046 101.755 139.001  1.00  0.00     0.293 HD
ENDBRANCH   8  24
TORSDOF 5
ENDMDL
MODEL 7
REMARK VINA RESULT:    -6.279      1.697      6.961
REMARK INTER + INTRA:          -7.671
REMARK INTER:                  -7.408
REMARK INTRA:                  -0.263
REMARK UNBOUND:                -0.291
REMARK SMILES O=c1cc(-c2ccc(O)c(O)c2)oc2cc(O)cc(O)c12
REMARK SMILES IDX 4 1 3 2 2 3 1 4 21 5 19 6 18 7 16 8 15 9 14 10 13 11 5 12
REMARK SMILES IDX 6 13 7 14 8 15 12 16 10 17 9 18 11 20 20 22 17 24
REMARK H PARENT 9 19 11 21 20 23 17 25
REMARK Flexibility Score: inf
ROOT
ATOM      1  C   UNL     1     109.012 102.417 137.735  1.00  0.00     0.138 A 
ATOM      2  C   UNL     1     108.352 103.651 137.655  1.00  0.00     0.100 A 
ATOM      3  C   UNL     1     108.995 104.740 137.066  1.00  0.00     0.197 A 
ATOM      4  O   UNL     1     108.399 105.849 137.060  1.00  0.00    -0.289 OA
ATOM      5  C   UNL     1     110.292 104.582 136.522  1.00  0.00     0.107 A 
ATOM      6  C   UNL     1     111.032 105.613 135.867  1.00  0.00     0.134 A 
ATOM      7  C   UNL     1     112.348 105.364 135.457  1.00  0.00     0.093 A 
ATOM      8  C   UNL     1     112.929 104.104 135.625  1.00  0.00     0.123 A 
ATOM      9  C   UNL     1     112.199 103.078 136.218  1.00  0.00     0.094 A 
ATOM     10  C   UNL     1     110.896 103.304 136.669  1.00  0.00     0.146 A 
ATOM     11  O   UNL     1     110.241 102.302 137.245  1.00  0.00    -0.456 OA
ENDROOT
BRANCH   1  12
ATOM     12  C   UNL     1     108.373 101.224 138.348  1.00  0.00     0.021 A 
ATOM     13  C   UNL     1     108.719 100.854 139.659  1.00  0.00     0.016 A 
ATOM     14  C   UNL     1     108.127  99.741 140.263  1.00  0.00     0.051 A 
ATOM     15  C   UNL     1     107.172  98.986 139.571  1.00  0.00     0.157 A 
ATOM     16  C   UNL     1     107.402 100.468 137.663  1.00  0.00     0.062 A 
ATOM     17  C   UNL     1     106.807  99.354 138.266  1.00  0.00     0.158 A 
BRANCH  15  18
ATOM     18  O   UNL     1     106.586  97.875 140.176  1.00  0.00    -0.504 OA
ATOM     19  H   UNL     1     106.824  97.597 141.120  1.00  0.00     0.293 HD
ENDBRANCH  15  18
BRANCH  17  20
ATOM     20  O   UNL     1     105.852  98.629 137.555  1.00  0.00    -0.504 OA
ATOM     21  H   UNL     1     106.032  98.266 136.626  1.00  0.00     0.293 HD
ENDBRANCH  17  20
ENDBRANCH   1  12
BRANCH   6  22
ATOM     22  O   UNL     1     110.520 106.881 135.576  1.00  0.00    -0.507 OA
ATOM     23  H   UNL     1     110.154 107.167 134.682  1.00  0.00     0.293 HD
ENDBRANCH   6  22
BRANCH   8  24
ATOM     24  O   UNL     1     114.234 103.862 135.199  1.00  0.00    -0.508 OA
ATOM     25  H   UNL     1     114.427 103.421 134.308  1.00  0.00     0.293 HD
ENDBRANCH   8  24
TORSDOF 5
ENDMDL
MODEL 8
REMARK VINA RESULT:    -6.209      9.943     11.751
REMARK INTER + INTRA:          -7.589
REMARK INTER:                  -7.322
REMARK INTRA:                  -0.266
REMARK UNBOUND:                -0.291
REMARK SMILES O=c1cc(-c2ccc(O)c(O)c2)oc2cc(O)cc(O)c12
REMARK SMILES IDX 4 1 3 2 2 3 1 4 21 5 19 6 18 7 16 8 15 9 14 10 13 11 5 12
REMARK SMILES IDX 6 13 7 14 8 15 12 16 10 17 9 18 11 20 20 22 17 24
REMARK H PARENT 9 19 11 21 20 23 17 25
REMARK Flexibility Score: inf
ROOT
ATOM      1  C   UNL     1     106.753 112.579 138.738  1.00  0.00     0.138 A 
ATOM      2  C   UNL     1     105.895 113.677 138.892  1.00  0.00     0.100 A 
ATOM      3  C   UNL     1     105.148 114.127 137.803  1.00  0.00     0.197 A 
ATOM      4  O   UNL     1     104.430 115.149 137.959  1.00  0.00    -0.289 OA
ATOM      5  C   UNL     1     105.234 113.450 136.563  1.00  0.00     0.107 A 
ATOM      6  C   UNL     1     104.493 113.799 135.393  1.00  0.00     0.134 A 
ATOM      7  C   UNL     1     104.736 113.116 134.194  1.00  0.00     0.093 A 
ATOM      8  C   UNL     1     105.650 112.060 134.138  1.00  0.00     0.123 A 
ATOM      9  C   UNL     1     106.341 111.681 135.286  1.00  0.00     0.094 A 
ATOM     10  C   UNL     1     106.146 112.364 136.488  1.00  0.00     0.146 A 
ATOM     11  O   UNL     1     106.840 111.981 137.555  1.00  0.00    -0.456 OA
ENDROOT
BRANCH   1  12
ATOM     12  C   UNL     1     107.569 112.056 139.864  1.00  0.00     0.021 A 
ATOM     13  C   UNL     1     107.135 110.913 140.557  1.00  0.00     0.016 A 
ATOM     14  C   UNL     1     107.887 110.396 141.615  1.00  0.00     0.051 A 
ATOM     15  C   UNL     1     109.090 111.005 141.991  1.00  0.00     0.157 A 
ATOM     16  C   UNL     1     108.786 112.656 140.239  1.00  0.00     0.062 A 
ATOM     17  C   UNL     1     109.543 112.138 141.297  1.00  0.00     0.158 A 
BRANCH  15  18
ATOM     18  O   UNL     1     109.837 110.487 143.049  1.00  0.00    -0.504 OA
ATOM     19  H   UNL     1     109.403 110.218 143.924  1.00  0.00     0.293 HD
ENDBRANCH  15  18
BRANCH  17  20
ATOM     20  O   UNL     1     110.742 112.761 141.641  1.00  0.00    -0.504 OA
ATOM     21  H   UNL     1     111.643 112.371 141.391  1.00  0.00     0.293 HD
ENDBRANCH  17  20
ENDBRANCH   1  12
BRANCH   6  22
ATOM     22  O   UNL     1     103.500 114.781 135.358  1.00  0.00    -0.507 OA
ATOM     23  H   UNL     1     103.222 115.296 134.538  1.00  0.00     0.293 HD
ENDBRANCH   6  22
BRANCH   8  24
ATOM     24  O   UNL     1     105.873 111.377 132.944  1.00  0.00    -0.508 OA
ATOM     25  H   UNL     1     105.684 111.805 132.046  1.00  0.00     0.293 HD
ENDBRANCH   8  24
TORSDOF 5
ENDMDL
MODEL 9
REMARK VINA RESULT:    -6.188      2.474      7.085
REMARK INTER + INTRA:          -7.565
REMARK INTER:                  -7.266
REMARK INTRA:                  -0.298
REMARK UNBOUND:                -0.291
REMARK SMILES O=c1cc(-c2ccc(O)c(O)c2)oc2cc(O)cc(O)c12
REMARK SMILES IDX 4 1 3 2 2 3 1 4 21 5 19 6 18 7 16 8 15 9 14 10 13 11 5 12
REMARK SMILES IDX 6 13 7 14 8 15 12 16 10 17 9 18 11 20 20 22 17 24
REMARK H PARENT 9 19 11 21 20 23 17 25
REMARK Flexibility Score: inf
ROOT
ATOM      1  C   UNL     1     108.331 103.867 137.155  1.00  0.00     0.138 A 
ATOM      2  C   UNL     1     109.058 102.675 137.283  1.00  0.00     0.100 A 
ATOM      3  C   UNL     1     110.416 102.658 136.966  1.00  0.00     0.197 A 
ATOM      4  O   UNL     1     111.028 101.560 137.038  1.00  0.00    -0.289 OA
ATOM      5  C   UNL     1     111.058 103.850 136.553  1.00  0.00     0.107 A 
ATOM      6  C   UNL     1     112.446 103.960 136.236  1.00  0.00     0.134 A 
ATOM      7  C   UNL     1     112.947 105.171 135.742  1.00  0.00     0.093 A 
ATOM      8  C   UNL     1     112.123 106.292 135.610  1.00  0.00     0.123 A 
ATOM      9  C   UNL     1     110.778 106.209 135.963  1.00  0.00     0.094 A 
ATOM     10  C   UNL     1     110.241 105.005 136.426  1.00  0.00     0.146 A 
ATOM     11  O   UNL     1     108.949 104.965 136.734  1.00  0.00    -0.456 OA
ENDROOT
BRANCH   1  12
ATOM     12  C   UNL     1     106.884 103.942 137.482  1.00  0.00     0.021 A 
ATOM     13  C   UNL     1     106.393 103.249 138.601  1.00  0.00     0.016 A 
ATOM     14  C   UNL     1     105.038 103.309 138.936  1.00  0.00     0.051 A 
ATOM     15  C   UNL     1     104.152 104.072 138.165  1.00  0.00     0.157 A 
ATOM     16  C   UNL     1     105.990 104.718 136.718  1.00  0.00     0.062 A 
ATOM     17  C   UNL     1     104.633 104.782 137.053  1.00  0.00     0.158 A 
BRANCH  15  18
ATOM     18  O   UNL     1     102.800 104.128 138.501  1.00  0.00    -0.504 OA
ATOM     19  H   UNL     1     102.282 104.998 138.476  1.00  0.00     0.293 HD
ENDBRANCH  15  18
BRANCH  17  20
ATOM     20  O   UNL     1     103.778 105.559 136.271  1.00  0.00    -0.504 OA
ATOM     21  H   UNL     1     103.733 105.462 135.264  1.00  0.00     0.293 HD
ENDBRANCH  17  20
ENDBRANCH   1  12
BRANCH   6  22
ATOM     22  O   UNL     1     113.373 102.928 136.408  1.00  0.00    -0.507 OA
ATOM     23  H   UNL     1     114.061 102.883 137.142  1.00  0.00     0.293 HD
ENDBRANCH   6  22
BRANCH   8  24
ATOM     24  O   UNL     1     112.634 107.497 135.132  1.00  0.00    -0.508 OA
ATOM     25  H   UNL     1     112.368 108.385 135.541  1.00  0.00     0.293 HD
ENDBRANCH   8  24
TORSDOF 5
ENDMDL
