MODEL 1
REMARK VINA RESULT:    -6.054      0.000      0.000
REMARK INTER + INTRA:          -6.764
REMARK INTER:                  -6.407
REMARK INTRA:                  -0.357
REMARK UNBOUND:                -0.357
REMARK SMILES CC1=CC[C@@]23[C@@H]([C@@H](C(C)C)CC[C@H]2C)[C@H]13
REMARK SMILES IDX 14 1 13 2 12 3 11 4 7 5 6 6 5 7 15 8 2 9 3 10 4 11 1 12 8 13
REMARK SMILES IDX 9 14 10 15
REMARK H PARENT
REMARK Flexibility Score: inf
ROOT
ATOM      1  C   UNL     1       3.807  -2.247  14.972  1.00  0.00     0.008 C 
ATOM      2  C   UNL     1       2.753  -2.485  16.059  1.00  0.00    -0.007 C 
ATOM      3  C   UNL     1       1.731  -1.332  16.089  1.00  0.00     0.004 C 
ATOM      4  C   UNL     1       0.619  -1.520  17.153  1.00  0.00     0.004 C 
ATOM      5  C   UNL     1       0.845  -2.711  18.121  1.00  0.00    -0.004 C 
ATOM      6  C   UNL     1       2.316  -2.709  18.600  1.00  0.00     0.007 C 
ATOM      7  C   UNL     1       3.360  -2.650  17.478  1.00  0.00    -0.013 C 
ATOM      8  C   UNL     1       3.125  -3.955  18.234  1.00  0.00     0.025 C 
ATOM      9  C   UNL     1       4.387  -4.146  19.007  1.00  0.00    -0.073 C 
ATOM     10  C   UNL     1       5.256  -3.153  18.835  1.00  0.00    -0.027 C 
ATOM     11  C   UNL     1       4.750  -2.123  17.882  1.00  0.00     0.035 C 
ATOM     12  C   UNL     1       4.587  -5.271  19.974  1.00  0.00     0.039 C 
ENDROOT
BRANCH   5  13
ATOM     13  C   UNL     1      -0.121  -2.677  19.342  1.00  0.00    -0.014 C 
ATOM     14  C   UNL     1       0.633  -2.781  20.679  1.00  0.00     0.007 C 
ATOM     15  C   UNL     1      -0.966  -1.389  19.344  1.00  0.00     0.007 C 
ENDBRANCH   5  13
TORSDOF 1
ENDMDL
MODEL 2
REMARK VINA RESULT:    -5.933      1.075      3.880
REMARK INTER + INTRA:          -6.636
REMARK INTER:                  -6.279
REMARK INTRA:                  -0.357
REMARK UNBOUND:                -0.357
REMARK SMILES CC1=CC[C@@]23[C@@H]([C@@H](C(C)C)CC[C@H]2C)[C@H]13
REMARK SMILES IDX 14 1 13 2 12 3 11 4 7 5 6 6 5 7 15 8 2 9 3 10 4 11 1 12 8 13
REMARK SMILES IDX 9 14 10 15
REMARK H PARENT
REMARK Flexibility Score: inf
ROOT
ATOM      1  C   UNL     1       0.189  -2.451  19.410  1.00  0.00     0.008 C 
ATOM      2  C   UNL     1       1.030  -1.876  18.264  1.00  0.00    -0.007 C 
ATOM      3  C   UNL     1       0.177  -1.708  16.993  1.00  0.00     0.004 C 
ATOM      4  C   UNL     1       0.961  -1.107  15.798  1.00  0.00     0.004 C 
ATOM      5  C   UNL     1       2.490  -0.977  16.028  1.00  0.00    -0.004 C 
ATOM      6  C   UNL     1       3.024  -2.283  16.665  1.00  0.00     0.007 C 
ATOM      7  C   UNL     1       2.272  -2.742  17.920  1.00  0.00    -0.013 C 
ATOM      8  C   UNL     1       3.661  -2.123  18.047  1.00  0.00     0.025 C 
ATOM      9  C   UNL     1       4.515  -3.262  18.491  1.00  0.00    -0.073 C 
ATOM     10  C   UNL     1       3.842  -4.406  18.592  1.00  0.00    -0.027 C 
ATOM     11  C   UNL     1       2.397  -4.238  18.267  1.00  0.00     0.035 C 
ATOM     12  C   UNL     1       5.997  -3.148  18.670  1.00  0.00     0.039 C 
ENDROOT
BRANCH   5  13
ATOM     13  C   UNL     1       3.265  -0.662  14.714  1.00  0.00    -0.014 C 
ATOM     14  C   UNL     1       4.416  -1.652  14.469  1.00  0.00     0.007 C 
ATOM     15  C   UNL     1       2.322  -0.679  13.497  1.00  0.00     0.007 C 
ENDBRANCH   5  13
TORSDOF 1
ENDMDL
MODEL 3
REMARK VINA RESULT:    -5.882      1.939      3.535
REMARK INTER + INTRA:          -6.582
REMARK INTER:                  -6.249
REMARK INTRA:                  -0.333
REMARK UNBOUND:                -0.357
REMARK SMILES CC1=CC[C@@]23[C@@H]([C@@H](C(C)C)CC[C@H]2C)[C@H]13
REMARK SMILES IDX 14 1 13 2 12 3 11 4 7 5 6 6 5 7 15 8 2 9 3 10 4 11 1 12 8 13
REMARK SMILES IDX 9 14 10 15
REMARK H PARENT
REMARK Flexibility Score: inf
ROOT
ATOM      1  C   UNL     1       8.469  -2.553  16.889  1.00  0.00     0.008 C 
ATOM      2  C   UNL     1       6.945  -2.720  16.894  1.00  0.00    -0.007 C 
ATOM      3  C   UNL     1       6.313  -1.985  15.697  1.00  0.00     0.004 C 
ATOM      4  C   UNL     1       4.771  -2.132  15.625  1.00  0.00     0.004 C 
ATOM      5  C   UNL     1       4.128  -2.808  16.865  1.00  0.00    -0.004 C 
ATOM      6  C   UNL     1       4.742  -2.206  18.152  1.00  0.00     0.007 C 
ATOM      7  C   UNL     1       6.275  -2.214  18.199  1.00  0.00    -0.013 C 
ATOM      8  C   UNL     1       5.480  -3.200  19.051  1.00  0.00     0.025 C 
ATOM      9  C   UNL     1       5.725  -2.736  20.447  1.00  0.00    -0.073 C 
ATOM     10  C   UNL     1       6.485  -1.645  20.506  1.00  0.00    -0.027 C 
ATOM     11  C   UNL     1       6.921  -1.192  19.154  1.00  0.00     0.035 C 
ATOM     12  C   UNL     1       5.070  -3.362  21.640  1.00  0.00     0.039 C 
ENDROOT
BRANCH   5  13
ATOM     13  C   UNL     1       2.578  -2.660  16.886  1.00  0.00    -0.014 C 
ATOM     14  C   UNL     1       2.027  -2.547  18.318  1.00  0.00     0.007 C 
ATOM     15  C   UNL     1       2.128  -1.429  16.079  1.00  0.00     0.007 C 
ENDBRANCH   5  13
TORSDOF 1
ENDMDL
MODEL 4
REMARK VINA RESULT:    -5.854      1.987      4.934
REMARK INTER + INTRA:          -6.552
REMARK INTER:                  -6.213
REMARK INTRA:                  -0.339
REMARK UNBOUND:                -0.357
REMARK SMILES CC1=CC[C@@]23[C@@H]([C@@H](C(C)C)CC[C@H]2C)[C@H]13
REMARK SMILES IDX 14 1 13 2 12 3 11 4 7 5 6 6 5 7 15 8 2 9 3 10 4 11 1 12 8 13
REMARK SMILES IDX 9 14 10 15
REMARK H PARENT
REMARK Flexibility Score: inf
ROOT
ATOM      1  C   UNL     1       2.755  -0.636  12.754  1.00  0.00     0.008 C 
ATOM      2  C   UNL     1       2.621  -0.991  14.239  1.00  0.00    -0.007 C 
ATOM      3  C   UNL     1       3.518  -2.192  14.596  1.00  0.00     0.004 C 
ATOM      4  C   UNL     1       3.449  -2.592  16.092  1.00  0.00     0.004 C 
ATOM      5  C   UNL     1       2.353  -1.858  16.908  1.00  0.00    -0.004 C 
ATOM      6  C   UNL     1       1.034  -1.845  16.097  1.00  0.00     0.007 C 
ATOM      7  C   UNL     1       1.164  -1.314  14.664  1.00  0.00    -0.013 C 
ATOM      8  C   UNL     1       0.501  -0.457  15.738  1.00  0.00     0.025 C 
ATOM      9  C   UNL     1      -0.931  -0.412  15.320  1.00  0.00    -0.073 C 
ATOM     10  C   UNL     1      -1.173  -1.129  14.225  1.00  0.00    -0.027 C 
ATOM     11  C   UNL     1       0.063  -1.761  13.682  1.00  0.00     0.035 C 
ATOM     12  C   UNL     1      -1.995   0.259  16.131  1.00  0.00     0.039 C 
ENDROOT
BRANCH   5  13
ATOM     13  C   UNL     1       2.120  -2.501  18.307  1.00  0.00    -0.014 C 
ATOM     14  C   UNL     1       0.636  -2.488  18.710  1.00  0.00     0.007 C 
ATOM     15  C   UNL     1       2.635  -3.952  18.342  1.00  0.00     0.007 C 
ENDBRANCH   5  13
TORSDOF 1
ENDMDL
MODEL 5
REMARK VINA RESULT:    -5.831      1.569      4.913
REMARK INTER + INTRA:          -6.529
REMARK INTER:                  -6.197
REMARK INTRA:                  -0.332
REMARK UNBOUND:                -0.357
REMARK SMILES CC1=CC[C@@]23[C@@H]([C@@H](C(C)C)CC[C@H]2C)[C@H]13
REMARK SMILES IDX 14 1 13 2 12 3 11 4 7 5 6 6 5 7 15 8 2 9 3 10 4 11 1 12 8 13
REMARK SMILES IDX 9 14 10 15
REMARK H PARENT
REMARK Flexibility Score: inf
ROOT
ATOM      1  C   UNL     1       1.000  -4.590  18.258  1.00  0.00     0.008 C 
ATOM      2  C   UNL     1       2.471  -4.162  18.313  1.00  0.00    -0.007 C 
ATOM      3  C   UNL     1       2.950  -4.043  19.772  1.00  0.00     0.004 C 
ATOM      4  C   UNL     1       4.441  -3.636  19.902  1.00  0.00     0.004 C 
ATOM      5  C   UNL     1       5.117  -3.226  18.568  1.00  0.00    -0.004 C 
ATOM      6  C   UNL     1       4.172  -2.284  17.783  1.00  0.00     0.007 C 
ATOM      7  C   UNL     1       2.747  -2.818  17.587  1.00  0.00    -0.013 C 
ATOM      8  C   UNL     1       3.723  -2.800  16.414  1.00  0.00     0.025 C 
ATOM      9  C   UNL     1       3.155  -1.769  15.499  1.00  0.00    -0.073 C 
ATOM     10  C   UNL     1       2.059  -1.191  15.985  1.00  0.00    -0.027 C 
ATOM     11  C   UNL     1       1.666  -1.756  17.307  1.00  0.00     0.035 C 
ATOM     12  C   UNL     1       3.832  -1.342  14.233  1.00  0.00     0.039 C 
ENDROOT
BRANCH   5  13
ATOM     13  C   UNL     1       6.500  -2.543  18.786  1.00  0.00    -0.014 C 
ATOM     14  C   UNL     1       7.229  -2.276  17.459  1.00  0.00     0.007 C 
ATOM     15  C   UNL     1       6.346  -1.214  19.549  1.00  0.00     0.007 C 
ENDBRANCH   5  13
TORSDOF 1
ENDMDL
MODEL 6
REMARK VINA RESULT:    -5.710      9.481     11.736
REMARK INTER + INTRA:          -6.401
REMARK INTER:                  -6.074
REMARK INTRA:                  -0.327
REMARK UNBOUND:                -0.357
REMARK SMILES CC1=CC[C@@]23[C@@H]([C@@H](C(C)C)CC[C@H]2C)[C@H]13
REMARK SMILES IDX 14 1 13 2 12 3 11 4 7 5 6 6 5 7 15 8 2 9 3 10 4 11 1 12 8 13
REMARK SMILES IDX 9 14 10 15
REMARK H PARENT
REMARK Flexibility Score: inf
ROOT
ATOM      1  C   UNL     1       9.322   1.288  28.666  1.00  0.00     0.008 C 
ATOM      2  C   UNL     1       9.433   1.467  27.147  1.00  0.00    -0.007 C 
ATOM      3  C   UNL     1       8.046   1.370  26.484  1.00  0.00     0.004 C 
ATOM      4  C   UNL     1       8.081   1.567  24.946  1.00  0.00     0.004 C 
ATOM      5  C   UNL     1       9.505   1.619  24.334  1.00  0.00    -0.004 C 
ATOM      6  C   UNL     1      10.365   0.485  24.942  1.00  0.00     0.007 C 
ATOM      7  C   UNL     1      10.380   0.438  26.475  1.00  0.00    -0.013 C 
ATOM      8  C   UNL     1      11.603   0.946  25.716  1.00  0.00     0.025 C 
ATOM      9  C   UNL     1      12.631  -0.106  25.959  1.00  0.00    -0.073 C 
ATOM     10  C   UNL     1      12.172  -1.121  26.688  1.00  0.00    -0.027 C 
ATOM     11  C   UNL     1      10.754  -0.920  27.100  1.00  0.00     0.035 C 
ATOM     12  C   UNL     1      13.991  -0.077  25.332  1.00  0.00     0.039 C 
ENDROOT
BRANCH   5  13
ATOM     13  C   UNL     1       9.489   1.511  22.780  1.00  0.00    -0.014 C 
ATOM     14  C   UNL     1       9.868   0.102  22.294  1.00  0.00     0.007 C 
ATOM     15  C   UNL     1       8.107   1.882  22.214  1.00  0.00     0.007 C 
ENDBRANCH   5  13
TORSDOF 1
ENDMDL
MODEL 7
REMARK VINA RESULT:    -5.667      1.296      3.867
REMARK INTER + INTRA:          -6.355
REMARK INTER:                  -6.098
REMARK INTRA:                  -0.258
REMARK UNBOUND:                -0.357
REMARK SMILES CC1=CC[C@@]23[C@@H]([C@@H](C(C)C)CC[C@H]2C)[C@H]13
REMARK SMILES IDX 14 1 13 2 12 3 11 4 7 5 6 6 5 7 15 8 2 9 3 10 4 11 1 12 8 13
REMARK SMILES IDX 9 14 10 15
REMARK H PARENT
REMARK Flexibility Score: inf
ROOT
ATOM      1  C   UNL     1       4.705  -2.243  15.921  1.00  0.00     0.008 C 
ATOM      2  C   UNL     1       3.547  -2.260  16.925  1.00  0.00    -0.007 C 
ATOM      3  C   UNL     1       3.738  -3.386  17.959  1.00  0.00     0.004 C 
ATOM      4  C   UNL     1       2.611  -3.446  19.022  1.00  0.00     0.004 C 
ATOM      5  C   UNL     1       1.405  -2.512  18.740  1.00  0.00    -0.004 C 
ATOM      6  C   UNL     1       1.006  -2.628  17.249  1.00  0.00     0.007 C 
ATOM      7  C   UNL     1       2.157  -2.429  16.255  1.00  0.00    -0.013 C 
ATOM      8  C   UNL     1       1.110  -1.333  16.441  1.00  0.00     0.025 C 
ATOM      9  C   UNL     1       0.371  -1.329  15.145  1.00  0.00    -0.073 C 
ATOM     10  C   UNL     1       0.807  -2.258  14.297  1.00  0.00    -0.027 C 
ATOM     11  C   UNL     1       1.947  -3.039  14.856  1.00  0.00     0.035 C 
ATOM     12  C   UNL     1      -0.819  -0.458  14.889  1.00  0.00     0.039 C 
ENDROOT
BRANCH   5  13
ATOM     13  C   UNL     1       0.183  -2.825  19.653  1.00  0.00    -0.014 C 
ATOM     14  C   UNL     1       0.582  -2.941  21.134  1.00  0.00     0.007 C 
ATOM     15  C   UNL     1      -0.905  -1.744  19.511  1.00  0.00     0.007 C 
ENDBRANCH   5  13
TORSDOF 1
ENDMDL
MODEL 8
REMARK VINA RESULT:    -5.471      1.616      2.763
REMARK INTER + INTRA:          -6.148
REMARK INTER:                  -5.821
REMARK INTRA:                  -0.327
REMARK UNBOUND:                -0.357
REMARK SMILES CC1=CC[C@@]23[C@@H]([C@@H](C(C)C)CC[C@H]2C)[C@H]13
REMARK SMILES IDX 14 1 13 2 12 3 11 4 7 5 6 6 5 7 15 8 2 9 3 10 4 11 1 12 8 13
REMARK SMILES IDX 9 14 10 15
REMARK H PARENT
REMARK Flexibility Score: inf
ROOT
ATOM      1  C   UNL     1       6.511  -2.562  17.975  1.00  0.00     0.008 C 
ATOM      2  C   UNL     1       5.120  -3.160  18.216  1.00  0.00    -0.007 C 
ATOM      3  C   UNL     1       4.022  -2.222  17.680  1.00  0.00     0.004 C 
ATOM      4  C   UNL     1       2.587  -2.777  17.871  1.00  0.00     0.004 C 
ATOM      5  C   UNL     1       2.501  -4.060  18.738  1.00  0.00    -0.004 C 
ATOM      6  C   UNL     1       3.387  -3.889  19.995  1.00  0.00     0.007 C 
ATOM      7  C   UNL     1       4.832  -3.460  19.712  1.00  0.00    -0.013 C 
ATOM      8  C   UNL     1       4.531  -4.896  20.132  1.00  0.00     0.025 C 
ATOM      9  C   UNL     1       5.131  -4.999  21.493  1.00  0.00    -0.073 C 
ATOM     10  C   UNL     1       5.675  -3.857  21.907  1.00  0.00    -0.027 C 
ATOM     11  C   UNL     1       5.571  -2.781  20.881  1.00  0.00     0.035 C 
ATOM     12  C   UNL     1       5.009  -6.223  22.347  1.00  0.00     0.039 C 
ENDROOT
BRANCH   5  13
ATOM     13  C   UNL     1       1.038  -4.403  19.151  1.00  0.00    -0.014 C 
ATOM     14  C   UNL     1       0.980  -5.194  20.469  1.00  0.00     0.007 C 
ATOM     15  C   UNL     1       0.191  -3.126  19.296  1.00  0.00     0.007 C 
ENDBRANCH   5  13
TORSDOF 1
ENDMDL
MODEL 9
REMARK VINA RESULT:    -5.448      2.056      4.358
REMARK INTER + INTRA:          -6.124
REMARK INTER:                  -5.881
REMARK INTRA:                  -0.242
REMARK UNBOUND:                -0.357
REMARK SMILES CC1=CC[C@@]23[C@@H]([C@@H](C(C)C)CC[C@H]2C)[C@H]13
REMARK SMILES IDX 14 1 13 2 12 3 11 4 7 5 6 6 5 7 15 8 2 9 3 10 4 11 1 12 8 13
REMARK SMILES IDX 9 14 10 15
REMARK H PARENT
REMARK Flexibility Score: inf
ROOT
ATOM      1  C   UNL     1       7.087  -0.730  20.126  1.00  0.00     0.008 C 
ATOM      2  C   UNL     1       5.917  -1.720  20.168  1.00  0.00    -0.007 C 
ATOM      3  C   UNL     1       6.159  -2.804  21.235  1.00  0.00     0.004 C 
ATOM      4  C   UNL     1       5.000  -3.829  21.348  1.00  0.00     0.004 C 
ATOM      5  C   UNL     1       3.918  -3.704  20.244  1.00  0.00    -0.004 C 
ATOM      6  C   UNL     1       4.606  -3.535  18.869  1.00  0.00     0.007 C 
ATOM      7  C   UNL     1       5.651  -2.413  18.805  1.00  0.00    -0.013 C 
ATOM      8  C   UNL     1       4.291  -2.228  18.137  1.00  0.00     0.025 C 
ATOM      9  C   UNL     1       4.613  -2.220  16.680  1.00  0.00    -0.073 C 
ATOM     10  C   UNL     1       5.907  -2.407  16.434  1.00  0.00    -0.027 C 
ATOM     11  C   UNL     1       6.704  -2.541  17.687  1.00  0.00     0.035 C 
ATOM     12  C   UNL     1       3.563  -2.145  15.615  1.00  0.00     0.039 C 
ENDROOT
BRANCH   5  13
ATOM     13  C   UNL     1       2.951  -4.926  20.218  1.00  0.00    -0.014 C 
ATOM     14  C   UNL     1       2.853  -5.616  21.589  1.00  0.00     0.007 C 
ATOM     15  C   UNL     1       1.541  -4.506  19.767  1.00  0.00     0.007 C 
ENDBRANCH   5  13
TORSDOF 1
ENDMDL
