MODEL 1
REMARK VINA RESULT:    -4.401      0.000      0.000
REMARK INTER + INTRA:          -8.483
REMARK INTER:                  -7.102
REMARK INTRA:                  -1.381
REMARK UNBOUND:                -1.381
REMARK SMILES CCCCCCCCCCCCO
REMARK SMILES IDX 7 1 6 2 5 3 4 4 3 5 2 6 1 7 8 8 9 9 10 10 11 11 12 12 13 13
REMARK H PARENT 13 14
REMARK Flexibility Score: inf
ROOT
ATOM      1  C   UNL     1      18.306  -4.105  20.924  1.00  0.00     0.000 C 
ENDROOT
BRANCH   1   2
ATOM      2  C   UNL     1      18.711  -2.631  21.076  1.00  0.00    -0.000 C 
BRANCH   2   3
ATOM      3  C   UNL     1      20.114  -2.332  20.517  1.00  0.00    -0.000 C 
BRANCH   3   4
ATOM      4  C   UNL     1      20.136  -1.561  19.185  1.00  0.00    -0.000 C 
BRANCH   4   5
ATOM      5  C   UNL     1      20.209  -2.484  17.958  1.00  0.00    -0.000 C 
BRANCH   5   6
ATOM      6  C   UNL     1      18.951  -2.346  17.093  1.00  0.00    -0.003 C 
ATOM      7  C   UNL     1      18.359  -0.944  17.202  1.00  0.00     0.004 C 
ENDBRANCH   5   6
ENDBRANCH   4   5
ENDBRANCH   3   4
ENDBRANCH   2   3
ENDBRANCH   1   2
BRANCH   1   8
ATOM      8  C   UNL     1      17.383  -4.299  19.712  1.00  0.00     0.000 C 
BRANCH   8   9
ATOM      9  C   UNL     1      16.455  -3.096  19.473  1.00  0.00     0.000 C 
BRANCH   9  10
ATOM     10  C   UNL     1      15.481  -3.325  18.304  1.00  0.00     0.002 C 
BRANCH  10  11
ATOM     11  C   UNL     1      15.757  -4.639  17.557  1.00  0.00     0.028 C 
BRANCH  11  12
ATOM     12  C   UNL     1      14.541  -5.576  17.530  1.00  0.00     0.156 C 
BRANCH  12  13
ATOM     13  O   UNL     1      13.928  -5.606  18.789  1.00  0.00    -0.396 OA
ATOM     14  H   UNL     1      14.205  -6.456  19.221  1.00  0.00     0.210 HD
ENDBRANCH  12  13
ENDBRANCH  11  12
ENDBRANCH  10  11
ENDBRANCH   9  10
ENDBRANCH   8   9
ENDBRANCH   1   8
TORSDOF 11
ENDMDL
MODEL 2
REMARK VINA RESULT:    -4.395      4.037      6.246
REMARK INTER + INTRA:          -8.474
REMARK INTER:                  -6.968
REMARK INTRA:                  -1.506
REMARK UNBOUND:                -1.381
REMARK SMILES CCCCCCCCCCCCO
REMARK SMILES IDX 7 1 6 2 5 3 4 4 3 5 2 6 1 7 8 8 9 9 10 10 11 11 12 12 13 13
REMARK H PARENT 13 14
REMARK Flexibility Score: inf
ROOT
ATOM      1  C   UNL     1      20.502   0.614  22.765  1.00  0.00     0.000 C 
ENDROOT
BRANCH   1   2
ATOM      2  C   UNL     1      20.579   0.701  21.233  1.00  0.00    -0.000 C 
BRANCH   2   3
ATOM      3  C   UNL     1      19.469  -0.102  20.530  1.00  0.00    -0.000 C 
BRANCH   3   4
ATOM      4  C   UNL     1      19.938  -0.962  19.342  1.00  0.00    -0.000 C 
BRANCH   4   5
ATOM      5  C   UNL     1      19.699  -2.465  19.558  1.00  0.00    -0.000 C 
BRANCH   5   6
ATOM      6  C   UNL     1      18.438  -2.704  20.395  1.00  0.00    -0.003 C 
ATOM      7  C   UNL     1      18.312  -4.172  20.795  1.00  0.00     0.004 C 
ENDBRANCH   5   6
ENDBRANCH   4   5
ENDBRANCH   3   4
ENDBRANCH   2   3
ENDBRANCH   1   2
BRANCH   1   8
ATOM      8  C   UNL     1      19.971  -0.756  23.211  1.00  0.00     0.000 C 
BRANCH   8   9
ATOM      9  C   UNL     1      21.089  -1.703  23.681  1.00  0.00     0.000 C 
BRANCH   9  10
ATOM     10  C   UNL     1      20.986  -3.099  23.045  1.00  0.00     0.002 C 
BRANCH  10  11
ATOM     11  C   UNL     1      22.151  -3.398  22.088  1.00  0.00     0.028 C 
BRANCH  11  12
ATOM     12  C   UNL     1      23.016  -2.163  21.800  1.00  0.00     0.156 C 
BRANCH  12  13
ATOM     13  O   UNL     1      24.374  -2.487  21.919  1.00  0.00    -0.396 OA
ATOM     14  H   UNL     1      24.415  -3.436  22.212  1.00  0.00     0.210 HD
ENDBRANCH  12  13
ENDBRANCH  11  12
ENDBRANCH  10  11
ENDBRANCH   9  10
ENDBRANCH   8   9
ENDBRANCH   1   8
TORSDOF 11
ENDMDL
MODEL 3
REMARK VINA RESULT:    -4.393      1.303      2.891
REMARK INTER + INTRA:          -8.471
REMARK INTER:                  -6.971
REMARK INTRA:                  -1.500
REMARK UNBOUND:                -1.381
REMARK SMILES CCCCCCCCCCCCO
REMARK SMILES IDX 7 1 6 2 5 3 4 4 3 5 2 6 1 7 8 8 9 9 10 10 11 11 12 12 13 13
REMARK H PARENT 13 14
REMARK Flexibility Score: inf
ROOT
ATOM      1  C   UNL     1      17.653  -0.590  18.608  1.00  0.00     0.000 C 
ENDROOT
BRANCH   1   2
ATOM      2  C   UNL     1      18.311  -0.294  19.965  1.00  0.00    -0.000 C 
BRANCH   2   3
ATOM      3  C   UNL     1      17.993  -1.357  21.031  1.00  0.00    -0.000 C 
BRANCH   3   4
ATOM      4  C   UNL     1      19.161  -2.295  21.387  1.00  0.00    -0.000 C 
BRANCH   4   5
ATOM      5  C   UNL     1      18.885  -3.762  21.025  1.00  0.00    -0.000 C 
BRANCH   5   6
ATOM      6  C   UNL     1      19.823  -4.237  19.909  1.00  0.00    -0.003 C 
ATOM      7  C   UNL     1      21.137  -3.463  19.926  1.00  0.00     0.004 C 
ENDBRANCH   5   6
ENDBRANCH   4   5
ENDBRANCH   3   4
ENDBRANCH   2   3
ENDBRANCH   1   2
BRANCH   1   8
ATOM      8  C   UNL     1      18.607  -1.377  17.696  1.00  0.00     0.000 C 
BRANCH   8   9
ATOM      9  C   UNL     1      18.019  -2.724  17.244  1.00  0.00     0.000 C 
BRANCH   9  10
ATOM     10  C   UNL     1      16.640  -3.006  17.865  1.00  0.00     0.002 C 
BRANCH  10  11
ATOM     11  C   UNL     1      16.448  -4.488  18.224  1.00  0.00     0.028 C 
BRANCH  11  12
ATOM     12  C   UNL     1      15.137  -5.068  17.677  1.00  0.00     0.156 C 
BRANCH  12  13
ATOM     13  O   UNL     1      14.246  -5.320  18.729  1.00  0.00    -0.396 OA
ATOM     14  H   UNL     1      13.336  -5.117  18.385  1.00  0.00     0.210 HD
ENDBRANCH  12  13
ENDBRANCH  11  12
ENDBRANCH  10  11
ENDBRANCH   9  10
ENDBRANCH   8   9
ENDBRANCH   1   8
TORSDOF 11
ENDMDL
MODEL 4
REMARK VINA RESULT:    -4.346      3.010      4.694
REMARK INTER + INTRA:          -8.395
REMARK INTER:                  -7.019
REMARK INTRA:                  -1.375
REMARK UNBOUND:                -1.381
REMARK SMILES CCCCCCCCCCCCO
REMARK SMILES IDX 7 1 6 2 5 3 4 4 3 5 2 6 1 7 8 8 9 9 10 10 11 11 12 12 13 13
REMARK H PARENT 13 14
REMARK Flexibility Score: inf
ROOT
ATOM      1  C   UNL     1      19.753  -3.716  21.414  1.00  0.00     0.000 C 
ENDROOT
BRANCH   1   2
ATOM      2  C   UNL     1      18.412  -4.385  21.077  1.00  0.00    -0.000 C 
BRANCH   2   3
ATOM      3  C   UNL     1      17.514  -3.513  20.181  1.00  0.00    -0.000 C 
BRANCH   3   4
ATOM      4  C   UNL     1      17.118  -4.150  18.837  1.00  0.00    -0.000 C 
BRANCH   4   5
ATOM      5  C   UNL     1      16.797  -3.110  17.751  1.00  0.00    -0.000 C 
BRANCH   5   6
ATOM      6  C   UNL     1      18.069  -2.391  17.289  1.00  0.00    -0.003 C 
ATOM      7  C   UNL     1      18.010  -0.902  17.618  1.00  0.00     0.004 C 
ENDBRANCH   5   6
ENDBRANCH   4   5
ENDBRANCH   3   4
ENDBRANCH   2   3
ENDBRANCH   1   2
BRANCH   1   8
ATOM      8  C   UNL     1      19.917  -2.397  20.645  1.00  0.00     0.000 C 
BRANCH   8   9
ATOM      9  C   UNL     1      20.979  -2.483  19.536  1.00  0.00     0.000 C 
BRANCH   9  10
ATOM     10  C   UNL     1      21.468  -3.922  19.297  1.00  0.00     0.002 C 
BRANCH  10  11
ATOM     11  C   UNL     1      21.004  -4.484  17.944  1.00  0.00     0.028 C 
BRANCH  11  12
ATOM     12  C   UNL     1      22.172  -4.923  17.050  1.00  0.00     0.156 C 
BRANCH  12  13
ATOM     13  O   UNL     1      22.854  -3.801  16.562  1.00  0.00    -0.396 OA
ATOM     14  H   UNL     1      23.118  -3.263  17.354  1.00  0.00     0.210 HD
ENDBRANCH  12  13
ENDBRANCH  11  12
ENDBRANCH  10  11
ENDBRANCH   9  10
ENDBRANCH   8   9
ENDBRANCH   1   8
TORSDOF 11
ENDMDL
MODEL 5
REMARK VINA RESULT:    -4.332      3.228      4.860
REMARK INTER + INTRA:          -8.372
REMARK INTER:                  -6.851
REMARK INTRA:                  -1.521
REMARK UNBOUND:                -1.381
REMARK SMILES CCCCCCCCCCCCO
REMARK SMILES IDX 7 1 6 2 5 3 4 4 3 5 2 6 1 7 8 8 9 9 10 10 11 11 12 12 13 13
REMARK H PARENT 13 14
REMARK Flexibility Score: inf
ROOT
ATOM      1  C   UNL     1      19.496  -2.049  21.515  1.00  0.00     0.000 C 
ENDROOT
BRANCH   1   2
ATOM      2  C   UNL     1      19.926  -0.965  20.515  1.00  0.00    -0.000 C 
BRANCH   2   3
ATOM      3  C   UNL     1      18.777  -0.499  19.603  1.00  0.00    -0.000 C 
BRANCH   3   4
ATOM      4  C   UNL     1      18.748  -1.147  18.207  1.00  0.00    -0.000 C 
BRANCH   4   5
ATOM      5  C   UNL     1      17.444  -1.911  17.927  1.00  0.00    -0.000 C 
BRANCH   5   6
ATOM      6  C   UNL     1      17.567  -3.379  18.351  1.00  0.00    -0.003 C 
ATOM      7  C   UNL     1      16.782  -3.650  19.631  1.00  0.00     0.004 C 
ENDBRANCH   5   6
ENDBRANCH   4   5
ENDBRANCH   3   4
ENDBRANCH   2   3
ENDBRANCH   1   2
BRANCH   1   8
ATOM      8  C   UNL     1      20.375  -3.302  21.378  1.00  0.00     0.000 C 
BRANCH   8   9
ATOM      9  C   UNL     1      21.329  -3.230  20.174  1.00  0.00     0.000 C 
BRANCH   9  10
ATOM     10  C   UNL     1      21.046  -4.324  19.130  1.00  0.00     0.002 C 
BRANCH  10  11
ATOM     11  C   UNL     1      21.269  -3.836  17.690  1.00  0.00     0.028 C 
BRANCH  11  12
ATOM     12  C   UNL     1      22.362  -4.624  16.957  1.00  0.00     0.156 C 
BRANCH  12  13
ATOM     13  O   UNL     1      23.220  -3.745  16.283  1.00  0.00    -0.396 OA
ATOM     14  H   UNL     1      23.885  -4.307  15.804  1.00  0.00     0.210 HD
ENDBRANCH  12  13
ENDBRANCH  11  12
ENDBRANCH  10  11
ENDBRANCH   9  10
ENDBRANCH   8   9
ENDBRANCH   1   8
TORSDOF 11
ENDMDL
MODEL 6
REMARK VINA RESULT:    -4.280      2.864      4.621
REMARK INTER + INTRA:          -8.289
REMARK INTER:                  -6.701
REMARK INTRA:                  -1.588
REMARK UNBOUND:                -1.381
REMARK SMILES CCCCCCCCCCCCO
REMARK SMILES IDX 7 1 6 2 5 3 4 4 3 5 2 6 1 7 8 8 9 9 10 10 11 11 12 12 13 13
REMARK H PARENT 13 14
REMARK Flexibility Score: inf
ROOT
ATOM      1  C   UNL     1      19.910  -0.841  20.560  1.00  0.00     0.000 C 
ENDROOT
BRANCH   1   2
ATOM      2  C   UNL     1      19.264  -1.742  21.623  1.00  0.00    -0.000 C 
BRANCH   2   3
ATOM      3  C   UNL     1      19.718  -3.209  21.524  1.00  0.00    -0.000 C 
BRANCH   3   4
ATOM      4  C   UNL     1      18.654  -4.187  20.993  1.00  0.00    -0.000 C 
BRANCH   4   5
ATOM      5  C   UNL     1      17.314  -3.504  20.678  1.00  0.00    -0.000 C 
BRANCH   5   6
ATOM      6  C   UNL     1      16.797  -3.924  19.297  1.00  0.00    -0.003 C 
ATOM      7  C   UNL     1      15.880  -2.858  18.705  1.00  0.00     0.004 C 
ENDBRANCH   5   6
ENDBRANCH   4   5
ENDBRANCH   3   4
ENDBRANCH   2   3
ENDBRANCH   1   2
BRANCH   1   8
ATOM      8  C   UNL     1      18.889  -0.442  19.484  1.00  0.00     0.000 C 
BRANCH   8   9
ATOM      9  C   UNL     1      19.117  -1.170  18.149  1.00  0.00     0.000 C 
BRANCH   9  10
ATOM     10  C   UNL     1      20.426  -1.978  18.133  1.00  0.00     0.002 C 
BRANCH  10  11
ATOM     11  C   UNL     1      20.228  -3.408  17.607  1.00  0.00     0.028 C 
BRANCH  11  12
ATOM     12  C   UNL     1      21.478  -4.283  17.776  1.00  0.00     0.156 C 
BRANCH  12  13
ATOM     13  O   UNL     1      22.514  -3.806  16.962  1.00  0.00    -0.396 OA
ATOM     14  H   UNL     1      22.423  -4.267  16.087  1.00  0.00     0.210 HD
ENDBRANCH  12  13
ENDBRANCH  11  12
ENDBRANCH  10  11
ENDBRANCH   9  10
ENDBRANCH   8   9
ENDBRANCH   1   8
TORSDOF 11
ENDMDL
MODEL 7
REMARK VINA RESULT:    -4.251      4.170      5.051
REMARK INTER + INTRA:          -8.241
REMARK INTER:                  -7.018
REMARK INTRA:                  -1.223
REMARK UNBOUND:                -1.381
REMARK SMILES CCCCCCCCCCCCO
REMARK SMILES IDX 7 1 6 2 5 3 4 4 3 5 2 6 1 7 8 8 9 9 10 10 11 11 12 12 13 13
REMARK H PARENT 13 14
REMARK Flexibility Score: inf
ROOT
ATOM      1  C   UNL     1      21.354  -3.139  22.818  1.00  0.00     0.000 C 
ENDROOT
BRANCH   1   2
ATOM      2  C   UNL     1      20.991  -1.860  23.588  1.00  0.00    -0.000 C 
BRANCH   2   3
ATOM      3  C   UNL     1      21.684  -0.605  23.027  1.00  0.00    -0.000 C 
BRANCH   3   4
ATOM      4  C   UNL     1      20.743   0.421  22.370  1.00  0.00    -0.000 C 
BRANCH   4   5
ATOM      5  C   UNL     1      20.664   0.272  20.843  1.00  0.00    -0.000 C 
BRANCH   5   6
ATOM      6  C   UNL     1      19.231  -0.040  20.396  1.00  0.00    -0.003 C 
ATOM      7  C   UNL     1      18.301  -0.197  21.596  1.00  0.00     0.004 C 
ENDBRANCH   5   6
ENDBRANCH   4   5
ENDBRANCH   3   4
ENDBRANCH   2   3
ENDBRANCH   1   2
BRANCH   1   8
ATOM      8  C   UNL     1      20.385  -3.369  21.648  1.00  0.00     0.000 C 
BRANCH   8   9
ATOM      9  C   UNL     1      21.092  -3.367  20.282  1.00  0.00     0.000 C 
BRANCH   9  10
ATOM     10  C   UNL     1      20.138  -3.704  19.123  1.00  0.00     0.002 C 
BRANCH  10  11
ATOM     11  C   UNL     1      20.761  -3.418  17.747  1.00  0.00     0.028 C 
BRANCH  11  12
ATOM     12  C   UNL     1      21.844  -4.434  17.360  1.00  0.00     0.156 C 
BRANCH  12  13
ATOM     13  O   UNL     1      22.856  -3.803  16.626  1.00  0.00    -0.396 OA
ATOM     14  H   UNL     1      23.320  -3.187  17.252  1.00  0.00     0.210 HD
ENDBRANCH  12  13
ENDBRANCH  11  12
ENDBRANCH  10  11
ENDBRANCH   9  10
ENDBRANCH   8   9
ENDBRANCH   1   8
TORSDOF 11
ENDMDL
MODEL 8
REMARK VINA RESULT:    -4.159      4.260      5.566
REMARK INTER + INTRA:          -8.092
REMARK INTER:                  -6.630
REMARK INTRA:                  -1.462
REMARK UNBOUND:                -1.381
REMARK SMILES CCCCCCCCCCCCO
REMARK SMILES IDX 7 1 6 2 5 3 4 4 3 5 2 6 1 7 8 8 9 9 10 10 11 11 12 12 13 13
REMARK H PARENT 13 14
REMARK Flexibility Score: inf
ROOT
ATOM      1  C   UNL     1      20.620  -1.540  23.769  1.00  0.00     0.000 C 
ENDROOT
BRANCH   1   2
ATOM      2  C   UNL     1      19.752  -0.712  22.809  1.00  0.00    -0.000 C 
BRANCH   2   3
ATOM      3  C   UNL     1      20.461   0.558  22.304  1.00  0.00    -0.000 C 
BRANCH   3   4
ATOM      4  C   UNL     1      20.959   0.492  20.848  1.00  0.00    -0.000 C 
BRANCH   4   5
ATOM      5  C   UNL     1      22.475   0.706  20.722  1.00  0.00    -0.000 C 
BRANCH   5   6
ATOM      6  C   UNL     1      23.156   0.620  22.093  1.00  0.00    -0.003 C 
ATOM      7  C   UNL     1      24.135  -0.550  22.150  1.00  0.00     0.004 C 
ENDBRANCH   5   6
ENDBRANCH   4   5
ENDBRANCH   3   4
ENDBRANCH   2   3
ENDBRANCH   1   2
BRANCH   1   8
ATOM      8  C   UNL     1      21.277  -2.719  23.036  1.00  0.00     0.000 C 
BRANCH   8   9
ATOM      9  C   UNL     1      20.521  -3.121  21.759  1.00  0.00     0.000 C 
BRANCH   9  10
ATOM     10  C   UNL     1      21.466  -3.413  20.580  1.00  0.00     0.002 C 
BRANCH  10  11
ATOM     11  C   UNL     1      20.873  -2.981  19.230  1.00  0.00     0.028 C 
BRANCH  11  12
ATOM     12  C   UNL     1      21.389  -3.823  18.055  1.00  0.00     0.156 C 
BRANCH  12  13
ATOM     13  O   UNL     1      20.487  -3.761  16.985  1.00  0.00    -0.396 OA
ATOM     14  H   UNL     1      19.685  -4.279  17.258  1.00  0.00     0.210 HD
ENDBRANCH  12  13
ENDBRANCH  11  12
ENDBRANCH  10  11
ENDBRANCH   9  10
ENDBRANCH   8   9
ENDBRANCH   1   8
TORSDOF 11
ENDMDL
MODEL 9
REMARK VINA RESULT:    -4.154      3.648      5.018
REMARK INTER + INTRA:          -8.085
REMARK INTER:                  -6.756
REMARK INTRA:                  -1.328
REMARK UNBOUND:                -1.381
REMARK SMILES CCCCCCCCCCCCO
REMARK SMILES IDX 7 1 6 2 5 3 4 4 3 5 2 6 1 7 8 8 9 9 10 10 11 11 12 12 13 13
REMARK H PARENT 13 14
REMARK Flexibility Score: inf
ROOT
ATOM      1  C   UNL     1      18.543  -1.687  19.921  1.00  0.00     0.000 C 
ENDROOT
BRANCH   1   2
ATOM      2  C   UNL     1      18.867  -0.502  20.843  1.00  0.00    -0.000 C 
BRANCH   2   3
ATOM      3  C   UNL     1      19.084  -0.923  22.308  1.00  0.00    -0.000 C 
BRANCH   3   4
ATOM      4  C   UNL     1      20.550  -0.911  22.780  1.00  0.00    -0.000 C 
BRANCH   4   5
ATOM      5  C   UNL     1      20.995  -2.250  23.389  1.00  0.00    -0.000 C 
BRANCH   5   6
ATOM      6  C   UNL     1      21.719  -3.112  22.349  1.00  0.00    -0.003 C 
ATOM      7  C   UNL     1      22.658  -2.269  21.492  1.00  0.00     0.004 C 
ENDBRANCH   5   6
ENDBRANCH   4   5
ENDBRANCH   3   4
ENDBRANCH   2   3
ENDBRANCH   1   2
BRANCH   1   8
ATOM      8  C   UNL     1      18.231  -2.950  20.739  1.00  0.00     0.000 C 
BRANCH   8   9
ATOM      9  C   UNL     1      18.982  -4.190  20.227  1.00  0.00     0.000 C 
BRANCH   9  10
ATOM     10  C   UNL     1      19.647  -3.955  18.860  1.00  0.00     0.002 C 
BRANCH  10  11
ATOM     11  C   UNL     1      21.131  -4.356  18.850  1.00  0.00     0.028 C 
BRANCH  11  12
ATOM     12  C   UNL     1      21.608  -4.842  17.475  1.00  0.00     0.156 C 
BRANCH  12  13
ATOM     13  O   UNL     1      22.542  -3.943  16.943  1.00  0.00    -0.396 OA
ATOM     14  H   UNL     1      23.440  -4.277  17.207  1.00  0.00     0.210 HD
ENDBRANCH  12  13
ENDBRANCH  11  12
ENDBRANCH  10  11
ENDBRANCH   9  10
ENDBRANCH   8   9
ENDBRANCH   1   8
TORSDOF 11
ENDMDL
