MODEL 1
REMARK VINA RESULT:    -6.591      0.000      0.000
REMARK INTER + INTRA:          -7.789
REMARK INTER:                  -8.133
REMARK INTRA:                   0.344
REMARK UNBOUND:                 0.344
REMARK SMILES COc1cc(-c2oc3cc(O)cc(O)c3c(=O)c2O)ccc1O
REMARK SMILES IDX 6 1 18 2 16 3 17 4 15 5 13 6 12 7 10 8 9 9 8 10 7 11 5 12
REMARK SMILES IDX 3 13 22 14 4 15 21 16 20 17 2 18 1 19 23 20 19 22 14 24
REMARK SMILES IDX 11 26
REMARK H PARENT 23 21 19 23 14 25 11 27
REMARK Flexibility Score: inf
ROOT
ATOM      1  C   UNL     1      10.707  -7.270  -9.369  1.00  0.00     0.180 A 
ATOM      2  C   UNL     1       9.770  -8.310  -9.495  1.00  0.00     0.208 A 
ATOM      3  C   UNL     1       8.762  -8.439  -8.526  1.00  0.00     0.238 A 
ATOM      4  O   UNL     1       7.894  -9.338  -8.673  1.00  0.00    -0.285 OA
ATOM      5  C   UNL     1       8.714  -7.539  -7.434  1.00  0.00     0.111 A 
ATOM      6  C   UNL     1       7.762  -7.601  -6.372  1.00  0.00     0.134 A 
ATOM      7  C   UNL     1       7.728  -6.580  -5.415  1.00  0.00     0.093 A 
ATOM      8  C   UNL     1       8.654  -5.535  -5.443  1.00  0.00     0.123 A 
ATOM      9  C   UNL     1       9.625  -5.497  -6.441  1.00  0.00     0.094 A 
ATOM     10  C   UNL     1       9.662  -6.482  -7.432  1.00  0.00     0.146 A 
ATOM     11  O   UNL     1      10.597  -6.402  -8.370  1.00  0.00    -0.452 OA
ENDROOT
BRANCH   1  12
ATOM     12  C   UNL     1      11.812  -7.084 -10.337  1.00  0.00     0.025 A 
ATOM     13  C   UNL     1      13.630  -5.699 -11.209  1.00  0.00     0.161 A 
ATOM     14  C   UNL     1      13.959  -6.714 -12.118  1.00  0.00     0.157 A 
ATOM     15  C   UNL     1      12.559  -5.893 -10.314  1.00  0.00     0.062 A 
ATOM     16  C   UNL     1      13.230  -7.911 -12.129  1.00  0.00     0.051 A 
ATOM     17  C   UNL     1      12.169  -8.098 -11.242  1.00  0.00     0.016 A 
BRANCH  13  18
ATOM     18  O   UNL     1      14.388  -4.518 -11.222  1.00  0.00    -0.493 OA
ATOM     19  C   UNL     1      15.509  -4.269 -10.381  1.00  0.00     0.278 C 
ENDBRANCH  13  18
BRANCH  14  20
ATOM     20  O   UNL     1      15.016  -6.528 -13.007  1.00  0.00    -0.504 OA
ATOM     21  H   UNL     1      15.046  -5.735 -13.637  1.00  0.00     0.293 HD
ENDBRANCH  14  20
ENDBRANCH   1  12
BRANCH   2  22
ATOM     22  O   UNL     1       9.822  -9.174 -10.591  1.00  0.00    -0.502 OA
ATOM     23  H   UNL     1       9.903 -10.179 -10.489  1.00  0.00     0.293 HD
ENDBRANCH   2  22
BRANCH   6  24
ATOM     24  O   UNL     1       6.854  -8.649  -6.201  1.00  0.00    -0.507 OA
ATOM     25  H   UNL     1       6.494  -8.958  -5.311  1.00  0.00     0.293 HD
ENDBRANCH   6  24
BRANCH   8  26
ATOM     26  O   UNL     1       8.622  -4.532  -4.477  1.00  0.00    -0.508 OA
ATOM     27  H   UNL     1       9.270  -4.525  -3.698  1.00  0.00     0.293 HD
ENDBRANCH   8  26
TORSDOF 6
ENDMDL
MODEL 2
REMARK VINA RESULT:    -6.456      1.731      2.217
REMARK INTER + INTRA:          -7.622
REMARK INTER:                  -7.241
REMARK INTRA:                  -0.381
REMARK UNBOUND:                 0.344
REMARK SMILES COc1cc(-c2oc3cc(O)cc(O)c3c(=O)c2O)ccc1O
REMARK SMILES IDX 6 1 18 2 16 3 17 4 15 5 13 6 12 7 10 8 9 9 8 10 7 11 5 12
REMARK SMILES IDX 3 13 22 14 4 15 21 16 20 17 2 18 1 19 23 20 19 22 14 24
REMARK SMILES IDX 11 26
REMARK H PARENT 23 21 19 23 14 25 11 27
REMARK Flexibility Score: inf
ROOT
ATOM      1  C   UNL     1      10.971  -6.211  -9.936  1.00  0.00     0.180 A 
ATOM      2  C   UNL     1      10.298  -7.282 -10.549  1.00  0.00     0.208 A 
ATOM      3  C   UNL     1       9.280  -7.940  -9.840  1.00  0.00     0.238 A 
ATOM      4  O   UNL     1       8.645  -8.863 -10.414  1.00  0.00    -0.285 OA
ATOM      5  C   UNL     1       8.960  -7.532  -8.523  1.00  0.00     0.111 A 
ATOM      6  C   UNL     1       7.974  -8.153  -7.698  1.00  0.00     0.134 A 
ATOM      7  C   UNL     1       7.650  -7.582  -6.461  1.00  0.00     0.093 A 
ATOM      8  C   UNL     1       8.321  -6.452  -5.991  1.00  0.00     0.123 A 
ATOM      9  C   UNL     1       9.325  -5.873  -6.764  1.00  0.00     0.094 A 
ATOM     10  C   UNL     1       9.647  -6.397  -8.018  1.00  0.00     0.146 A 
ATOM     11  O   UNL     1      10.603  -5.808  -8.726  1.00  0.00    -0.452 OA
ENDROOT
BRANCH   1  12
ATOM     12  C   UNL     1      12.070  -5.482 -10.610  1.00  0.00     0.025 A 
ATOM     13  C   UNL     1      12.793  -3.717 -12.141  1.00  0.00     0.161 A 
ATOM     14  C   UNL     1      14.130  -4.033 -11.864  1.00  0.00     0.157 A 
ATOM     15  C   UNL     1      11.766  -4.442 -11.504  1.00  0.00     0.062 A 
ATOM     16  C   UNL     1      14.437  -5.056 -10.957  1.00  0.00     0.051 A 
ATOM     17  C   UNL     1      13.416  -5.772 -10.329  1.00  0.00     0.016 A 
BRANCH  13  18
ATOM     18  O   UNL     1      12.524  -2.681 -13.049  1.00  0.00    -0.493 OA
ATOM     19  C   UNL     1      12.138  -1.363 -12.677  1.00  0.00     0.278 C 
ENDBRANCH  13  18
BRANCH  14  20
ATOM     20  O   UNL     1      15.151  -3.322 -12.492  1.00  0.00    -0.504 OA
ATOM     21  H   UNL     1      15.993  -3.053 -11.997  1.00  0.00     0.293 HD
ENDBRANCH  14  20
ENDBRANCH   1  12
BRANCH   2  22
ATOM     22  O   UNL     1      10.615  -7.656 -11.857  1.00  0.00    -0.502 OA
ATOM     23  H   UNL     1       9.922  -8.012 -12.505  1.00  0.00     0.293 HD
ENDBRANCH   2  22
BRANCH   6  24
ATOM     24  O   UNL     1       7.312  -9.338  -8.033  1.00  0.00    -0.507 OA
ATOM     25  H   UNL     1       6.717  -9.860  -7.408  1.00  0.00     0.293 HD
ENDBRANCH   6  24
BRANCH   8  26
ATOM     26  O   UNL     1       8.002  -5.900  -4.753  1.00  0.00    -0.508 OA
ATOM     27  H   UNL     1       8.493  -6.172  -3.909  1.00  0.00     0.293 HD
ENDBRANCH   8  26
TORSDOF 6
ENDMDL
MODEL 3
REMARK VINA RESULT:    -6.448      2.540      4.336
REMARK INTER + INTRA:          -7.613
REMARK INTER:                  -7.430
REMARK INTRA:                  -0.182
REMARK UNBOUND:                 0.344
REMARK SMILES COc1cc(-c2oc3cc(O)cc(O)c3c(=O)c2O)ccc1O
REMARK SMILES IDX 6 1 18 2 16 3 17 4 15 5 13 6 12 7 10 8 9 9 8 10 7 11 5 12
REMARK SMILES IDX 3 13 22 14 4 15 21 16 20 17 2 18 1 19 23 20 19 22 14 24
REMARK SMILES IDX 11 26
REMARK H PARENT 23 21 19 23 14 25 11 27
REMARK Flexibility Score: inf
ROOT
ATOM      1  C   UNL     1      11.159  -6.133 -10.817  1.00  0.00     0.180 A 
ATOM      2  C   UNL     1      10.988  -6.475  -9.465  1.00  0.00     0.208 A 
ATOM      3  C   UNL     1       9.881  -7.258  -9.096  1.00  0.00     0.238 A 
ATOM      4  O   UNL     1       9.763  -7.606  -7.893  1.00  0.00    -0.285 OA
ATOM      5  C   UNL     1       8.952  -7.674 -10.079  1.00  0.00     0.111 A 
ATOM      6  C   UNL     1       7.774  -8.436  -9.813  1.00  0.00     0.134 A 
ATOM      7  C   UNL     1       6.998  -8.902 -10.880  1.00  0.00     0.093 A 
ATOM      8  C   UNL     1       7.319  -8.580 -12.200  1.00  0.00     0.123 A 
ATOM      9  C   UNL     1       8.433  -7.787 -12.467  1.00  0.00     0.094 A 
ATOM     10  C   UNL     1       9.249  -7.337 -11.426  1.00  0.00     0.146 A 
ATOM     11  O   UNL     1      10.307  -6.593 -11.725  1.00  0.00    -0.452 OA
ENDROOT
BRANCH   1  12
ATOM     12  C   UNL     1      12.286  -5.291 -11.280  1.00  0.00     0.025 A 
ATOM     13  C   UNL     1      13.077  -3.203 -12.278  1.00  0.00     0.161 A 
ATOM     14  C   UNL     1      14.401  -3.635 -12.117  1.00  0.00     0.157 A 
ATOM     15  C   UNL     1      12.022  -4.034 -11.850  1.00  0.00     0.062 A 
ATOM     16  C   UNL     1      14.667  -4.879 -11.530  1.00  0.00     0.051 A 
ATOM     17  C   UNL     1      13.619  -5.699 -11.108  1.00  0.00     0.016 A 
BRANCH  13  18
ATOM     18  O   UNL     1      12.849  -1.947 -12.863  1.00  0.00    -0.493 OA
ATOM     19  C   UNL     1      11.571  -1.462 -13.260  1.00  0.00     0.278 C 
ENDBRANCH  13  18
BRANCH  14  20
ATOM     20  O   UNL     1      15.448  -2.819 -12.540  1.00  0.00    -0.504 OA
ATOM     21  H   UNL     1      16.324  -2.773 -12.032  1.00  0.00     0.293 HD
ENDBRANCH  14  20
ENDBRANCH   1  12
BRANCH   2  22
ATOM     22  O   UNL     1      11.927  -6.072  -8.513  1.00  0.00    -0.502 OA
ATOM     23  H   UNL     1      11.973  -5.123  -8.161  1.00  0.00     0.293 HD
ENDBRANCH   2  22
BRANCH   6  24
ATOM     24  O   UNL     1       7.314  -8.734  -8.527  1.00  0.00    -0.507 OA
ATOM     25  H   UNL     1       6.981  -8.052  -7.863  1.00  0.00     0.293 HD
ENDBRANCH   6  24
BRANCH   8  26
ATOM     26  O   UNL     1       6.532  -9.036 -13.255  1.00  0.00    -0.508 OA
ATOM     27  H   UNL     1       5.739  -8.503 -13.594  1.00  0.00     0.293 HD
ENDBRANCH   8  26
TORSDOF 6
ENDMDL
MODEL 4
REMARK VINA RESULT:    -6.434      1.473      2.041
REMARK INTER + INTRA:          -7.595
REMARK INTER:                  -7.240
REMARK INTRA:                  -0.354
REMARK UNBOUND:                 0.344
REMARK SMILES COc1cc(-c2oc3cc(O)cc(O)c3c(=O)c2O)ccc1O
REMARK SMILES IDX 6 1 18 2 16 3 17 4 15 5 13 6 12 7 10 8 9 9 8 10 7 11 5 12
REMARK SMILES IDX 3 13 22 14 4 15 21 16 20 17 2 18 1 19 23 20 19 22 14 24
REMARK SMILES IDX 11 26
REMARK H PARENT 23 21 19 23 14 25 11 27
REMARK Flexibility Score: inf
ROOT
ATOM      1  C   UNL     1      11.276  -6.352  -9.733  1.00  0.00     0.180 A 
ATOM      2  C   UNL     1      11.054  -7.691 -10.099  1.00  0.00     0.208 A 
ATOM      3  C   UNL     1      10.207  -8.482  -9.304  1.00  0.00     0.238 A 
ATOM      4  O   UNL     1       9.969  -9.663  -9.666  1.00  0.00    -0.285 OA
ATOM      5  C   UNL     1       9.609  -7.930  -8.146  1.00  0.00     0.111 A 
ATOM      6  C   UNL     1       8.767  -8.650  -7.246  1.00  0.00     0.134 A 
ATOM      7  C   UNL     1       8.124  -7.968  -6.206  1.00  0.00     0.093 A 
ATOM      8  C   UNL     1       8.345  -6.605  -5.993  1.00  0.00     0.123 A 
ATOM      9  C   UNL     1       9.211  -5.906  -6.830  1.00  0.00     0.094 A 
ATOM     10  C   UNL     1       9.839  -6.551  -7.899  1.00  0.00     0.146 A 
ATOM     11  O   UNL     1      10.649  -5.845  -8.679  1.00  0.00    -0.452 OA
ENDROOT
BRANCH   1  12
ATOM     12  C   UNL     1      12.173  -5.463 -10.507  1.00  0.00     0.025 A 
ATOM     13  C   UNL     1      14.442  -4.753 -11.081  1.00  0.00     0.161 A 
ATOM     14  C   UNL     1      13.915  -3.836 -12.001  1.00  0.00     0.157 A 
ATOM     15  C   UNL     1      13.565  -5.570 -10.341  1.00  0.00     0.062 A 
ATOM     16  C   UNL     1      12.529  -3.741 -12.184  1.00  0.00     0.051 A 
ATOM     17  C   UNL     1      11.664  -4.553 -11.448  1.00  0.00     0.016 A 
BRANCH  13  18
ATOM     18  O   UNL     1      15.836  -4.824 -10.931  1.00  0.00    -0.493 OA
ATOM     19  C   UNL     1      16.579  -4.113  -9.947  1.00  0.00     0.278 C 
ENDBRANCH  13  18
BRANCH  14  20
ATOM     20  O   UNL     1      14.777  -3.023 -12.735  1.00  0.00    -0.504 OA
ATOM     21  H   UNL     1      15.049  -2.104 -12.405  1.00  0.00     0.293 HD
ENDBRANCH  14  20
ENDBRANCH   1  12
BRANCH   2  22
ATOM     22  O   UNL     1      11.637  -8.210 -11.257  1.00  0.00    -0.502 OA
ATOM     23  H   UNL     1      12.640  -8.232 -11.399  1.00  0.00     0.293 HD
ENDBRANCH   2  22
BRANCH   6  24
ATOM     24  O   UNL     1       8.553 -10.030  -7.315  1.00  0.00    -0.507 OA
ATOM     25  H   UNL     1       7.646 -10.471  -7.335  1.00  0.00     0.293 HD
ENDBRANCH   6  24
BRANCH   8  26
ATOM     26  O   UNL     1       7.714  -5.938  -4.946  1.00  0.00    -0.508 OA
ATOM     27  H   UNL     1       7.511  -6.401  -4.068  1.00  0.00     0.293 HD
ENDBRANCH   8  26
TORSDOF 6
ENDMDL
MODEL 5
REMARK VINA RESULT:    -6.377      2.464      4.217
REMARK INTER + INTRA:          -7.525
REMARK INTER:                  -7.444
REMARK INTRA:                  -0.081
REMARK UNBOUND:                 0.344
REMARK SMILES COc1cc(-c2oc3cc(O)cc(O)c3c(=O)c2O)ccc1O
REMARK SMILES IDX 6 1 18 2 16 3 17 4 15 5 13 6 12 7 10 8 9 9 8 10 7 11 5 12
REMARK SMILES IDX 3 13 22 14 4 15 21 16 20 17 2 18 1 19 23 20 19 22 14 24
REMARK SMILES IDX 11 26
REMARK H PARENT 23 21 19 23 14 25 11 27
REMARK Flexibility Score: inf
ROOT
ATOM      1  C   UNL     1      10.977  -6.028 -10.791  1.00  0.00     0.180 A 
ATOM      2  C   UNL     1      10.868  -6.451  -9.455  1.00  0.00     0.208 A 
ATOM      3  C   UNL     1       9.820  -7.315  -9.098  1.00  0.00     0.238 A 
ATOM      4  O   UNL     1       9.760  -7.733  -7.912  1.00  0.00    -0.285 OA
ATOM      5  C   UNL     1       8.886  -7.732 -10.076  1.00  0.00     0.111 A 
ATOM      6  C   UNL     1       7.763  -8.575  -9.818  1.00  0.00     0.134 A 
ATOM      7  C   UNL     1       6.981  -9.030 -10.887  1.00  0.00     0.093 A 
ATOM      8  C   UNL     1       7.242  -8.619 -12.196  1.00  0.00     0.123 A 
ATOM      9  C   UNL     1       8.300  -7.750 -12.451  1.00  0.00     0.094 A 
ATOM     10  C   UNL     1       9.120  -7.308 -11.410  1.00  0.00     0.146 A 
ATOM     11  O   UNL     1      10.125  -6.489 -11.698  1.00  0.00    -0.452 OA
ENDROOT
BRANCH   1  12
ATOM     12  C   UNL     1      12.039  -5.098 -11.239  1.00  0.00     0.025 A 
ATOM     13  C   UNL     1      14.419  -4.587 -11.481  1.00  0.00     0.161 A 
ATOM     14  C   UNL     1      14.088  -3.389 -12.130  1.00  0.00     0.157 A 
ATOM     15  C   UNL     1      13.387  -5.442 -11.043  1.00  0.00     0.062 A 
ATOM     16  C   UNL     1      12.745  -3.053 -12.345  1.00  0.00     0.051 A 
ATOM     17  C   UNL     1      11.728  -3.903 -11.909  1.00  0.00     0.016 A 
BRANCH  13  18
ATOM     18  O   UNL     1      15.775  -4.893 -11.291  1.00  0.00    -0.493 OA
ATOM     19  C   UNL     1      16.544  -4.486 -10.165  1.00  0.00     0.278 C 
ENDBRANCH  13  18
BRANCH  14  20
ATOM     20  O   UNL     1      15.103  -2.538 -12.563  1.00  0.00    -0.504 OA
ATOM     21  H   UNL     1      16.024  -2.553 -12.142  1.00  0.00     0.293 HD
ENDBRANCH  14  20
ENDBRANCH   1  12
BRANCH   2  22
ATOM     22  O   UNL     1      11.812  -6.044  -8.509  1.00  0.00    -0.502 OA
ATOM     23  H   UNL     1      11.585  -5.923  -7.529  1.00  0.00     0.293 HD
ENDBRANCH   2  22
BRANCH   6  24
ATOM     24  O   UNL     1       7.361  -8.967  -8.538  1.00  0.00    -0.507 OA
ATOM     25  H   UNL     1       7.919  -8.866  -7.704  1.00  0.00     0.293 HD
ENDBRANCH   6  24
BRANCH   8  26
ATOM     26  O   UNL     1       6.449  -9.065 -13.251  1.00  0.00    -0.508 OA
ATOM     27  H   UNL     1       6.598  -8.742 -14.200  1.00  0.00     0.293 HD
ENDBRANCH   8  26
TORSDOF 6
ENDMDL
MODEL 6
REMARK VINA RESULT:    -6.264      1.913      3.975
REMARK INTER + INTRA:          -7.385
REMARK INTER:                  -7.042
REMARK INTRA:                  -0.343
REMARK UNBOUND:                 0.344
REMARK SMILES COc1cc(-c2oc3cc(O)cc(O)c3c(=O)c2O)ccc1O
REMARK SMILES IDX 6 1 18 2 16 3 17 4 15 5 13 6 12 7 10 8 9 9 8 10 7 11 5 12
REMARK SMILES IDX 3 13 22 14 4 15 21 16 20 17 2 18 1 19 23 20 19 22 14 24
REMARK SMILES IDX 11 26
REMARK H PARENT 23 21 19 23 14 25 11 27
REMARK Flexibility Score: inf
ROOT
ATOM      1  C   UNL     1      13.157  -5.799 -10.767  1.00  0.00     0.180 A 
ATOM      2  C   UNL     1      13.115  -6.999 -11.497  1.00  0.00     0.208 A 
ATOM      3  C   UNL     1      12.239  -8.016 -11.086  1.00  0.00     0.238 A 
ATOM      4  O   UNL     1      12.167  -9.066 -11.775  1.00  0.00    -0.285 OA
ATOM      5  C   UNL     1      11.429  -7.828  -9.940  1.00  0.00     0.111 A 
ATOM      6  C   UNL     1      10.534  -8.806  -9.410  1.00  0.00     0.134 A 
ATOM      7  C   UNL     1       9.686  -8.463  -8.350  1.00  0.00     0.093 A 
ATOM      8  C   UNL     1       9.746  -7.199  -7.759  1.00  0.00     0.123 A 
ATOM      9  C   UNL     1      10.657  -6.257  -8.231  1.00  0.00     0.094 A 
ATOM     10  C   UNL     1      11.491  -6.557  -9.311  1.00  0.00     0.146 A 
ATOM     11  O   UNL     1      12.338  -5.627  -9.736  1.00  0.00    -0.452 OA
ENDROOT
BRANCH   1  12
ATOM     12  C   UNL     1      14.071  -4.690 -11.124  1.00  0.00     0.025 A 
ATOM     13  C   UNL     1      16.151  -3.468 -10.718  1.00  0.00     0.161 A 
ATOM     14  C   UNL     1      15.866  -2.634 -11.808  1.00  0.00     0.157 A 
ATOM     15  C   UNL     1      15.251  -4.501 -10.385  1.00  0.00     0.062 A 
ATOM     16  C   UNL     1      14.700  -2.833 -12.559  1.00  0.00     0.051 A 
ATOM     17  C   UNL     1      13.812  -3.857 -12.225  1.00  0.00     0.016 A 
BRANCH  13  18
ATOM     18  O   UNL     1      17.332  -3.243  -9.994  1.00  0.00    -0.493 OA
ATOM     19  C   UNL     1      17.377  -2.786  -8.646  1.00  0.00     0.278 C 
ENDBRANCH  13  18
BRANCH  14  20
ATOM     20  O   UNL     1      16.750  -1.609 -12.141  1.00  0.00    -0.504 OA
ATOM     21  H   UNL     1      17.074  -0.942 -11.450  1.00  0.00     0.293 HD
ENDBRANCH  14  20
ENDBRANCH   1  12
BRANCH   2  22
ATOM     22  O   UNL     1      13.908  -7.156 -12.637  1.00  0.00    -0.502 OA
ATOM     23  H   UNL     1      14.895  -7.379 -12.587  1.00  0.00     0.293 HD
ENDBRANCH   2  22
BRANCH   6  24
ATOM     24  O   UNL     1      10.462 -10.125  -9.867  1.00  0.00    -0.507 OA
ATOM     25  H   UNL     1       9.849 -10.446 -10.601  1.00  0.00     0.293 HD
ENDBRANCH   6  24
BRANCH   8  26
ATOM     26  O   UNL     1       8.908  -6.872  -6.695  1.00  0.00    -0.508 OA
ATOM     27  H   UNL     1       9.239  -6.325  -5.909  1.00  0.00     0.293 HD
ENDBRANCH   8  26
TORSDOF 6
ENDMDL
MODEL 7
REMARK VINA RESULT:    -6.253      2.590      4.095
REMARK INTER + INTRA:          -7.372
REMARK INTER:                  -6.978
REMARK INTRA:                  -0.394
REMARK UNBOUND:                 0.344
REMARK SMILES COc1cc(-c2oc3cc(O)cc(O)c3c(=O)c2O)ccc1O
REMARK SMILES IDX 6 1 18 2 16 3 17 4 15 5 13 6 12 7 10 8 9 9 8 10 7 11 5 12
REMARK SMILES IDX 3 13 22 14 4 15 21 16 20 17 2 18 1 19 23 20 19 22 14 24
REMARK SMILES IDX 11 26
REMARK H PARENT 23 21 19 23 14 25 11 27
REMARK Flexibility Score: inf
ROOT
ATOM      1  C   UNL     1      13.063  -5.391 -10.797  1.00  0.00     0.180 A 
ATOM      2  C   UNL     1      12.031  -4.642 -11.387  1.00  0.00     0.208 A 
ATOM      3  C   UNL     1      10.700  -4.926 -11.039  1.00  0.00     0.238 A 
ATOM      4  O   UNL     1       9.783  -4.216 -11.529  1.00  0.00    -0.285 OA
ATOM      5  C   UNL     1      10.418  -5.965 -10.121  1.00  0.00     0.111 A 
ATOM      6  C   UNL     1       9.105  -6.366  -9.726  1.00  0.00     0.134 A 
ATOM      7  C   UNL     1       8.949  -7.318  -8.712  1.00  0.00     0.093 A 
ATOM      8  C   UNL     1      10.057  -7.932  -8.124  1.00  0.00     0.123 A 
ATOM      9  C   UNL     1      11.341  -7.591  -8.543  1.00  0.00     0.094 A 
ATOM     10  C   UNL     1      11.530  -6.618  -9.527  1.00  0.00     0.146 A 
ATOM     11  O   UNL     1      12.771  -6.315  -9.890  1.00  0.00    -0.452 OA
ENDROOT
BRANCH   1  12
ATOM     12  C   UNL     1      14.488  -5.167 -11.131  1.00  0.00     0.025 A 
ATOM     13  C   UNL     1      16.647  -4.165 -10.563  1.00  0.00     0.161 A 
ATOM     14  C   UNL     1      17.216  -4.766 -11.695  1.00  0.00     0.157 A 
ATOM     15  C   UNL     1      15.282  -4.376 -10.282  1.00  0.00     0.062 A 
ATOM     16  C   UNL     1      16.432  -5.572 -12.532  1.00  0.00     0.051 A 
ATOM     17  C   UNL     1      15.081  -5.777 -12.249  1.00  0.00     0.016 A 
BRANCH  13  18
ATOM     18  O   UNL     1      17.465  -3.371  -9.745  1.00  0.00    -0.493 OA
ATOM     19  C   UNL     1      16.983  -2.410  -8.812  1.00  0.00     0.278 C 
ENDBRANCH  13  18
BRANCH  14  20
ATOM     20  O   UNL     1      18.564  -4.560 -11.980  1.00  0.00    -0.504 OA
ATOM     21  H   UNL     1      19.221  -5.330 -12.026  1.00  0.00     0.293 HD
ENDBRANCH  14  20
ENDBRANCH   1  12
BRANCH   2  22
ATOM     22  O   UNL     1      12.332  -3.606 -12.275  1.00  0.00    -0.502 OA
ATOM     23  H   UNL     1      13.262  -3.464 -12.650  1.00  0.00     0.293 HD
ENDBRANCH   2  22
BRANCH   6  24
ATOM     24  O   UNL     1       7.933  -5.882 -10.315  1.00  0.00    -0.507 OA
ATOM     25  H   UNL     1       7.690  -5.995 -11.288  1.00  0.00     0.293 HD
ENDBRANCH   6  24
BRANCH   8  26
ATOM     26  O   UNL     1       9.892  -8.890  -7.126  1.00  0.00    -0.508 OA
ATOM     27  H   UNL     1       9.781  -9.872  -7.347  1.00  0.00     0.293 HD
ENDBRANCH   8  26
TORSDOF 6
ENDMDL
MODEL 8
REMARK VINA RESULT:    -6.246      2.124      6.962
REMARK INTER + INTRA:          -7.363
REMARK INTER:                  -6.980
REMARK INTRA:                  -0.383
REMARK UNBOUND:                 0.344
REMARK SMILES COc1cc(-c2oc3cc(O)cc(O)c3c(=O)c2O)ccc1O
REMARK SMILES IDX 6 1 18 2 16 3 17 4 15 5 13 6 12 7 10 8 9 9 8 10 7 11 5 12
REMARK SMILES IDX 3 13 22 14 4 15 21 16 20 17 2 18 1 19 23 20 19 22 14 24
REMARK SMILES IDX 11 26
REMARK H PARENT 23 21 19 23 14 25 11 27
REMARK Flexibility Score: inf
ROOT
ATOM      1  C   UNL     1      10.801  -6.364 -10.618  1.00  0.00     0.180 A 
ATOM      2  C   UNL     1      10.943  -7.691 -11.058  1.00  0.00     0.208 A 
ATOM      3  C   UNL     1      12.126  -8.068 -11.713  1.00  0.00     0.238 A 
ATOM      4  O   UNL     1      12.269  -9.270 -12.056  1.00  0.00    -0.285 OA
ATOM      5  C   UNL     1      13.145  -7.111 -11.935  1.00  0.00     0.111 A 
ATOM      6  C   UNL     1      14.368  -7.372 -12.623  1.00  0.00     0.134 A 
ATOM      7  C   UNL     1      15.360  -6.385 -12.669  1.00  0.00     0.093 A 
ATOM      8  C   UNL     1      15.146  -5.123 -12.109  1.00  0.00     0.123 A 
ATOM      9  C   UNL     1      13.933  -4.839 -11.487  1.00  0.00     0.094 A 
ATOM     10  C   UNL     1      12.938  -5.815 -11.393  1.00  0.00     0.146 A 
ATOM     11  O   UNL     1      11.801  -5.506 -10.782  1.00  0.00    -0.452 OA
ENDROOT
BRANCH   1  12
ATOM     12  C   UNL     1       9.574  -5.885  -9.942  1.00  0.00     0.025 A 
ATOM     13  C   UNL     1       8.279  -5.612  -7.884  1.00  0.00     0.161 A 
ATOM     14  C   UNL     1       7.286  -4.936  -8.607  1.00  0.00     0.157 A 
ATOM     15  C   UNL     1       9.426  -6.079  -8.558  1.00  0.00     0.062 A 
ATOM     16  C   UNL     1       7.440  -4.723  -9.983  1.00  0.00     0.051 A 
ATOM     17  C   UNL     1       8.578  -5.187 -10.645  1.00  0.00     0.016 A 
BRANCH  13  18
ATOM     18  O   UNL     1       8.093  -5.800  -6.506  1.00  0.00    -0.493 OA
ATOM     19  C   UNL     1       8.967  -5.301  -5.499  1.00  0.00     0.278 C 
ENDBRANCH  13  18
BRANCH  14  20
ATOM     20  O   UNL     1       6.148  -4.474  -7.948  1.00  0.00    -0.504 OA
ATOM     21  H   UNL     1       5.620  -5.069  -7.320  1.00  0.00     0.293 HD
ENDBRANCH  14  20
ENDBRANCH   1  12
BRANCH   2  22
ATOM     22  O   UNL     1       9.934  -8.625 -10.810  1.00  0.00    -0.502 OA
ATOM     23  H   UNL     1       9.190  -8.459 -10.143  1.00  0.00     0.293 HD
ENDBRANCH   2  22
BRANCH   6  24
ATOM     24  O   UNL     1      14.644  -8.566 -13.296  1.00  0.00    -0.507 OA
ATOM     25  H   UNL     1      13.983  -9.316 -13.431  1.00  0.00     0.293 HD
ENDBRANCH   6  24
BRANCH   8  26
ATOM     26  O   UNL     1      16.133  -4.142 -12.173  1.00  0.00    -0.508 OA
ATOM     27  H   UNL     1      16.983  -4.278 -12.706  1.00  0.00     0.293 HD
ENDBRANCH   8  26
TORSDOF 6
ENDMDL
MODEL 9
REMARK VINA RESULT:    -6.185      7.166     10.000
REMARK INTER + INTRA:          -7.287
REMARK INTER:                  -6.907
REMARK INTRA:                  -0.380
REMARK UNBOUND:                 0.344
REMARK SMILES COc1cc(-c2oc3cc(O)cc(O)c3c(=O)c2O)ccc1O
REMARK SMILES IDX 6 1 18 2 16 3 17 4 15 5 13 6 12 7 10 8 9 9 8 10 7 11 5 12
REMARK SMILES IDX 3 13 22 14 4 15 21 16 20 17 2 18 1 19 23 20 19 22 14 24
REMARK SMILES IDX 11 26
REMARK H PARENT 23 21 19 23 14 25 11 27
REMARK Flexibility Score: inf
ROOT
ATOM      1  C   UNL     1      17.961  -2.323  -8.980  1.00  0.00     0.180 A 
ATOM      2  C   UNL     1      17.266  -1.102  -9.042  1.00  0.00     0.208 A 
ATOM      3  C   UNL     1      16.231  -0.955  -9.979  1.00  0.00     0.238 A 
ATOM      4  O   UNL     1      15.578   0.121  -9.993  1.00  0.00    -0.285 OA
ATOM      5  C   UNL     1      15.915  -2.021 -10.854  1.00  0.00     0.111 A 
ATOM      6  C   UNL     1      14.912  -1.968 -11.870  1.00  0.00     0.134 A 
ATOM      7  C   UNL     1      14.596  -3.127 -12.588  1.00  0.00     0.093 A 
ATOM      8  C   UNL     1      15.291  -4.320 -12.375  1.00  0.00     0.123 A 
ATOM      9  C   UNL     1      16.311  -4.366 -11.428  1.00  0.00     0.094 A 
ATOM     10  C   UNL     1      16.625  -3.237 -10.669  1.00  0.00     0.146 A 
ATOM     11  O   UNL     1      17.597  -3.327  -9.769  1.00  0.00    -0.452 OA
ENDROOT
BRANCH   1  12
ATOM     12  C   UNL     1      19.079  -2.546  -8.036  1.00  0.00     0.025 A 
ATOM     13  C   UNL     1      21.482  -2.517  -7.581  1.00  0.00     0.161 A 
ATOM     14  C   UNL     1      21.229  -2.900  -6.256  1.00  0.00     0.157 A 
ATOM     15  C   UNL     1      20.400  -2.334  -8.465  1.00  0.00     0.062 A 
ATOM     16  C   UNL     1      19.912  -3.093  -5.819  1.00  0.00     0.051 A 
ATOM     17  C   UNL     1      18.844  -2.911  -6.700  1.00  0.00     0.016 A 
BRANCH  13  18
ATOM     18  O   UNL     1      22.814  -2.326  -7.979  1.00  0.00    -0.493 OA
ATOM     19  C   UNL     1      23.600  -3.299  -8.660  1.00  0.00     0.278 C 
ENDBRANCH  13  18
BRANCH  14  20
ATOM     20  O   UNL     1      22.294  -3.085  -5.377  1.00  0.00    -0.504 OA
ATOM     21  H   UNL     1      23.194  -3.425  -5.697  1.00  0.00     0.293 HD
ENDBRANCH  14  20
ENDBRANCH   1  12
BRANCH   2  22
ATOM     22  O   UNL     1      17.580  -0.069  -8.155  1.00  0.00    -0.502 OA
ATOM     23  H   UNL     1      17.461  -0.157  -7.153  1.00  0.00     0.293 HD
ENDBRANCH   2  22
BRANCH   6  24
ATOM     24  O   UNL     1      14.225  -0.805 -12.225  1.00  0.00    -0.507 OA
ATOM     25  H   UNL     1      13.429  -0.433 -11.729  1.00  0.00     0.293 HD
ENDBRANCH   6  24
BRANCH   8  26
ATOM     26  O   UNL     1      14.979  -5.464 -13.106  1.00  0.00    -0.508 OA
ATOM     27  H   UNL     1      14.715  -5.413 -14.083  1.00  0.00     0.293 HD
ENDBRANCH   8  26
TORSDOF 6
ENDMDL
