MODEL 1
REMARK VINA RESULT:    -4.552      0.000      0.000
REMARK INTER + INTRA:          -4.685
REMARK INTER:                  -4.685
REMARK INTRA:                   0.000
REMARK UNBOUND:                 0.000
REMARK SMILES Cc1cccc(O)c1C
REMARK SMILES IDX 1 1 2 2 8 3 6 4 5 5 4 6 3 7 9 8 7 9
REMARK H PARENT 7 10
REMARK Flexibility Score: inf
ROOT
ATOM      1  C   UNL     1     -13.970  44.772  30.507  1.00  0.00     0.045 C 
ATOM      2  C   UNL     1     -15.194  44.543  31.356  1.00  0.00    -0.045 A 
ATOM      3  C   UNL     1     -16.495  44.423  30.789  1.00  0.00    -0.006 A 
ATOM      4  C   UNL     1     -17.602  44.209  31.648  1.00  0.00     0.118 A 
ATOM      5  C   UNL     1     -17.410  44.120  33.030  1.00  0.00     0.046 A 
ATOM      6  C   UNL     1     -16.136  44.240  33.577  1.00  0.00     0.004 A 
ATOM      7  C   UNL     1     -15.036  44.450  32.749  1.00  0.00     0.004 A 
ATOM      8  C   UNL     1     -16.725  44.516  29.297  1.00  0.00     0.048 C 
ENDROOT
BRANCH   4   9
ATOM      9  O   UNL     1     -18.906  44.081  31.164  1.00  0.00    -0.508 OA
ATOM     10  H   UNL     1     -19.702  44.559  31.568  1.00  0.00     0.293 HD
ENDBRANCH   4   9
TORSDOF 1
ENDMDL
MODEL 2
REMARK VINA RESULT:    -4.548      0.998      2.742
REMARK INTER + INTRA:          -4.681
REMARK INTER:                  -4.681
REMARK INTRA:                   0.000
REMARK UNBOUND:                 0.000
REMARK SMILES Cc1cccc(O)c1C
REMARK SMILES IDX 1 1 2 2 8 3 6 4 5 5 4 6 3 7 9 8 7 9
REMARK H PARENT 7 10
REMARK Flexibility Score: inf
ROOT
ATOM      1  C   UNL     1     -14.439  44.174  34.199  1.00  0.00     0.045 C 
ATOM      2  C   UNL     1     -14.905  44.403  32.784  1.00  0.00    -0.045 A 
ATOM      3  C   UNL     1     -16.286  44.467  32.446  1.00  0.00    -0.006 A 
ATOM      4  C   UNL     1     -16.654  44.684  31.094  1.00  0.00     0.118 A 
ATOM      5  C   UNL     1     -15.667  44.831  30.115  1.00  0.00     0.046 A 
ATOM      6  C   UNL     1     -14.318  44.766  30.453  1.00  0.00     0.004 A 
ATOM      7  C   UNL     1     -13.938  44.554  31.775  1.00  0.00     0.004 A 
ATOM      8  C   UNL     1     -17.370  44.311  33.489  1.00  0.00     0.048 C 
ENDROOT
BRANCH   4   9
ATOM      9  O   UNL     1     -17.988  44.759  30.688  1.00  0.00    -0.508 OA
ATOM     10  H   UNL     1     -18.611  43.961  30.666  1.00  0.00     0.293 HD
ENDBRANCH   4   9
TORSDOF 1
ENDMDL
MODEL 3
REMARK VINA RESULT:    -4.434      2.701      3.651
REMARK INTER + INTRA:          -4.564
REMARK INTER:                  -4.564
REMARK INTRA:                   0.000
REMARK UNBOUND:                 0.000
REMARK SMILES Cc1cccc(O)c1C
REMARK SMILES IDX 1 1 2 2 8 3 6 4 5 5 4 6 3 7 9 8 7 9
REMARK H PARENT 7 10
REMARK Flexibility Score: inf
ROOT
ATOM      1  C   UNL     1     -14.400  44.440  30.137  1.00  0.00     0.045 C 
ATOM      2  C   UNL     1     -14.639  44.442  31.625  1.00  0.00    -0.045 A 
ATOM      3  C   UNL     1     -13.567  44.446  32.562  1.00  0.00    -0.006 A 
ATOM      4  C   UNL     1     -13.865  44.447  33.948  1.00  0.00     0.118 A 
ATOM      5  C   UNL     1     -15.195  44.444  34.378  1.00  0.00     0.046 A 
ATOM      6  C   UNL     1     -16.237  44.440  33.457  1.00  0.00     0.004 A 
ATOM      7  C   UNL     1     -15.964  44.439  32.092  1.00  0.00     0.004 A 
ATOM      8  C   UNL     1     -12.121  44.449  32.118  1.00  0.00     0.048 C 
ENDROOT
BRANCH   4   9
ATOM      9  O   UNL     1     -12.866  44.451  34.925  1.00  0.00    -0.508 OA
ATOM     10  H   UNL     1     -12.175  45.186  35.015  1.00  0.00     0.293 HD
ENDBRANCH   4   9
TORSDOF 1
ENDMDL
MODEL 4
REMARK VINA RESULT:    -4.393      2.568      4.157
REMARK INTER + INTRA:          -4.521
REMARK INTER:                  -4.521
REMARK INTRA:                   0.000
REMARK UNBOUND:                 0.000
REMARK SMILES Cc1cccc(O)c1C
REMARK SMILES IDX 1 1 2 2 8 3 6 4 5 5 4 6 3 7 9 8 7 9
REMARK H PARENT 7 10
REMARK Flexibility Score: inf
ROOT
ATOM      1  C   UNL     1     -16.369  44.522  30.910  1.00  0.00     0.045 C 
ATOM      2  C   UNL     1     -14.964  44.511  31.454  1.00  0.00    -0.045 A 
ATOM      3  C   UNL     1     -14.695  44.498  32.852  1.00  0.00    -0.006 A 
ATOM      4  C   UNL     1     -13.348  44.488  33.293  1.00  0.00     0.118 A 
ATOM      5  C   UNL     1     -12.306  44.493  32.362  1.00  0.00     0.046 A 
ATOM      6  C   UNL     1     -12.576  44.506  30.997  1.00  0.00     0.004 A 
ATOM      7  C   UNL     1     -13.892  44.515  30.544  1.00  0.00     0.004 A 
ATOM      8  C   UNL     1     -15.807  44.492  33.877  1.00  0.00     0.048 C 
ENDROOT
BRANCH   4   9
ATOM      9  O   UNL     1     -13.008  44.475  34.649  1.00  0.00    -0.508 OA
ATOM     10  H   UNL     1     -13.198  45.244  35.279  1.00  0.00     0.293 HD
ENDBRANCH   4   9
TORSDOF 1
ENDMDL
MODEL 5
REMARK VINA RESULT:    -4.374      2.375      3.400
REMARK INTER + INTRA:          -4.502
REMARK INTER:                  -4.502
REMARK INTRA:                   0.000
REMARK UNBOUND:                 0.000
REMARK SMILES Cc1cccc(O)c1C
REMARK SMILES IDX 1 1 2 2 8 3 6 4 5 5 4 6 3 7 9 8 7 9
REMARK H PARENT 7 10
REMARK Flexibility Score: inf
ROOT
ATOM      1  C   UNL     1     -17.502  40.168  32.185  1.00  0.00     0.045 C 
ATOM      2  C   UNL     1     -17.995  41.577  32.395  1.00  0.00    -0.045 A 
ATOM      3  C   UNL     1     -17.570  42.656  31.569  1.00  0.00    -0.006 A 
ATOM      4  C   UNL     1     -18.075  43.956  31.823  1.00  0.00     0.118 A 
ATOM      5  C   UNL     1     -18.974  44.166  32.872  1.00  0.00     0.046 A 
ATOM      6  C   UNL     1     -19.385  43.106  33.676  1.00  0.00     0.004 A 
ATOM      7  C   UNL     1     -18.901  41.822  33.441  1.00  0.00     0.004 A 
ATOM      8  C   UNL     1     -16.598  42.452  30.429  1.00  0.00     0.048 C 
ENDROOT
BRANCH   4   9
ATOM      9  O   UNL     1     -17.703  45.063  31.055  1.00  0.00    -0.508 OA
ATOM     10  H   UNL     1     -16.883  45.080  30.461  1.00  0.00     0.293 HD
ENDBRANCH   4   9
TORSDOF 1
ENDMDL
MODEL 6
REMARK VINA RESULT:    -4.359      1.993      3.043
REMARK INTER + INTRA:          -4.486
REMARK INTER:                  -4.486
REMARK INTRA:                   0.000
REMARK UNBOUND:                 0.000
REMARK SMILES Cc1cccc(O)c1C
REMARK SMILES IDX 1 1 2 2 8 3 6 4 5 5 4 6 3 7 9 8 7 9
REMARK H PARENT 7 10
REMARK Flexibility Score: inf
ROOT
ATOM      1  C   UNL     1     -16.769  44.895  30.152  1.00  0.00     0.045 C 
ATOM      2  C   UNL     1     -17.039  44.129  31.421  1.00  0.00    -0.045 A 
ATOM      3  C   UNL     1     -16.039  43.938  32.416  1.00  0.00    -0.006 A 
ATOM      4  C   UNL     1     -16.362  43.206  33.586  1.00  0.00     0.118 A 
ATOM      5  C   UNL     1     -17.647  42.682  33.750  1.00  0.00     0.046 A 
ATOM      6  C   UNL     1     -18.620  42.871  32.774  1.00  0.00     0.004 A 
ATOM      7  C   UNL     1     -18.321  43.588  31.618  1.00  0.00     0.004 A 
ATOM      8  C   UNL     1     -14.642  44.497  32.258  1.00  0.00     0.048 C 
ENDROOT
BRANCH   4   9
ATOM      9  O   UNL     1     -15.432  42.980  34.604  1.00  0.00    -0.508 OA
ATOM     10  H   UNL     1     -15.123  42.057  34.883  1.00  0.00     0.293 HD
ENDBRANCH   4   9
TORSDOF 1
ENDMDL
MODEL 7
REMARK VINA RESULT:    -4.358      1.706      2.392
REMARK INTER + INTRA:          -4.485
REMARK INTER:                  -4.485
REMARK INTRA:                   0.000
REMARK UNBOUND:                 0.000
REMARK SMILES Cc1cccc(O)c1C
REMARK SMILES IDX 1 1 2 2 8 3 6 4 5 5 4 6 3 7 9 8 7 9
REMARK H PARENT 7 10
REMARK Flexibility Score: inf
ROOT
ATOM      1  C   UNL     1     -14.783  42.912  32.891  1.00  0.00     0.045 C 
ATOM      2  C   UNL     1     -16.284  42.808  32.988  1.00  0.00    -0.045 A 
ATOM      3  C   UNL     1     -17.148  43.524  32.112  1.00  0.00    -0.006 A 
ATOM      4  C   UNL     1     -18.551  43.380  32.261  1.00  0.00     0.118 A 
ATOM      5  C   UNL     1     -19.067  42.544  33.255  1.00  0.00     0.046 A 
ATOM      6  C   UNL     1     -18.216  41.848  34.108  1.00  0.00     0.004 A 
ATOM      7  C   UNL     1     -16.836  41.977  33.977  1.00  0.00     0.004 A 
ATOM      8  C   UNL     1     -16.611  44.433  31.029  1.00  0.00     0.048 C 
ENDROOT
BRANCH   4   9
ATOM      9  O   UNL     1     -19.460  44.051  31.439  1.00  0.00    -0.508 OA
ATOM     10  H   UNL     1     -20.446  43.828  31.398  1.00  0.00     0.293 HD
ENDBRANCH   4   9
TORSDOF 1
ENDMDL
MODEL 8
REMARK VINA RESULT:    -4.341      2.417      3.221
REMARK INTER + INTRA:          -4.468
REMARK INTER:                  -4.468
REMARK INTRA:                   0.000
REMARK UNBOUND:                 0.000
REMARK SMILES Cc1cccc(O)c1C
REMARK SMILES IDX 1 1 2 2 8 3 6 4 5 5 4 6 3 7 9 8 7 9
REMARK H PARENT 7 10
REMARK Flexibility Score: inf
ROOT
ATOM      1  C   UNL     1     -17.149  44.751  30.913  1.00  0.00     0.045 C 
ATOM      2  C   UNL     1     -17.796  43.756  31.843  1.00  0.00    -0.045 A 
ATOM      3  C   UNL     1     -17.525  42.361  31.762  1.00  0.00    -0.006 A 
ATOM      4  C   UNL     1     -18.170  41.482  32.669  1.00  0.00     0.118 A 
ATOM      5  C   UNL     1     -19.057  41.987  33.624  1.00  0.00     0.046 A 
ATOM      6  C   UNL     1     -19.316  43.352  33.696  1.00  0.00     0.004 A 
ATOM      7  C   UNL     1     -18.693  44.231  32.814  1.00  0.00     0.004 A 
ATOM      8  C   UNL     1     -16.569  41.792  30.737  1.00  0.00     0.048 C 
ENDROOT
BRANCH   4   9
ATOM      9  O   UNL     1     -17.953  40.102  32.649  1.00  0.00    -0.508 OA
ATOM     10  H   UNL     1     -17.212  39.660  32.119  1.00  0.00     0.293 HD
ENDBRANCH   4   9
TORSDOF 1
ENDMDL
MODEL 9
REMARK VINA RESULT:    -4.254      1.963      2.969
REMARK INTER + INTRA:          -4.378
REMARK INTER:                  -4.378
REMARK INTRA:                   0.000
REMARK UNBOUND:                 0.000
REMARK SMILES Cc1cccc(O)c1C
REMARK SMILES IDX 1 1 2 2 8 3 6 4 5 5 4 6 3 7 9 8 7 9
REMARK H PARENT 7 10
REMARK Flexibility Score: inf
ROOT
ATOM      1  C   UNL     1     -18.261  43.778  31.889  1.00  0.00     0.045 C 
ATOM      2  C   UNL     1     -16.819  44.111  32.169  1.00  0.00    -0.045 A 
ATOM      3  C   UNL     1     -15.920  44.504  31.137  1.00  0.00    -0.006 A 
ATOM      4  C   UNL     1     -14.575  44.802  31.473  1.00  0.00     0.118 A 
ATOM      5  C   UNL     1     -14.148  44.709  32.801  1.00  0.00     0.046 A 
ATOM      6  C   UNL     1     -15.032  44.324  33.804  1.00  0.00     0.004 A 
ATOM      7  C   UNL     1     -16.356  44.027  33.494  1.00  0.00     0.004 A 
ATOM      8  C   UNL     1     -16.361  44.611  29.695  1.00  0.00     0.048 C 
ENDROOT
BRANCH   4   9
ATOM      9  O   UNL     1     -13.637  45.194  30.514  1.00  0.00    -0.508 OA
ATOM     10  H   UNL     1     -12.792  44.674  30.315  1.00  0.00     0.293 HD
ENDBRANCH   4   9
TORSDOF 1
ENDMDL
