MODEL 1
REMARK VINA RESULT:    -5.026      0.000      0.000
REMARK INTER + INTRA:          -5.344
REMARK INTER:                  -5.320
REMARK INTRA:                  -0.024
REMARK UNBOUND:                -0.024
REMARK SMILES O=C([O-])c1cccnc1
REMARK SMILES IDX 4 1 5 2 9 3 6 4 8 5 7 6 2 7 1 8 3 9
REMARK H PARENT
REMARK Flexibility Score: inf
ROOT
ATOM      1  C   UNL     1     -21.726  24.871  -4.765  1.00  0.00     0.016 A 
ATOM      2  C   UNL     1     -21.748  24.243  -3.508  1.00  0.00     0.013 A 
ATOM      3  C   UNL     1     -22.606  25.945  -4.990  1.00  0.00     0.120 A 
ATOM      4  C   UNL     1     -22.627  24.686  -2.519  1.00  0.00     0.021 A 
ATOM      5  N   UNL     1     -23.452  26.356  -4.009  1.00  0.00    -0.264 NA
ATOM      6  C   UNL     1     -23.481  25.754  -2.790  1.00  0.00     0.111 A 
ENDROOT
BRANCH   1   7
ATOM      7  C   UNL     1     -20.802  24.419  -5.827  1.00  0.00     0.073 C 
ATOM      8  O   UNL     1     -20.731  25.041  -6.921  1.00  0.00    -0.545 OA
ATOM      9  O   UNL     1     -19.998  23.303  -5.633  1.00  0.00    -0.545 OA
ENDBRANCH   1   7
TORSDOF 1
ENDMDL
MODEL 2
REMARK VINA RESULT:    -4.915      1.439      2.357
REMARK INTER + INTRA:          -5.226
REMARK INTER:                  -5.202
REMARK INTRA:                  -0.023
REMARK UNBOUND:                -0.024
REMARK SMILES O=C([O-])c1cccnc1
REMARK SMILES IDX 4 1 5 2 9 3 6 4 8 5 7 6 2 7 1 8 3 9
REMARK H PARENT
REMARK Flexibility Score: inf
ROOT
ATOM      1  C   UNL     1     -21.372  24.150  -4.264  1.00  0.00     0.016 A 
ATOM      2  C   UNL     1     -21.468  24.865  -5.470  1.00  0.00     0.013 A 
ATOM      3  C   UNL     1     -22.109  24.606  -3.157  1.00  0.00     0.120 A 
ATOM      4  C   UNL     1     -22.278  25.998  -5.550  1.00  0.00     0.021 A 
ATOM      5  N   UNL     1     -22.891  25.714  -3.262  1.00  0.00    -0.264 NA
ATOM      6  C   UNL     1     -22.989  26.412  -4.424  1.00  0.00     0.111 A 
ENDROOT
BRANCH   1   7
ATOM      7  C   UNL     1     -20.520  22.945  -4.157  1.00  0.00     0.073 C 
ATOM      8  O   UNL     1     -19.602  22.735  -4.994  1.00  0.00    -0.545 OA
ATOM      9  O   UNL     1     -20.720  22.031  -3.131  1.00  0.00    -0.545 OA
ENDBRANCH   1   7
TORSDOF 1
ENDMDL
MODEL 3
REMARK VINA RESULT:    -4.679      2.290      3.076
REMARK INTER + INTRA:          -4.976
REMARK INTER:                  -4.952
REMARK INTRA:                  -0.024
REMARK UNBOUND:                -0.024
REMARK SMILES O=C([O-])c1cccnc1
REMARK SMILES IDX 4 1 5 2 9 3 6 4 8 5 7 6 2 7 1 8 3 9
REMARK H PARENT
REMARK Flexibility Score: inf
ROOT
ATOM      1  C   UNL     1     -21.504  23.942  -3.993  1.00  0.00     0.016 A 
ATOM      2  C   UNL     1     -22.462  24.912  -3.652  1.00  0.00     0.013 A 
ATOM      3  C   UNL     1     -20.827  24.074  -5.217  1.00  0.00     0.120 A 
ATOM      4  C   UNL     1     -22.722  25.975  -4.518  1.00  0.00     0.021 A 
ATOM      5  N   UNL     1     -21.099  25.118  -6.043  1.00  0.00    -0.264 NA
ATOM      6  C   UNL     1     -22.024  26.062  -5.723  1.00  0.00     0.111 A 
ENDROOT
BRANCH   1   7
ATOM      7  C   UNL     1     -21.212  22.808  -3.088  1.00  0.00     0.073 C 
ATOM      8  O   UNL     1     -21.837  22.680  -2.002  1.00  0.00    -0.545 OA
ATOM      9  O   UNL     1     -20.246  21.869  -3.426  1.00  0.00    -0.545 OA
ENDBRANCH   1   7
TORSDOF 1
ENDMDL
MODEL 4
REMARK VINA RESULT:    -4.594     11.797     12.650
REMARK INTER + INTRA:          -4.886
REMARK INTER:                  -4.863
REMARK INTRA:                  -0.023
REMARK UNBOUND:                -0.024
REMARK SMILES O=C([O-])c1cccnc1
REMARK SMILES IDX 4 1 5 2 9 3 6 4 8 5 7 6 2 7 1 8 3 9
REMARK H PARENT
REMARK Flexibility Score: inf
ROOT
ATOM      1  C   UNL     1     -15.683  33.980 -10.300  1.00  0.00     0.016 A 
ATOM      2  C   UNL     1     -17.006  33.829  -9.852  1.00  0.00     0.013 A 
ATOM      3  C   UNL     1     -15.380  33.612 -11.623  1.00  0.00     0.120 A 
ATOM      4  C   UNL     1     -17.983  33.326 -10.710  1.00  0.00     0.021 A 
ATOM      5  N   UNL     1     -16.352  33.124 -12.438  1.00  0.00    -0.264 NA
ATOM      6  C   UNL     1     -17.634  32.974 -12.014  1.00  0.00     0.111 A 
ENDROOT
BRANCH   1   7
ATOM      7  C   UNL     1     -14.631  34.513  -9.406  1.00  0.00     0.073 C 
ATOM      8  O   UNL     1     -14.741  34.409  -8.156  1.00  0.00    -0.545 OA
ATOM      9  O   UNL     1     -13.506  35.133  -9.935  1.00  0.00    -0.545 OA
ENDBRANCH   1   7
TORSDOF 1
ENDMDL
MODEL 5
REMARK VINA RESULT:    -4.576      2.825      3.884
REMARK INTER + INTRA:          -4.867
REMARK INTER:                  -4.843
REMARK INTRA:                  -0.024
REMARK UNBOUND:                -0.024
REMARK SMILES O=C([O-])c1cccnc1
REMARK SMILES IDX 4 1 5 2 9 3 6 4 8 5 7 6 2 7 1 8 3 9
REMARK H PARENT
REMARK Flexibility Score: inf
ROOT
ATOM      1  C   UNL     1     -21.962  24.808  -4.137  1.00  0.00     0.016 A 
ATOM      2  C   UNL     1     -21.634  25.192  -5.448  1.00  0.00     0.013 A 
ATOM      3  C   UNL     1     -21.267  23.728  -3.564  1.00  0.00     0.120 A 
ATOM      4  C   UNL     1     -20.641  24.509  -6.151  1.00  0.00     0.021 A 
ATOM      5  N   UNL     1     -20.304  23.079  -4.271  1.00  0.00    -0.264 NA
ATOM      6  C   UNL     1     -19.980  23.443  -5.540  1.00  0.00     0.111 A 
ENDROOT
BRANCH   1   7
ATOM      7  C   UNL     1     -23.010  25.519  -3.373  1.00  0.00     0.073 C 
ATOM      8  O   UNL     1     -23.581  26.531  -3.861  1.00  0.00    -0.545 OA
ATOM      9  O   UNL     1     -23.381  25.079  -2.109  1.00  0.00    -0.545 OA
ENDBRANCH   1   7
TORSDOF 1
ENDMDL
MODEL 6
REMARK VINA RESULT:    -4.477      2.532      3.404
REMARK INTER + INTRA:          -4.763
REMARK INTER:                  -4.740
REMARK INTRA:                  -0.023
REMARK UNBOUND:                -0.024
REMARK SMILES O=C([O-])c1cccnc1
REMARK SMILES IDX 4 1 5 2 9 3 6 4 8 5 7 6 2 7 1 8 3 9
REMARK H PARENT
REMARK Flexibility Score: inf
ROOT
ATOM      1  C   UNL     1     -21.859  24.393  -3.905  1.00  0.00     0.016 A 
ATOM      2  C   UNL     1     -20.797  23.802  -4.611  1.00  0.00     0.013 A 
ATOM      3  C   UNL     1     -22.594  25.413  -4.534  1.00  0.00     0.120 A 
ATOM      4  C   UNL     1     -20.492  24.229  -5.904  1.00  0.00     0.021 A 
ATOM      5  N   UNL     1     -22.276  25.810  -5.795  1.00  0.00    -0.264 NA
ATOM      6  C   UNL     1     -21.250  25.245  -6.486  1.00  0.00     0.111 A 
ENDROOT
BRANCH   1   7
ATOM      7  C   UNL     1     -22.200  23.955  -2.534  1.00  0.00     0.073 C 
ATOM      8  O   UNL     1     -22.861  24.706  -1.768  1.00  0.00    -0.545 OA
ATOM      9  O   UNL     1     -21.797  22.708  -2.072  1.00  0.00    -0.545 OA
ENDBRANCH   1   7
TORSDOF 1
ENDMDL
MODEL 7
REMARK VINA RESULT:    -4.290     19.418     19.626
REMARK INTER + INTRA:          -4.564
REMARK INTER:                  -4.541
REMARK INTRA:                  -0.023
REMARK UNBOUND:                -0.024
REMARK SMILES O=C([O-])c1cccnc1
REMARK SMILES IDX 4 1 5 2 9 3 6 4 8 5 7 6 2 7 1 8 3 9
REMARK H PARENT
REMARK Flexibility Score: inf
ROOT
ATOM      1  C   UNL     1      -6.192  34.136   1.366  1.00  0.00     0.016 A 
ATOM      2  C   UNL     1      -5.039  33.432   1.750  1.00  0.00     0.013 A 
ATOM      3  C   UNL     1      -6.140  35.540   1.342  1.00  0.00     0.120 A 
ATOM      4  C   UNL     1      -3.878  34.124   2.095  1.00  0.00     0.021 A 
ATOM      5  N   UNL     1      -4.996  36.190   1.683  1.00  0.00    -0.264 NA
ATOM      6  C   UNL     1      -3.875  35.518   2.055  1.00  0.00     0.111 A 
ENDROOT
BRANCH   1   7
ATOM      7  C   UNL     1      -7.434  33.421   0.996  1.00  0.00     0.073 C 
ATOM      8  O   UNL     1      -8.332  34.003   0.330  1.00  0.00    -0.545 OA
ATOM      9  O   UNL     1      -7.625  32.099   1.375  1.00  0.00    -0.545 OA
ENDBRANCH   1   7
TORSDOF 1
ENDMDL
MODEL 8
REMARK VINA RESULT:    -3.760     19.337     19.641
REMARK INTER + INTRA:          -4.003
REMARK INTER:                  -3.982
REMARK INTRA:                  -0.022
REMARK UNBOUND:                -0.024
REMARK SMILES O=C([O-])c1cccnc1
REMARK SMILES IDX 4 1 5 2 9 3 6 4 8 5 7 6 2 7 1 8 3 9
REMARK H PARENT
REMARK Flexibility Score: inf
ROOT
ATOM      1  C   UNL     1      -6.051  34.343   0.781  1.00  0.00     0.016 A 
ATOM      2  C   UNL     1      -4.784  34.134   0.212  1.00  0.00     0.013 A 
ATOM      3  C   UNL     1      -6.505  35.665   0.934  1.00  0.00     0.120 A 
ATOM      4  C   UNL     1      -4.007  35.222  -0.187  1.00  0.00     0.021 A 
ATOM      5  N   UNL     1      -5.727  36.707   0.537  1.00  0.00    -0.264 NA
ATOM      6  C   UNL     1      -4.500  36.516  -0.014  1.00  0.00     0.111 A 
ENDROOT
BRANCH   1   7
ATOM      7  C   UNL     1      -6.892  33.204   1.210  1.00  0.00     0.073 C 
ATOM      8  O   UNL     1      -8.148  33.298   1.204  1.00  0.00    -0.545 OA
ATOM      9  O   UNL     1      -6.307  32.014   1.623  1.00  0.00    -0.545 OA
ENDBRANCH   1   7
TORSDOF 1
ENDMDL
