MODEL 1
REMARK VINA RESULT:    -1.656      0.000      0.000
REMARK INTER + INTRA:          -2.849
REMARK INTER:                  -2.527
REMARK INTRA:                  -0.323
REMARK UNBOUND:                -0.323
REMARK SMILES O=C([O-])CCCCCCCCC(=O)[O-]
REMARK SMILES IDX 7 1 6 2 5 3 4 4 2 5 1 6 3 7 8 8 9 9 10 10 11 11 12 12 13 13
REMARK SMILES IDX 14 14
REMARK H PARENT
REMARK Flexibility Score: inf
ROOT
ATOM      1  C   UNL     1      -5.202  35.059  23.921  1.00  0.00     0.000 C 
ENDROOT
BRANCH   1   2
ATOM      2  C   UNL     1      -5.956  34.503  22.708  1.00  0.00     0.000 C 
BRANCH   2   3
ATOM      3  C   UNL     1      -5.737  35.384  21.472  1.00  0.00     0.006 C 
BRANCH   3   4
ATOM      4  C   UNL     1      -4.721  34.748  20.517  1.00  0.00     0.053 C 
BRANCH   4   5
ATOM      5  C   UNL     1      -4.771  35.415  19.179  1.00  0.00     0.041 C 
ATOM      6  O   UNL     1      -4.832  36.670  19.100  1.00  0.00    -0.550 OA
ATOM      7  O   UNL     1      -4.703  34.654  18.019  1.00  0.00    -0.550 OA
ENDBRANCH   4   5
ENDBRANCH   3   4
ENDBRANCH   2   3
ENDBRANCH   1   2
BRANCH   1   8
ATOM      8  C   UNL     1      -6.112  35.948  24.776  1.00  0.00     0.000 C 
BRANCH   8   9
ATOM      9  C   UNL     1      -5.301  37.017  25.517  1.00  0.00     0.000 C 
BRANCH   9  10
ATOM     10  C   UNL     1      -5.184  38.298  24.679  1.00  0.00     0.006 C 
BRANCH  10  11
ATOM     11  C   UNL     1      -6.123  38.286  23.466  1.00  0.00     0.053 C 
BRANCH  11  12
ATOM     12  C   UNL     1      -5.612  39.157  22.359  1.00  0.00     0.041 C 
ATOM     13  O   UNL     1      -4.987  40.218  22.622  1.00  0.00    -0.550 OA
ATOM     14  O   UNL     1      -5.798  38.779  21.035  1.00  0.00    -0.550 OA
ENDBRANCH  11  12
ENDBRANCH  10  11
ENDBRANCH   9  10
ENDBRANCH   8   9
ENDBRANCH   1   8
TORSDOF 9
ENDMDL
MODEL 2
REMARK VINA RESULT:    -1.549      2.287      3.274
REMARK INTER + INTRA:          -2.687
REMARK INTER:                  -2.742
REMARK INTRA:                   0.056
REMARK UNBOUND:                -0.323
REMARK SMILES O=C([O-])CCCCCCCCC(=O)[O-]
REMARK SMILES IDX 7 1 6 2 5 3 4 4 2 5 1 6 3 7 8 8 9 9 10 10 11 11 12 12 13 13
REMARK SMILES IDX 14 14
REMARK H PARENT
REMARK Flexibility Score: inf
ROOT
ATOM      1  C   UNL     1      -5.622  37.772  20.512  1.00  0.00     0.000 C 
ENDROOT
BRANCH   1   2
ATOM      2  C   UNL     1      -5.759  36.450  21.277  1.00  0.00     0.000 C 
BRANCH   2   3
ATOM      3  C   UNL     1      -5.715  35.253  20.319  1.00  0.00     0.006 C 
BRANCH   3   4
ATOM      4  C   UNL     1      -4.466  35.303  19.434  1.00  0.00     0.053 C 
BRANCH   4   5
ATOM      5  C   UNL     1      -4.711  34.589  18.143  1.00  0.00     0.041 C 
ATOM      6  O   UNL     1      -5.647  33.751  18.050  1.00  0.00    -0.550 OA
ATOM      7  O   UNL     1      -3.937  34.882  17.027  1.00  0.00    -0.550 OA
ENDBRANCH   4   5
ENDBRANCH   3   4
ENDBRANCH   2   3
ENDBRANCH   1   2
BRANCH   1   8
ATOM      8  C   UNL     1      -4.800  38.789  21.312  1.00  0.00     0.000 C 
BRANCH   8   9
ATOM      9  C   UNL     1      -5.683  39.548  22.311  1.00  0.00     0.000 C 
BRANCH   9  10
ATOM     10  C   UNL     1      -5.445  39.050  23.744  1.00  0.00     0.006 C 
BRANCH  10  11
ATOM     11  C   UNL     1      -6.125  37.701  24.009  1.00  0.00     0.053 C 
BRANCH  11  12
ATOM     12  C   UNL     1      -5.481  36.968  25.147  1.00  0.00     0.041 C 
ATOM     13  O   UNL     1      -5.711  35.743  25.324  1.00  0.00    -0.550 OA
ATOM     14  O   UNL     1      -4.601  37.632  25.991  1.00  0.00    -0.550 OA
ENDBRANCH  11  12
ENDBRANCH  10  11
ENDBRANCH   9  10
ENDBRANCH   8   9
ENDBRANCH   1   8
TORSDOF 9
ENDMDL
MODEL 3
REMARK VINA RESULT:    -1.520      1.785      5.368
REMARK INTER + INTRA:          -2.643
REMARK INTER:                  -2.813
REMARK INTRA:                   0.170
REMARK UNBOUND:                -0.323
REMARK SMILES O=C([O-])CCCCCCCCC(=O)[O-]
REMARK SMILES IDX 7 1 6 2 5 3 4 4 2 5 1 6 3 7 8 8 9 9 10 10 11 11 12 12 13 13
REMARK SMILES IDX 14 14
REMARK H PARENT
REMARK Flexibility Score: inf
ROOT
ATOM      1  C   UNL     1      -4.821  34.174  23.097  1.00  0.00     0.000 C 
ENDROOT
BRANCH   1   2
ATOM      2  C   UNL     1      -6.125  34.366  23.880  1.00  0.00     0.000 C 
BRANCH   2   3
ATOM      3  C   UNL     1      -6.009  35.536  24.864  1.00  0.00     0.006 C 
BRANCH   3   4
ATOM      4  C   UNL     1      -6.116  36.879  24.137  1.00  0.00     0.053 C 
BRANCH   4   5
ATOM      5  C   UNL     1      -5.340  37.932  24.862  1.00  0.00     0.041 C 
ATOM      6  O   UNL     1      -5.350  39.123  24.452  1.00  0.00    -0.550 OA
ATOM      7  O   UNL     1      -4.643  37.609  26.019  1.00  0.00    -0.550 OA
ENDBRANCH   4   5
ENDBRANCH   3   4
ENDBRANCH   2   3
ENDBRANCH   1   2
BRANCH   1   8
ATOM      8  C   UNL     1      -4.713  35.187  21.950  1.00  0.00     0.000 C 
BRANCH   8   9
ATOM      9  C   UNL     1      -6.055  35.344  21.225  1.00  0.00     0.000 C 
BRANCH   9  10
ATOM     10  C   UNL     1      -5.886  36.141  19.923  1.00  0.00     0.006 C 
BRANCH  10  11
ATOM     11  C   UNL     1      -4.619  35.739  19.158  1.00  0.00     0.053 C 
BRANCH  11  12
ATOM     12  C   UNL     1      -4.882  34.625  18.192  1.00  0.00     0.041 C 
ATOM     13  O   UNL     1      -5.910  33.907  18.316  1.00  0.00    -0.550 OA
ATOM     14  O   UNL     1      -4.010  34.400  17.135  1.00  0.00    -0.550 OA
ENDBRANCH  11  12
ENDBRANCH  10  11
ENDBRANCH   9  10
ENDBRANCH   8   9
ENDBRANCH   1   8
TORSDOF 9
ENDMDL
MODEL 4
REMARK VINA RESULT:    -1.118      2.077      2.736
REMARK INTER + INTRA:          -2.030
REMARK INTER:                  -1.746
REMARK INTRA:                  -0.284
REMARK UNBOUND:                -0.323
REMARK SMILES O=C([O-])CCCCCCCCC(=O)[O-]
REMARK SMILES IDX 7 1 6 2 5 3 4 4 2 5 1 6 3 7 8 8 9 9 10 10 11 11 12 12 13 13
REMARK SMILES IDX 14 14
REMARK H PARENT
REMARK Flexibility Score: inf
ROOT
ATOM      1  C   UNL     1      -5.242  34.962  22.295  1.00  0.00     0.000 C 
ENDROOT
BRANCH   1   2
ATOM      2  C   UNL     1      -6.125  35.226  21.070  1.00  0.00     0.000 C 
BRANCH   2   3
ATOM      3  C   UNL     1      -5.393  36.096  20.041  1.00  0.00     0.006 C 
BRANCH   3   4
ATOM      4  C   UNL     1      -4.260  35.316  19.367  1.00  0.00     0.053 C 
BRANCH   4   5
ATOM      5  C   UNL     1      -4.747  34.667  18.111  1.00  0.00     0.041 C 
ATOM      6  O   UNL     1      -4.159  34.884  17.018  1.00  0.00    -0.550 OA
ATOM      7  O   UNL     1      -5.820  33.787  18.151  1.00  0.00    -0.550 OA
ENDBRANCH   4   5
ENDBRANCH   3   4
ENDBRANCH   2   3
ENDBRANCH   1   2
BRANCH   1   8
ATOM      8  C   UNL     1      -5.939  34.021  23.285  1.00  0.00     0.000 C 
BRANCH   8   9
ATOM      9  C   UNL     1      -6.071  34.671  24.666  1.00  0.00     0.000 C 
BRANCH   9  10
ATOM     10  C   UNL     1      -6.125  36.202  24.550  1.00  0.00     0.006 C 
BRANCH  10  11
ATOM     11  C   UNL     1      -5.837  36.896  25.888  1.00  0.00     0.053 C 
BRANCH  11  12
ATOM     12  C   UNL     1      -4.605  37.745  25.819  1.00  0.00     0.041 C 
ATOM     13  O   UNL     1      -3.585  37.440  26.492  1.00  0.00    -0.550 OA
ATOM     14  O   UNL     1      -4.573  38.856  24.986  1.00  0.00    -0.550 OA
ENDBRANCH  11  12
ENDBRANCH  10  11
ENDBRANCH   9  10
ENDBRANCH   8   9
ENDBRANCH   1   8
TORSDOF 9
ENDMDL
MODEL 5
REMARK VINA RESULT:    -1.089      1.299      4.343
REMARK INTER + INTRA:          -1.984
REMARK INTER:                  -1.614
REMARK INTRA:                  -0.370
REMARK UNBOUND:                -0.323
REMARK SMILES O=C([O-])CCCCCCCCC(=O)[O-]
REMARK SMILES IDX 7 1 6 2 5 3 4 4 2 5 1 6 3 7 8 8 9 9 10 10 11 11 12 12 13 13
REMARK SMILES IDX 14 14
REMARK H PARENT
REMARK Flexibility Score: inf
ROOT
ATOM      1  C   UNL     1      -5.105  37.176  25.820  1.00  0.00     0.000 C 
ENDROOT
BRANCH   1   2
ATOM      2  C   UNL     1      -4.631  38.383  25.002  1.00  0.00     0.000 C 
BRANCH   2   3
ATOM      3  C   UNL     1      -5.753  38.912  24.101  1.00  0.00     0.006 C 
BRANCH   3   4
ATOM      4  C   UNL     1      -5.212  39.927  23.088  1.00  0.00     0.053 C 
BRANCH   4   5
ATOM      5  C   UNL     1      -5.816  39.694  21.740  1.00  0.00     0.041 C 
ATOM      6  O   UNL     1      -6.093  38.524  21.364  1.00  0.00    -0.550 OA
ATOM      7  O   UNL     1      -6.118  40.771  20.917  1.00  0.00    -0.550 OA
ENDBRANCH   4   5
ENDBRANCH   3   4
ENDBRANCH   2   3
ENDBRANCH   1   2
BRANCH   1   8
ATOM      8  C   UNL     1      -6.112  36.334  25.027  1.00  0.00     0.000 C 
BRANCH   8   9
ATOM      9  C   UNL     1      -5.531  34.959  24.682  1.00  0.00     0.000 C 
BRANCH   9  10
ATOM     10  C   UNL     1      -6.004  34.493  23.297  1.00  0.00     0.006 C 
BRANCH  10  11
ATOM     11  C   UNL     1      -6.094  35.650  22.294  1.00  0.00     0.053 C 
BRANCH  11  12
ATOM     12  C   UNL     1      -5.428  35.312  20.995  1.00  0.00     0.041 C 
ATOM     13  O   UNL     1      -6.102  35.257  19.932  1.00  0.00    -0.550 OA
ATOM     14  O   UNL     1      -4.058  35.091  20.953  1.00  0.00    -0.550 OA
ENDBRANCH  11  12
ENDBRANCH  10  11
ENDBRANCH   9  10
ENDBRANCH   8   9
ENDBRANCH   1   8
TORSDOF 9
ENDMDL
MODEL 6
REMARK VINA RESULT:     0.981      2.005      3.571
REMARK INTER + INTRA:           1.175
REMARK INTER:                   1.644
REMARK INTRA:                  -0.469
REMARK UNBOUND:                -0.323
REMARK SMILES O=C([O-])CCCCCCCCC(=O)[O-]
REMARK SMILES IDX 7 1 6 2 5 3 4 4 2 5 1 6 3 7 8 8 9 9 10 10 11 11 12 12 13 13
REMARK SMILES IDX 14 14
REMARK H PARENT
REMARK Flexibility Score: inf
ROOT
ATOM      1  C   UNL     1      -4.315  35.065  21.592  1.00  0.00     0.000 C 
ENDROOT
BRANCH   1   2
ATOM      2  C   UNL     1      -4.718  35.599  20.213  1.00  0.00     0.000 C 
BRANCH   2   3
ATOM      3  C   UNL     1      -5.720  36.753  20.342  1.00  0.00     0.006 C 
BRANCH   3   4
ATOM      4  C   UNL     1      -5.222  37.805  21.338  1.00  0.00     0.053 C 
BRANCH   4   5
ATOM      5  C   UNL     1      -5.790  39.148  21.008  1.00  0.00     0.041 C 
ATOM      6  O   UNL     1      -5.926  40.017  21.911  1.00  0.00    -0.550 OA
ATOM      7  O   UNL     1      -6.125  39.460  19.697  1.00  0.00    -0.550 OA
ENDBRANCH   4   5
ENDBRANCH   3   4
ENDBRANCH   2   3
ENDBRANCH   1   2
BRANCH   1   8
ATOM      8  C   UNL     1      -5.414  34.173  22.182  1.00  0.00     0.000 C 
BRANCH   8   9
ATOM      9  C   UNL     1      -5.642  34.486  23.665  1.00  0.00     0.000 C 
BRANCH   9  10
ATOM     10  C   UNL     1      -6.051  35.953  23.860  1.00  0.00     0.006 C 
BRANCH  10  11
ATOM     11  C   UNL     1      -5.981  36.384  25.331  1.00  0.00     0.053 C 
BRANCH  11  12
ATOM     12  C   UNL     1      -5.095  37.578  25.519  1.00  0.00     0.041 C 
ATOM     13  O   UNL     1      -4.049  37.488  26.214  1.00  0.00    -0.550 OA
ATOM     14  O   UNL     1      -5.407  38.780  24.897  1.00  0.00    -0.550 OA
ENDBRANCH  11  12
ENDBRANCH  10  11
ENDBRANCH   9  10
ENDBRANCH   8   9
ENDBRANCH   1   8
TORSDOF 9
ENDMDL
