MODEL 1
REMARK VINA RESULT:    -1.956      0.000      0.000
REMARK INTER + INTRA:          -2.202
REMARK INTER:                  -2.070
REMARK INTRA:                  -0.131
REMARK UNBOUND:                -0.131
REMARK SMILES C=C(C)[C@H]1CC=C(C)CC1
REMARK SMILES IDX 8 1 7 2 6 3 5 4 4 5 10 6 9 7 2 8 1 9 3 10
REMARK H PARENT
REMARK Flexibility Score: inf
ROOT
ATOM      1  C   UNL     1     -17.529   0.626  17.518  1.00  0.00     0.039 C 
ATOM      2  C   UNL     1     -16.627  -0.531  17.184  1.00  0.00    -0.077 C 
ATOM      3  C   UNL     1     -16.843  -1.220  16.044  1.00  0.00    -0.027 C 
ATOM      4  C   UNL     1     -16.029  -2.428  15.646  1.00  0.00     0.035 C 
ATOM      5  C   UNL     1     -14.650  -2.448  16.330  1.00  0.00     0.018 C 
ATOM      6  C   UNL     1     -14.808  -2.186  17.836  1.00  0.00     0.013 C 
ATOM      7  C   UNL     1     -15.426  -0.802  18.069  1.00  0.00     0.031 C 
ENDROOT
BRANCH   5   8
ATOM      8  C   UNL     1     -13.908  -3.748  16.059  1.00  0.00    -0.077 C 
ATOM      9  C   UNL     1     -12.571  -3.833  16.176  1.00  0.00     0.008 C 
ATOM     10  C   UNL     1     -14.703  -4.956  15.635  1.00  0.00     0.039 C 
ENDBRANCH   5   8
TORSDOF 1
ENDMDL
MODEL 2
REMARK VINA RESULT:    -1.916      0.456      1.652
REMARK INTER + INTRA:          -2.159
REMARK INTER:                  -2.029
REMARK INTRA:                  -0.130
REMARK UNBOUND:                -0.131
REMARK SMILES C=C(C)[C@H]1CC=C(C)CC1
REMARK SMILES IDX 8 1 7 2 6 3 5 4 4 5 10 6 9 7 2 8 1 9 3 10
REMARK H PARENT
REMARK Flexibility Score: inf
ROOT
ATOM      1  C   UNL     1     -17.347   0.631  17.628  1.00  0.00     0.039 C 
ATOM      2  C   UNL     1     -16.540  -0.548  17.157  1.00  0.00    -0.077 C 
ATOM      3  C   UNL     1     -15.522  -0.992  17.922  1.00  0.00    -0.027 C 
ATOM      4  C   UNL     1     -14.621  -2.132  17.512  1.00  0.00     0.035 C 
ATOM      5  C   UNL     1     -15.288  -3.055  16.476  1.00  0.00     0.018 C 
ATOM      6  C   UNL     1     -15.899  -2.214  15.345  1.00  0.00     0.013 C 
ATOM      7  C   UNL     1     -16.979  -1.281  15.904  1.00  0.00     0.031 C 
ENDROOT
BRANCH   5   8
ATOM      8  C   UNL     1     -14.315  -4.096  15.944  1.00  0.00    -0.077 C 
ATOM      9  C   UNL     1     -12.992  -3.860  15.888  1.00  0.00     0.008 C 
ATOM     10  C   UNL     1     -14.865  -5.413  15.460  1.00  0.00     0.039 C 
ENDBRANCH   5   8
TORSDOF 1
ENDMDL
MODEL 3
REMARK VINA RESULT:    -1.367      2.129      3.813
REMARK INTER + INTRA:          -1.579
REMARK INTER:                  -1.453
REMARK INTRA:                  -0.126
REMARK UNBOUND:                -0.131
REMARK SMILES C=C(C)[C@H]1CC=C(C)CC1
REMARK SMILES IDX 8 1 7 2 6 3 5 4 4 5 10 6 9 7 2 8 1 9 3 10
REMARK H PARENT
REMARK Flexibility Score: inf
ROOT
ATOM      1  C   UNL     1     -16.339  -1.962  15.247  1.00  0.00     0.039 C 
ATOM      2  C   UNL     1     -15.714  -1.956  16.616  1.00  0.00    -0.077 C 
ATOM      3  C   UNL     1     -16.179  -1.093  17.544  1.00  0.00    -0.027 C 
ATOM      4  C   UNL     1     -15.584  -0.973  18.926  1.00  0.00     0.035 C 
ATOM      5  C   UNL     1     -14.826  -2.245  19.344  1.00  0.00     0.018 C 
ATOM      6  C   UNL     1     -13.876  -2.682  18.218  1.00  0.00     0.013 C 
ATOM      7  C   UNL     1     -14.674  -3.008  16.950  1.00  0.00     0.031 C 
ENDROOT
BRANCH   5   8
ATOM      8  C   UNL     1     -14.090  -2.053  20.661  1.00  0.00    -0.077 C 
ATOM      9  C   UNL     1     -12.797  -1.681  20.697  1.00  0.00     0.008 C 
ATOM     10  C   UNL     1     -14.836  -2.303  21.946  1.00  0.00     0.039 C 
ENDBRANCH   5   8
TORSDOF 1
ENDMDL
MODEL 4
REMARK VINA RESULT:    -1.182      1.082      4.369
REMARK INTER + INTRA:          -1.383
REMARK INTER:                  -1.255
REMARK INTRA:                  -0.128
REMARK UNBOUND:                -0.131
REMARK SMILES C=C(C)[C@H]1CC=C(C)CC1
REMARK SMILES IDX 8 1 7 2 6 3 5 4 4 5 10 6 9 7 2 8 1 9 3 10
REMARK H PARENT
REMARK Flexibility Score: inf
ROOT
ATOM      1  C   UNL     1     -14.664  -5.017  15.613  1.00  0.00     0.039 C 
ATOM      2  C   UNL     1     -15.113  -3.647  16.042  1.00  0.00    -0.077 C 
ATOM      3  C   UNL     1     -16.181  -3.088  15.436  1.00  0.00    -0.027 C 
ATOM      4  C   UNL     1     -16.675  -1.699  15.757  1.00  0.00     0.035 C 
ATOM      5  C   UNL     1     -16.233  -1.234  17.156  1.00  0.00     0.018 C 
ATOM      6  C   UNL     1     -14.730  -1.494  17.342  1.00  0.00     0.013 C 
ATOM      7  C   UNL     1     -14.435  -2.994  17.232  1.00  0.00     0.031 C 
ENDROOT
BRANCH   5   8
ATOM      8  C   UNL     1     -16.589   0.224  17.403  1.00  0.00    -0.077 C 
ATOM      9  C   UNL     1     -17.863   0.616  17.580  1.00  0.00     0.008 C 
ATOM     10  C   UNL     1     -15.478   1.241  17.432  1.00  0.00     0.039 C 
ENDBRANCH   5   8
TORSDOF 1
ENDMDL
MODEL 5
REMARK VINA RESULT:    -1.178      2.824      4.166
REMARK INTER + INTRA:          -1.378
REMARK INTER:                  -1.251
REMARK INTRA:                  -0.127
REMARK UNBOUND:                -0.131
REMARK SMILES C=C(C)[C@H]1CC=C(C)CC1
REMARK SMILES IDX 8 1 7 2 6 3 5 4 4 5 10 6 9 7 2 8 1 9 3 10
REMARK H PARENT
REMARK Flexibility Score: inf
ROOT
ATOM      1  C   UNL     1     -13.880  -1.837  23.122  1.00  0.00     0.039 C 
ATOM      2  C   UNL     1     -14.138  -2.005  21.650  1.00  0.00    -0.077 C 
ATOM      3  C   UNL     1     -15.371  -2.366  21.238  1.00  0.00    -0.027 C 
ATOM      4  C   UNL     1     -15.716  -2.612  19.789  1.00  0.00     0.035 C 
ATOM      5  C   UNL     1     -14.745  -1.897  18.832  1.00  0.00     0.018 C 
ATOM      6  C   UNL     1     -13.294  -2.175  19.256  1.00  0.00     0.013 C 
ATOM      7  C   UNL     1     -13.042  -1.634  20.668  1.00  0.00     0.031 C 
ENDROOT
BRANCH   5   8
ATOM      8  C   UNL     1     -14.995  -2.287  17.384  1.00  0.00    -0.077 C 
ATOM      9  C   UNL     1     -14.220  -3.188  16.753  1.00  0.00     0.008 C 
ATOM     10  C   UNL     1     -16.134  -1.630  16.648  1.00  0.00     0.039 C 
ENDBRANCH   5   8
TORSDOF 1
ENDMDL
MODEL 6
REMARK VINA RESULT:    -1.031      1.045      4.655
REMARK INTER + INTRA:          -1.223
REMARK INTER:                  -1.097
REMARK INTRA:                  -0.126
REMARK UNBOUND:                -0.131
REMARK SMILES C=C(C)[C@H]1CC=C(C)CC1
REMARK SMILES IDX 8 1 7 2 6 3 5 4 4 5 10 6 9 7 2 8 1 9 3 10
REMARK H PARENT
REMARK Flexibility Score: inf
ROOT
ATOM      1  C   UNL     1     -14.645  -4.833  15.721  1.00  0.00     0.039 C 
ATOM      2  C   UNL     1     -15.153  -3.490  16.169  1.00  0.00    -0.077 C 
ATOM      3  C   UNL     1     -14.657  -2.946  17.299  1.00  0.00    -0.027 C 
ATOM      4  C   UNL     1     -15.140  -1.630  17.861  1.00  0.00     0.035 C 
ATOM      5  C   UNL     1     -15.797  -0.747  16.785  1.00  0.00     0.018 C 
ATOM      6  C   UNL     1     -16.814  -1.572  15.981  1.00  0.00     0.013 C 
ATOM      7  C   UNL     1     -16.109  -2.732  15.268  1.00  0.00     0.031 C 
ENDROOT
BRANCH   5   8
ATOM      8  C   UNL     1     -16.431   0.496  17.389  1.00  0.00    -0.077 C 
ATOM      9  C   UNL     1     -17.744   0.549  17.674  1.00  0.00     0.008 C 
ATOM     10  C   UNL     1     -15.555   1.693  17.656  1.00  0.00     0.039 C 
ENDBRANCH   5   8
TORSDOF 1
ENDMDL
MODEL 7
REMARK VINA RESULT:    -0.856      2.620      4.317
REMARK INTER + INTRA:          -1.038
REMARK INTER:                  -0.904
REMARK INTRA:                  -0.133
REMARK UNBOUND:                -0.131
REMARK SMILES C=C(C)[C@H]1CC=C(C)CC1
REMARK SMILES IDX 8 1 7 2 6 3 5 4 4 5 10 6 9 7 2 8 1 9 3 10
REMARK H PARENT
REMARK Flexibility Score: inf
ROOT
ATOM      1  C   UNL     1     -15.363  -2.163  15.650  1.00  0.00     0.039 C 
ATOM      2  C   UNL     1     -14.994  -2.202  17.108  1.00  0.00    -0.077 C 
ATOM      3  C   UNL     1     -13.746  -2.579  17.459  1.00  0.00    -0.027 C 
ATOM      4  C   UNL     1     -13.296  -2.702  18.894  1.00  0.00     0.035 C 
ATOM      5  C   UNL     1     -14.159  -1.855  19.847  1.00  0.00     0.018 C 
ATOM      6  C   UNL     1     -15.649  -2.105  19.565  1.00  0.00     0.013 C 
ATOM      7  C   UNL     1     -15.992  -1.690  18.130  1.00  0.00     0.031 C 
ENDROOT
BRANCH   5   8
ATOM      8  C   UNL     1     -13.809  -2.117  21.304  1.00  0.00    -0.077 C 
ATOM      9  C   UNL     1     -12.546  -2.376  21.688  1.00  0.00     0.008 C 
ATOM     10  C   UNL     1     -14.916  -2.096  22.326  1.00  0.00     0.039 C 
ENDBRANCH   5   8
TORSDOF 1
ENDMDL
MODEL 8
REMARK VINA RESULT:    -0.721      3.134      4.519
REMARK INTER + INTRA:          -0.894
REMARK INTER:                  -0.768
REMARK INTRA:                  -0.127
REMARK UNBOUND:                -0.131
REMARK SMILES C=C(C)[C@H]1CC=C(C)CC1
REMARK SMILES IDX 8 1 7 2 6 3 5 4 4 5 10 6 9 7 2 8 1 9 3 10
REMARK H PARENT
REMARK Flexibility Score: inf
ROOT
ATOM      1  C   UNL     1     -13.883  -1.629  23.541  1.00  0.00     0.039 C 
ATOM      2  C   UNL     1     -14.071  -1.777  22.055  1.00  0.00    -0.077 C 
ATOM      3  C   UNL     1     -13.109  -1.322  21.225  1.00  0.00    -0.027 C 
ATOM      4  C   UNL     1     -13.228  -1.375  19.721  1.00  0.00     0.035 C 
ATOM      5  C   UNL     1     -14.225  -2.452  19.256  1.00  0.00     0.018 C 
ATOM      6  C   UNL     1     -15.535  -2.329  20.049  1.00  0.00     0.013 C 
ATOM      7  C   UNL     1     -15.271  -2.551  21.543  1.00  0.00     0.031 C 
ENDROOT
BRANCH   5   8
ATOM      8  C   UNL     1     -14.465  -2.383  17.755  1.00  0.00    -0.077 C 
ATOM      9  C   UNL     1     -13.632  -2.976  16.882  1.00  0.00     0.008 C 
ATOM     10  C   UNL     1     -15.661  -1.617  17.252  1.00  0.00     0.039 C 
ENDBRANCH   5   8
TORSDOF 1
ENDMDL
MODEL 9
REMARK VINA RESULT:     0.336      3.701      5.782
REMARK INTER + INTRA:           0.224
REMARK INTER:                   0.356
REMARK INTRA:                  -0.132
REMARK UNBOUND:                -0.131
REMARK SMILES C=C(C)[C@H]1CC=C(C)CC1
REMARK SMILES IDX 8 1 7 2 6 3 5 4 4 5 10 6 9 7 2 8 1 9 3 10
REMARK H PARENT
REMARK Flexibility Score: inf
ROOT
ATOM      1  C   UNL     1     -14.444  -2.816  17.234  1.00  0.00     0.039 C 
ATOM      2  C   UNL     1     -14.377  -2.481  18.699  1.00  0.00    -0.077 C 
ATOM      3  C   UNL     1     -13.219  -2.016  19.212  1.00  0.00    -0.027 C 
ATOM      4  C   UNL     1     -13.034  -1.702  20.677  1.00  0.00     0.035 C 
ATOM      5  C   UNL     1     -14.374  -1.431  21.385  1.00  0.00     0.018 C 
ATOM      6  C   UNL     1     -15.384  -2.535  21.035  1.00  0.00     0.013 C 
ATOM      7  C   UNL     1     -15.647  -2.551  19.525  1.00  0.00     0.031 C 
ENDROOT
BRANCH   5   8
ATOM      8  C   UNL     1     -14.195  -1.285  22.888  1.00  0.00    -0.077 C 
ATOM      9  C   UNL     1     -15.149  -0.734  23.660  1.00  0.00     0.008 C 
ATOM     10  C   UNL     1     -12.908  -1.762  23.510  1.00  0.00     0.039 C 
ENDBRANCH   5   8
TORSDOF 1
ENDMDL
