MODEL 1
REMARK VINA RESULT:    -5.990      0.000      0.000
REMARK INTER + INTRA:          -6.166
REMARK INTER:                  -6.166
REMARK INTRA:                   0.000
REMARK UNBOUND:                 0.000
REMARK SMILES O=c1ccc2ccc(O)cc2o1
REMARK SMILES IDX 6 1 7 2 8 3 10 4 11 5 5 6 4 7 3 8 2 9 1 10 12 11 9 12
REMARK H PARENT 9 13
REMARK Flexibility Score: inf
ROOT
ATOM      1  C   UNL     1      10.902  -6.111  19.819  1.00  0.00     0.016 A 
ATOM      2  C   UNL     1       9.765  -6.922  19.871  1.00  0.00     0.047 A 
ATOM      3  C   UNL     1       8.487  -6.356  19.786  1.00  0.00     0.119 A 
ATOM      4  C   UNL     1       8.345  -4.968  19.647  1.00  0.00     0.094 A 
ATOM      5  C   UNL     1       9.478  -4.148  19.593  1.00  0.00     0.142 A 
ATOM      6  C   UNL     1      10.765  -4.722  19.679  1.00  0.00     0.018 A 
ATOM      7  C   UNL     1      11.878  -3.877  19.622  1.00  0.00     0.019 A 
ATOM      8  C   UNL     1      11.687  -2.503  19.484  1.00  0.00     0.094 A 
ATOM      9  C   UNL     1      10.382  -2.004  19.404  1.00  0.00     0.336 A 
ATOM     10  O   UNL     1      10.189  -0.767  19.279  1.00  0.00    -0.246 OA
ATOM     11  O   UNL     1       9.340  -2.830  19.461  1.00  0.00    -0.423 OA
ENDROOT
BRANCH   3  12
ATOM     12  O   UNL     1       7.366  -7.181  19.840  1.00  0.00    -0.508 OA
ATOM     13  H   UNL     1       6.692  -7.111  20.594  1.00  0.00     0.293 HD
ENDBRANCH   3  12
TORSDOF 1
ENDMDL
MODEL 2
REMARK VINA RESULT:    -5.877      1.625      2.311
REMARK INTER + INTRA:          -6.049
REMARK INTER:                  -6.049
REMARK INTRA:                   0.000
REMARK UNBOUND:                 0.000
REMARK SMILES O=c1ccc2ccc(O)cc2o1
REMARK SMILES IDX 6 1 7 2 8 3 10 4 11 5 5 6 4 7 3 8 2 9 1 10 12 11 9 12
REMARK H PARENT 9 13
REMARK Flexibility Score: inf
ROOT
ATOM      1  C   UNL     1       8.631  -4.369  19.822  1.00  0.00     0.016 A 
ATOM      2  C   UNL     1       8.576  -5.754  20.000  1.00  0.00     0.047 A 
ATOM      3  C   UNL     1       9.745  -6.523  19.945  1.00  0.00     0.119 A 
ATOM      4  C   UNL     1      10.980  -5.900  19.710  1.00  0.00     0.094 A 
ATOM      5  C   UNL     1      11.045  -4.514  19.531  1.00  0.00     0.142 A 
ATOM      6  C   UNL     1       9.863  -3.742  19.588  1.00  0.00     0.018 A 
ATOM      7  C   UNL     1       9.960  -2.359  19.405  1.00  0.00     0.019 A 
ATOM      8  C   UNL     1      11.210  -1.786  19.174  1.00  0.00     0.094 A 
ATOM      9  C   UNL     1      12.338  -2.612  19.132  1.00  0.00     0.336 A 
ATOM     10  O   UNL     1      13.475  -2.113  18.925  1.00  0.00    -0.246 OA
ATOM     11  O   UNL     1      12.219  -3.926  19.308  1.00  0.00    -0.423 OA
ENDROOT
BRANCH   3  12
ATOM     12  O   UNL     1       9.669  -7.901  20.125  1.00  0.00    -0.508 OA
ATOM     13  H   UNL     1       8.788  -8.363  20.324  1.00  0.00     0.293 HD
ENDBRANCH   3  12
TORSDOF 1
ENDMDL
MODEL 3
REMARK VINA RESULT:    -5.830     11.079     12.495
REMARK INTER + INTRA:          -6.000
REMARK INTER:                  -6.000
REMARK INTRA:                   0.000
REMARK UNBOUND:                 0.000
REMARK SMILES O=c1ccc2ccc(O)cc2o1
REMARK SMILES IDX 6 1 7 2 8 3 10 4 11 5 5 6 4 7 3 8 2 9 1 10 12 11 9 12
REMARK H PARENT 9 13
REMARK Flexibility Score: inf
ROOT
ATOM      1  C   UNL     1       8.473   2.405  11.400  1.00  0.00     0.016 A 
ATOM      2  C   UNL     1       7.978   1.221  10.845  1.00  0.00     0.047 A 
ATOM      3  C   UNL     1       6.872   1.248   9.989  1.00  0.00     0.119 A 
ATOM      4  C   UNL     1       6.254   2.469   9.683  1.00  0.00     0.094 A 
ATOM      5  C   UNL     1       6.743   3.660  10.232  1.00  0.00     0.142 A 
ATOM      6  C   UNL     1       7.860   3.629  11.096  1.00  0.00     0.018 A 
ATOM      7  C   UNL     1       8.325   4.834  11.630  1.00  0.00     0.019 A 
ATOM      8  C   UNL     1       7.678   6.024  11.297  1.00  0.00     0.094 A 
ATOM      9  C   UNL     1       6.578   5.980  10.435  1.00  0.00     0.336 A 
ATOM     10  O   UNL     1       5.980   7.043  10.122  1.00  0.00    -0.246 OA
ATOM     11  O   UNL     1       6.154   4.818   9.940  1.00  0.00    -0.423 OA
ENDROOT
BRANCH   3  12
ATOM     12  O   UNL     1       6.394   0.057   9.447  1.00  0.00    -0.508 OA
ATOM     13  H   UNL     1       6.699  -0.272   8.538  1.00  0.00     0.293 HD
ENDBRANCH   3  12
TORSDOF 1
ENDMDL
MODEL 4
REMARK VINA RESULT:    -5.793     10.831     12.443
REMARK INTER + INTRA:          -5.962
REMARK INTER:                  -5.962
REMARK INTRA:                   0.000
REMARK UNBOUND:                 0.000
REMARK SMILES O=c1ccc2ccc(O)cc2o1
REMARK SMILES IDX 6 1 7 2 8 3 10 4 11 5 5 6 4 7 3 8 2 9 1 10 12 11 9 12
REMARK H PARENT 9 13
REMARK Flexibility Score: inf
ROOT
ATOM      1  C   UNL     1       6.619   2.054   9.733  1.00  0.00     0.016 A 
ATOM      2  C   UNL     1       7.393   1.097  10.397  1.00  0.00     0.047 A 
ATOM      3  C   UNL     1       8.300   1.484  11.390  1.00  0.00     0.119 A 
ATOM      4  C   UNL     1       8.434   2.840  11.725  1.00  0.00     0.094 A 
ATOM      5  C   UNL     1       7.663   3.805  11.067  1.00  0.00     0.142 A 
ATOM      6  C   UNL     1       6.750   3.411  10.065  1.00  0.00     0.018 A 
ATOM      7  C   UNL     1       5.994   4.398   9.425  1.00  0.00     0.019 A 
ATOM      8  C   UNL     1       6.162   5.733   9.791  1.00  0.00     0.094 A 
ATOM      9  C   UNL     1       7.085   6.050  10.792  1.00  0.00     0.336 A 
ATOM     10  O   UNL     1       7.252   7.249  11.137  1.00  0.00    -0.246 OA
ATOM     11  O   UNL     1       7.793   5.091  11.386  1.00  0.00    -0.423 OA
ENDROOT
BRANCH   3  12
ATOM     12  O   UNL     1       9.061   0.516  12.039  1.00  0.00    -0.508 OA
ATOM     13  H   UNL     1       9.158   0.506  13.049  1.00  0.00     0.293 HD
ENDBRANCH   3  12
TORSDOF 1
ENDMDL
MODEL 5
REMARK VINA RESULT:    -5.657     10.880     13.025
REMARK INTER + INTRA:          -5.822
REMARK INTER:                  -5.822
REMARK INTRA:                   0.000
REMARK UNBOUND:                 0.000
REMARK SMILES O=c1ccc2ccc(O)cc2o1
REMARK SMILES IDX 6 1 7 2 8 3 10 4 11 5 5 6 4 7 3 8 2 9 1 10 12 11 9 12
REMARK H PARENT 9 13
REMARK Flexibility Score: inf
ROOT
ATOM      1  C   UNL     1       5.946   4.384   9.492  1.00  0.00     0.016 A 
ATOM      2  C   UNL     1       6.120   5.731   9.822  1.00  0.00     0.047 A 
ATOM      3  C   UNL     1       7.088   6.111  10.758  1.00  0.00     0.119 A 
ATOM      4  C   UNL     1       7.891   5.137  11.370  1.00  0.00     0.094 A 
ATOM      5  C   UNL     1       7.725   3.785  11.044  1.00  0.00     0.142 A 
ATOM      6  C   UNL     1       6.746   3.406  10.099  1.00  0.00     0.018 A 
ATOM      7  C   UNL     1       6.604   2.049   9.795  1.00  0.00     0.019 A 
ATOM      8  C   UNL     1       7.424   1.116  10.428  1.00  0.00     0.094 A 
ATOM      9  C   UNL     1       8.372   1.564  11.354  1.00  0.00     0.336 A 
ATOM     10  O   UNL     1       9.123   0.738  11.936  1.00  0.00    -0.246 OA
ATOM     11  O   UNL     1       8.488   2.862  11.626  1.00  0.00    -0.423 OA
ENDROOT
BRANCH   3  12
ATOM     12  O   UNL     1       7.246   7.458  11.074  1.00  0.00    -0.508 OA
ATOM     13  H   UNL     1       6.557   8.151  10.802  1.00  0.00     0.293 HD
ENDBRANCH   3  12
TORSDOF 1
ENDMDL
MODEL 6
REMARK VINA RESULT:    -5.521      1.766      2.784
REMARK INTER + INTRA:          -5.683
REMARK INTER:                  -5.683
REMARK INTRA:                   0.000
REMARK UNBOUND:                 0.000
REMARK SMILES O=c1ccc2ccc(O)cc2o1
REMARK SMILES IDX 6 1 7 2 8 3 10 4 11 5 5 6 4 7 3 8 2 9 1 10 12 11 9 12
REMARK H PARENT 9 13
REMARK Flexibility Score: inf
ROOT
ATOM      1  C   UNL     1       8.294  -6.027  19.853  1.00  0.00     0.016 A 
ATOM      2  C   UNL     1       9.491  -6.746  19.926  1.00  0.00     0.047 A 
ATOM      3  C   UNL     1      10.721  -6.083  19.864  1.00  0.00     0.119 A 
ATOM      4  C   UNL     1      10.757  -4.687  19.728  1.00  0.00     0.094 A 
ATOM      5  C   UNL     1       9.564  -3.958  19.655  1.00  0.00     0.142 A 
ATOM      6  C   UNL     1       8.325  -4.631  19.719  1.00  0.00     0.018 A 
ATOM      7  C   UNL     1       7.150  -3.876  19.643  1.00  0.00     0.019 A 
ATOM      8  C   UNL     1       7.236  -2.491  19.509  1.00  0.00     0.094 A 
ATOM      9  C   UNL     1       8.498  -1.891  19.453  1.00  0.00     0.336 A 
ATOM     10  O   UNL     1       8.596  -0.642  19.332  1.00  0.00    -0.246 OA
ATOM     11  O   UNL     1       9.601  -2.633  19.527  1.00  0.00    -0.423 OA
ENDROOT
BRANCH   3  12
ATOM     12  O   UNL     1      11.902  -6.817  19.937  1.00  0.00    -0.508 OA
ATOM     13  H   UNL     1      12.397  -6.938  20.814  1.00  0.00     0.293 HD
ENDBRANCH   3  12
TORSDOF 1
ENDMDL
MODEL 7
REMARK VINA RESULT:    -5.510      1.421      4.477
REMARK INTER + INTRA:          -5.671
REMARK INTER:                  -5.671
REMARK INTRA:                   0.000
REMARK UNBOUND:                 0.000
REMARK SMILES O=c1ccc2ccc(O)cc2o1
REMARK SMILES IDX 6 1 7 2 8 3 10 4 11 5 5 6 4 7 3 8 2 9 1 10 12 11 9 12
REMARK H PARENT 9 13
REMARK Flexibility Score: inf
ROOT
ATOM      1  C   UNL     1      12.624  -3.180  18.617  1.00  0.00     0.016 A 
ATOM      2  C   UNL     1      12.753  -1.834  18.264  1.00  0.00     0.047 A 
ATOM      3  C   UNL     1      11.643  -0.982  18.304  1.00  0.00     0.119 A 
ATOM      4  C   UNL     1      10.393  -1.480  18.699  1.00  0.00     0.094 A 
ATOM      5  C   UNL     1      10.254  -2.826  19.055  1.00  0.00     0.142 A 
ATOM      6  C   UNL     1      11.377  -3.682  19.014  1.00  0.00     0.018 A 
ATOM      7  C   UNL     1      11.206  -5.023  19.375  1.00  0.00     0.019 A 
ATOM      8  C   UNL     1       9.944  -5.472  19.762  1.00  0.00     0.094 A 
ATOM      9  C   UNL     1       8.878  -4.567  19.779  1.00  0.00     0.336 A 
ATOM     10  O   UNL     1       7.731  -4.953  20.125  1.00  0.00    -0.246 OA
ATOM     11  O   UNL     1       9.066  -3.296  19.430  1.00  0.00    -0.423 OA
ENDROOT
BRANCH   3  12
ATOM     12  O   UNL     1      11.792   0.357  17.948  1.00  0.00    -0.508 OA
ATOM     13  H   UNL     1      12.706   0.794  17.900  1.00  0.00     0.293 HD
ENDBRANCH   3  12
TORSDOF 1
ENDMDL
MODEL 8
REMARK VINA RESULT:    -5.367      0.768      4.224
REMARK INTER + INTRA:          -5.524
REMARK INTER:                  -5.524
REMARK INTRA:                   0.000
REMARK UNBOUND:                 0.000
REMARK SMILES O=c1ccc2ccc(O)cc2o1
REMARK SMILES IDX 6 1 7 2 8 3 10 4 11 5 5 6 4 7 3 8 2 9 1 10 12 11 9 12
REMARK H PARENT 9 13
REMARK Flexibility Score: inf
ROOT
ATOM      1  C   UNL     1      11.907  -4.005  19.604  1.00  0.00     0.016 A 
ATOM      2  C   UNL     1      11.869  -2.611  19.511  1.00  0.00     0.047 A 
ATOM      3  C   UNL     1      10.644  -1.934  19.501  1.00  0.00     0.119 A 
ATOM      4  C   UNL     1       9.445  -2.658  19.585  1.00  0.00     0.094 A 
ATOM      5  C   UNL     1       9.473  -4.054  19.679  1.00  0.00     0.142 A 
ATOM      6  C   UNL     1      10.711  -4.733  19.689  1.00  0.00     0.018 A 
ATOM      7  C   UNL     1      10.707  -6.128  19.784  1.00  0.00     0.019 A 
ATOM      8  C   UNL     1       9.490  -6.804  19.865  1.00  0.00     0.094 A 
ATOM      9  C   UNL     1       8.302  -6.066  19.851  1.00  0.00     0.336 A 
ATOM     10  O   UNL     1       7.193  -6.658  19.923  1.00  0.00    -0.246 OA
ATOM     11  O   UNL     1       8.333  -4.739  19.759  1.00  0.00    -0.423 OA
ENDROOT
BRANCH   3  12
ATOM     12  O   UNL     1      10.627  -0.545  19.408  1.00  0.00    -0.508 OA
ATOM     13  H   UNL     1      10.407   0.038  20.208  1.00  0.00     0.293 HD
ENDBRANCH   3  12
TORSDOF 1
ENDMDL
MODEL 9
REMARK VINA RESULT:    -5.294      1.813      4.867
REMARK INTER + INTRA:          -5.449
REMARK INTER:                  -5.449
REMARK INTRA:                   0.000
REMARK UNBOUND:                 0.000
REMARK SMILES O=c1ccc2ccc(O)cc2o1
REMARK SMILES IDX 6 1 7 2 8 3 10 4 11 5 5 6 4 7 3 8 2 9 1 10 12 11 9 12
REMARK H PARENT 9 13
REMARK Flexibility Score: inf
ROOT
ATOM      1  C   UNL     1      10.351  -1.797  19.373  1.00  0.00     0.016 A 
ATOM      2  C   UNL     1      11.598  -1.279  19.009  1.00  0.00     0.047 A 
ATOM      3  C   UNL     1      12.683  -2.134  18.788  1.00  0.00     0.119 A 
ATOM      4  C   UNL     1      12.522  -3.521  18.930  1.00  0.00     0.094 A 
ATOM      5  C   UNL     1      11.277  -4.049  19.292  1.00  0.00     0.142 A 
ATOM      6  C   UNL     1      10.184  -3.182  19.515  1.00  0.00     0.018 A 
ATOM      7  C   UNL     1       8.954  -3.739  19.876  1.00  0.00     0.019 A 
ATOM      8  C   UNL     1       8.841  -5.123  20.005  1.00  0.00     0.094 A 
ATOM      9  C   UNL     1       9.966  -5.920  19.769  1.00  0.00     0.336 A 
ATOM     10  O   UNL     1       9.885  -7.171  19.880  1.00  0.00    -0.246 OA
ATOM     11  O   UNL     1      11.126  -5.365  19.427  1.00  0.00    -0.423 OA
ENDROOT
BRANCH   3  12
ATOM     12  O   UNL     1      13.917  -1.599  18.427  1.00  0.00    -0.508 OA
ATOM     13  H   UNL     1      14.537  -1.185  19.115  1.00  0.00     0.293 HD
ENDBRANCH   3  12
TORSDOF 1
ENDMDL
