MODEL 1
REMARK VINA RESULT:    -3.553      0.000      0.000
REMARK INTER + INTRA:          -6.643
REMARK INTER:                  -5.422
REMARK INTRA:                  -1.221
REMARK UNBOUND:                -1.221
REMARK SMILES CCCCCCCCCCC(=O)[O-]
REMARK SMILES IDX 7 1 8 2 9 3 10 4 11 5 12 6 13 7 6 8 5 9 4 10 3 11 2 12 1 13
REMARK H PARENT
REMARK Flexibility Score: inf
ROOT
ATOM      1  C   UNL     1     -21.490   6.109  16.624  1.00  0.00     0.000 C 
ENDROOT
BRANCH   1   2
ATOM      2  C   UNL     1     -22.422   6.894  17.561  1.00  0.00     0.000 C 
BRANCH   2   3
ATOM      3  C   UNL     1     -21.749   8.143  18.158  1.00  0.00     0.006 C 
BRANCH   3   4
ATOM      4  C   UNL     1     -22.634   8.831  19.206  1.00  0.00     0.053 C 
BRANCH   4   5
ATOM      5  C   UNL     1     -22.921   7.932  20.369  1.00  0.00     0.041 C 
ATOM      6  O   UNL     1     -21.980   7.508  21.091  1.00  0.00    -0.550 OA
ATOM      7  O   UNL     1     -24.232   7.586  20.674  1.00  0.00    -0.550 OA
ENDBRANCH   4   5
ENDBRANCH   3   4
ENDBRANCH   2   3
ENDBRANCH   1   2
BRANCH   1   8
ATOM      8  C   UNL     1     -20.432   7.004  15.956  1.00  0.00     0.000 C 
BRANCH   8   9
ATOM      9  C   UNL     1     -19.022   6.393  16.010  1.00  0.00    -0.000 C 
BRANCH   9  10
ATOM     10  C   UNL     1     -18.275   6.735  17.309  1.00  0.00    -0.000 C 
BRANCH  10  11
ATOM     11  C   UNL     1     -18.271   5.539  18.270  1.00  0.00    -0.000 C 
BRANCH  11  12
ATOM     12  C   UNL     1     -19.150   5.816  19.495  1.00  0.00    -0.003 C 
ATOM     13  C   UNL     1     -20.136   4.676  19.735  1.00  0.00     0.004 C 
ENDBRANCH  11  12
ENDBRANCH  10  11
ENDBRANCH   9  10
ENDBRANCH   8   9
ENDBRANCH   1   8
TORSDOF 9
ENDMDL
MODEL 2
REMARK VINA RESULT:    -3.479      1.419      2.646
REMARK INTER + INTRA:          -6.530
REMARK INTER:                  -5.817
REMARK INTRA:                  -0.713
REMARK UNBOUND:                -1.221
REMARK SMILES CCCCCCCCCCC(=O)[O-]
REMARK SMILES IDX 7 1 8 2 9 3 10 4 11 5 12 6 13 7 6 8 5 9 4 10 3 11 2 12 1 13
REMARK H PARENT
REMARK Flexibility Score: inf
ROOT
ATOM      1  C   UNL     1     -21.992   7.871  18.315  1.00  0.00     0.000 C 
ENDROOT
BRANCH   1   2
ATOM      2  C   UNL     1     -23.080   8.524  19.183  1.00  0.00     0.000 C 
BRANCH   2   3
ATOM      3  C   UNL     1     -23.050   8.035  20.642  1.00  0.00     0.006 C 
BRANCH   3   4
ATOM      4  C   UNL     1     -24.265   7.164  20.985  1.00  0.00     0.053 C 
BRANCH   4   5
ATOM      5  C   UNL     1     -23.859   5.791  21.427  1.00  0.00     0.041 C 
ATOM      6  O   UNL     1     -23.022   5.131  20.757  1.00  0.00    -0.550 OA
ATOM      7  O   UNL     1     -24.381   5.254  22.597  1.00  0.00    -0.550 OA
ENDBRANCH   4   5
ENDBRANCH   3   4
ENDBRANCH   2   3
ENDBRANCH   1   2
BRANCH   1   8
ATOM      8  C   UNL     1     -22.473   6.573  17.643  1.00  0.00     0.000 C 
BRANCH   8   9
ATOM      9  C   UNL     1     -21.492   6.062  16.576  1.00  0.00    -0.000 C 
BRANCH   9  10
ATOM     10  C   UNL     1     -20.460   7.123  16.161  1.00  0.00    -0.000 C 
BRANCH  10  11
ATOM     11  C   UNL     1     -19.059   6.509  16.046  1.00  0.00    -0.000 C 
BRANCH  11  12
ATOM     12  C   UNL     1     -18.254   6.731  17.331  1.00  0.00    -0.003 C 
ATOM     13  C   UNL     1     -18.126   5.438  18.132  1.00  0.00     0.004 C 
ENDBRANCH  11  12
ENDBRANCH  10  11
ENDBRANCH   9  10
ENDBRANCH   8   9
ENDBRANCH   1   8
TORSDOF 9
ENDMDL
MODEL 3
REMARK VINA RESULT:    -3.450      2.411      4.721
REMARK INTER + INTRA:          -6.486
REMARK INTER:                  -5.661
REMARK INTRA:                  -0.825
REMARK UNBOUND:                -1.221
REMARK SMILES CCCCCCCCCCC(=O)[O-]
REMARK SMILES IDX 7 1 8 2 9 3 10 4 11 5 12 6 13 7 6 8 5 9 4 10 3 11 2 12 1 13
REMARK H PARENT
REMARK Flexibility Score: inf
ROOT
ATOM      1  C   UNL     1     -21.837   6.268  17.832  1.00  0.00     0.000 C 
ENDROOT
BRANCH   1   2
ATOM      2  C   UNL     1     -21.297   6.097  16.403  1.00  0.00     0.000 C 
BRANCH   2   3
ATOM      3  C   UNL     1     -20.174   7.094  16.068  1.00  0.00     0.006 C 
BRANCH   3   4
ATOM      4  C   UNL     1     -18.782   6.462  16.197  1.00  0.00     0.053 C 
BRANCH   4   5
ATOM      5  C   UNL     1     -18.240   6.588  17.588  1.00  0.00     0.041 C 
ATOM      6  O   UNL     1     -17.471   5.704  18.051  1.00  0.00    -0.550 OA
ATOM      7  O   UNL     1     -18.561   7.695  18.362  1.00  0.00    -0.550 OA
ENDBRANCH   4   5
ENDBRANCH   3   4
ENDBRANCH   2   3
ENDBRANCH   1   2
BRANCH   1   8
ATOM      8  C   UNL     1     -22.496   7.641  18.054  1.00  0.00     0.000 C 
BRANCH   8   9
ATOM      9  C   UNL     1     -21.803   8.457  19.157  1.00  0.00    -0.000 C 
BRANCH   9  10
ATOM     10  C   UNL     1     -22.377   8.174  20.554  1.00  0.00    -0.000 C 
BRANCH  10  11
ATOM     11  C   UNL     1     -23.894   7.950  20.488  1.00  0.00    -0.000 C 
BRANCH  11  12
ATOM     12  C   UNL     1     -24.298   6.689  21.262  1.00  0.00    -0.003 C 
ATOM     13  C   UNL     1     -23.155   5.679  21.303  1.00  0.00     0.004 C 
ENDBRANCH  11  12
ENDBRANCH  10  11
ENDBRANCH   9  10
ENDBRANCH   8   9
ENDBRANCH   1   8
TORSDOF 9
ENDMDL
MODEL 4
REMARK VINA RESULT:    -3.442      2.160      4.299
REMARK INTER + INTRA:          -6.475
REMARK INTER:                  -5.587
REMARK INTRA:                  -0.888
REMARK UNBOUND:                -1.221
REMARK SMILES CCCCCCCCCCC(=O)[O-]
REMARK SMILES IDX 7 1 8 2 9 3 10 4 11 5 12 6 13 7 6 8 5 9 4 10 3 11 2 12 1 13
REMARK H PARENT
REMARK Flexibility Score: inf
ROOT
ATOM      1  C   UNL     1     -23.395   8.103  20.592  1.00  0.00     0.000 C 
ENDROOT
BRANCH   1   2
ATOM      2  C   UNL     1     -23.907   6.715  21.011  1.00  0.00     0.000 C 
BRANCH   2   3
ATOM      3  C   UNL     1     -22.769   5.703  21.230  1.00  0.00     0.006 C 
BRANCH   3   4
ATOM      4  C   UNL     1     -22.821   4.548  20.221  1.00  0.00     0.053 C 
BRANCH   4   5
ATOM      5  C   UNL     1     -21.513   3.822  20.138  1.00  0.00     0.041 C 
ATOM      6  O   UNL     1     -20.460   4.446  19.845  1.00  0.00    -0.550 OA
ATOM      7  O   UNL     1     -21.454   2.462  20.414  1.00  0.00    -0.550 OA
ENDBRANCH   4   5
ENDBRANCH   3   4
ENDBRANCH   2   3
ENDBRANCH   1   2
BRANCH   1   8
ATOM      8  C   UNL     1     -21.940   8.069  20.090  1.00  0.00     0.000 C 
BRANCH   8   9
ATOM      9  C   UNL     1     -21.827   8.379  18.589  1.00  0.00    -0.000 C 
BRANCH   9  10
ATOM     10  C   UNL     1     -22.478   7.300  17.709  1.00  0.00    -0.000 C 
BRANCH  10  11
ATOM     11  C   UNL     1     -21.417   6.369  17.109  1.00  0.00    -0.000 C 
BRANCH  11  12
ATOM     12  C   UNL     1     -20.498   7.130  16.146  1.00  0.00    -0.003 C 
ATOM     13  C   UNL     1     -19.039   6.731  16.345  1.00  0.00     0.004 C 
ENDBRANCH  11  12
ENDBRANCH  10  11
ENDBRANCH   9  10
ENDBRANCH   8   9
ENDBRANCH   1   8
TORSDOF 9
ENDMDL
MODEL 5
REMARK VINA RESULT:    -3.434      2.844      5.013
REMARK INTER + INTRA:          -6.462
REMARK INTER:                  -5.386
REMARK INTRA:                  -1.076
REMARK UNBOUND:                -1.221
REMARK SMILES CCCCCCCCCCC(=O)[O-]
REMARK SMILES IDX 7 1 8 2 9 3 10 4 11 5 12 6 13 7 6 8 5 9 4 10 3 11 2 12 1 13
REMARK H PARENT
REMARK Flexibility Score: inf
ROOT
ATOM      1  C   UNL     1     -21.567   8.621  19.629  1.00  0.00     0.000 C 
ENDROOT
BRANCH   1   2
ATOM      2  C   UNL     1     -22.224   8.279  18.282  1.00  0.00     0.000 C 
BRANCH   2   3
ATOM      3  C   UNL     1     -21.256   7.586  17.308  1.00  0.00     0.006 C 
BRANCH   3   4
ATOM      4  C   UNL     1     -19.919   7.234  17.973  1.00  0.00     0.053 C 
BRANCH   4   5
ATOM      5  C   UNL     1     -18.916   6.735  16.978  1.00  0.00     0.041 C 
ATOM      6  O   UNL     1     -19.298   6.258  15.878  1.00  0.00    -0.550 OA
ATOM      7  O   UNL     1     -17.558   6.826  17.255  1.00  0.00    -0.550 OA
ENDBRANCH   4   5
ENDBRANCH   3   4
ENDBRANCH   2   3
ENDBRANCH   1   2
BRANCH   1   8
ATOM      8  C   UNL     1     -22.490   8.332  20.826  1.00  0.00     0.000 C 
BRANCH   8   9
ATOM      9  C   UNL     1     -23.797   7.638  20.411  1.00  0.00    -0.000 C 
BRANCH   9  10
ATOM     10  C   UNL     1     -24.197   6.503  21.367  1.00  0.00    -0.000 C 
BRANCH  10  11
ATOM     11  C   UNL     1     -23.160   5.373  21.339  1.00  0.00    -0.000 C 
BRANCH  11  12
ATOM     12  C   UNL     1     -22.816   4.978  19.899  1.00  0.00    -0.003 C 
ATOM     13  C   UNL     1     -21.411   4.389  19.809  1.00  0.00     0.004 C 
ENDBRANCH  11  12
ENDBRANCH  10  11
ENDBRANCH   9  10
ENDBRANCH   8   9
ENDBRANCH   1   8
TORSDOF 9
ENDMDL
MODEL 6
REMARK VINA RESULT:    -3.378      2.531      4.655
REMARK INTER + INTRA:          -6.376
REMARK INTER:                  -5.118
REMARK INTRA:                  -1.259
REMARK UNBOUND:                -1.221
REMARK SMILES CCCCCCCCCCC(=O)[O-]
REMARK SMILES IDX 7 1 8 2 9 3 10 4 11 5 12 6 13 7 6 8 5 9 4 10 3 11 2 12 1 13
REMARK H PARENT
REMARK Flexibility Score: inf
ROOT
ATOM      1  C   UNL     1     -22.120   8.036  20.266  1.00  0.00     0.000 C 
ENDROOT
BRANCH   1   2
ATOM      2  C   UNL     1     -21.806   8.520  18.841  1.00  0.00     0.000 C 
BRANCH   2   3
ATOM      3  C   UNL     1     -22.373   7.588  17.757  1.00  0.00     0.006 C 
BRANCH   3   4
ATOM      4  C   UNL     1     -21.608   6.261  17.677  1.00  0.00     0.053 C 
BRANCH   4   5
ATOM      5  C   UNL     1     -20.246   6.439  17.080  1.00  0.00     0.041 C 
ATOM      6  O   UNL     1     -19.235   5.950  17.650  1.00  0.00    -0.550 OA
ATOM      7  O   UNL     1     -20.097   7.118  15.878  1.00  0.00    -0.550 OA
ENDBRANCH   4   5
ENDBRANCH   3   4
ENDBRANCH   2   3
ENDBRANCH   1   2
BRANCH   1   8
ATOM      8  C   UNL     1     -23.632   7.974  20.548  1.00  0.00     0.000 C 
BRANCH   8   9
ATOM      9  C   UNL     1     -24.060   6.640  21.181  1.00  0.00    -0.000 C 
BRANCH   9  10
ATOM     10  C   UNL     1     -22.869   5.718  21.486  1.00  0.00    -0.000 C 
BRANCH  10  11
ATOM     11  C   UNL     1     -23.014   4.378  20.754  1.00  0.00    -0.000 C 
BRANCH  11  12
ATOM     12  C   UNL     1     -21.643   3.819  20.353  1.00  0.00    -0.003 C 
ATOM     13  C   UNL     1     -20.513   4.690  20.895  1.00  0.00     0.004 C 
ENDBRANCH  11  12
ENDBRANCH  10  11
ENDBRANCH   9  10
ENDBRANCH   8   9
ENDBRANCH   1   8
TORSDOF 9
ENDMDL
MODEL 7
REMARK VINA RESULT:    -3.291      0.681      1.576
REMARK INTER + INTRA:          -6.244
REMARK INTER:                  -4.891
REMARK INTRA:                  -1.353
REMARK UNBOUND:                -1.221
REMARK SMILES CCCCCCCCCCC(=O)[O-]
REMARK SMILES IDX 7 1 8 2 9 3 10 4 11 5 12 6 13 7 6 8 5 9 4 10 3 11 2 12 1 13
REMARK H PARENT
REMARK Flexibility Score: inf
ROOT
ATOM      1  C   UNL     1     -20.454   7.172  16.482  1.00  0.00     0.000 C 
ENDROOT
BRANCH   1   2
ATOM      2  C   UNL     1     -21.536   6.108  16.725  1.00  0.00     0.000 C 
BRANCH   2   3
ATOM      3  C   UNL     1     -22.625   6.580  17.704  1.00  0.00     0.006 C 
BRANCH   3   4
ATOM      4  C   UNL     1     -22.282   7.933  18.342  1.00  0.00     0.053 C 
BRANCH   4   5
ATOM      5  C   UNL     1     -22.732   8.005  19.768  1.00  0.00     0.041 C 
ATOM      6  O   UNL     1     -23.949   7.857  20.058  1.00  0.00    -0.550 OA
ATOM      7  O   UNL     1     -21.804   8.206  20.782  1.00  0.00    -0.550 OA
ENDBRANCH   4   5
ENDBRANCH   3   4
ENDBRANCH   2   3
ENDBRANCH   1   2
BRANCH   1   8
ATOM      8  C   UNL     1     -19.083   6.555  16.150  1.00  0.00     0.000 C 
BRANCH   8   9
ATOM      9  C   UNL     1     -18.142   6.521  17.364  1.00  0.00    -0.000 C 
BRANCH   9  10
ATOM     10  C   UNL     1     -18.646   7.384  18.532  1.00  0.00    -0.000 C 
BRANCH  10  11
ATOM     11  C   UNL     1     -18.862   6.533  19.789  1.00  0.00    -0.000 C 
BRANCH  11  12
ATOM     12  C   UNL     1     -19.070   5.058  19.425  1.00  0.00    -0.003 C 
ATOM     13  C   UNL     1     -20.431   4.559  19.901  1.00  0.00     0.004 C 
ENDBRANCH  11  12
ENDBRANCH  10  11
ENDBRANCH   9  10
ENDBRANCH   8   9
ENDBRANCH   1   8
TORSDOF 9
ENDMDL
MODEL 8
REMARK VINA RESULT:    -3.279      2.000      3.725
REMARK INTER + INTRA:          -6.226
REMARK INTER:                  -5.518
REMARK INTRA:                  -0.708
REMARK UNBOUND:                -1.221
REMARK SMILES CCCCCCCCCCC(=O)[O-]
REMARK SMILES IDX 7 1 8 2 9 3 10 4 11 5 12 6 13 7 6 8 5 9 4 10 3 11 2 12 1 13
REMARK H PARENT
REMARK Flexibility Score: inf
ROOT
ATOM      1  C   UNL     1     -22.130   8.024  20.268  1.00  0.00     0.000 C 
ENDROOT
BRANCH   1   2
ATOM      2  C   UNL     1     -23.631   8.172  20.559  1.00  0.00     0.000 C 
BRANCH   2   3
ATOM      3  C   UNL     1     -24.260   6.880  21.110  1.00  0.00     0.006 C 
BRANCH   3   4
ATOM      4  C   UNL     1     -23.301   5.687  21.023  1.00  0.00     0.053 C 
BRANCH   4   5
ATOM      5  C   UNL     1     -23.271   4.902  22.298  1.00  0.00     0.041 C 
ATOM      6  O   UNL     1     -24.344   4.501  22.821  1.00  0.00    -0.550 OA
ATOM      7  O   UNL     1     -22.056   4.587  22.893  1.00  0.00    -0.550 OA
ENDBRANCH   4   5
ENDBRANCH   3   4
ENDBRANCH   2   3
ENDBRANCH   1   2
BRANCH   1   8
ATOM      8  C   UNL     1     -21.736   8.585  18.890  1.00  0.00     0.000 C 
BRANCH   8   9
ATOM      9  C   UNL     1     -22.141   7.654  17.736  1.00  0.00    -0.000 C 
BRANCH   9  10
ATOM     10  C   UNL     1     -21.142   6.507  17.519  1.00  0.00    -0.000 C 
BRANCH  10  11
ATOM     11  C   UNL     1     -20.623   6.498  16.076  1.00  0.00    -0.000 C 
BRANCH  11  12
ATOM     12  C   UNL     1     -19.092   6.420  16.043  1.00  0.00    -0.003 C 
ATOM     13  C   UNL     1     -18.493   6.752  17.406  1.00  0.00     0.004 C 
ENDBRANCH  11  12
ENDBRANCH  10  11
ENDBRANCH   9  10
ENDBRANCH   8   9
ENDBRANCH   1   8
TORSDOF 9
ENDMDL
MODEL 9
REMARK VINA RESULT:    -3.247      2.018      4.772
REMARK INTER + INTRA:          -6.176
REMARK INTER:                  -4.839
REMARK INTRA:                  -1.337
REMARK UNBOUND:                -1.221
REMARK SMILES CCCCCCCCCCC(=O)[O-]
REMARK SMILES IDX 7 1 8 2 9 3 10 4 11 5 12 6 13 7 6 8 5 9 4 10 3 11 2 12 1 13
REMARK H PARENT
REMARK Flexibility Score: inf
ROOT
ATOM      1  C   UNL     1     -23.104   5.514  21.479  1.00  0.00     0.000 C 
ENDROOT
BRANCH   1   2
ATOM      2  C   UNL     1     -22.797   4.644  20.251  1.00  0.00     0.000 C 
BRANCH   2   3
ATOM      3  C   UNL     1     -21.305   4.648  19.876  1.00  0.00     0.006 C 
BRANCH   3   4
ATOM      4  C   UNL     1     -20.446   5.359  20.930  1.00  0.00     0.053 C 
BRANCH   4   5
ATOM      5  C   UNL     1     -19.449   6.285  20.303  1.00  0.00     0.041 C 
ATOM      6  O   UNL     1     -19.341   7.471  20.712  1.00  0.00    -0.550 OA
ATOM      7  O   UNL     1     -18.619   5.829  19.287  1.00  0.00    -0.550 OA
ENDBRANCH   4   5
ENDBRANCH   3   4
ENDBRANCH   2   3
ENDBRANCH   1   2
BRANCH   1   8
ATOM      8  C   UNL     1     -23.954   6.749  21.132  1.00  0.00     0.000 C 
BRANCH   8   9
ATOM      9  C   UNL     1     -23.098   7.962  20.733  1.00  0.00    -0.000 C 
BRANCH   9  10
ATOM     10  C   UNL     1     -23.303   8.378  19.268  1.00  0.00    -0.000 C 
BRANCH  10  11
ATOM     11  C   UNL     1     -21.988   8.284  18.483  1.00  0.00    -0.000 C 
BRANCH  11  12
ATOM     12  C   UNL     1     -22.068   7.195  17.406  1.00  0.00    -0.003 C 
ATOM     13  C   UNL     1     -20.722   7.003  16.715  1.00  0.00     0.004 C 
ENDBRANCH  11  12
ENDBRANCH  10  11
ENDBRANCH   9  10
ENDBRANCH   8   9
ENDBRANCH   1   8
TORSDOF 9
ENDMDL
