MODEL 1
REMARK VINA RESULT:    -4.507      0.000      0.000
REMARK INTER + INTRA:          -6.981
REMARK INTER:                  -6.483
REMARK INTRA:                  -0.498
REMARK UNBOUND:                -0.498
REMARK SMILES O=C(CO)[C@@H](O)[C@@H](O)[C@@H](O)CO
REMARK SMILES IDX 7 1 9 2 11 3 12 4 10 6 5 8 2 9 1 10 3 11 4 12 6 14 8 16
REMARK H PARENT 12 5 10 7 4 13 6 15 8 17
REMARK Flexibility Score: inf
ROOT
ATOM      1  C   UNL     1      16.064  13.281  28.600  1.00  0.00     0.181 C 
ENDROOT
BRANCH   1   2
ATOM      2  C   UNL     1      15.002  13.128  29.725  1.00  0.00     0.171 C 
BRANCH   2   3
ATOM      3  C   UNL     1      15.592  12.398  30.946  1.00  0.00     0.190 C 
BRANCH   3   4
ATOM      4  O   UNL     1      16.323  13.291  31.744  1.00  0.00    -0.394 OA
ATOM      5  H   UNL     1      15.685  13.984  32.058  1.00  0.00     0.210 HD
ENDBRANCH   3   4
ENDBRANCH   2   3
BRANCH   2   6
ATOM      6  O   UNL     1      13.905  12.396  29.241  1.00  0.00    -0.388 OA
ATOM      7  H   UNL     1      13.978  12.380  28.251  1.00  0.00     0.211 HD
ENDBRANCH   2   6
ENDBRANCH   1   2
BRANCH   1   8
ATOM      8  C   UNL     1      16.632  14.718  28.464  1.00  0.00     0.214 C 
BRANCH   8   9
ATOM      9  C   UNL     1      16.500  15.253  27.053  1.00  0.00     0.189 C 
ATOM     10  O   UNL     1      15.863  16.274  26.842  1.00  0.00    -0.294 OA
BRANCH   9  11
ATOM     11  C   UNL     1      17.125  14.523  25.895  1.00  0.00     0.234 C 
BRANCH  11  12
ATOM     12  O   UNL     1      16.152  14.221  24.933  1.00  0.00    -0.388 OA
ATOM     13  H   UNL     1      15.313  14.661  25.232  1.00  0.00     0.211 HD
ENDBRANCH  11  12
ENDBRANCH   9  11
ENDBRANCH   8   9
BRANCH   8  14
ATOM     14  O   UNL     1      16.000  15.577  29.380  1.00  0.00    -0.382 OA
ATOM     15  H   UNL     1      15.898  15.069  30.228  1.00  0.00     0.211 HD
ENDBRANCH   8  14
ENDBRANCH   1   8
BRANCH   1  16
ATOM     16  O   UNL     1      17.125  12.376  28.791  1.00  0.00    -0.387 OA
ATOM     17  H   UNL     1      16.808  11.668  29.410  1.00  0.00     0.211 HD
ENDBRANCH   1  16
TORSDOF 10
ENDMDL
MODEL 2
REMARK VINA RESULT:    -4.401      0.891      4.420
REMARK INTER + INTRA:          -6.829
REMARK INTER:                  -6.253
REMARK INTRA:                  -0.576
REMARK UNBOUND:                -0.498
REMARK SMILES O=C(CO)[C@@H](O)[C@@H](O)[C@@H](O)CO
REMARK SMILES IDX 7 1 9 2 11 3 12 4 10 6 5 8 2 9 1 10 3 11 4 12 6 14 8 16
REMARK H PARENT 12 5 10 7 4 13 6 15 8 17
REMARK Flexibility Score: inf
ROOT
ATOM      1  C   UNL     1      16.848  14.234  27.945  1.00  0.00     0.181 C 
ENDROOT
BRANCH   1   2
ATOM      2  C   UNL     1      16.209  14.906  26.697  1.00  0.00     0.171 C 
BRANCH   2   3
ATOM      3  C   UNL     1      17.125  14.771  25.467  1.00  0.00     0.190 C 
BRANCH   3   4
ATOM      4  O   UNL     1      16.469  14.072  24.442  1.00  0.00    -0.394 OA
ATOM      5  H   UNL     1      15.612  13.744  24.822  1.00  0.00     0.210 HD
ENDBRANCH   3   4
ENDBRANCH   2   3
BRANCH   2   6
ATOM      6  O   UNL     1      15.991  16.269  26.958  1.00  0.00    -0.388 OA
ATOM      7  H   UNL     1      16.723  16.773  26.515  1.00  0.00     0.211 HD
ENDBRANCH   2   6
ENDBRANCH   1   2
BRANCH   1   8
ATOM      8  C   UNL     1      16.004  14.380  29.238  1.00  0.00     0.214 C 
BRANCH   8   9
ATOM      9  C   UNL     1      16.027  13.120  30.079  1.00  0.00     0.189 C 
ATOM     10  O   UNL     1      17.038  12.813  30.695  1.00  0.00    -0.294 OA
BRANCH   9  11
ATOM     11  C   UNL     1      14.824  12.220  30.147  1.00  0.00     0.234 C 
BRANCH  11  12
ATOM     12  O   UNL     1      13.748  12.800  29.461  1.00  0.00    -0.388 OA
ATOM     13  H   UNL     1      13.680  12.327  28.591  1.00  0.00     0.211 HD
ENDBRANCH  11  12
ENDBRANCH   9  11
ENDBRANCH   8   9
BRANCH   8  14
ATOM     14  O   UNL     1      16.450  15.483  29.986  1.00  0.00    -0.382 OA
ATOM     15  H   UNL     1      15.832  16.235  29.786  1.00  0.00     0.211 HD
ENDBRANCH   8  14
ENDBRANCH   1   8
BRANCH   1  16
ATOM     16  O   UNL     1      17.097  12.870  27.702  1.00  0.00    -0.387 OA
ATOM     17  H   UNL     1      16.337  12.516  27.170  1.00  0.00     0.211 HD
ENDBRANCH   1  16
TORSDOF 10
ENDMDL
MODEL 3
REMARK VINA RESULT:    -4.142      0.925      2.164
REMARK INTER + INTRA:          -6.457
REMARK INTER:                  -6.182
REMARK INTRA:                  -0.275
REMARK UNBOUND:                -0.498
REMARK SMILES O=C(CO)[C@@H](O)[C@@H](O)[C@@H](O)CO
REMARK SMILES IDX 7 1 9 2 11 3 12 4 10 6 5 8 2 9 1 10 3 11 4 12 6 14 8 16
REMARK H PARENT 12 5 10 7 4 13 6 15 8 17
REMARK Flexibility Score: inf
ROOT
ATOM      1  C   UNL     1      16.765  14.439  29.166  1.00  0.00     0.181 C 
ENDROOT
BRANCH   1   2
ATOM      2  C   UNL     1      16.691  13.338  30.261  1.00  0.00     0.171 C 
BRANCH   2   3
ATOM      3  C   UNL     1      15.359  12.570  30.182  1.00  0.00     0.190 C 
BRANCH   3   4
ATOM      4  O   UNL     1      14.304  13.447  29.884  1.00  0.00    -0.394 OA
ATOM      5  H   UNL     1      14.490  14.294  30.367  1.00  0.00     0.210 HD
ENDBRANCH   3   4
ENDBRANCH   2   3
BRANCH   2   6
ATOM      6  O   UNL     1      16.804  13.929  31.531  1.00  0.00    -0.388 OA
ATOM      7  H   UNL     1      17.722  14.302  31.599  1.00  0.00     0.211 HD
ENDBRANCH   2   6
ENDBRANCH   1   2
BRANCH   1   8
ATOM      8  C   UNL     1      16.346  13.950  27.755  1.00  0.00     0.214 C 
BRANCH   8   9
ATOM      9  C   UNL     1      16.480  15.038  26.710  1.00  0.00     0.189 C 
ATOM     10  O   UNL     1      16.043  16.158  26.933  1.00  0.00    -0.294 OA
BRANCH   9  11
ATOM     11  C   UNL     1      17.124  14.752  25.381  1.00  0.00     0.234 C 
BRANCH  11  12
ATOM     12  O   UNL     1      16.302  13.913  24.617  1.00  0.00    -0.388 OA
ATOM     13  H   UNL     1      16.816  13.078  24.463  1.00  0.00     0.211 HD
ENDBRANCH  11  12
ENDBRANCH   9  11
ENDBRANCH   8   9
BRANCH   8  14
ATOM     14  O   UNL     1      17.097  12.819  27.390  1.00  0.00    -0.382 OA
ATOM     15  H   UNL     1      17.893  12.798  27.986  1.00  0.00     0.211 HD
ENDBRANCH   8  14
ENDBRANCH   1   8
BRANCH   1  16
ATOM     16  O   UNL     1      15.983  15.552  29.525  1.00  0.00    -0.387 OA
ATOM     17  H   UNL     1      16.050  16.216  28.790  1.00  0.00     0.211 HD
ENDBRANCH   1  16
TORSDOF 10
ENDMDL
MODEL 4
REMARK VINA RESULT:    -3.983      1.153      2.085
REMARK INTER + INTRA:          -6.227
REMARK INTER:                  -5.567
REMARK INTRA:                  -0.660
REMARK UNBOUND:                -0.498
REMARK SMILES O=C(CO)[C@@H](O)[C@@H](O)[C@@H](O)CO
REMARK SMILES IDX 7 1 9 2 11 3 12 4 10 6 5 8 2 9 1 10 3 11 4 12 6 14 8 16
REMARK H PARENT 12 5 10 7 4 13 6 15 8 17
REMARK Flexibility Score: inf
ROOT
ATOM      1  C   UNL     1      15.706  13.999  29.634  1.00  0.00     0.181 C 
ENDROOT
BRANCH   1   2
ATOM      2  C   UNL     1      16.495  13.080  30.609  1.00  0.00     0.171 C 
BRANCH   2   3
ATOM      3  C   UNL     1      15.811  11.708  30.749  1.00  0.00     0.190 C 
BRANCH   3   4
ATOM      4  O   UNL     1      14.488  11.861  31.189  1.00  0.00    -0.394 OA
ATOM      5  H   UNL     1      13.956  11.145  30.752  1.00  0.00     0.210 HD
ENDBRANCH   3   4
ENDBRANCH   2   3
BRANCH   2   6
ATOM      6  O   UNL     1      16.566  13.687  31.874  1.00  0.00    -0.388 OA
ATOM      7  H   UNL     1      16.999  13.037  32.486  1.00  0.00     0.211 HD
ENDBRANCH   2   6
ENDBRANCH   1   2
BRANCH   1   8
ATOM      8  C   UNL     1      16.606  14.771  28.633  1.00  0.00     0.214 C 
BRANCH   8   9
ATOM      9  C   UNL     1      16.891  13.964  27.384  1.00  0.00     0.189 C 
ATOM     10  O   UNL     1      17.114  12.765  27.466  1.00  0.00    -0.294 OA
BRANCH   9  11
ATOM     11  C   UNL     1      16.932  14.628  26.034  1.00  0.00     0.234 C 
BRANCH  11  12
ATOM     12  O   UNL     1      15.640  14.999  25.639  1.00  0.00    -0.388 OA
ATOM     13  H   UNL     1      15.148  15.236  26.469  1.00  0.00     0.211 HD
ENDBRANCH  11  12
ENDBRANCH   9  11
ENDBRANCH   8   9
BRANCH   8  14
ATOM     14  O   UNL     1      16.016  16.004  28.303  1.00  0.00    -0.382 OA
ATOM     15  H   UNL     1      16.668  16.711  28.551  1.00  0.00     0.211 HD
ENDBRANCH   8  14
ENDBRANCH   1   8
BRANCH   1  16
ATOM     16  O   UNL     1      14.745  13.259  28.921  1.00  0.00    -0.387 OA
ATOM     17  H   UNL     1      14.029  13.003  29.559  1.00  0.00     0.211 HD
ENDBRANCH   1  16
TORSDOF 10
ENDMDL
MODEL 5
REMARK VINA RESULT:    -3.905      1.158      4.689
REMARK INTER + INTRA:          -6.116
REMARK INTER:                  -5.486
REMARK INTRA:                  -0.630
REMARK UNBOUND:                -0.498
REMARK SMILES O=C(CO)[C@@H](O)[C@@H](O)[C@@H](O)CO
REMARK SMILES IDX 7 1 9 2 11 3 12 4 10 6 5 8 2 9 1 10 3 11 4 12 6 14 8 16
REMARK H PARENT 12 5 10 7 4 13 6 15 8 17
REMARK Flexibility Score: inf
ROOT
ATOM      1  C   UNL     1      16.597  13.448  28.255  1.00  0.00     0.181 C 
ENDROOT
BRANCH   1   2
ATOM      2  C   UNL     1      16.032  14.752  27.624  1.00  0.00     0.171 C 
BRANCH   2   3
ATOM      3  C   UNL     1      16.867  15.183  26.405  1.00  0.00     0.190 C 
BRANCH   3   4
ATOM      4  O   UNL     1      16.471  14.472  25.262  1.00  0.00    -0.394 OA
ATOM      5  H   UNL     1      16.374  15.136  24.530  1.00  0.00     0.210 HD
ENDBRANCH   3   4
ENDBRANCH   2   3
BRANCH   2   6
ATOM      6  O   UNL     1      16.049  15.782  28.578  1.00  0.00    -0.388 OA
ATOM      7  H   UNL     1      15.110  16.076  28.709  1.00  0.00     0.211 HD
ENDBRANCH   2   6
ENDBRANCH   1   2
BRANCH   1   8
ATOM      8  C   UNL     1      15.607  12.735  29.213  1.00  0.00     0.214 C 
BRANCH   8   9
ATOM      9  C   UNL     1      16.183  12.565  30.604  1.00  0.00     0.189 C 
ATOM     10  O   UNL     1      15.902  11.577  31.267  1.00  0.00    -0.294 OA
BRANCH   9  11
ATOM     11  C   UNL     1      17.081  13.616  31.196  1.00  0.00     0.234 C 
BRANCH  11  12
ATOM     12  O   UNL     1      16.968  13.617  32.593  1.00  0.00    -0.388 OA
ATOM     13  H   UNL     1      16.118  13.151  32.807  1.00  0.00     0.211 HD
ENDBRANCH  11  12
ENDBRANCH   9  11
ENDBRANCH   8   9
BRANCH   8  14
ATOM     14  O   UNL     1      14.390  13.436  29.264  1.00  0.00    -0.382 OA
ATOM     15  H   UNL     1      13.683  12.772  29.480  1.00  0.00     0.211 HD
ENDBRANCH   8  14
ENDBRANCH   1   8
BRANCH   1  16
ATOM     16  O   UNL     1      17.006  12.548  27.253  1.00  0.00    -0.387 OA
ATOM     17  H   UNL     1      16.343  12.597  26.517  1.00  0.00     0.211 HD
ENDBRANCH   1  16
TORSDOF 10
ENDMDL
MODEL 6
REMARK VINA RESULT:    -3.719      1.013      4.540
REMARK INTER + INTRA:          -5.847
REMARK INTER:                  -5.194
REMARK INTRA:                  -0.654
REMARK UNBOUND:                -0.498
REMARK SMILES O=C(CO)[C@@H](O)[C@@H](O)[C@@H](O)CO
REMARK SMILES IDX 7 1 9 2 11 3 12 4 10 6 5 8 2 9 1 10 3 11 4 12 6 14 8 16
REMARK H PARENT 12 5 10 7 4 13 6 15 8 17
REMARK Flexibility Score: inf
ROOT
ATOM      1  C   UNL     1      16.334  14.325  28.439  1.00  0.00     0.181 C 
ENDROOT
BRANCH   1   2
ATOM      2  C   UNL     1      17.043  14.696  27.106  1.00  0.00     0.171 C 
BRANCH   2   3
ATOM      3  C   UNL     1      16.290  15.823  26.375  1.00  0.00     0.190 C 
BRANCH   3   4
ATOM      4  O   UNL     1      14.950  15.463  26.168  1.00  0.00    -0.394 OA
ATOM      5  H   UNL     1      14.582  16.101  25.501  1.00  0.00     0.210 HD
ENDBRANCH   3   4
ENDBRANCH   2   3
BRANCH   2   6
ATOM      6  O   UNL     1      17.098  13.567  26.272  1.00  0.00    -0.388 OA
ATOM      7  H   UNL     1      17.601  12.865  26.763  1.00  0.00     0.211 HD
ENDBRANCH   2   6
ENDBRANCH   1   2
BRANCH   1   8
ATOM      8  C   UNL     1      17.069  13.230  29.256  1.00  0.00     0.214 C 
BRANCH   8   9
ATOM      9  C   UNL     1      16.423  12.998  30.607  1.00  0.00     0.189 C 
ATOM     10  O   UNL     1      16.852  13.570  31.598  1.00  0.00    -0.294 OA
BRANCH   9  11
ATOM     11  C   UNL     1      15.269  12.044  30.752  1.00  0.00     0.234 C 
BRANCH  11  12
ATOM     12  O   UNL     1      14.239  12.394  29.869  1.00  0.00    -0.388 OA
ATOM     13  H   UNL     1      13.478  12.701  30.430  1.00  0.00     0.211 HD
ENDBRANCH  11  12
ENDBRANCH   9  11
ENDBRANCH   8   9
BRANCH   8  14
ATOM     14  O   UNL     1      17.125  12.032  28.522  1.00  0.00    -0.382 OA
ATOM     15  H   UNL     1      17.472  12.264  27.620  1.00  0.00     0.211 HD
ENDBRANCH   8  14
ENDBRANCH   1   8
BRANCH   1  16
ATOM     16  O   UNL     1      16.157  15.466  29.242  1.00  0.00    -0.387 OA
ATOM     17  H   UNL     1      16.300  15.194  30.186  1.00  0.00     0.211 HD
ENDBRANCH   1  16
TORSDOF 10
ENDMDL
MODEL 7
REMARK VINA RESULT:    -3.512     13.930     15.237
REMARK INTER + INTRA:          -5.550
REMARK INTER:                  -4.822
REMARK INTRA:                  -0.728
REMARK UNBOUND:                -0.498
REMARK SMILES O=C(CO)[C@@H](O)[C@@H](O)[C@@H](O)CO
REMARK SMILES IDX 7 1 9 2 11 3 12 4 10 6 5 8 2 9 1 10 3 11 4 12 6 14 8 16
REMARK H PARENT 12 5 10 7 4 13 6 15 8 17
REMARK Flexibility Score: inf
ROOT
ATOM      1  C   UNL     1       9.875   3.870  18.515  1.00  0.00     0.181 C 
ENDROOT
BRANCH   1   2
ATOM      2  C   UNL     1       9.494   2.376  18.316  1.00  0.00     0.171 C 
BRANCH   2   3
ATOM      3  C   UNL     1       7.965   2.199  18.262  1.00  0.00     0.190 C 
BRANCH   3   4
ATOM      4  O   UNL     1       7.354   2.882  19.325  1.00  0.00    -0.394 OA
ATOM      5  H   UNL     1       8.056   3.028  20.012  1.00  0.00     0.210 HD
ENDBRANCH   3   4
ENDBRANCH   2   3
BRANCH   2   6
ATOM      6  O   UNL     1      10.005   1.615  19.380  1.00  0.00    -0.388 OA
ATOM      7  H   UNL     1       9.258   1.063  19.731  1.00  0.00     0.211 HD
ENDBRANCH   2   6
ENDBRANCH   1   2
BRANCH   1   8
ATOM      8  C   UNL     1      11.305   4.223  18.026  1.00  0.00     0.214 C 
BRANCH   8   9
ATOM      9  C   UNL     1      11.749   5.591  18.504  1.00  0.00     0.189 C 
ATOM     10  O   UNL     1      11.421   6.592  17.885  1.00  0.00    -0.294 OA
BRANCH   9  11
ATOM     11  C   UNL     1      12.617   5.733  19.724  1.00  0.00     0.234 C 
BRANCH  11  12
ATOM     12  O   UNL     1      12.227   6.856  20.466  1.00  0.00    -0.388 OA
ATOM     13  H   UNL     1      12.991   7.491  20.440  1.00  0.00     0.211 HD
ENDBRANCH  11  12
ENDBRANCH   9  11
ENDBRANCH   8   9
BRANCH   8  14
ATOM     14  O   UNL     1      12.215   3.235  18.439  1.00  0.00    -0.382 OA
ATOM     15  H   UNL     1      12.843   3.089  17.683  1.00  0.00     0.211 HD
ENDBRANCH   8  14
ENDBRANCH   1   8
BRANCH   1  16
ATOM     16  O   UNL     1       8.944   4.711  17.876  1.00  0.00    -0.387 OA
ATOM     17  H   UNL     1       9.239   4.826  16.936  1.00  0.00     0.211 HD
ENDBRANCH   1  16
TORSDOF 10
ENDMDL
