MODEL 1
REMARK VINA RESULT:    -5.233      0.000      0.000
REMARK INTER + INTRA:         -14.471
REMARK INTER:                 -11.963
REMARK INTRA:                  -2.508
REMARK UNBOUND:                -2.508
REMARK SMILES CCCCCCCCCCCCCCCCCCCCCCCC(=O)[O-]
REMARK SMILES IDX 13 1 14 2 15 3 16 4 17 5 18 6 19 7 20 8 21 9 22 10 23 11
REMARK SMILES IDX 24 12 25 13 26 14 12 15 11 16 10 17 9 18 8 19 7 20 6 21 5 22
REMARK SMILES IDX 4 23 3 24 2 25 1 26
REMARK H PARENT
REMARK Flexibility Score: inf
ROOT
ATOM      1  C   UNL     1      10.269  51.229  22.669  1.00  0.00     0.000 C 
ENDROOT
BRANCH   1   2
ATOM      2  C   UNL     1      10.262  49.731  22.314  1.00  0.00     0.000 C 
BRANCH   2   3
ATOM      3  C   UNL     1      11.458  48.925  22.861  1.00  0.00     0.000 C 
BRANCH   3   4
ATOM      4  C   UNL     1      11.235  47.403  22.956  1.00  0.00     0.000 C 
BRANCH   4   5
ATOM      5  C   UNL     1       9.982  46.976  23.743  1.00  0.00     0.000 C 
BRANCH   5   6
ATOM      6  C   UNL     1       9.652  45.486  23.572  1.00  0.00     0.000 C 
BRANCH   6   7
ATOM      7  C   UNL     1       9.815  44.728  24.895  1.00  0.00     0.000 C 
BRANCH   7   8
ATOM      8  C   UNL     1      11.297  44.440  25.182  1.00  0.00     0.000 C 
BRANCH   8   9
ATOM      9  C   UNL     1      11.742  44.945  26.564  1.00  0.00     0.000 C 
BRANCH   9  10
ATOM     10  C   UNL     1      12.969  45.865  26.488  1.00  0.00     0.006 C 
BRANCH  10  11
ATOM     11  C   UNL     1      12.548  47.326  26.303  1.00  0.00     0.053 C 
BRANCH  11  12
ATOM     12  C   UNL     1      12.850  48.119  27.535  1.00  0.00     0.041 C 
ATOM     13  O   UNL     1      12.106  48.023  28.548  1.00  0.00    -0.550 OA
ATOM     14  O   UNL     1      13.982  48.922  27.585  1.00  0.00    -0.550 OA
ENDBRANCH  11  12
ENDBRANCH  10  11
ENDBRANCH   9  10
ENDBRANCH   8   9
ENDBRANCH   7   8
ENDBRANCH   6   7
ENDBRANCH   5   6
ENDBRANCH   4   5
ENDBRANCH   3   4
ENDBRANCH   2   3
ENDBRANCH   1   2
BRANCH   1  15
ATOM     15  C   UNL     1       9.901  52.123  21.472  1.00  0.00     0.000 C 
BRANCH  15  16
ATOM     16  C   UNL     1      10.347  53.582  21.660  1.00  0.00     0.000 C 
BRANCH  16  17
ATOM     17  C   UNL     1      10.582  53.949  23.138  1.00  0.00     0.000 C 
BRANCH  17  18
ATOM     18  C   UNL     1       9.420  54.763  23.747  1.00  0.00    -0.000 C 
BRANCH  18  19
ATOM     19  C   UNL     1       8.333  53.901  24.416  1.00  0.00    -0.000 C 
BRANCH  19  20
ATOM     20  C   UNL     1       7.283  53.309  23.458  1.00  0.00    -0.000 C 
BRANCH  20  21
ATOM     21  C   UNL     1       6.371  54.341  22.761  1.00  0.00    -0.000 C 
BRANCH  21  22
ATOM     22  C   UNL     1       6.460  54.362  21.224  1.00  0.00    -0.000 C 
BRANCH  22  23
ATOM     23  C   UNL     1       6.860  55.736  20.666  1.00  0.00    -0.000 C 
BRANCH  23  24
ATOM     24  C   UNL     1       7.974  55.649  19.607  1.00  0.00    -0.000 C 
BRANCH  24  25
ATOM     25  C   UNL     1       7.809  54.467  18.628  1.00  0.00    -0.003 C 
ATOM     26  C   UNL     1       6.907  54.815  17.444  1.00  0.00     0.004 C 
ENDBRANCH  24  25
ENDBRANCH  23  24
ENDBRANCH  22  23
ENDBRANCH  21  22
ENDBRANCH  20  21
ENDBRANCH  19  20
ENDBRANCH  18  19
ENDBRANCH  17  18
ENDBRANCH  16  17
ENDBRANCH  15  16
ENDBRANCH   1  15
TORSDOF 22
ENDMDL
MODEL 2
REMARK VINA RESULT:    -5.159      8.229     14.308
REMARK INTER + INTRA:         -14.301
REMARK INTER:                 -12.155
REMARK INTRA:                  -2.147
REMARK UNBOUND:                -2.508
REMARK SMILES CCCCCCCCCCCCCCCCCCCCCCCC(=O)[O-]
REMARK SMILES IDX 13 1 14 2 15 3 16 4 17 5 18 6 19 7 20 8 21 9 22 10 23 11
REMARK SMILES IDX 24 12 25 13 26 14 12 15 11 16 10 17 9 18 8 19 7 20 6 21 5 22
REMARK SMILES IDX 4 23 3 24 2 25 1 26
REMARK H PARENT
REMARK Flexibility Score: inf
ROOT
ATOM      1  C   UNL     1       2.097  58.560  20.904  1.00  0.00     0.000 C 
ENDROOT
BRANCH   1   2
ATOM      2  C   UNL     1       2.029  59.500  22.121  1.00  0.00     0.000 C 
BRANCH   2   3
ATOM      3  C   UNL     1       0.631  60.075  22.425  1.00  0.00     0.000 C 
BRANCH   3   4
ATOM      4  C   UNL     1      -0.551  59.162  22.044  1.00  0.00     0.000 C 
BRANCH   4   5
ATOM      5  C   UNL     1      -1.434  59.684  20.895  1.00  0.00     0.000 C 
BRANCH   5   6
ATOM      6  C   UNL     1      -1.519  61.217  20.861  1.00  0.00     0.000 C 
BRANCH   6   7
ATOM      7  C   UNL     1      -0.922  61.775  19.563  1.00  0.00     0.000 C 
BRANCH   7   8
ATOM      8  C   UNL     1      -0.400  60.640  18.668  1.00  0.00     0.000 C 
BRANCH   8   9
ATOM      9  C   UNL     1       1.097  60.779  18.348  1.00  0.00     0.000 C 
BRANCH   9  10
ATOM     10  C   UNL     1       1.624  59.626  17.480  1.00  0.00     0.006 C 
BRANCH  10  11
ATOM     11  C   UNL     1       0.852  59.539  16.160  1.00  0.00     0.053 C 
BRANCH  11  12
ATOM     12  C   UNL     1       1.483  60.415  15.125  1.00  0.00     0.041 C 
ATOM     13  O   UNL     1       0.952  61.516  14.817  1.00  0.00    -0.550 OA
ATOM     14  O   UNL     1       2.686  60.043  14.538  1.00  0.00    -0.550 OA
ENDBRANCH  11  12
ENDBRANCH  10  11
ENDBRANCH   9  10
ENDBRANCH   8   9
ENDBRANCH   7   8
ENDBRANCH   6   7
ENDBRANCH   5   6
ENDBRANCH   4   5
ENDBRANCH   3   4
ENDBRANCH   2   3
ENDBRANCH   1   2
BRANCH   1  15
ATOM     15  C   UNL     1       3.538  58.330  20.413  1.00  0.00     0.000 C 
BRANCH  15  16
ATOM     16  C   UNL     1       4.336  57.391  21.332  1.00  0.00     0.000 C 
BRANCH  16  17
ATOM     17  C   UNL     1       5.666  56.932  20.706  1.00  0.00     0.000 C 
BRANCH  17  18
ATOM     18  C   UNL     1       6.122  55.545  21.210  1.00  0.00    -0.000 C 
BRANCH  18  19
ATOM     19  C   UNL     1       6.389  54.525  20.087  1.00  0.00    -0.000 C 
BRANCH  19  20
ATOM     20  C   UNL     1       7.793  53.895  20.093  1.00  0.00    -0.000 C 
BRANCH  20  21
ATOM     21  C   UNL     1       8.799  54.538  21.072  1.00  0.00    -0.000 C 
BRANCH  21  22
ATOM     22  C   UNL     1      10.047  53.690  21.379  1.00  0.00    -0.000 C 
BRANCH  22  23
ATOM     23  C   UNL     1      10.014  53.060  22.780  1.00  0.00    -0.000 C 
BRANCH  23  24
ATOM     24  C   UNL     1      10.299  54.077  23.899  1.00  0.00    -0.000 C 
BRANCH  24  25
ATOM     25  C   UNL     1       9.292  54.014  25.068  1.00  0.00    -0.003 C 
ATOM     26  C   UNL     1       7.892  53.608  24.606  1.00  0.00     0.004 C 
ENDBRANCH  24  25
ENDBRANCH  23  24
ENDBRANCH  22  23
ENDBRANCH  21  22
ENDBRANCH  20  21
ENDBRANCH  19  20
ENDBRANCH  18  19
ENDBRANCH  17  18
ENDBRANCH  16  17
ENDBRANCH  15  16
ENDBRANCH   1  15
TORSDOF 22
ENDMDL
MODEL 3
REMARK VINA RESULT:    -5.015      4.961      9.273
REMARK INTER + INTRA:         -13.973
REMARK INTER:                 -12.213
REMARK INTRA:                  -1.759
REMARK UNBOUND:                -2.508
REMARK SMILES CCCCCCCCCCCCCCCCCCCCCCCC(=O)[O-]
REMARK SMILES IDX 13 1 14 2 15 3 16 4 17 5 18 6 19 7 20 8 21 9 22 10 23 11
REMARK SMILES IDX 24 12 25 13 26 14 12 15 11 16 10 17 9 18 8 19 7 20 6 21 5 22
REMARK SMILES IDX 4 23 3 24 2 25 1 26
REMARK H PARENT
REMARK Flexibility Score: inf
ROOT
ATOM      1  C   UNL     1      10.304  48.531  22.730  1.00  0.00     0.000 C 
ENDROOT
BRANCH   1   2
ATOM      2  C   UNL     1      10.900  49.928  22.482  1.00  0.00     0.000 C 
BRANCH   2   3
ATOM      3  C   UNL     1       9.875  51.079  22.451  1.00  0.00     0.000 C 
BRANCH   3   4
ATOM      4  C   UNL     1      10.252  52.270  21.547  1.00  0.00     0.000 C 
BRANCH   4   5
ATOM      5  C   UNL     1      10.570  53.579  22.294  1.00  0.00     0.000 C 
BRANCH   5   6
ATOM      6  C   UNL     1       9.968  53.618  23.707  1.00  0.00     0.000 C 
BRANCH   6   7
ATOM      7  C   UNL     1       8.687  54.462  23.738  1.00  0.00     0.000 C 
BRANCH   7   8
ATOM      8  C   UNL     1       7.461  53.613  23.367  1.00  0.00     0.000 C 
BRANCH   8   9
ATOM      9  C   UNL     1       6.628  54.237  22.237  1.00  0.00     0.000 C 
BRANCH   9  10
ATOM     10  C   UNL     1       7.426  55.254  21.409  1.00  0.00     0.006 C 
BRANCH  10  11
ATOM     11  C   UNL     1       7.822  54.665  20.051  1.00  0.00     0.053 C 
BRANCH  11  12
ATOM     12  C   UNL     1       7.375  55.561  18.940  1.00  0.00     0.041 C 
ATOM     13  O   UNL     1       7.388  56.812  19.090  1.00  0.00    -0.550 OA
ATOM     14  O   UNL     1       6.993  55.018  17.719  1.00  0.00    -0.550 OA
ENDBRANCH  11  12
ENDBRANCH  10  11
ENDBRANCH   9  10
ENDBRANCH   8   9
ENDBRANCH   7   8
ENDBRANCH   6   7
ENDBRANCH   5   6
ENDBRANCH   4   5
ENDBRANCH   3   4
ENDBRANCH   2   3
ENDBRANCH   1   2
BRANCH   1  15
ATOM     15  C   UNL     1      11.383  47.443  22.872  1.00  0.00     0.000 C 
BRANCH  15  16
ATOM     16  C   UNL     1      10.824  46.117  23.413  1.00  0.00     0.000 C 
BRANCH  16  17
ATOM     17  C   UNL     1       9.300  46.156  23.630  1.00  0.00     0.000 C 
BRANCH  17  18
ATOM     18  C   UNL     1       8.634  44.772  23.471  1.00  0.00    -0.000 C 
BRANCH  18  19
ATOM     19  C   UNL     1       7.104  44.786  23.657  1.00  0.00    -0.000 C 
BRANCH  19  20
ATOM     20  C   UNL     1       6.599  45.579  24.876  1.00  0.00    -0.000 C 
BRANCH  20  21
ATOM     21  C   UNL     1       5.205  46.221  24.714  1.00  0.00    -0.000 C 
BRANCH  21  22
ATOM     22  C   UNL     1       4.559  46.043  23.327  1.00  0.00    -0.000 C 
BRANCH  22  23
ATOM     23  C   UNL     1       3.032  46.208  23.351  1.00  0.00    -0.000 C 
BRANCH  23  24
ATOM     24  C   UNL     1       2.517  47.157  22.256  1.00  0.00    -0.000 C 
BRANCH  24  25
ATOM     25  C   UNL     1       1.723  48.364  22.803  1.00  0.00    -0.003 C 
ATOM     26  C   UNL     1       2.259  48.849  24.150  1.00  0.00     0.004 C 
ENDBRANCH  24  25
ENDBRANCH  23  24
ENDBRANCH  22  23
ENDBRANCH  21  22
ENDBRANCH  20  21
ENDBRANCH  19  20
ENDBRANCH  18  19
ENDBRANCH  17  18
ENDBRANCH  16  17
ENDBRANCH  15  16
ENDBRANCH   1  15
TORSDOF 22
ENDMDL
MODEL 4
REMARK VINA RESULT:    -4.994      6.480     10.844
REMARK INTER + INTRA:         -13.924
REMARK INTER:                 -11.436
REMARK INTRA:                  -2.488
REMARK UNBOUND:                -2.508
REMARK SMILES CCCCCCCCCCCCCCCCCCCCCCCC(=O)[O-]
REMARK SMILES IDX 13 1 14 2 15 3 16 4 17 5 18 6 19 7 20 8 21 9 22 10 23 11
REMARK SMILES IDX 24 12 25 13 26 14 12 15 11 16 10 17 9 18 8 19 7 20 6 21 5 22
REMARK SMILES IDX 4 23 3 24 2 25 1 26
REMARK H PARENT
REMARK Flexibility Score: inf
ROOT
ATOM      1  C   UNL     1       3.524  59.723  19.798  1.00  0.00     0.000 C 
ENDROOT
BRANCH   1   2
ATOM      2  C   UNL     1       3.070  58.548  20.682  1.00  0.00     0.000 C 
BRANCH   2   3
ATOM      3  C   UNL     1       4.210  57.661  21.225  1.00  0.00     0.000 C 
BRANCH   3   4
ATOM      4  C   UNL     1       5.349  57.372  20.227  1.00  0.00     0.000 C 
BRANCH   4   5
ATOM      5  C   UNL     1       6.490  56.496  20.778  1.00  0.00     0.000 C 
BRANCH   5   6
ATOM      6  C   UNL     1       7.514  56.110  19.701  1.00  0.00     0.000 C 
BRANCH   6   7
ATOM      7  C   UNL     1       7.754  54.595  19.685  1.00  0.00     0.000 C 
BRANCH   7   8
ATOM      8  C   UNL     1       7.276  53.950  20.996  1.00  0.00     0.000 C 
BRANCH   8   9
ATOM      9  C   UNL     1       8.407  53.230  21.748  1.00  0.00     0.000 C 
BRANCH   9  10
ATOM     10  C   UNL     1       9.574  54.166  22.094  1.00  0.00     0.006 C 
BRANCH  10  11
ATOM     11  C   UNL     1       9.242  55.028  23.317  1.00  0.00     0.053 C 
BRANCH  11  12
ATOM     12  C   UNL     1       9.803  54.414  24.559  1.00  0.00     0.041 C 
ATOM     13  O   UNL     1       9.034  53.918  25.425  1.00  0.00    -0.550 OA
ATOM     14  O   UNL     1      11.179  54.341  24.738  1.00  0.00    -0.550 OA
ENDBRANCH  11  12
ENDBRANCH  10  11
ENDBRANCH   9  10
ENDBRANCH   8   9
ENDBRANCH   7   8
ENDBRANCH   6   7
ENDBRANCH   5   6
ENDBRANCH   4   5
ENDBRANCH   3   4
ENDBRANCH   2   3
ENDBRANCH   1   2
BRANCH   1  15
ATOM     15  C   UNL     1       2.379  60.304  18.950  1.00  0.00     0.000 C 
BRANCH  15  16
ATOM     16  C   UNL     1       1.784  59.278  17.972  1.00  0.00     0.000 C 
BRANCH  16  17
ATOM     17  C   UNL     1       1.786  59.771  16.513  1.00  0.00     0.000 C 
BRANCH  17  18
ATOM     18  C   UNL     1       0.572  59.265  15.705  1.00  0.00    -0.000 C 
BRANCH  18  19
ATOM     19  C   UNL     1      -0.578  60.286  15.595  1.00  0.00    -0.000 C 
BRANCH  19  20
ATOM     20  C   UNL     1      -1.587  60.264  16.758  1.00  0.00    -0.000 C 
BRANCH  20  21
ATOM     21  C   UNL     1      -1.814  61.620  17.459  1.00  0.00    -0.000 C 
BRANCH  21  22
ATOM     22  C   UNL     1      -1.170  61.753  18.851  1.00  0.00    -0.000 C 
BRANCH  22  23
ATOM     23  C   UNL     1      -1.280  60.470  19.688  1.00  0.00    -0.000 C 
BRANCH  23  24
ATOM     24  C   UNL     1      -0.626  60.603  21.075  1.00  0.00    -0.000 C 
BRANCH  24  25
ATOM     25  C   UNL     1      -0.449  59.257  21.810  1.00  0.00    -0.003 C 
ATOM     26  C   UNL     1       0.406  59.391  23.071  1.00  0.00     0.004 C 
ENDBRANCH  24  25
ENDBRANCH  23  24
ENDBRANCH  22  23
ENDBRANCH  21  22
ENDBRANCH  20  21
ENDBRANCH  19  20
ENDBRANCH  18  19
ENDBRANCH  17  18
ENDBRANCH  16  17
ENDBRANCH  15  16
ENDBRANCH   1  15
TORSDOF 22
ENDMDL
MODEL 5
REMARK VINA RESULT:    -4.976      3.886     10.566
REMARK INTER + INTRA:         -13.885
REMARK INTER:                 -11.944
REMARK INTRA:                  -1.940
REMARK UNBOUND:                -2.508
REMARK SMILES CCCCCCCCCCCCCCCCCCCCCCCC(=O)[O-]
REMARK SMILES IDX 13 1 14 2 15 3 16 4 17 5 18 6 19 7 20 8 21 9 22 10 23 11
REMARK SMILES IDX 24 12 25 13 26 14 12 15 11 16 10 17 9 18 8 19 7 20 6 21 5 22
REMARK SMILES IDX 4 23 3 24 2 25 1 26
REMARK H PARENT
REMARK Flexibility Score: inf
ROOT
ATOM      1  C   UNL     1      11.594  48.372  22.771  1.00  0.00     0.000 C 
ENDROOT
BRANCH   1   2
ATOM      2  C   UNL     1      10.370  49.242  22.434  1.00  0.00     0.000 C 
BRANCH   2   3
ATOM      3  C   UNL     1      10.536  50.746  22.732  1.00  0.00     0.000 C 
BRANCH   3   4
ATOM      4  C   UNL     1       9.842  51.694  21.733  1.00  0.00     0.000 C 
BRANCH   4   5
ATOM      5  C   UNL     1      10.309  53.160  21.795  1.00  0.00     0.000 C 
BRANCH   5   6
ATOM      6  C   UNL     1       9.289  54.079  22.484  1.00  0.00     0.000 C 
BRANCH   6   7
ATOM      7  C   UNL     1       7.856  53.583  22.257  1.00  0.00     0.000 C 
BRANCH   7   8
ATOM      8  C   UNL     1       6.965  54.709  21.712  1.00  0.00     0.000 C 
BRANCH   8   9
ATOM      9  C   UNL     1       7.776  55.896  21.167  1.00  0.00     0.000 C 
BRANCH   9  10
ATOM     10  C   UNL     1       7.313  56.336  19.771  1.00  0.00     0.006 C 
BRANCH  10  11
ATOM     11  C   UNL     1       6.433  55.262  19.122  1.00  0.00     0.053 C 
BRANCH  11  12
ATOM     12  C   UNL     1       7.099  54.705  17.904  1.00  0.00     0.041 C 
ATOM     13  O   UNL     1       7.911  53.747  18.008  1.00  0.00    -0.550 OA
ATOM     14  O   UNL     1       6.784  55.207  16.648  1.00  0.00    -0.550 OA
ENDBRANCH  11  12
ENDBRANCH  10  11
ENDBRANCH   9  10
ENDBRANCH   8   9
ENDBRANCH   7   8
ENDBRANCH   6   7
ENDBRANCH   5   6
ENDBRANCH   4   5
ENDBRANCH   3   4
ENDBRANCH   2   3
ENDBRANCH   1   2
BRANCH   1  15
ATOM     15  C   UNL     1      11.210  46.932  23.153  1.00  0.00     0.000 C 
BRANCH  15  16
ATOM     16  C   UNL     1       9.749  46.808  23.614  1.00  0.00     0.000 C 
BRANCH  16  17
ATOM     17  C   UNL     1       9.214  45.366  23.524  1.00  0.00     0.000 C 
BRANCH  17  18
ATOM     18  C   UNL     1      10.166  44.331  24.161  1.00  0.00    -0.000 C 
BRANCH  18  19
ATOM     19  C   UNL     1      10.157  44.334  25.702  1.00  0.00    -0.000 C 
BRANCH  19  20
ATOM     20  C   UNL     1      11.360  45.031  26.363  1.00  0.00    -0.000 C 
BRANCH  20  21
ATOM     21  C   UNL     1      11.425  44.917  27.901  1.00  0.00    -0.000 C 
BRANCH  21  22
ATOM     22  C   UNL     1      12.717  45.456  28.543  1.00  0.00    -0.000 C 
BRANCH  22  23
ATOM     23  C   UNL     1      13.909  45.464  27.575  1.00  0.00    -0.000 C 
BRANCH  23  24
ATOM     24  C   UNL     1      14.747  46.751  27.670  1.00  0.00    -0.000 C 
BRANCH  24  25
ATOM     25  C   UNL     1      13.935  48.040  27.417  1.00  0.00    -0.003 C 
ATOM     26  C   UNL     1      13.371  48.102  25.997  1.00  0.00     0.004 C 
ENDBRANCH  24  25
ENDBRANCH  23  24
ENDBRANCH  22  23
ENDBRANCH  21  22
ENDBRANCH  20  21
ENDBRANCH  19  20
ENDBRANCH  18  19
ENDBRANCH  17  18
ENDBRANCH  16  17
ENDBRANCH  15  16
ENDBRANCH   1  15
TORSDOF 22
ENDMDL
MODEL 6
REMARK VINA RESULT:    -4.971      8.309     14.586
REMARK INTER + INTRA:         -13.872
REMARK INTER:                 -12.067
REMARK INTRA:                  -1.805
REMARK UNBOUND:                -2.508
REMARK SMILES CCCCCCCCCCCCCCCCCCCCCCCC(=O)[O-]
REMARK SMILES IDX 13 1 14 2 15 3 16 4 17 5 18 6 19 7 20 8 21 9 22 10 23 11
REMARK SMILES IDX 24 12 25 13 26 14 12 15 11 16 10 17 9 18 8 19 7 20 6 21 5 22
REMARK SMILES IDX 4 23 3 24 2 25 1 26
REMARK H PARENT
REMARK Flexibility Score: inf
ROOT
ATOM      1  C   UNL     1       1.913  59.650  21.949  1.00  0.00     0.000 C 
ENDROOT
BRANCH   1   2
ATOM      2  C   UNL     1       0.823  59.308  22.981  1.00  0.00     0.000 C 
BRANCH   2   3
ATOM      3  C   UNL     1      -0.394  60.256  22.984  1.00  0.00     0.000 C 
BRANCH   3   4
ATOM      4  C   UNL     1      -1.610  59.765  22.173  1.00  0.00     0.000 C 
BRANCH   4   5
ATOM      5  C   UNL     1      -1.547  60.058  20.662  1.00  0.00     0.000 C 
BRANCH   5   6
ATOM      6  C   UNL     1      -1.034  61.472  20.353  1.00  0.00     0.000 C 
BRANCH   6   7
ATOM      7  C   UNL     1      -0.413  61.540  18.952  1.00  0.00     0.000 C 
BRANCH   7   8
ATOM      8  C   UNL     1      -1.503  61.537  17.868  1.00  0.00     0.000 C 
BRANCH   8   9
ATOM      9  C   UNL     1      -1.558  60.215  17.086  1.00  0.00     0.000 C 
BRANCH   9  10
ATOM     10  C   UNL     1      -0.718  60.256  15.801  1.00  0.00     0.006 C 
BRANCH  10  11
ATOM     11  C   UNL     1       0.228  59.053  15.727  1.00  0.00     0.053 C 
BRANCH  11  12
ATOM     12  C   UNL     1       1.640  59.481  15.969  1.00  0.00     0.041 C 
ATOM     13  O   UNL     1       2.409  59.711  14.998  1.00  0.00    -0.550 OA
ATOM     14  O   UNL     1       2.094  59.677  17.268  1.00  0.00    -0.550 OA
ENDBRANCH  11  12
ENDBRANCH  10  11
ENDBRANCH   9  10
ENDBRANCH   8   9
ENDBRANCH   7   8
ENDBRANCH   6   7
ENDBRANCH   5   6
ENDBRANCH   4   5
ENDBRANCH   3   4
ENDBRANCH   2   3
ENDBRANCH   1   2
BRANCH   1  15
ATOM     15  C   UNL     1       2.215  58.479  20.997  1.00  0.00     0.000 C 
BRANCH  15  16
ATOM     16  C   UNL     1       3.667  58.482  20.494  1.00  0.00     0.000 C 
BRANCH  16  17
ATOM     17  C   UNL     1       4.510  57.340  21.094  1.00  0.00     0.000 C 
BRANCH  17  18
ATOM     18  C   UNL     1       5.823  57.091  20.321  1.00  0.00    -0.000 C 
BRANCH  18  19
ATOM     19  C   UNL     1       6.746  56.044  20.974  1.00  0.00    -0.000 C 
BRANCH  19  20
ATOM     20  C   UNL     1       6.535  54.596  20.497  1.00  0.00    -0.000 C 
BRANCH  20  21
ATOM     21  C   UNL     1       7.557  53.570  21.032  1.00  0.00    -0.000 C 
BRANCH  21  22
ATOM     22  C   UNL     1       9.023  54.040  21.022  1.00  0.00    -0.000 C 
BRANCH  22  23
ATOM     23  C   UNL     1       9.898  53.294  22.040  1.00  0.00    -0.000 C 
BRANCH  23  24
ATOM     24  C   UNL     1      10.344  54.186  23.212  1.00  0.00    -0.000 C 
BRANCH  24  25
ATOM     25  C   UNL     1       9.175  54.698  24.082  1.00  0.00    -0.003 C 
ATOM     26  C   UNL     1       8.354  53.556  24.681  1.00  0.00     0.004 C 
ENDBRANCH  24  25
ENDBRANCH  23  24
ENDBRANCH  22  23
ENDBRANCH  21  22
ENDBRANCH  20  21
ENDBRANCH  19  20
ENDBRANCH  18  19
ENDBRANCH  17  18
ENDBRANCH  16  17
ENDBRANCH  15  16
ENDBRANCH   1  15
TORSDOF 22
ENDMDL
MODEL 7
REMARK VINA RESULT:    -4.949      3.422      4.413
REMARK INTER + INTRA:         -13.822
REMARK INTER:                 -12.200
REMARK INTRA:                  -1.623
REMARK UNBOUND:                -2.508
REMARK SMILES CCCCCCCCCCCCCCCCCCCCCCCC(=O)[O-]
REMARK SMILES IDX 13 1 14 2 15 3 16 4 17 5 18 6 19 7 20 8 21 9 22 10 23 11
REMARK SMILES IDX 24 12 25 13 26 14 12 15 11 16 10 17 9 18 8 19 7 20 6 21 5 22
REMARK SMILES IDX 4 23 3 24 2 25 1 26
REMARK H PARENT
REMARK Flexibility Score: inf
ROOT
ATOM      1  C   UNL     1      10.237  51.259  22.731  1.00  0.00     0.000 C 
ENDROOT
BRANCH   1   2
ATOM      2  C   UNL     1      10.259  49.761  22.381  1.00  0.00     0.000 C 
BRANCH   2   3
ATOM      3  C   UNL     1      11.511  48.997  22.858  1.00  0.00     0.000 C 
BRANCH   3   4
ATOM      4  C   UNL     1      11.403  47.460  22.804  1.00  0.00     0.000 C 
BRANCH   4   5
ATOM      5  C   UNL     1      10.011  46.893  23.140  1.00  0.00     0.000 C 
BRANCH   5   6
ATOM      6  C   UNL     1      10.063  45.430  23.606  1.00  0.00     0.000 C 
BRANCH   6   7
ATOM      7  C   UNL     1       8.679  44.775  23.519  1.00  0.00     0.000 C 
BRANCH   7   8
ATOM      8  C   UNL     1       8.104  44.520  24.921  1.00  0.00     0.000 C 
BRANCH   8   9
ATOM      9  C   UNL     1       6.955  45.478  25.273  1.00  0.00     0.000 C 
BRANCH   9  10
ATOM     10  C   UNL     1       5.638  45.100  24.578  1.00  0.00     0.006 C 
BRANCH  10  11
ATOM     11  C   UNL     1       5.318  46.077  23.442  1.00  0.00     0.053 C 
BRANCH  11  12
ATOM     12  C   UNL     1       3.878  46.479  23.488  1.00  0.00     0.041 C 
ATOM     13  O   UNL     1       3.254  46.481  24.582  1.00  0.00    -0.550 OA
ATOM     14  O   UNL     1       3.238  46.903  22.329  1.00  0.00    -0.550 OA
ENDBRANCH  11  12
ENDBRANCH  10  11
ENDBRANCH   9  10
ENDBRANCH   8   9
ENDBRANCH   7   8
ENDBRANCH   6   7
ENDBRANCH   5   6
ENDBRANCH   4   5
ENDBRANCH   3   4
ENDBRANCH   2   3
ENDBRANCH   1   2
BRANCH   1  15
ATOM     15  C   UNL     1      10.219  52.159  21.482  1.00  0.00     0.000 C 
BRANCH  15  16
ATOM     16  C   UNL     1      10.346  53.652  21.824  1.00  0.00     0.000 C 
BRANCH  16  17
ATOM     17  C   UNL     1      10.566  53.905  23.327  1.00  0.00     0.000 C 
BRANCH  17  18
ATOM     18  C   UNL     1       9.476  54.803  23.951  1.00  0.00    -0.000 C 
BRANCH  18  19
ATOM     19  C   UNL     1       8.339  54.023  24.641  1.00  0.00    -0.000 C 
BRANCH  19  20
ATOM     20  C   UNL     1       7.422  53.228  23.694  1.00  0.00    -0.000 C 
BRANCH  20  21
ATOM     21  C   UNL     1       6.580  54.081  22.722  1.00  0.00    -0.000 C 
BRANCH  21  22
ATOM     22  C   UNL     1       6.969  53.958  21.237  1.00  0.00    -0.000 C 
BRANCH  22  23
ATOM     23  C   UNL     1       6.485  55.145  20.391  1.00  0.00    -0.000 C 
BRANCH  23  24
ATOM     24  C   UNL     1       7.541  55.628  19.381  1.00  0.00    -0.000 C 
BRANCH  24  25
ATOM     25  C   UNL     1       7.328  55.085  17.951  1.00  0.00    -0.003 C 
ATOM     26  C   UNL     1       6.394  53.874  17.924  1.00  0.00     0.004 C 
ENDBRANCH  24  25
ENDBRANCH  23  24
ENDBRANCH  22  23
ENDBRANCH  21  22
ENDBRANCH  20  21
ENDBRANCH  19  20
ENDBRANCH  18  19
ENDBRANCH  17  18
ENDBRANCH  16  17
ENDBRANCH  15  16
ENDBRANCH   1  15
TORSDOF 22
ENDMDL
MODEL 8
REMARK VINA RESULT:    -4.923      5.936      9.691
REMARK INTER + INTRA:         -13.763
REMARK INTER:                 -12.018
REMARK INTRA:                  -1.745
REMARK UNBOUND:                -2.508
REMARK SMILES CCCCCCCCCCCCCCCCCCCCCCCC(=O)[O-]
REMARK SMILES IDX 13 1 14 2 15 3 16 4 17 5 18 6 19 7 20 8 21 9 22 10 23 11
REMARK SMILES IDX 24 12 25 13 26 14 12 15 11 16 10 17 9 18 8 19 7 20 6 21 5 22
REMARK SMILES IDX 4 23 3 24 2 25 1 26
REMARK H PARENT
REMARK Flexibility Score: inf
ROOT
ATOM      1  C   UNL     1       3.907  58.448  20.139  1.00  0.00     0.000 C 
ENDROOT
BRANCH   1   2
ATOM      2  C   UNL     1       4.299  57.502  21.289  1.00  0.00     0.000 C 
BRANCH   2   3
ATOM      3  C   UNL     1       5.329  56.416  20.919  1.00  0.00     0.000 C 
BRANCH   3   4
ATOM      4  C   UNL     1       6.568  56.920  20.153  1.00  0.00     0.000 C 
BRANCH   4   5
ATOM      5  C   UNL     1       6.997  56.045  18.960  1.00  0.00     0.000 C 
BRANCH   5   6
ATOM      6  C   UNL     1       7.762  54.785  19.392  1.00  0.00     0.000 C 
BRANCH   6   7
ATOM      7  C   UNL     1       8.188  54.875  20.863  1.00  0.00     0.000 C 
BRANCH   7   8
ATOM      8  C   UNL     1       8.744  53.530  21.356  1.00  0.00     0.000 C 
BRANCH   8   9
ATOM      9  C   UNL     1      10.262  53.566  21.591  1.00  0.00     0.000 C 
BRANCH   9  10
ATOM     10  C   UNL     1      10.642  53.244  23.043  1.00  0.00     0.006 C 
BRANCH  10  11
ATOM     11  C   UNL     1      10.383  54.446  23.957  1.00  0.00     0.053 C 
BRANCH  11  12
ATOM     12  C   UNL     1       9.443  54.073  25.059  1.00  0.00     0.041 C 
ATOM     13  O   UNL     1       9.762  54.277  26.261  1.00  0.00    -0.550 OA
ATOM     14  O   UNL     1       8.192  53.549  24.759  1.00  0.00    -0.550 OA
ENDBRANCH  11  12
ENDBRANCH  10  11
ENDBRANCH   9  10
ENDBRANCH   8   9
ENDBRANCH   7   8
ENDBRANCH   6   7
ENDBRANCH   5   6
ENDBRANCH   4   5
ENDBRANCH   3   4
ENDBRANCH   2   3
ENDBRANCH   1   2
BRANCH   1  15
ATOM     15  C   UNL     1       2.502  59.048  20.319  1.00  0.00     0.000 C 
BRANCH  15  16
ATOM     16  C   UNL     1       2.417  60.019  21.507  1.00  0.00     0.000 C 
BRANCH  16  17
ATOM     17  C   UNL     1       1.134  59.836  22.339  1.00  0.00     0.000 C 
BRANCH  17  18
ATOM     18  C   UNL     1       0.234  58.696  21.813  1.00  0.00    -0.000 C 
BRANCH  18  19
ATOM     19  C   UNL     1      -1.223  59.121  21.544  1.00  0.00    -0.000 C 
BRANCH  19  20
ATOM     20  C   UNL     1      -1.401  60.557  21.020  1.00  0.00    -0.000 C 
BRANCH  20  21
ATOM     21  C   UNL     1      -1.370  60.707  19.484  1.00  0.00    -0.000 C 
BRANCH  21  22
ATOM     22  C   UNL     1      -0.042  61.227  18.904  1.00  0.00    -0.000 C 
BRANCH  22  23
ATOM     23  C   UNL     1       0.132  60.896  17.414  1.00  0.00    -0.000 C 
BRANCH  23  24
ATOM     24  C   UNL     1       1.301  59.930  17.149  1.00  0.00    -0.000 C 
BRANCH  24  25
ATOM     25  C   UNL     1       1.248  59.255  15.762  1.00  0.00    -0.003 C 
ATOM     26  C   UNL     1       2.332  59.780  14.819  1.00  0.00     0.004 C 
ENDBRANCH  24  25
ENDBRANCH  23  24
ENDBRANCH  22  23
ENDBRANCH  21  22
ENDBRANCH  20  21
ENDBRANCH  19  20
ENDBRANCH  18  19
ENDBRANCH  17  18
ENDBRANCH  16  17
ENDBRANCH  15  16
ENDBRANCH   1  15
TORSDOF 22
ENDMDL
MODEL 9
REMARK VINA RESULT:    -4.894      3.869     10.334
REMARK INTER + INTRA:         -13.697
REMARK INTER:                 -11.404
REMARK INTRA:                  -2.293
REMARK UNBOUND:                -2.508
REMARK SMILES CCCCCCCCCCCCCCCCCCCCCCCC(=O)[O-]
REMARK SMILES IDX 13 1 14 2 15 3 16 4 17 5 18 6 19 7 20 8 21 9 22 10 23 11
REMARK SMILES IDX 24 12 25 13 26 14 12 15 11 16 10 17 9 18 8 19 7 20 6 21 5 22
REMARK SMILES IDX 4 23 3 24 2 25 1 26
REMARK H PARENT
REMARK Flexibility Score: inf
ROOT
ATOM      1  C   UNL     1       9.869  50.852  22.692  1.00  0.00     0.000 C 
ENDROOT
BRANCH   1   2
ATOM      2  C   UNL     1      10.058  51.933  21.613  1.00  0.00     0.000 C 
BRANCH   2   3
ATOM      3  C   UNL     1      10.625  53.274  22.124  1.00  0.00     0.000 C 
BRANCH   3   4
ATOM      4  C   UNL     1      10.270  53.624  23.583  1.00  0.00     0.000 C 
BRANCH   4   5
ATOM      5  C   UNL     1       9.026  54.515  23.754  1.00  0.00     0.000 C 
BRANCH   5   6
ATOM      6  C   UNL     1       7.732  53.705  23.916  1.00  0.00     0.000 C 
BRANCH   6   7
ATOM      7  C   UNL     1       6.924  53.689  22.613  1.00  0.00     0.000 C 
BRANCH   7   8
ATOM      8  C   UNL     1       7.404  54.790  21.655  1.00  0.00     0.000 C 
BRANCH   8   9
ATOM      9  C   UNL     1       6.290  55.782  21.286  1.00  0.00     0.000 C 
BRANCH   9  10
ATOM     10  C   UNL     1       6.504  56.421  19.906  1.00  0.00     0.006 C 
BRANCH  10  11
ATOM     11  C   UNL     1       7.592  55.681  19.122  1.00  0.00     0.053 C 
BRANCH  11  12
ATOM     12  C   UNL     1       6.980  54.808  18.073  1.00  0.00     0.041 C 
ATOM     13  O   UNL     1       6.474  53.698  18.388  1.00  0.00    -0.550 OA
ATOM     14  O   UNL     1       6.920  55.243  16.755  1.00  0.00    -0.550 OA
ENDBRANCH  11  12
ENDBRANCH  10  11
ENDBRANCH   9  10
ENDBRANCH   8   9
ENDBRANCH   7   8
ENDBRANCH   6   7
ENDBRANCH   5   6
ENDBRANCH   4   5
ENDBRANCH   3   4
ENDBRANCH   2   3
ENDBRANCH   1   2
BRANCH   1  15
ATOM     15  C   UNL     1      11.031  49.843  22.729  1.00  0.00     0.000 C 
BRANCH  15  16
ATOM     16  C   UNL     1      10.581  48.407  22.419  1.00  0.00     0.000 C 
BRANCH  16  17
ATOM     17  C   UNL     1      11.189  47.369  23.381  1.00  0.00     0.000 C 
BRANCH  17  18
ATOM     18  C   UNL     1      10.274  47.056  24.584  1.00  0.00    -0.000 C 
BRANCH  18  19
ATOM     19  C   UNL     1      10.116  45.551  24.878  1.00  0.00    -0.000 C 
BRANCH  19  20
ATOM     20  C   UNL     1      11.082  44.985  25.934  1.00  0.00    -0.000 C 
BRANCH  20  21
ATOM     21  C   UNL     1      12.297  44.218  25.372  1.00  0.00    -0.000 C 
BRANCH  21  22
ATOM     22  C   UNL     1      13.671  44.753  25.816  1.00  0.00    -0.000 C 
BRANCH  22  23
ATOM     23  C   UNL     1      13.574  45.796  26.939  1.00  0.00    -0.000 C 
BRANCH  23  24
ATOM     24  C   UNL     1      13.864  47.227  26.452  1.00  0.00    -0.000 C 
BRANCH  24  25
ATOM     25  C   UNL     1      13.419  48.323  27.444  1.00  0.00    -0.003 C 
ATOM     26  C   UNL     1      12.300  47.848  28.370  1.00  0.00     0.004 C 
ENDBRANCH  24  25
ENDBRANCH  23  24
ENDBRANCH  22  23
ENDBRANCH  21  22
ENDBRANCH  20  21
ENDBRANCH  19  20
ENDBRANCH  18  19
ENDBRANCH  17  18
ENDBRANCH  16  17
ENDBRANCH  15  16
ENDBRANCH   1  15
TORSDOF 22
ENDMDL
