MODEL 1
REMARK VINA RESULT:    -4.250      0.000      0.000
REMARK INTER + INTRA:          -5.910
REMARK INTER:                  -6.238
REMARK INTRA:                   0.328
REMARK UNBOUND:                 0.328
REMARK SMILES C=C1CC=CC(C)(C)CC=C(C)CCC1
REMARK SMILES IDX 2 1 1 2 15 3 14 4 13 5 11 6 12 7 10 8 3 10 4 11 5 12 6 13
REMARK SMILES IDX 7 14 8 15 9 16
REMARK H PARENT
REMARK Flexibility Score: 60.00
ROOT
ATOM      1  C   UNL     1      -1.029   1.480  12.162  1.00  0.00    -0.074 C 
ATOM      2  C   UNL     1      -1.272   0.160  12.241  1.00  0.00     0.008 C 
ENDROOT
BRANCH   1   3
ATOM      3  C   UNL     1      -0.240   2.137  13.293  1.00  0.00     0.031 C 
BRANCH   3   4
ATOM      4  C   UNL     1      -0.892   2.114  14.690  1.00  0.00     0.009 C 
BRANCH   4   5
ATOM      5  C   UNL     1      -1.768   3.352  14.957  1.00  0.00     0.030 C 
BRANCH   5   6
ATOM      6  C   UNL     1      -1.159   4.670  14.505  1.00  0.00    -0.077 C 
ATOM      7  C   UNL     1       0.093   5.145  15.202  1.00  0.00     0.039 C 
ATOM      8  C   UNL     1      -1.719   5.514  13.597  1.00  0.00    -0.027 CG0
ATOM      9  G   UNL     1      -2.859   5.235  12.633  1.00  0.00     0.000 G0
ENDBRANCH   5   6
ENDBRANCH   4   5
ENDBRANCH   3   4
ENDBRANCH   1   3
BRANCH   1  10
ATOM     10  C   UNL     1      -1.469   2.223  10.910  1.00  0.00     0.057 C 
BRANCH  10  11
ATOM     11  C   UNL     1      -0.671   3.501  10.764  1.00  0.00    -0.026 C 
ATOM     12  C   UNL     1      -1.130   4.774  10.734  1.00  0.00    -0.024 C 
BRANCH  12  13
ATOM     13  C   UNL     1      -2.513   5.310  11.112  1.00  0.00    -0.014 C 
ATOM     14  C   UNL     1      -3.573   4.486  10.341  1.00  0.00     0.016 C 
ATOM     15  C   UNL     1      -2.636   6.774  10.630  1.00  0.00     0.016 C 
BRANCH  13  16
ATOM     16  C   UNL     1      -2.850   5.240  12.632  1.00  0.00     0.038 CG0
ATOM     17  G   UNL     1      -1.719   5.514  13.609  1.00  0.00     0.000 G0
ENDBRANCH  13  16
ENDBRANCH  12  13
ENDBRANCH  10  11
ENDBRANCH   1  10
TORSDOF 0
ENDMDL
MODEL 2
REMARK VINA RESULT:    -4.027      1.510      3.877
REMARK INTER + INTRA:          -5.582
REMARK INTER:                  -5.829
REMARK INTRA:                   0.247
REMARK UNBOUND:                 0.328
REMARK SMILES C=C1CC=CC(C)(C)CC=C(C)CCC1
REMARK SMILES IDX 2 1 1 2 15 3 14 4 13 5 11 6 12 7 10 8 3 10 4 11 5 12 6 13
REMARK SMILES IDX 7 14 8 15 9 16
REMARK H PARENT
REMARK Flexibility Score: 60.00
ROOT
ATOM      1  C   UNL     1      -1.318   1.927  14.293  1.00  0.00    -0.074 C 
ATOM      2  C   UNL     1      -2.574   1.927  14.773  1.00  0.00     0.008 C 
ENDROOT
BRANCH   1   3
ATOM      3  C   UNL     1      -0.996   1.004  13.119  1.00  0.00     0.031 C 
BRANCH   3   4
ATOM      4  C   UNL     1      -1.488   1.458  11.731  1.00  0.00     0.009 C 
BRANCH   4   5
ATOM      5  C   UNL     1      -0.689   2.654  11.180  1.00  0.00     0.030 C 
BRANCH   5   6
ATOM      6  C   UNL     1      -1.389   3.998  11.308  1.00  0.00    -0.077 C 
ATOM      7  C   UNL     1      -2.744   4.152  10.662  1.00  0.00     0.039 C 
ATOM      8  C   UNL     1      -0.838   5.111  11.863  1.00  0.00    -0.027 CG0
ATOM      9  G   UNL     1       0.411   5.215  12.721  1.00  0.00     0.000 G0
ENDBRANCH   5   6
ENDBRANCH   4   5
ENDBRANCH   3   4
ENDBRANCH   1   3
BRANCH   1  10
ATOM     10  C   UNL     1      -0.318   2.909  14.880  1.00  0.00     0.057 C 
BRANCH  10  11
ATOM     11  C   UNL     1      -1.031   4.169  15.318  1.00  0.00    -0.026 C 
ATOM     12  C   UNL     1      -0.687   5.455  15.069  1.00  0.00    -0.024 C 
BRANCH  12  13
ATOM     13  C   UNL     1       0.329   6.004  14.064  1.00  0.00    -0.014 C 
ATOM     14  C   UNL     1       1.723   5.991  14.738  1.00  0.00     0.016 C 
ATOM     15  C   UNL     1      -0.013   7.480  13.756  1.00  0.00     0.016 C 
BRANCH  13  16
ATOM     16  C   UNL     1       0.423   5.209  12.727  1.00  0.00     0.038 CG0
ATOM     17  G   UNL     1      -0.835   5.117  11.881  1.00  0.00     0.000 G0
ENDBRANCH  13  16
ENDBRANCH  12  13
ENDBRANCH  10  11
ENDBRANCH   1  10
TORSDOF 0
ENDMDL
MODEL 3
REMARK VINA RESULT:    -3.940      0.932      1.435
REMARK INTER + INTRA:          -5.455
REMARK INTER:                  -5.800
REMARK INTRA:                   0.345
REMARK UNBOUND:                 0.328
REMARK SMILES C=C1CC=CC(C)(C)CC=C(C)CCC1
REMARK SMILES IDX 2 1 1 2 15 3 14 4 13 5 11 6 12 7 10 8 3 10 4 11 5 12 6 13
REMARK SMILES IDX 7 14 8 15 9 16
REMARK H PARENT
REMARK Flexibility Score: 60.00
ROOT
ATOM      1  C   UNL     1      -0.709   1.973  11.866  1.00  0.00    -0.074 C 
ATOM      2  C   UNL     1      -1.001   0.665  11.971  1.00  0.00     0.008 C 
ENDROOT
BRANCH   1   3
ATOM      3  C   UNL     1       0.352   2.552  12.801  1.00  0.00     0.031 C 
BRANCH   3   4
ATOM      4  C   UNL     1      -0.044   2.701  14.283  1.00  0.00     0.009 C 
BRANCH   4   5
ATOM      5  C   UNL     1      -1.006   3.880  14.525  1.00  0.00     0.030 C 
BRANCH   5   6
ATOM      6  C   UNL     1      -2.468   3.574  14.243  1.00  0.00    -0.077 C 
ATOM      7  C   UNL     1      -3.065   2.339  14.874  1.00  0.00     0.039 C 
ATOM      8  C   UNL     1      -3.253   4.265  13.374  1.00  0.00    -0.027 CG0
ATOM      9  G   UNL     1      -2.986   5.618  12.737  1.00  0.00     0.000 G0
ENDBRANCH   5   6
ENDBRANCH   4   5
ENDBRANCH   3   4
ENDBRANCH   1   3
BRANCH   1  10
ATOM     10  C   UNL     1      -1.382   2.779  10.766  1.00  0.00     0.057 C 
BRANCH  10  11
ATOM     11  C   UNL     1      -0.746   4.148  10.670  1.00  0.00    -0.026 C 
ATOM     12  C   UNL     1      -1.352   5.357  10.736  1.00  0.00    -0.024 C 
BRANCH  12  13
ATOM     13  C   UNL     1      -2.771   5.702  11.197  1.00  0.00    -0.014 C 
ATOM     14  C   UNL     1      -3.748   4.712  10.516  1.00  0.00     0.016 C 
ATOM     15  C   UNL     1      -3.134   7.118  10.694  1.00  0.00     0.016 C 
BRANCH  13  16
ATOM     16  C   UNL     1      -2.994   5.630  12.738  1.00  0.00     0.038 CG0
ATOM     17  G   UNL     1      -3.250   4.260  13.341  1.00  0.00     0.000 G0
ENDBRANCH  13  16
ENDBRANCH  12  13
ENDBRANCH  10  11
ENDBRANCH   1  10
TORSDOF 0
ENDMDL
MODEL 4
REMARK VINA RESULT:    -3.761      1.172      3.885
REMARK INTER + INTRA:          -5.193
REMARK INTER:                  -5.391
REMARK INTRA:                   0.198
REMARK UNBOUND:                 0.328
REMARK SMILES C=C1CC=CC(C)(C)CC=C(C)CCC1
REMARK SMILES IDX 2 1 1 2 15 3 14 4 13 5 11 6 12 7 10 8 3 10 4 11 5 12 6 13
REMARK SMILES IDX 7 14 8 15 9 16
REMARK H PARENT
REMARK Flexibility Score: 60.00
ROOT
ATOM      1  C   UNL     1      -1.680   3.983  10.580  1.00  0.00    -0.074 C 
ATOM      2  C   UNL     1      -0.625   4.775  10.322  1.00  0.00     0.008 C 
ENDROOT
BRANCH   1   3
ATOM      3  C   UNL     1      -3.081   4.561  10.383  1.00  0.00     0.031 C 
BRANCH   3   4
ATOM      4  C   UNL     1      -3.341   5.955  10.986  1.00  0.00     0.009 C 
BRANCH   4   5
ATOM      5  C   UNL     1      -3.663   5.901  12.491  1.00  0.00     0.030 C 
BRANCH   5   6
ATOM      6  C   UNL     1      -2.454   6.026  13.404  1.00  0.00    -0.077 C 
ATOM      7  C   UNL     1      -1.839   7.394  13.577  1.00  0.00     0.039 C 
ATOM      8  C   UNL     1      -1.810   4.981  13.989  1.00  0.00    -0.027 CG0
ATOM      9  G   UNL     1      -2.282   3.544  14.128  1.00  0.00     0.000 G0
ENDBRANCH   5   6
ENDBRANCH   4   5
ENDBRANCH   3   4
ENDBRANCH   1   3
BRANCH   1  10
ATOM     10  C   UNL     1      -1.421   2.534  10.961  1.00  0.00     0.057 C 
BRANCH  10  11
ATOM     11  C   UNL     1      -0.183   2.443  11.826  1.00  0.00    -0.026 C 
ATOM     12  C   UNL     1      -0.099   2.508  13.175  1.00  0.00    -0.024 C 
BRANCH  12  13
ATOM     13  C   UNL     1      -1.216   2.409  14.218  1.00  0.00    -0.014 C 
ATOM     14  C   UNL     1      -0.566   2.468  15.622  1.00  0.00     0.016 C 
ATOM     15  C   UNL     1      -1.903   1.030  14.091  1.00  0.00     0.016 C 
BRANCH  13  16
ATOM     16  C   UNL     1      -2.295   3.530  14.130  1.00  0.00     0.038 CG0
ATOM     17  G   UNL     1      -1.803   4.961  13.994  1.00  0.00     0.000 G0
ENDBRANCH  13  16
ENDBRANCH  12  13
ENDBRANCH  10  11
ENDBRANCH   1  10
TORSDOF 0
ENDMDL
MODEL 5
REMARK VINA RESULT:    -3.692      1.154      3.676
REMARK INTER + INTRA:          -5.092
REMARK INTER:                  -5.454
REMARK INTRA:                   0.362
REMARK UNBOUND:                 0.328
REMARK SMILES C=C1CC=CC(C)(C)CC=C(C)CCC1
REMARK SMILES IDX 2 1 1 2 15 3 14 4 13 5 11 6 12 7 10 8 3 10 4 11 5 12 6 13
REMARK SMILES IDX 7 14 8 15 9 16
REMARK H PARENT
REMARK Flexibility Score: 60.00
ROOT
ATOM      1  C   UNL     1      -1.116   2.070  12.051  1.00  0.00    -0.074 C 
ATOM      2  C   UNL     1      -1.214   0.735  11.922  1.00  0.00     0.008 C 
ENDROOT
BRANCH   1   3
ATOM      3  C   UNL     1      -1.149   2.921  10.783  1.00  0.00     0.031 C 
BRANCH   3   4
ATOM      4  C   UNL     1      -2.488   3.608  10.451  1.00  0.00     0.009 C 
BRANCH   4   5
ATOM      5  C   UNL     1      -2.454   5.128  10.701  1.00  0.00     0.030 C 
BRANCH   5   6
ATOM      6  C   UNL     1      -2.930   5.555  12.080  1.00  0.00    -0.077 C 
ATOM      7  C   UNL     1      -4.407   5.460  12.378  1.00  0.00     0.039 C 
ATOM      8  C   UNL     1      -2.143   6.125  13.032  1.00  0.00    -0.027 CG0
ATOM      9  G   UNL     1      -0.626   6.193  13.081  1.00  0.00     0.000 G0
ENDBRANCH   5   6
ENDBRANCH   4   5
ENDBRANCH   3   4
ENDBRANCH   1   3
BRANCH   1  10
ATOM     10  C   UNL     1      -1.072   2.660  13.452  1.00  0.00     0.057 C 
BRANCH  10  11
ATOM     11  C   UNL     1       0.349   3.040  13.805  1.00  0.00    -0.026 C 
ATOM     12  C   UNL     1       0.849   4.274  14.050  1.00  0.00    -0.024 C 
BRANCH  12  13
ATOM     13  C   UNL     1       0.099   5.582  14.319  1.00  0.00    -0.014 C 
ATOM     14  C   UNL     1       1.121   6.618  14.850  1.00  0.00     0.016 C 
ATOM     15  C   UNL     1      -0.937   5.349  15.442  1.00  0.00     0.016 C 
BRANCH  13  16
ATOM     16  C   UNL     1      -0.617   6.193  13.077  1.00  0.00     0.038 CG0
ATOM     17  G   UNL     1      -2.134   6.116  13.040  1.00  0.00     0.000 G0
ENDBRANCH  13  16
ENDBRANCH  12  13
ENDBRANCH  10  11
ENDBRANCH   1  10
TORSDOF 0
ENDMDL
MODEL 6
REMARK VINA RESULT:    -3.499      1.650      3.986
REMARK INTER + INTRA:          -4.808
REMARK INTER:                  -5.522
REMARK INTRA:                   0.714
REMARK UNBOUND:                 0.328
REMARK SMILES C=C1CC=CC(C)(C)CC=C(C)CCC1
REMARK SMILES IDX 2 1 1 2 15 3 14 4 13 5 11 6 12 7 10 8 3 10 4 11 5 12 6 13
REMARK SMILES IDX 7 14 8 15 9 16
REMARK H PARENT
REMARK Flexibility Score: 60.00
ROOT
ATOM      1  C   UNL     1      -1.917   4.884  10.945  1.00  0.00    -0.074 C 
ATOM      2  C   UNL     1      -3.107   4.796  10.324  1.00  0.00     0.008 C 
ENDROOT
BRANCH   1   3
ATOM      3  C   UNL     1      -0.919   3.743  10.753  1.00  0.00     0.031 C 
BRANCH   3   4
ATOM      4  C   UNL     1      -1.383   2.341  11.196  1.00  0.00     0.009 C 
BRANCH   4   5
ATOM      5  C   UNL     1      -0.509   1.755  12.320  1.00  0.00     0.030 C 
BRANCH   5   6
ATOM      6  C   UNL     1      -0.913   2.177  13.724  1.00  0.00    -0.077 C 
ATOM      7  C   UNL     1      -2.029   1.415  14.397  1.00  0.00     0.039 C 
ATOM      8  C   UNL     1      -0.424   3.264  14.379  1.00  0.00    -0.027 CG0
ATOM      9  G   UNL     1       0.795   4.101  14.033  1.00  0.00     0.000 G0
ENDBRANCH   5   6
ENDBRANCH   4   5
ENDBRANCH   3   4
ENDBRANCH   1   3
BRANCH   1  10
ATOM     10  C   UNL     1      -1.598   6.151  11.722  1.00  0.00     0.057 C 
BRANCH  10  11
ATOM     11  C   UNL     1      -0.111   6.425  11.669  1.00  0.00    -0.026 C 
ATOM     12  C   UNL     1       0.794   6.324  12.670  1.00  0.00    -0.024 C 
BRANCH  12  13
ATOM     13  C   UNL     1       0.650   5.651  14.038  1.00  0.00    -0.014 C 
ATOM     14  C   UNL     1      -0.751   6.002  14.597  1.00  0.00     0.016 C 
ATOM     15  C   UNL     1       1.691   6.253  15.009  1.00  0.00     0.016 C 
BRANCH  13  16
ATOM     16  C   UNL     1       0.796   4.100  14.023  1.00  0.00     0.038 CG0
ATOM     17  G   UNL     1      -0.428   3.281  14.397  1.00  0.00     0.000 G0
ENDBRANCH  13  16
ENDBRANCH  12  13
ENDBRANCH  10  11
ENDBRANCH   1  10
TORSDOF 0
ENDMDL
MODEL 7
REMARK VINA RESULT:    -3.483      1.286      3.587
REMARK INTER + INTRA:          -4.784
REMARK INTER:                  -5.048
REMARK INTRA:                   0.264
REMARK UNBOUND:                 0.328
REMARK SMILES C=C1CC=CC(C)(C)CC=C(C)CCC1
REMARK SMILES IDX 2 1 1 2 15 3 14 4 13 5 11 6 12 7 10 8 3 10 4 11 5 12 6 13
REMARK SMILES IDX 7 14 8 15 9 16
REMARK H PARENT
REMARK Flexibility Score: 60.00
ROOT
ATOM      1  C   UNL     1       0.026   5.064  14.524  1.00  0.00    -0.074 C 
ATOM      2  C   UNL     1       1.339   5.251  14.738  1.00  0.00     0.008 C 
ENDROOT
BRANCH   1   3
ATOM      3  C   UNL     1      -0.620   3.792  15.072  1.00  0.00     0.031 C 
BRANCH   3   4
ATOM      4  C   UNL     1      -0.388   2.500  14.264  1.00  0.00     0.009 C 
BRANCH   4   5
ATOM      5  C   UNL     1       0.129   2.775  12.839  1.00  0.00     0.030 C 
BRANCH   5   6
ATOM      6  C   UNL     1      -0.860   2.446  11.732  1.00  0.00    -0.077 C 
ATOM      7  C   UNL     1      -1.360   1.025  11.630  1.00  0.00     0.039 C 
ATOM      8  C   UNL     1      -1.243   3.307  10.751  1.00  0.00    -0.027 CG0
ATOM      9  G   UNL     1      -1.041   4.812  10.689  1.00  0.00     0.000 G0
ENDBRANCH   5   6
ENDBRANCH   4   5
ENDBRANCH   3   4
ENDBRANCH   1   3
BRANCH   1  10
ATOM     10  C   UNL     1      -0.760   6.168  13.835  1.00  0.00     0.057 C 
BRANCH  10  11
ATOM     11  C   UNL     1      -2.176   5.704  13.573  1.00  0.00    -0.026 C 
ATOM     12  C   UNL     1      -2.829   5.638  12.389  1.00  0.00    -0.024 C 
BRANCH  12  13
ATOM     13  C   UNL     1      -2.264   5.735  10.969  1.00  0.00    -0.014 C 
ATOM     14  C   UNL     1      -1.835   7.202  10.724  1.00  0.00     0.016 C 
ATOM     15  C   UNL     1      -3.387   5.415   9.956  1.00  0.00     0.016 C 
BRANCH  13  16
ATOM     16  C   UNL     1      -1.039   4.813  10.687  1.00  0.00     0.038 CG0
ATOM     17  G   UNL     1      -1.269   3.313  10.746  1.00  0.00     0.000 G0
ENDBRANCH  13  16
ENDBRANCH  12  13
ENDBRANCH  10  11
ENDBRANCH   1  10
TORSDOF 0
ENDMDL
MODEL 8
REMARK VINA RESULT:    -3.431      1.452      4.515
REMARK INTER + INTRA:          -4.708
REMARK INTER:                  -5.040
REMARK INTRA:                   0.332
REMARK UNBOUND:                 0.328
REMARK SMILES C=C1CC=CC(C)(C)CC=C(C)CCC1
REMARK SMILES IDX 2 1 1 2 15 3 14 4 13 5 11 6 12 7 10 8 3 10 4 11 5 12 6 13
REMARK SMILES IDX 7 14 8 15 9 16
REMARK H PARENT
REMARK Flexibility Score: 60.00
ROOT
ATOM      1  C   UNL     1      -0.120   5.854  14.607  1.00  0.00    -0.074 C 
ATOM      2  C   UNL     1       1.118   6.260  14.940  1.00  0.00     0.008 C 
ENDROOT
BRANCH   1   3
ATOM      3  C   UNL     1      -0.962   6.766  13.716  1.00  0.00     0.031 C 
BRANCH   3   4
ATOM      4  C   UNL     1      -2.389   6.283  13.389  1.00  0.00     0.009 C 
BRANCH   4   5
ATOM      5  C   UNL     1      -2.586   5.983  11.891  1.00  0.00     0.030 C 
BRANCH   5   6
ATOM      6  C   UNL     1      -1.543   5.057  11.287  1.00  0.00    -0.077 C 
ATOM      7  C   UNL     1      -0.602   5.631  10.254  1.00  0.00     0.039 C 
ATOM      8  C   UNL     1      -1.463   3.719  11.518  1.00  0.00    -0.027 CG0
ATOM      9  G   UNL     1      -2.149   2.911  12.606  1.00  0.00     0.000 G0
ENDBRANCH   5   6
ENDBRANCH   4   5
ENDBRANCH   3   4
ENDBRANCH   1   3
BRANCH   1  10
ATOM     10  C   UNL     1      -0.576   4.475  15.057  1.00  0.00     0.057 C 
BRANCH  10  11
ATOM     11  C   UNL     1       0.347   3.419  14.490  1.00  0.00    -0.026 C 
ATOM     12  C   UNL     1       0.015   2.258  13.879  1.00  0.00    -0.024 C 
BRANCH  12  13
ATOM     13  C   UNL     1      -1.345   1.808  13.337  1.00  0.00    -0.014 C 
ATOM     14  C   UNL     1      -2.186   1.286  14.527  1.00  0.00     0.016 C 
ATOM     15  C   UNL     1      -1.135   0.619  12.372  1.00  0.00     0.016 C 
BRANCH  13  16
ATOM     16  C   UNL     1      -2.161   2.921  12.612  1.00  0.00     0.038 CG0
ATOM     17  G   UNL     1      -1.455   3.700  11.515  1.00  0.00     0.000 G0
ENDBRANCH  13  16
ENDBRANCH  12  13
ENDBRANCH  10  11
ENDBRANCH   1  10
TORSDOF 0
ENDMDL
MODEL 9
REMARK VINA RESULT:    -3.313      1.561      4.118
REMARK INTER + INTRA:          -4.534
REMARK INTER:                  -4.725
REMARK INTRA:                   0.190
REMARK UNBOUND:                 0.328
REMARK SMILES C=C1CC=CC(C)(C)CC=C(C)CCC1
REMARK SMILES IDX 2 1 1 2 15 3 14 4 13 5 11 6 12 7 10 8 3 10 4 11 5 12 6 13
REMARK SMILES IDX 7 14 8 15 9 16
REMARK H PARENT
REMARK Flexibility Score: 60.00
ROOT
ATOM      1  C   UNL     1      -2.189   5.505  10.689  1.00  0.00    -0.074 C 
ATOM      2  C   UNL     1      -3.134   6.012   9.878  1.00  0.00     0.008 C 
ENDROOT
BRANCH   1   3
ATOM      3  C   UNL     1      -0.818   6.178  10.707  1.00  0.00     0.031 C 
BRANCH   3   4
ATOM      4  C   UNL     1      -0.699   7.476  11.529  1.00  0.00     0.009 C 
BRANCH   4   5
ATOM      5  C   UNL     1      -0.979   7.258  13.028  1.00  0.00     0.030 C 
BRANCH   5   6
ATOM      6  C   UNL     1       0.181   6.666  13.811  1.00  0.00    -0.077 C 
ATOM      7  C   UNL     1       1.524   7.349  13.710  1.00  0.00     0.039 C 
ATOM      8  C   UNL     1       0.133   5.499  14.509  1.00  0.00    -0.027 CG0
ATOM      9  G   UNL     1      -1.090   4.698  14.919  1.00  0.00     0.000 G0
ENDBRANCH   5   6
ENDBRANCH   4   5
ENDBRANCH   3   4
ENDBRANCH   1   3
BRANCH   1  10
ATOM     10  C   UNL     1      -2.566   4.353  11.608  1.00  0.00     0.057 C 
BRANCH  10  11
ATOM     11  C   UNL     1      -1.387   3.420  11.771  1.00  0.00    -0.026 C 
ATOM     12  C   UNL     1      -0.761   3.056  12.915  1.00  0.00    -0.024 C 
BRANCH  12  13
ATOM     13  C   UNL     1      -1.215   3.243  14.365  1.00  0.00    -0.014 C 
ATOM     14  C   UNL     1      -0.353   2.318  15.259  1.00  0.00     0.016 C 
ATOM     15  C   UNL     1      -2.680   2.769  14.500  1.00  0.00     0.016 C 
BRANCH  13  16
ATOM     16  C   UNL     1      -1.093   4.699  14.907  1.00  0.00     0.038 CG0
ATOM     17  G   UNL     1       0.134   5.495  14.496  1.00  0.00     0.000 G0
ENDBRANCH  13  16
ENDBRANCH  12  13
ENDBRANCH  10  11
ENDBRANCH   1  10
TORSDOF 0
ENDMDL
