MODEL 1
REMARK VINA RESULT:    -4.585      0.000      0.000
REMARK INTER + INTRA:          -5.701
REMARK INTER:                  -5.657
REMARK INTRA:                  -0.044
REMARK UNBOUND:                -0.044
REMARK SMILES CCCCCC(=O)[O-]
REMARK SMILES IDX 4 1 5 2 6 3 7 4 8 5 3 6 2 7 1 8
REMARK H PARENT
REMARK Flexibility Score: inf
ROOT
ATOM      1  C   UNL     1     116.211 104.213 112.293  1.00  0.00     0.006 C 
ENDROOT
BRANCH   1   2
ATOM      2  C   UNL     1     116.836 104.998 113.454  1.00  0.00     0.053 C 
BRANCH   2   3
ATOM      3  C   UNL     1     118.328 104.983 113.350  1.00  0.00     0.041 C 
ATOM      4  O   UNL     1     118.987 104.028 113.838  1.00  0.00    -0.550 OA
ATOM      5  O   UNL     1     118.988 106.000 112.672  1.00  0.00    -0.550 OA
ENDBRANCH   2   3
ENDBRANCH   1   2
BRANCH   1   6
ATOM      6  C   UNL     1     114.732 103.872 112.537  1.00  0.00     0.000 C 
BRANCH   6   7
ATOM      7  C   UNL     1     114.112 103.074 111.381  1.00  0.00    -0.003 C 
ATOM      8  C   UNL     1     113.113 102.044 111.900  1.00  0.00     0.004 C 
ENDBRANCH   6   7
ENDBRANCH   1   6
TORSDOF 4
ENDMDL
MODEL 2
REMARK VINA RESULT:    -4.562      1.444      2.097
REMARK INTER + INTRA:          -5.673
REMARK INTER:                  -5.626
REMARK INTRA:                  -0.047
REMARK UNBOUND:                -0.044
REMARK SMILES CCCCCC(=O)[O-]
REMARK SMILES IDX 4 1 5 2 6 3 7 4 8 5 3 6 2 7 1 8
REMARK H PARENT
REMARK Flexibility Score: inf
ROOT
ATOM      1  C   UNL     1     114.487 103.892 112.173  1.00  0.00     0.006 C 
ENDROOT
BRANCH   1   2
ATOM      2  C   UNL     1     116.000 103.884 111.915  1.00  0.00     0.053 C 
BRANCH   2   3
ATOM      3  C   UNL     1     116.717 104.626 112.998  1.00  0.00     0.041 C 
ATOM      4  O   UNL     1     116.086 105.415 113.751  1.00  0.00    -0.550 OA
ATOM      5  O   UNL     1     118.073 104.410 113.209  1.00  0.00    -0.550 OA
ENDBRANCH   2   3
ENDBRANCH   1   2
BRANCH   1   6
ATOM      6  C   UNL     1     113.764 102.720 111.489  1.00  0.00     0.000 C 
BRANCH   6   7
ATOM      7  C   UNL     1     112.428 102.377 112.163  1.00  0.00    -0.003 C 
ATOM      8  C   UNL     1     111.372 102.000 111.128  1.00  0.00     0.004 C 
ENDBRANCH   6   7
ENDBRANCH   1   6
TORSDOF 4
ENDMDL
MODEL 3
REMARK VINA RESULT:    -4.420      4.168      5.577
REMARK INTER + INTRA:          -5.498
REMARK INTER:                  -5.411
REMARK INTRA:                  -0.087
REMARK UNBOUND:                -0.044
REMARK SMILES CCCCCC(=O)[O-]
REMARK SMILES IDX 4 1 5 2 6 3 7 4 8 5 3 6 2 7 1 8
REMARK H PARENT
REMARK Flexibility Score: inf
ROOT
ATOM      1  C   UNL     1     114.080 103.498 112.047  1.00  0.00     0.006 C 
ENDROOT
BRANCH   1   2
ATOM      2  C   UNL     1     113.485 102.115 111.749  1.00  0.00     0.053 C 
BRANCH   2   3
ATOM      3  C   UNL     1     112.000 102.137 111.927  1.00  0.00     0.041 C 
ATOM      4  O   UNL     1     111.490 102.702 112.930  1.00  0.00    -0.550 OA
ATOM      5  O   UNL     1     111.175 101.576 110.959  1.00  0.00    -0.550 OA
ENDBRANCH   2   3
ENDBRANCH   1   2
BRANCH   1   6
ATOM      6  C   UNL     1     115.469 103.693 111.419  1.00  0.00     0.000 C 
BRANCH   6   7
ATOM      7  C   UNL     1     116.481 104.302 112.400  1.00  0.00    -0.003 C 
ATOM      8  C   UNL     1     115.772 105.056 113.521  1.00  0.00     0.004 C 
ENDBRANCH   6   7
ENDBRANCH   1   6
TORSDOF 4
ENDMDL
MODEL 4
REMARK VINA RESULT:    -4.360      3.411      5.083
REMARK INTER + INTRA:          -5.424
REMARK INTER:                  -5.361
REMARK INTRA:                  -0.063
REMARK UNBOUND:                -0.044
REMARK SMILES CCCCCC(=O)[O-]
REMARK SMILES IDX 4 1 5 2 6 3 7 4 8 5 3 6 2 7 1 8
REMARK H PARENT
REMARK Flexibility Score: inf
ROOT
ATOM      1  C   UNL     1     115.080 104.114 112.349  1.00  0.00     0.006 C 
ENDROOT
BRANCH   1   2
ATOM      2  C   UNL     1     114.442 103.315 111.204  1.00  0.00     0.053 C 
BRANCH   2   3
ATOM      3  C   UNL     1     113.429 102.354 111.741  1.00  0.00     0.041 C 
ATOM      4  O   UNL     1     113.687 101.666 112.763  1.00  0.00    -0.550 OA
ATOM      5  O   UNL     1     112.180 102.254 111.140  1.00  0.00    -0.550 OA
ENDBRANCH   2   3
ENDBRANCH   1   2
BRANCH   1   6
ATOM      6  C   UNL     1     116.610 104.201 112.229  1.00  0.00     0.000 C 
BRANCH   6   7
ATOM      7  C   UNL     1     117.243 105.041 113.348  1.00  0.00    -0.003 C 
ATOM      8  C   UNL     1     118.602 104.479 113.754  1.00  0.00     0.004 C 
ENDBRANCH   6   7
ENDBRANCH   1   6
TORSDOF 4
ENDMDL
MODEL 5
REMARK VINA RESULT:    -4.271      2.996      4.522
REMARK INTER + INTRA:          -5.314
REMARK INTER:                  -5.146
REMARK INTRA:                  -0.168
REMARK UNBOUND:                -0.044
REMARK SMILES CCCCCC(=O)[O-]
REMARK SMILES IDX 4 1 5 2 6 3 7 4 8 5 3 6 2 7 1 8
REMARK H PARENT
REMARK Flexibility Score: inf
ROOT
ATOM      1  C   UNL     1     114.892 105.017 113.031  1.00  0.00     0.006 C 
ENDROOT
BRANCH   1   2
ATOM      2  C   UNL     1     114.635 103.510 112.895  1.00  0.00     0.053 C 
BRANCH   2   3
ATOM      3  C   UNL     1     114.281 103.167 111.483  1.00  0.00     0.041 C 
ATOM      4  O   UNL     1     113.236 102.510 111.234  1.00  0.00    -0.550 OA
ATOM      5  O   UNL     1     115.078 103.615 110.437  1.00  0.00    -0.550 OA
ENDBRANCH   2   3
ENDBRANCH   1   2
BRANCH   1   6
ATOM      6  C   UNL     1     116.253 105.330 113.673  1.00  0.00     0.000 C 
BRANCH   6   7
ATOM      7  C   UNL     1     117.421 104.659 112.937  1.00  0.00    -0.003 C 
ATOM      8  C   UNL     1     118.634 104.512 113.851  1.00  0.00     0.004 C 
ENDBRANCH   6   7
ENDBRANCH   1   6
TORSDOF 4
ENDMDL
MODEL 6
REMARK VINA RESULT:    -2.921      3.061      4.031
REMARK INTER + INTRA:          -3.648
REMARK INTER:                  -3.530
REMARK INTRA:                  -0.118
REMARK UNBOUND:                -0.044
REMARK SMILES CCCCCC(=O)[O-]
REMARK SMILES IDX 4 1 5 2 6 3 7 4 8 5 3 6 2 7 1 8
REMARK H PARENT
REMARK Flexibility Score: inf
ROOT
ATOM      1  C   UNL     1     113.081 101.901 111.932  1.00  0.00     0.006 C 
ENDROOT
BRANCH   1   2
ATOM      2  C   UNL     1     114.254 102.637 112.594  1.00  0.00     0.053 C 
BRANCH   2   3
ATOM      3  C   UNL     1     114.633 103.842 111.791  1.00  0.00     0.041 C 
ATOM      4  O   UNL     1     114.534 104.993 112.292  1.00  0.00    -0.550 OA
ATOM      5  O   UNL     1     115.142 103.690 110.508  1.00  0.00    -0.550 OA
ENDBRANCH   2   3
ENDBRANCH   1   2
BRANCH   1   6
ATOM      6  C   UNL     1     111.736 102.612 112.154  1.00  0.00     0.000 C 
BRANCH   6   7
ATOM      7  C   UNL     1     110.837 102.576 110.909  1.00  0.00    -0.003 C 
ATOM      8  C   UNL     1     109.868 103.755 110.899  1.00  0.00     0.004 C 
ENDBRANCH   6   7
ENDBRANCH   1   6
TORSDOF 4
ENDMDL
MODEL 7
REMARK VINA RESULT:    -2.672     16.199     16.849
REMARK INTER + INTRA:          -3.341
REMARK INTER:                  -3.192
REMARK INTRA:                  -0.149
REMARK UNBOUND:                -0.044
REMARK SMILES CCCCCC(=O)[O-]
REMARK SMILES IDX 4 1 5 2 6 3 7 4 8 5 3 6 2 7 1 8
REMARK H PARENT
REMARK Flexibility Score: inf
ROOT
ATOM      1  C   UNL     1     117.072 119.617 115.751  1.00  0.00     0.006 C 
ENDROOT
BRANCH   1   2
ATOM      2  C   UNL     1     118.566 119.289 115.876  1.00  0.00     0.053 C 
BRANCH   2   3
ATOM      3  C   UNL     1     119.389 120.523 115.677  1.00  0.00     0.041 C 
ATOM      4  O   UNL     1     119.382 121.117 114.567  1.00  0.00    -0.550 OA
ATOM      5  O   UNL     1     120.125 121.044 116.734  1.00  0.00    -0.550 OA
ENDBRANCH   2   3
ENDBRANCH   1   2
BRANCH   1   6
ATOM      6  C   UNL     1     116.501 120.268 117.021  1.00  0.00     0.000 C 
BRANCH   6   7
ATOM      7  C   UNL     1     115.221 121.070 116.748  1.00  0.00    -0.003 C 
ATOM      8  C   UNL     1     114.892 121.089 115.258  1.00  0.00     0.004 C 
ENDBRANCH   6   7
ENDBRANCH   1   6
TORSDOF 4
ENDMDL
MODEL 8
REMARK VINA RESULT:    -2.577      9.298     10.408
REMARK INTER + INTRA:          -3.224
REMARK INTER:                  -3.167
REMARK INTRA:                  -0.057
REMARK UNBOUND:                -0.044
REMARK SMILES CCCCCC(=O)[O-]
REMARK SMILES IDX 4 1 5 2 6 3 7 4 8 5 3 6 2 7 1 8
REMARK H PARENT
REMARK Flexibility Score: inf
ROOT
ATOM      1  C   UNL     1     106.264 107.164 112.683  1.00  0.00     0.006 C 
ENDROOT
BRANCH   1   2
ATOM      2  C   UNL     1     107.572 106.369 112.797  1.00  0.00     0.053 C 
BRANCH   2   3
ATOM      3  C   UNL     1     108.362 106.482 111.532  1.00  0.00     0.041 C 
ATOM      4  O   UNL     1     108.661 107.615 111.071  1.00  0.00    -0.550 OA
ATOM      5  O   UNL     1     108.810 105.336 110.887  1.00  0.00    -0.550 OA
ENDBRANCH   2   3
ENDBRANCH   1   2
BRANCH   1   6
ATOM      6  C   UNL     1     105.329 106.940 113.882  1.00  0.00     0.000 C 
BRANCH   6   7
ATOM      7  C   UNL     1     104.349 105.780 113.657  1.00  0.00    -0.003 C 
ATOM      8  C   UNL     1     102.936 106.297 113.401  1.00  0.00     0.004 C 
ENDBRANCH   6   7
ENDBRANCH   1   6
TORSDOF 4
ENDMDL
MODEL 9
REMARK VINA RESULT:    -2.436     10.032     11.099
REMARK INTER + INTRA:          -3.050
REMARK INTER:                  -2.976
REMARK INTRA:                  -0.074
REMARK UNBOUND:                -0.044
REMARK SMILES CCCCCC(=O)[O-]
REMARK SMILES IDX 4 1 5 2 6 3 7 4 8 5 3 6 2 7 1 8
REMARK H PARENT
REMARK Flexibility Score: inf
ROOT
ATOM      1  C   UNL     1     106.887 106.186 113.007  1.00  0.00     0.006 C 
ENDROOT
BRANCH   1   2
ATOM      2  C   UNL     1     105.718 107.173 113.127  1.00  0.00     0.053 C 
BRANCH   2   3
ATOM      3  C   UNL     1     104.696 106.656 114.090  1.00  0.00     0.041 C 
ATOM      4  O   UNL     1     104.766 106.958 115.311  1.00  0.00    -0.550 OA
ATOM      5  O   UNL     1     103.638 105.881 113.631  1.00  0.00    -0.550 OA
ENDBRANCH   2   3
ENDBRANCH   1   2
BRANCH   1   6
ATOM      6  C   UNL     1     108.192 106.866 112.565  1.00  0.00     0.000 C 
BRANCH   6   7
ATOM      7  C   UNL     1     108.466 106.700 111.064  1.00  0.00    -0.003 C 
ATOM      8  C   UNL     1     108.830 105.257 110.728  1.00  0.00     0.004 C 
ENDBRANCH   6   7
ENDBRANCH   1   6
TORSDOF 4
ENDMDL
