MODEL 1
REMARK VINA RESULT:    -7.462      0.000      0.000
REMARK INTER + INTRA:         -10.797
REMARK INTER:                  -9.862
REMARK INTRA:                  -0.935
REMARK UNBOUND:                -0.935
REMARK SMILES CC[C@@H](C=C[C@H](C)[C@H]1CC[C@H]2[C@@H]3CC=C4C[C@@H](O)CC[C@@]4(C)[C@H]3CC[C@@]12C)C(C)C
REMARK SMILES IDX 6 1 7 2 5 3 4 4 3 5 2 6 1 7 28 8 29 9 30 10 8 11 9 12 26 13
REMARK SMILES IDX 10 14 11 15 25 16 27 17 12 18 24 19 23 20 13 21 21 22 14 23
REMARK SMILES IDX 15 24 20 25 22 26 16 27 19 28 17 29 18 30
REMARK H PARENT 18 31
REMARK Flexibility Score: inf
ROOT
ATOM      1  C   UNL     1     118.738 128.398 129.499  1.00  0.00     0.012 C 
ATOM      2  C   UNL     1     118.320 128.855 130.906  1.00  0.00     0.012 C 
ENDROOT
BRANCH   1   3
ATOM      3  C   UNL     1     119.716 129.408 128.940  1.00  0.00    -0.028 C 
ATOM      4  C   UNL     1     119.505 130.729 129.038  1.00  0.00    -0.027 C 
BRANCH   4   5
ATOM      5  C   UNL     1     120.455 131.734 128.413  1.00  0.00     0.014 C 
BRANCH   5   6
ATOM      6  C   UNL     1     121.732 131.926 129.286  1.00  0.00     0.004 C 
ATOM      7  C   UNL     1     123.012 131.760 128.467  1.00  0.00     0.004 C 
ENDBRANCH   5   6
BRANCH   5   8
ATOM      8  C   UNL     1     119.714 133.066 128.088  1.00  0.00    -0.011 C 
ATOM      9  C   UNL     1     118.201 133.030 128.384  1.00  0.00     0.008 C 
ATOM     10  C   UNL     1     120.369 134.266 128.791  1.00  0.00     0.008 C 
ENDBRANCH   5   8
ENDBRANCH   4   5
ENDBRANCH   1   3
BRANCH   1  11
ATOM     11  C   UNL     1     119.350 126.963 129.358  1.00  0.00     0.002 C 
ATOM     12  C   UNL     1     119.975 126.349 130.613  1.00  0.00     0.005 C 
ATOM     13  C   UNL     1     118.515 125.815 128.714  1.00  0.00    -0.026 C 
ATOM     14  C   UNL     1     120.096 124.850 130.312  1.00  0.00     0.005 C 
ATOM     15  C   UNL     1     119.483 124.619 128.914  1.00  0.00    -0.001 C 
ATOM     16  C   UNL     1     117.150 125.573 129.453  1.00  0.00     0.007 C 
ATOM     17  C   UNL     1     118.294 126.116 127.209  1.00  0.00     0.012 C 
ATOM     18  C   UNL     1     118.882 123.183 128.744  1.00  0.00     0.000 C 
ATOM     19  C   UNL     1     116.753 124.104 129.696  1.00  0.00     0.005 C 
ATOM     20  C   UNL     1     117.343 123.151 128.649  1.00  0.00     0.003 C 
ATOM     21  C   UNL     1     119.437 122.469 127.505  1.00  0.00     0.031 C 
ATOM     22  C   UNL     1     116.786 121.671 128.698  1.00  0.00    -0.008 C 
ATOM     23  C   UNL     1     118.912 121.063 127.433  1.00  0.00    -0.027 C 
ATOM     24  C   UNL     1     117.719 120.692 127.956  1.00  0.00    -0.065 C 
ATOM     25  C   UNL     1     116.640 121.162 130.167  1.00  0.00     0.014 C 
ATOM     26  C   UNL     1     115.400 121.656 127.999  1.00  0.00     0.016 C 
ATOM     27  C   UNL     1     117.388 119.217 128.030  1.00  0.00     0.063 C 
ATOM     28  C   UNL     1     116.315 119.658 130.280  1.00  0.00     0.033 C 
ATOM     29  C   UNL     1     117.311 118.781 129.502  1.00  0.00     0.118 C 
BRANCH  29  30
ATOM     30  O   UNL     1     118.578 118.866 130.103  1.00  0.00    -0.393 OA
ATOM     31  H   UNL     1     119.041 119.643 129.693  1.00  0.00     0.210 HD
ENDBRANCH  29  30
ENDBRANCH   1  11
TORSDOF 6
ENDMDL
MODEL 2
REMARK VINA RESULT:    -7.360      1.900      3.412
REMARK INTER + INTRA:         -10.662
REMARK INTER:                 -10.081
REMARK INTRA:                  -0.581
REMARK UNBOUND:                -0.935
REMARK SMILES CC[C@@H](C=C[C@H](C)[C@H]1CC[C@H]2[C@@H]3CC=C4C[C@@H](O)CC[C@@]4(C)[C@H]3CC[C@@]12C)C(C)C
REMARK SMILES IDX 6 1 7 2 5 3 4 4 3 5 2 6 1 7 28 8 29 9 30 10 8 11 9 12 26 13
REMARK SMILES IDX 10 14 11 15 25 16 27 17 12 18 24 19 23 20 13 21 21 22 14 23
REMARK SMILES IDX 15 24 20 25 22 26 16 27 19 28 17 29 18 30
REMARK H PARENT 18 31
REMARK Flexibility Score: inf
ROOT
ATOM      1  C   UNL     1     120.415 129.337 129.839  1.00  0.00     0.012 C 
ATOM      2  C   UNL     1     120.812 129.130 128.369  1.00  0.00     0.012 C 
ENDROOT
BRANCH   1   3
ATOM      3  C   UNL     1     120.068 130.796 130.039  1.00  0.00    -0.028 C 
ATOM      4  C   UNL     1     120.270 131.710 129.078  1.00  0.00    -0.027 C 
BRANCH   4   5
ATOM      5  C   UNL     1     119.985 133.183 129.310  1.00  0.00     0.014 C 
BRANCH   5   6
ATOM      6  C   UNL     1     118.689 133.634 128.571  1.00  0.00     0.004 C 
ATOM      7  C   UNL     1     118.795 133.433 127.059  1.00  0.00     0.004 C 
ENDBRANCH   5   6
BRANCH   5   8
ATOM      8  C   UNL     1     121.234 134.049 128.966  1.00  0.00    -0.011 C 
ATOM      9  C   UNL     1     121.885 134.724 130.190  1.00  0.00     0.008 C 
ATOM     10  C   UNL     1     122.282 133.245 128.178  1.00  0.00     0.008 C 
ENDBRANCH   5   8
ENDBRANCH   4   5
ENDBRANCH   1   3
BRANCH   1  11
ATOM     11  C   UNL     1     119.251 128.454 130.405  1.00  0.00     0.002 C 
ATOM     12  C   UNL     1     117.828 128.994 130.239  1.00  0.00     0.005 C 
ATOM     13  C   UNL     1     119.161 126.944 130.030  1.00  0.00    -0.026 C 
ATOM     14  C   UNL     1     116.909 127.789 130.476  1.00  0.00     0.005 C 
ATOM     15  C   UNL     1     117.820 126.566 130.714  1.00  0.00    -0.001 C 
ATOM     16  C   UNL     1     119.095 126.708 128.479  1.00  0.00     0.007 C 
ATOM     17  C   UNL     1     120.352 126.181 130.666  1.00  0.00     0.012 C 
ATOM     18  C   UNL     1     117.154 125.218 130.275  1.00  0.00     0.000 C 
ATOM     19  C   UNL     1     118.080 125.658 127.986  1.00  0.00     0.005 C 
ATOM     20  C   UNL     1     117.799 124.572 129.033  1.00  0.00     0.003 C 
ATOM     21  C   UNL     1     117.169 124.176 131.399  1.00  0.00     0.031 C 
ATOM     22  C   UNL     1     116.956 123.340 128.511  1.00  0.00    -0.008 C 
ATOM     23  C   UNL     1     116.436 122.936 130.972  1.00  0.00    -0.027 C 
ATOM     24  C   UNL     1     116.340 122.543 129.679  1.00  0.00    -0.065 C 
ATOM     25  C   UNL     1     115.785 123.797 127.583  1.00  0.00     0.014 C 
ATOM     26  C   UNL     1     117.911 122.402 127.724  1.00  0.00     0.016 C 
ATOM     27  C   UNL     1     115.395 121.412 129.334  1.00  0.00     0.063 C 
ATOM     28  C   UNL     1     114.795 122.671 127.222  1.00  0.00     0.033 C 
ATOM     29  C   UNL     1     114.247 121.949 128.464  1.00  0.00     0.118 C 
BRANCH  29  30
ATOM     30  O   UNL     1     113.446 122.835 129.205  1.00  0.00    -0.393 OA
ATOM     31  H   UNL     1     113.548 122.586 130.161  1.00  0.00     0.210 HD
ENDBRANCH  29  30
ENDBRANCH   1  11
TORSDOF 6
ENDMDL
MODEL 3
REMARK VINA RESULT:    -7.244      1.539      2.628
REMARK INTER + INTRA:         -10.509
REMARK INTER:                  -9.442
REMARK INTRA:                  -1.068
REMARK UNBOUND:                -0.935
REMARK SMILES CC[C@@H](C=C[C@H](C)[C@H]1CC[C@H]2[C@@H]3CC=C4C[C@@H](O)CC[C@@]4(C)[C@H]3CC[C@@]12C)C(C)C
REMARK SMILES IDX 6 1 7 2 5 3 4 4 3 5 2 6 1 7 28 8 29 9 30 10 8 11 9 12 26 13
REMARK SMILES IDX 10 14 11 15 25 16 27 17 12 18 24 19 23 20 13 21 21 22 14 23
REMARK SMILES IDX 15 24 20 25 22 26 16 27 19 28 17 29 18 30
REMARK H PARENT 18 31
REMARK Flexibility Score: inf
ROOT
ATOM      1  C   UNL     1     119.550 128.810 129.830  1.00  0.00     0.012 C 
ATOM      2  C   UNL     1     121.027 128.620 130.209  1.00  0.00     0.012 C 
ENDROOT
BRANCH   1   3
ATOM      3  C   UNL     1     119.400 130.158 129.160  1.00  0.00    -0.028 C 
ATOM      4  C   UNL     1     120.163 131.208 129.499  1.00  0.00    -0.027 C 
BRANCH   4   5
ATOM      5  C   UNL     1     119.959 132.575 128.872  1.00  0.00     0.014 C 
BRANCH   5   6
ATOM      6  C   UNL     1     118.839 132.541 127.789  1.00  0.00     0.004 C 
ATOM      7  C   UNL     1     118.997 133.669 126.769  1.00  0.00     0.004 C 
ENDBRANCH   5   6
BRANCH   5   8
ATOM      8  C   UNL     1     121.311 133.154 128.356  1.00  0.00    -0.011 C 
ATOM      9  C   UNL     1     121.804 134.387 129.139  1.00  0.00     0.008 C 
ATOM     10  C   UNL     1     122.407 132.078 128.306  1.00  0.00     0.008 C 
ENDBRANCH   5   8
ENDBRANCH   4   5
ENDBRANCH   1   3
BRANCH   1  11
ATOM     11  C   UNL     1     118.890 127.715 128.925  1.00  0.00     0.002 C 
ATOM     12  C   UNL     1     119.815 126.953 127.973  1.00  0.00     0.005 C 
ATOM     13  C   UNL     1     117.969 126.628 129.557  1.00  0.00    -0.026 C 
ATOM     14  C   UNL     1     119.023 125.709 127.549  1.00  0.00     0.005 C 
ATOM     15  C   UNL     1     117.681 125.748 128.312  1.00  0.00    -0.001 C 
ATOM     16  C   UNL     1     118.691 125.804 130.683  1.00  0.00     0.007 C 
ATOM     17  C   UNL     1     116.674 127.292 130.090  1.00  0.00     0.012 C 
ATOM     18  C   UNL     1     117.091 124.320 128.573  1.00  0.00     0.000 C 
ATOM     19  C   UNL     1     118.461 124.280 130.673  1.00  0.00     0.005 C 
ATOM     20  C   UNL     1     117.113 123.890 130.054  1.00  0.00     0.003 C 
ATOM     21  C   UNL     1     115.645 124.197 128.078  1.00  0.00     0.031 C 
ATOM     22  C   UNL     1     116.710 122.370 130.226  1.00  0.00    -0.008 C 
ATOM     23  C   UNL     1     115.149 122.789 128.257  1.00  0.00    -0.027 C 
ATOM     24  C   UNL     1     115.612 121.961 129.223  1.00  0.00    -0.065 C 
ATOM     25  C   UNL     1     117.932 121.424 130.000  1.00  0.00     0.014 C 
ATOM     26  C   UNL     1     116.159 122.179 131.665  1.00  0.00     0.016 C 
ATOM     27  C   UNL     1     115.216 120.500 129.176  1.00  0.00     0.063 C 
ATOM     28  C   UNL     1     117.562 119.927 129.934  1.00  0.00     0.033 C 
ATOM     29  C   UNL     1     116.459 119.639 128.901  1.00  0.00     0.118 C 
BRANCH  29  30
ATOM     30  O   UNL     1     116.952 119.891 127.609  1.00  0.00    -0.393 OA
ATOM     31  H   UNL     1     116.228 120.351 127.109  1.00  0.00     0.210 HD
ENDBRANCH  29  30
ENDBRANCH   1  11
TORSDOF 6
ENDMDL
MODEL 4
REMARK VINA RESULT:    -6.802      3.580      6.559
REMARK INTER + INTRA:          -9.924
REMARK INTER:                  -9.183
REMARK INTRA:                  -0.742
REMARK UNBOUND:                -0.935
REMARK SMILES CC[C@@H](C=C[C@H](C)[C@H]1CC[C@H]2[C@@H]3CC=C4C[C@@H](O)CC[C@@]4(C)[C@H]3CC[C@@]12C)C(C)C
REMARK SMILES IDX 6 1 7 2 5 3 4 4 3 5 2 6 1 7 28 8 29 9 30 10 8 11 9 12 26 13
REMARK SMILES IDX 10 14 11 15 25 16 27 17 12 18 24 19 23 20 13 21 21 22 14 23
REMARK SMILES IDX 15 24 20 25 22 26 16 27 19 28 17 29 18 30
REMARK H PARENT 18 31
REMARK Flexibility Score: inf
ROOT
ATOM      1  C   UNL     1     115.017 122.516 128.000  1.00  0.00     0.012 C 
ATOM      2  C   UNL     1     113.573 122.941 127.693  1.00  0.00     0.012 C 
ENDROOT
BRANCH   1   3
ATOM      3  C   UNL     1     115.843 123.763 128.230  1.00  0.00    -0.028 C 
ATOM      4  C   UNL     1     116.626 124.281 127.271  1.00  0.00    -0.027 C 
BRANCH   4   5
ATOM      5  C   UNL     1     117.505 125.490 127.531  1.00  0.00     0.014 C 
BRANCH   5   6
ATOM      6  C   UNL     1     118.904 125.330 126.863  1.00  0.00     0.004 C 
ATOM      7  C   UNL     1     119.071 123.958 126.210  1.00  0.00     0.004 C 
ENDBRANCH   5   6
BRANCH   5   8
ATOM      8  C   UNL     1     117.574 125.807 129.055  1.00  0.00    -0.011 C 
ATOM      9  C   UNL     1     118.977 125.627 129.670  1.00  0.00     0.008 C 
ATOM     10  C   UNL     1     117.027 127.209 129.369  1.00  0.00     0.008 C 
ENDBRANCH   5   8
ENDBRANCH   4   5
ENDBRANCH   1   3
BRANCH   1  11
ATOM     11  C   UNL     1     115.241 121.530 129.196  1.00  0.00     0.002 C 
ATOM     12  C   UNL     1     115.468 120.057 128.848  1.00  0.00     0.005 C 
ATOM     13  C   UNL     1     116.299 121.857 130.293  1.00  0.00    -0.026 C 
ATOM     14  C   UNL     1     116.064 119.429 130.114  1.00  0.00     0.005 C 
ATOM     15  C   UNL     1     116.225 120.564 131.147  1.00  0.00    -0.001 C 
ATOM     16  C   UNL     1     117.739 122.067 129.701  1.00  0.00     0.007 C 
ATOM     17  C   UNL     1     115.839 123.095 131.104  1.00  0.00     0.012 C 
ATOM     18  C   UNL     1     117.400 120.308 132.151  1.00  0.00     0.000 C 
ATOM     19  C   UNL     1     118.901 121.412 130.474  1.00  0.00     0.005 C 
ATOM     20  C   UNL     1     118.602 121.256 131.970  1.00  0.00     0.003 C 
ATOM     21  C   UNL     1     116.943 120.415 133.611  1.00  0.00     0.031 C 
ATOM     22  C   UNL     1     119.834 120.813 132.858  1.00  0.00    -0.008 C 
ATOM     23  C   UNL     1     118.072 120.067 134.539  1.00  0.00    -0.027 C 
ATOM     24  C   UNL     1     119.375 120.249 134.218  1.00  0.00    -0.065 C 
ATOM     25  C   UNL     1     120.683 119.709 132.151  1.00  0.00     0.014 C 
ATOM     26  C   UNL     1     120.716 122.065 133.115  1.00  0.00     0.016 C 
ATOM     27  C   UNL     1     120.435 119.660 135.125  1.00  0.00     0.063 C 
ATOM     28  C   UNL     1     121.764 119.077 133.052  1.00  0.00     0.033 C 
ATOM     29  C   UNL     1     121.191 118.550 134.378  1.00  0.00     0.118 C 
BRANCH  29  30
ATOM     30  O   UNL     1     120.336 117.465 134.120  1.00  0.00    -0.393 OA
ATOM     31  H   UNL     1     119.526 117.596 134.679  1.00  0.00     0.210 HD
ENDBRANCH  29  30
ENDBRANCH   1  11
TORSDOF 6
ENDMDL
MODEL 5
REMARK VINA RESULT:    -6.687      2.953      8.866
REMARK INTER + INTRA:          -9.772
REMARK INTER:                  -9.162
REMARK INTRA:                  -0.610
REMARK UNBOUND:                -0.935
REMARK SMILES CC[C@@H](C=C[C@H](C)[C@H]1CC[C@H]2[C@@H]3CC=C4C[C@@H](O)CC[C@@]4(C)[C@H]3CC[C@@]12C)C(C)C
REMARK SMILES IDX 6 1 7 2 5 3 4 4 3 5 2 6 1 7 28 8 29 9 30 10 8 11 9 12 26 13
REMARK SMILES IDX 10 14 11 15 25 16 27 17 12 18 24 19 23 20 13 21 21 22 14 23
REMARK SMILES IDX 15 24 20 25 22 26 16 27 19 28 17 29 18 30
REMARK H PARENT 18 31
REMARK Flexibility Score: inf
ROOT
ATOM      1  C   UNL     1     116.267 119.853 128.484  1.00  0.00     0.012 C 
ATOM      2  C   UNL     1     117.601 119.114 128.679  1.00  0.00     0.012 C 
ENDROOT
BRANCH   1   3
ATOM      3  C   UNL     1     115.499 119.803 129.787  1.00  0.00    -0.028 C 
ATOM      4  C   UNL     1     116.071 120.119 130.959  1.00  0.00    -0.027 C 
BRANCH   4   5
ATOM      5  C   UNL     1     115.315 119.999 132.270  1.00  0.00     0.014 C 
BRANCH   5   6
ATOM      6  C   UNL     1     114.219 121.100 132.396  1.00  0.00     0.004 C 
ATOM      7  C   UNL     1     114.662 122.421 131.768  1.00  0.00     0.004 C 
ENDBRANCH   5   6
BRANCH   5   8
ATOM      8  C   UNL     1     116.302 119.958 133.475  1.00  0.00    -0.011 C 
ATOM      9  C   UNL     1     117.617 120.726 133.233  1.00  0.00     0.008 C 
ATOM     10  C   UNL     1     115.632 120.438 134.773  1.00  0.00     0.008 C 
ENDBRANCH   5   8
ENDBRANCH   4   5
ENDBRANCH   1   3
BRANCH   1  11
ATOM     11  C   UNL     1     116.330 121.337 127.987  1.00  0.00     0.002 C 
ATOM     12  C   UNL     1     115.073 122.188 128.181  1.00  0.00     0.005 C 
ATOM     13  C   UNL     1     117.515 122.256 128.414  1.00  0.00    -0.026 C 
ATOM     14  C   UNL     1     115.537 123.640 128.014  1.00  0.00     0.005 C 
ATOM     15  C   UNL     1     117.064 123.602 127.788  1.00  0.00    -0.001 C 
ATOM     16  C   UNL     1     117.657 122.373 129.974  1.00  0.00     0.007 C 
ATOM     17  C   UNL     1     118.827 121.745 127.767  1.00  0.00     0.012 C 
ATOM     18  C   UNL     1     117.784 124.898 128.293  1.00  0.00     0.000 C 
ATOM     19  C   UNL     1     117.934 123.783 130.534  1.00  0.00     0.005 C 
ATOM     20  C   UNL     1     118.673 124.681 129.535  1.00  0.00     0.003 C 
ATOM     21  C   UNL     1     118.658 125.532 127.205  1.00  0.00     0.031 C 
ATOM     22  C   UNL     1     119.196 126.052 130.125  1.00  0.00    -0.008 C 
ATOM     23  C   UNL     1     119.252 126.822 127.697  1.00  0.00    -0.027 C 
ATOM     24  C   UNL     1     119.508 127.066 129.004  1.00  0.00    -0.065 C 
ATOM     25  C   UNL     1     118.143 126.708 131.074  1.00  0.00     0.014 C 
ATOM     26  C   UNL     1     120.505 125.769 130.911  1.00  0.00     0.016 C 
ATOM     27  C   UNL     1     119.892 128.470 129.418  1.00  0.00     0.063 C 
ATOM     28  C   UNL     1     118.497 128.146 131.505  1.00  0.00     0.033 C 
ATOM     29  C   UNL     1     118.787 129.064 130.306  1.00  0.00     0.118 C 
BRANCH  29  30
ATOM     30  O   UNL     1     117.609 129.249 129.562  1.00  0.00    -0.393 OA
ATOM     31  H   UNL     1     117.868 129.242 128.604  1.00  0.00     0.210 HD
ENDBRANCH  29  30
ENDBRANCH   1  11
TORSDOF 6
ENDMDL
MODEL 6
REMARK VINA RESULT:    -6.653      6.332      9.296
REMARK INTER + INTRA:          -9.728
REMARK INTER:                  -8.609
REMARK INTRA:                  -1.118
REMARK UNBOUND:                -0.935
REMARK SMILES CC[C@@H](C=C[C@H](C)[C@H]1CC[C@H]2[C@@H]3CC=C4C[C@@H](O)CC[C@@]4(C)[C@H]3CC[C@@]12C)C(C)C
REMARK SMILES IDX 6 1 7 2 5 3 4 4 3 5 2 6 1 7 28 8 29 9 30 10 8 11 9 12 26 13
REMARK SMILES IDX 10 14 11 15 25 16 27 17 12 18 24 19 23 20 13 21 21 22 14 23
REMARK SMILES IDX 15 24 20 25 22 26 16 27 19 28 17 29 18 30
REMARK H PARENT 18 31
REMARK Flexibility Score: inf
ROOT
ATOM      1  C   UNL     1     121.437 117.299 127.202  1.00  0.00     0.012 C 
ATOM      2  C   UNL     1     122.222 116.034 127.583  1.00  0.00     0.012 C 
ENDROOT
BRANCH   1   3
ATOM      3  C   UNL     1     121.489 117.459 125.699  1.00  0.00    -0.028 C 
ATOM      4  C   UNL     1     122.030 118.542 125.120  1.00  0.00    -0.027 C 
BRANCH   4   5
ATOM      5  C   UNL     1     122.016 118.728 123.614  1.00  0.00     0.014 C 
BRANCH   5   6
ATOM      6  C   UNL     1     123.422 119.137 123.079  1.00  0.00     0.004 C 
ATOM      7  C   UNL     1     123.368 119.589 121.619  1.00  0.00     0.004 C 
ENDBRANCH   5   6
BRANCH   5   8
ATOM      8  C   UNL     1     120.877 119.704 123.188  1.00  0.00    -0.011 C 
ATOM      9  C   UNL     1     119.550 119.002 122.838  1.00  0.00     0.008 C 
ATOM     10  C   UNL     1     120.642 120.797 124.243  1.00  0.00     0.008 C 
ENDBRANCH   5   8
ENDBRANCH   4   5
ENDBRANCH   1   3
BRANCH   1  11
ATOM     11  C   UNL     1     119.945 117.392 127.673  1.00  0.00     0.002 C 
ATOM     12  C   UNL     1     119.433 116.271 128.580  1.00  0.00     0.005 C 
ATOM     13  C   UNL     1     119.405 118.709 128.307  1.00  0.00    -0.026 C 
ATOM     14  C   UNL     1     118.145 116.816 129.209  1.00  0.00     0.005 C 
ATOM     15  C   UNL     1     117.972 118.263 128.699  1.00  0.00    -0.001 C 
ATOM     16  C   UNL     1     120.228 119.155 129.569  1.00  0.00     0.007 C 
ATOM     17  C   UNL     1     119.373 119.827 127.233  1.00  0.00     0.012 C 
ATOM     18  C   UNL     1     117.196 119.174 129.711  1.00  0.00     0.000 C 
ATOM     19  C   UNL     1     119.413 119.652 130.779  1.00  0.00     0.005 C 
ATOM     20  C   UNL     1     118.065 120.261 130.375  1.00  0.00     0.003 C 
ATOM     21  C   UNL     1     116.001 119.875 129.054  1.00  0.00     0.031 C 
ATOM     22  C   UNL     1     117.287 121.001 131.536  1.00  0.00    -0.008 C 
ATOM     23  C   UNL     1     115.228 120.659 130.076  1.00  0.00    -0.027 C 
ATOM     24  C   UNL     1     115.794 121.179 131.191  1.00  0.00    -0.065 C 
ATOM     25  C   UNL     1     117.370 120.207 132.879  1.00  0.00     0.014 C 
ATOM     26  C   UNL     1     117.922 122.406 131.719  1.00  0.00     0.016 C 
ATOM     27  C   UNL     1     114.892 121.752 132.263  1.00  0.00     0.063 C 
ATOM     28  C   UNL     1     116.452 120.757 133.990  1.00  0.00     0.033 C 
ATOM     29  C   UNL     1     114.990 120.890 133.532  1.00  0.00     0.118 C 
BRANCH  29  30
ATOM     30  O   UNL     1     114.455 119.612 133.298  1.00  0.00    -0.393 OA
ATOM     31  H   UNL     1     115.215 119.021 133.055  1.00  0.00     0.210 HD
ENDBRANCH  29  30
ENDBRANCH   1  11
TORSDOF 6
ENDMDL
MODEL 7
REMARK VINA RESULT:    -6.632      3.238      9.561
REMARK INTER + INTRA:          -9.699
REMARK INTER:                  -8.425
REMARK INTRA:                  -1.274
REMARK UNBOUND:                -0.935
REMARK SMILES CC[C@@H](C=C[C@H](C)[C@H]1CC[C@H]2[C@@H]3CC=C4C[C@@H](O)CC[C@@]4(C)[C@H]3CC[C@@]12C)C(C)C
REMARK SMILES IDX 6 1 7 2 5 3 4 4 3 5 2 6 1 7 28 8 29 9 30 10 8 11 9 12 26 13
REMARK SMILES IDX 10 14 11 15 25 16 27 17 12 18 24 19 23 20 13 21 21 22 14 23
REMARK SMILES IDX 15 24 20 25 22 26 16 27 19 28 17 29 18 30
REMARK H PARENT 18 31
REMARK Flexibility Score: inf
ROOT
ATOM      1  C   UNL     1     118.541 118.459 128.362  1.00  0.00     0.012 C 
ATOM      2  C   UNL     1     117.608 117.510 129.129  1.00  0.00     0.012 C 
ENDROOT
BRANCH   1   3
ATOM      3  C   UNL     1     119.049 117.738 127.132  1.00  0.00    -0.028 C 
ATOM      4  C   UNL     1     118.922 118.259 125.902  1.00  0.00    -0.027 C 
BRANCH   4   5
ATOM      5  C   UNL     1     119.370 117.499 124.667  1.00  0.00     0.014 C 
BRANCH   5   6
ATOM      6  C   UNL     1     119.682 116.009 125.000  1.00  0.00     0.004 C 
ATOM      7  C   UNL     1     118.587 115.070 124.494  1.00  0.00     0.004 C 
ENDBRANCH   5   6
BRANCH   5   8
ATOM      8  C   UNL     1     120.543 118.240 123.957  1.00  0.00    -0.011 C 
ATOM      9  C   UNL     1     120.089 119.367 123.008  1.00  0.00     0.008 C 
ATOM     10  C   UNL     1     121.572 118.773 124.967  1.00  0.00     0.008 C 
ENDBRANCH   5   8
ENDBRANCH   4   5
ENDBRANCH   1   3
BRANCH   1  11
ATOM     11  C   UNL     1     117.964 119.851 127.934  1.00  0.00     0.002 C 
ATOM     12  C   UNL     1     116.502 120.134 128.288  1.00  0.00     0.005 C 
ATOM     13  C   UNL     1     118.731 121.160 128.290  1.00  0.00    -0.026 C 
ATOM     14  C   UNL     1     116.339 121.653 128.149  1.00  0.00     0.005 C 
ATOM     15  C   UNL     1     117.724 122.223 127.776  1.00  0.00    -0.001 C 
ATOM     16  C   UNL     1     118.982 121.313 129.834  1.00  0.00     0.007 C 
ATOM     17  C   UNL     1     120.062 121.214 127.496  1.00  0.00     0.012 C 
ATOM     18  C   UNL     1     117.929 123.694 128.274  1.00  0.00     0.000 C 
ATOM     19  C   UNL     1     118.742 122.712 130.433  1.00  0.00     0.005 C 
ATOM     20  C   UNL     1     118.959 123.837 129.412  1.00  0.00     0.003 C 
ATOM     21  C   UNL     1     118.362 124.630 127.139  1.00  0.00     0.031 C 
ATOM     22  C   UNL     1     118.962 125.299 130.016  1.00  0.00    -0.008 C 
ATOM     23  C   UNL     1     118.452 126.046 127.634  1.00  0.00    -0.027 C 
ATOM     24  C   UNL     1     118.730 126.361 128.921  1.00  0.00    -0.065 C 
ATOM     25  C   UNL     1     117.845 125.478 131.092  1.00  0.00     0.014 C 
ATOM     26  C   UNL     1     120.353 125.550 130.659  1.00  0.00     0.016 C 
ATOM     27  C   UNL     1     118.574 127.800 129.365  1.00  0.00     0.063 C 
ATOM     28  C   UNL     1     117.650 126.937 131.557  1.00  0.00     0.033 C 
ATOM     29  C   UNL     1     117.427 127.903 130.382  1.00  0.00     0.118 C 
BRANCH  29  30
ATOM     30  O   UNL     1     116.199 127.613 129.764  1.00  0.00    -0.393 OA
ATOM     31  H   UNL     1     116.407 127.238 128.869  1.00  0.00     0.210 HD
ENDBRANCH  29  30
ENDBRANCH   1  11
TORSDOF 6
ENDMDL
MODEL 8
REMARK VINA RESULT:    -6.580      6.268      9.665
REMARK INTER + INTRA:          -9.631
REMARK INTER:                  -8.318
REMARK INTRA:                  -1.313
REMARK UNBOUND:                -0.935
REMARK SMILES CC[C@@H](C=C[C@H](C)[C@H]1CC[C@H]2[C@@H]3CC=C4C[C@@H](O)CC[C@@]4(C)[C@H]3CC[C@@]12C)C(C)C
REMARK SMILES IDX 6 1 7 2 5 3 4 4 3 5 2 6 1 7 28 8 29 9 30 10 8 11 9 12 26 13
REMARK SMILES IDX 10 14 11 15 25 16 27 17 12 18 24 19 23 20 13 21 21 22 14 23
REMARK SMILES IDX 15 24 20 25 22 26 16 27 19 28 17 29 18 30
REMARK H PARENT 18 31
REMARK Flexibility Score: inf
ROOT
ATOM      1  C   UNL     1     118.002 118.721 128.461  1.00  0.00     0.012 C 
ATOM      2  C   UNL     1     118.704 118.529 129.814  1.00  0.00     0.012 C 
ENDROOT
BRANCH   1   3
ATOM      3  C   UNL     1     116.661 119.375 128.707  1.00  0.00    -0.028 C 
ATOM      4  C   UNL     1     116.078 120.165 127.792  1.00  0.00    -0.027 C 
BRANCH   4   5
ATOM      5  C   UNL     1     114.767 120.874 128.074  1.00  0.00     0.014 C 
BRANCH   5   6
ATOM      6  C   UNL     1     113.829 120.849 126.830  1.00  0.00     0.004 C 
ATOM      7  C   UNL     1     112.875 122.044 126.809  1.00  0.00     0.004 C 
ENDBRANCH   5   6
BRANCH   5   8
ATOM      8  C   UNL     1     115.022 122.306 128.636  1.00  0.00    -0.011 C 
ATOM      9  C   UNL     1     115.091 122.371 130.175  1.00  0.00     0.008 C 
ATOM     10  C   UNL     1     116.276 122.943 128.016  1.00  0.00     0.008 C 
ENDBRANCH   5   8
ENDBRANCH   4   5
ENDBRANCH   1   3
BRANCH   1  11
ATOM     11  C   UNL     1     118.768 119.529 127.358  1.00  0.00     0.002 C 
ATOM     12  C   UNL     1     119.667 120.672 127.835  1.00  0.00     0.005 C 
ATOM     13  C   UNL     1     119.600 118.779 126.275  1.00  0.00    -0.026 C 
ATOM     14  C   UNL     1     120.583 120.989 126.647  1.00  0.00     0.005 C 
ATOM     15  C   UNL     1     120.235 119.983 125.528  1.00  0.00    -0.001 C 
ATOM     16  C   UNL     1     120.703 117.848 126.895  1.00  0.00     0.007 C 
ATOM     17  C   UNL     1     118.646 117.982 125.348  1.00  0.00     0.012 C 
ATOM     18  C   UNL     1     121.450 119.675 124.589  1.00  0.00     0.000 C 
ATOM     19  C   UNL     1     122.088 117.879 126.219  1.00  0.00     0.005 C 
ATOM     20  C   UNL     1     122.011 118.245 124.732  1.00  0.00     0.003 C 
ATOM     21  C   UNL     1     121.104 119.890 123.111  1.00  0.00     0.031 C 
ATOM     22  C   UNL     1     123.360 118.065 123.926  1.00  0.00    -0.008 C 
ATOM     23  C   UNL     1     122.320 119.680 122.253  1.00  0.00    -0.027 C 
ATOM     24  C   UNL     1     123.336 118.856 122.602  1.00  0.00    -0.065 C 
ATOM     25  C   UNL     1     124.591 118.559 124.750  1.00  0.00     0.014 C 
ATOM     26  C   UNL     1     123.523 116.556 123.595  1.00  0.00     0.016 C 
ATOM     27  C   UNL     1     124.610 118.889 121.783  1.00  0.00     0.063 C 
ATOM     28  C   UNL     1     125.904 118.617 123.941  1.00  0.00     0.033 C 
ATOM     29  C   UNL     1     125.761 119.432 122.645  1.00  0.00     0.118 C 
BRANCH  29  30
ATOM     30  O   UNL     1     125.537 120.782 122.964  1.00  0.00    -0.393 OA
ATOM     31  H   UNL     1     126.421 121.178 123.182  1.00  0.00     0.210 HD
ENDBRANCH  29  30
ENDBRANCH   1  11
TORSDOF 6
ENDMDL
MODEL 9
REMARK VINA RESULT:    -6.535      3.101      9.843
REMARK INTER + INTRA:          -9.572
REMARK INTER:                  -8.146
REMARK INTRA:                  -1.426
REMARK UNBOUND:                -0.935
REMARK SMILES CC[C@@H](C=C[C@H](C)[C@H]1CC[C@H]2[C@@H]3CC=C4C[C@@H](O)CC[C@@]4(C)[C@H]3CC[C@@]12C)C(C)C
REMARK SMILES IDX 6 1 7 2 5 3 4 4 3 5 2 6 1 7 28 8 29 9 30 10 8 11 9 12 26 13
REMARK SMILES IDX 10 14 11 15 25 16 27 17 12 18 24 19 23 20 13 21 21 22 14 23
REMARK SMILES IDX 15 24 20 25 22 26 16 27 19 28 17 29 18 30
REMARK H PARENT 18 31
REMARK Flexibility Score: inf
ROOT
ATOM      1  C   UNL     1     120.067 120.166 125.417  1.00  0.00     0.012 C 
ATOM      2  C   UNL     1     120.840 120.468 124.124  1.00  0.00     0.012 C 
ENDROOT
BRANCH   1   3
ATOM      3  C   UNL     1     120.210 118.691 125.725  1.00  0.00    -0.028 C 
ATOM      4  C   UNL     1     120.163 118.221 126.981  1.00  0.00    -0.027 C 
BRANCH   4   5
ATOM      5  C   UNL     1     120.377 116.750 127.287  1.00  0.00     0.014 C 
BRANCH   5   6
ATOM      6  C   UNL     1     120.425 115.899 125.982  1.00  0.00     0.004 C 
ATOM      7  C   UNL     1     119.210 114.981 125.855  1.00  0.00     0.004 C 
ENDBRANCH   5   6
BRANCH   5   8
ATOM      8  C   UNL     1     119.331 116.244 128.326  1.00  0.00    -0.011 C 
ATOM      9  C   UNL     1     119.945 115.444 129.493  1.00  0.00     0.008 C 
ATOM     10  C   UNL     1     118.462 117.393 128.862  1.00  0.00     0.008 C 
ENDBRANCH   5   8
ENDBRANCH   4   5
ENDBRANCH   1   3
BRANCH   1  11
ATOM     11  C   UNL     1     120.445 120.991 126.694  1.00  0.00     0.002 C 
ATOM     12  C   UNL     1     121.818 121.667 126.702  1.00  0.00     0.005 C 
ATOM     13  C   UNL     1     119.459 122.061 127.254  1.00  0.00    -0.026 C 
ATOM     14  C   UNL     1     121.749 122.710 127.824  1.00  0.00     0.005 C 
ATOM     15  C   UNL     1     120.318 122.658 128.401  1.00  0.00    -0.001 C 
ATOM     16  C   UNL     1     119.089 123.157 126.191  1.00  0.00     0.007 C 
ATOM     17  C   UNL     1     118.191 121.360 127.805  1.00  0.00     0.012 C 
ATOM     18  C   UNL     1     119.853 124.030 128.996  1.00  0.00     0.000 C 
ATOM     19  C   UNL     1     119.066 124.616 126.688  1.00  0.00     0.005 C 
ATOM     20  C   UNL     1     118.742 124.726 128.184  1.00  0.00     0.003 C 
ATOM     21  C   UNL     1     119.351 123.891 130.439  1.00  0.00     0.031 C 
ATOM     22  C   UNL     1     118.470 126.194 128.705  1.00  0.00    -0.008 C 
ATOM     23  C   UNL     1     119.008 125.240 131.005  1.00  0.00    -0.027 C 
ATOM     24  C   UNL     1     118.602 126.280 130.240  1.00  0.00    -0.065 C 
ATOM     25  C   UNL     1     119.473 127.218 128.087  1.00  0.00     0.014 C 
ATOM     26  C   UNL     1     117.018 126.581 128.313  1.00  0.00     0.016 C 
ATOM     27  C   UNL     1     118.500 127.651 130.874  1.00  0.00     0.063 C 
ATOM     28  C   UNL     1     119.406 128.623 128.720  1.00  0.00     0.033 C 
ATOM     29  C   UNL     1     119.550 128.585 130.251  1.00  0.00     0.118 C 
BRANCH  29  30
ATOM     30  O   UNL     1     120.845 128.159 130.589  1.00  0.00    -0.393 OA
ATOM     31  H   UNL     1     120.745 127.341 131.142  1.00  0.00     0.210 HD
ENDBRANCH  29  30
ENDBRANCH   1  11
TORSDOF 6
ENDMDL
