MODEL 1
REMARK VINA RESULT:    -4.540      0.000      0.000
REMARK INTER + INTRA:          -5.744
REMARK INTER:                  -5.469
REMARK INTRA:                  -0.275
REMARK UNBOUND:                -0.275
REMARK SMILES NC(=O)C[C@H]([NH3+])C(=O)[O-]
REMARK SMILES IDX 4 1 5 2 6 3 7 7 8 8 9 9 2 10 3 11 1 12
REMARK H PARENT 6 4 6 5 6 6 1 13 1 14
REMARK Flexibility Score: inf
ROOT
ATOM      1  C   UNL     1     156.785 166.158 233.211  1.00  0.00     0.171 C 
ENDROOT
BRANCH   1   2
ATOM      2  C   UNL     1     156.427 165.837 231.746  1.00  0.00     0.237 C 
BRANCH   2   3
ATOM      3  N   UNL     1     154.973 165.732 231.558  1.00  0.00    -0.350 N 
ATOM      4  H   UNL     1     154.706 164.736 231.379  1.00  0.00     0.345 HD
ATOM      5  H   UNL     1     154.479 166.044 232.425  1.00  0.00     0.345 HD
ATOM      6  H   UNL     1     154.659 166.321 230.753  1.00  0.00     0.345 HD
ENDBRANCH   2   3
BRANCH   2   7
ATOM      7  C   UNL     1     157.100 164.558 231.325  1.00  0.00     0.100 C 
ATOM      8  O   UNL     1     158.335 164.538 231.075  1.00  0.00    -0.544 OA
ATOM      9  O   UNL     1     156.355 163.393 231.192  1.00  0.00    -0.544 OA
ENDBRANCH   2   7
ENDBRANCH   1   2
BRANCH   1  10
ATOM     10  C   UNL     1     157.783 167.275 233.306  1.00  0.00     0.223 C 
ATOM     11  O   UNL     1     157.512 168.300 233.987  1.00  0.00    -0.275 OA
ATOM     12  N   UNL     1     159.052 167.172 232.659  1.00  0.00    -0.369 N 
ATOM     13  H   UNL     1     159.746 167.948 232.737  1.00  0.00     0.159 HD
ATOM     14  H   UNL     1     159.304 166.321 232.111  1.00  0.00     0.159 HD
ENDBRANCH   1  10
TORSDOF 4
ENDMDL
MODEL 2
REMARK VINA RESULT:    -4.538     13.396     14.767
REMARK INTER + INTRA:          -5.741
REMARK INTER:                  -5.471
REMARK INTRA:                  -0.270
REMARK UNBOUND:                -0.275
REMARK SMILES NC(=O)C[C@H]([NH3+])C(=O)[O-]
REMARK SMILES IDX 4 1 5 2 6 3 7 7 8 8 9 9 2 10 3 11 1 12
REMARK H PARENT 6 4 6 5 6 6 1 13 1 14
REMARK Flexibility Score: inf
ROOT
ATOM      1  C   UNL     1     161.224 151.824 233.211  1.00  0.00     0.171 C 
ENDROOT
BRANCH   1   2
ATOM      2  C   UNL     1     161.586 152.118 231.741  1.00  0.00     0.237 C 
BRANCH   2   3
ATOM      3  N   UNL     1     163.038 152.259 231.562  1.00  0.00    -0.350 N 
ATOM      4  H   UNL     1     163.242 152.742 230.657  1.00  0.00     0.345 HD
ATOM      5  H   UNL     1     163.436 152.842 232.333  1.00  0.00     0.345 HD
ATOM      6  H   UNL     1     163.505 151.323 231.564  1.00  0.00     0.345 HD
ENDBRANCH   2   3
BRANCH   2   7
ATOM      7  C   UNL     1     160.882 153.366 231.283  1.00  0.00     0.100 C 
ATOM      8  O   UNL     1     159.658 153.336 230.986  1.00  0.00    -0.544 OA
ATOM      9  O   UNL     1     161.586 154.558 231.167  1.00  0.00    -0.544 OA
ENDBRANCH   2   7
ENDBRANCH   1   2
BRANCH   1  10
ATOM     10  C   UNL     1     160.227 150.707 233.324  1.00  0.00     0.223 C 
ATOM     11  O   UNL     1     160.498 149.695 234.024  1.00  0.00    -0.275 OA
ATOM     12  N   UNL     1     158.960 150.796 232.672  1.00  0.00    -0.369 N 
ATOM     13  H   UNL     1     158.267 150.021 232.761  1.00  0.00     0.159 HD
ATOM     14  H   UNL     1     158.709 151.636 232.107  1.00  0.00     0.159 HD
ENDBRANCH   1  10
TORSDOF 4
ENDMDL
MODEL 3
REMARK VINA RESULT:    -4.454     13.126     14.403
REMARK INTER + INTRA:          -5.641
REMARK INTER:                  -5.525
REMARK INTRA:                  -0.116
REMARK UNBOUND:                -0.275
REMARK SMILES NC(=O)C[C@H]([NH3+])C(=O)[O-]
REMARK SMILES IDX 4 1 5 2 6 3 7 7 8 8 9 9 2 10 3 11 1 12
REMARK H PARENT 6 4 6 5 6 6 1 13 1 14
REMARK Flexibility Score: inf
ROOT
ATOM      1  C   UNL     1     161.037 151.778 232.661  1.00  0.00     0.171 C 
ENDROOT
BRANCH   1   2
ATOM      2  C   UNL     1     161.756 152.612 231.582  1.00  0.00     0.237 C 
BRANCH   2   3
ATOM      3  N   UNL     1     163.183 152.268 231.498  1.00  0.00    -0.350 N 
ATOM      4  H   UNL     1     163.467 151.708 232.335  1.00  0.00     0.345 HD
ATOM      5  H   UNL     1     163.358 151.685 230.648  1.00  0.00     0.345 HD
ATOM      6  H   UNL     1     163.770 153.132 231.448  1.00  0.00     0.345 HD
ENDBRANCH   2   3
BRANCH   2   7
ATOM      7  C   UNL     1     161.591 154.078 231.877  1.00  0.00     0.100 C 
ATOM      8  O   UNL     1     161.065 154.458 232.957  1.00  0.00    -0.544 OA
ATOM      9  O   UNL     1     162.003 155.025 230.947  1.00  0.00    -0.544 OA
ENDBRANCH   2   7
ENDBRANCH   1   2
BRANCH   1  10
ATOM     10  C   UNL     1     159.755 151.190 232.145  1.00  0.00     0.223 C 
ATOM     11  O   UNL     1     159.568 151.092 230.903  1.00  0.00    -0.275 OA
ATOM     12  N   UNL     1     158.761 150.710 233.050  1.00  0.00    -0.369 N 
ATOM     13  H   UNL     1     157.876 150.293 232.686  1.00  0.00     0.159 HD
ATOM     14  H   UNL     1     158.908 150.761 234.082  1.00  0.00     0.159 HD
ENDBRANCH   1  10
TORSDOF 4
ENDMDL
MODEL 4
REMARK VINA RESULT:    -4.385      1.201      3.844
REMARK INTER + INTRA:          -5.557
REMARK INTER:                  -5.218
REMARK INTRA:                  -0.339
REMARK UNBOUND:                -0.275
REMARK SMILES NC(=O)C[C@H]([NH3+])C(=O)[O-]
REMARK SMILES IDX 4 1 5 2 6 3 7 7 8 8 9 9 2 10 3 11 1 12
REMARK H PARENT 6 4 6 5 6 6 1 13 1 14
REMARK Flexibility Score: inf
ROOT
ATOM      1  C   UNL     1     157.335 166.511 231.176  1.00  0.00     0.171 C 
ENDROOT
BRANCH   1   2
ATOM      2  C   UNL     1     158.331 166.650 232.345  1.00  0.00     0.237 C 
BRANCH   2   3
ATOM      3  N   UNL     1     159.055 165.394 232.589  1.00  0.00    -0.350 N 
ATOM      4  H   UNL     1     159.940 165.587 233.111  1.00  0.00     0.345 HD
ATOM      5  H   UNL     1     158.470 164.756 233.175  1.00  0.00     0.345 HD
ATOM      6  H   UNL     1     159.285 164.918 231.687  1.00  0.00     0.345 HD
ENDBRANCH   2   3
BRANCH   2   7
ATOM      7  C   UNL     1     157.600 167.079 233.589  1.00  0.00     0.100 C 
ATOM      8  O   UNL     1     157.245 168.279 233.740  1.00  0.00    -0.544 OA
ATOM      9  O   UNL     1     157.329 166.154 234.589  1.00  0.00    -0.544 OA
ENDBRANCH   2   7
ENDBRANCH   1   2
BRANCH   1  10
ATOM     10  C   UNL     1     156.308 165.450 231.446  1.00  0.00     0.223 C 
ATOM     11  O   UNL     1     156.674 164.259 231.638  1.00  0.00    -0.275 OA
ATOM     12  N   UNL     1     154.921 165.784 231.521  1.00  0.00    -0.369 N 
ATOM     13  H   UNL     1     154.212 165.043 231.719  1.00  0.00     0.159 HD
ATOM     14  H   UNL     1     154.602 166.768 231.388  1.00  0.00     0.159 HD
ENDBRANCH   1  10
TORSDOF 4
ENDMDL
MODEL 5
REMARK VINA RESULT:    -4.351      1.942      3.072
REMARK INTER + INTRA:          -5.516
REMARK INTER:                  -5.170
REMARK INTRA:                  -0.346
REMARK UNBOUND:                -0.275
REMARK SMILES NC(=O)C[C@H]([NH3+])C(=O)[O-]
REMARK SMILES IDX 4 1 5 2 6 3 7 7 8 8 9 9 2 10 3 11 1 12
REMARK H PARENT 6 4 6 5 6 6 1 13 1 14
REMARK Flexibility Score: inf
ROOT
ATOM      1  C   UNL     1     156.763 166.992 232.830  1.00  0.00     0.171 C 
ENDROOT
BRANCH   1   2
ATOM      2  C   UNL     1     158.214 166.623 233.201  1.00  0.00     0.237 C 
BRANCH   2   3
ATOM      3  N   UNL     1     159.181 167.259 232.295  1.00  0.00    -0.350 N 
ATOM      4  H   UNL     1     158.762 167.367 231.343  1.00  0.00     0.345 HD
ATOM      5  H   UNL     1     159.423 168.213 232.648  1.00  0.00     0.345 HD
ATOM      6  H   UNL     1     160.053 166.687 232.223  1.00  0.00     0.345 HD
ENDBRANCH   2   3
BRANCH   2   7
ATOM      7  C   UNL     1     158.381 165.127 233.175  1.00  0.00     0.100 C 
ATOM      8  O   UNL     1     159.261 164.596 232.446  1.00  0.00    -0.544 OA
ATOM      9  O   UNL     1     157.550 164.322 233.944  1.00  0.00    -0.544 OA
ENDBRANCH   2   7
ENDBRANCH   1   2
BRANCH   1  10
ATOM     10  C   UNL     1     156.385 166.464 231.477  1.00  0.00     0.223 C 
ATOM     11  O   UNL     1     157.093 166.748 230.474  1.00  0.00    -0.275 OA
ATOM     12  N   UNL     1     155.249 165.613 231.321  1.00  0.00    -0.369 N 
ATOM     13  H   UNL     1     154.996 165.241 230.380  1.00  0.00     0.159 HD
ATOM     14  H   UNL     1     154.664 165.348 232.144  1.00  0.00     0.159 HD
ENDBRANCH   1  10
TORSDOF 4
ENDMDL
MODEL 6
REMARK VINA RESULT:    -4.348     13.704     14.749
REMARK INTER + INTRA:          -5.514
REMARK INTER:                  -5.392
REMARK INTRA:                  -0.121
REMARK UNBOUND:                -0.275
REMARK SMILES NC(=O)C[C@H]([NH3+])C(=O)[O-]
REMARK SMILES IDX 4 1 5 2 6 3 7 7 8 8 9 9 2 10 3 11 1 12
REMARK H PARENT 6 4 6 5 6 6 1 13 1 14
REMARK Flexibility Score: inf
ROOT
ATOM      1  C   UNL     1     160.642 152.785 232.235  1.00  0.00     0.171 C 
ENDROOT
BRANCH   1   2
ATOM      2  C   UNL     1     160.511 151.251 232.336  1.00  0.00     0.237 C 
BRANCH   2   3
ATOM      3  N   UNL     1     159.268 150.774 231.713  1.00  0.00    -0.350 N 
ATOM      4  H   UNL     1     159.345 150.831 230.671  1.00  0.00     0.345 HD
ATOM      5  H   UNL     1     159.105 149.773 231.968  1.00  0.00     0.345 HD
ATOM      6  H   UNL     1     158.451 151.346 232.028  1.00  0.00     0.345 HD
ENDBRANCH   2   3
BRANCH   2   7
ATOM      7  C   UNL     1     160.564 150.830 233.780  1.00  0.00     0.100 C 
ATOM      8  O   UNL     1     160.294 149.644 234.110  1.00  0.00    -0.544 OA
ATOM      9  O   UNL     1     160.897 151.755 234.762  1.00  0.00    -0.544 OA
ENDBRANCH   2   7
ENDBRANCH   1   2
BRANCH   1  10
ATOM     10  C   UNL     1     161.949 153.190 231.616  1.00  0.00     0.223 C 
ATOM     11  O   UNL     1     162.111 154.374 231.218  1.00  0.00    -0.275 OA
ATOM     12  N   UNL     1     163.021 152.253 231.506  1.00  0.00    -0.369 N 
ATOM     13  H   UNL     1     163.931 152.543 231.085  1.00  0.00     0.159 HD
ATOM     14  H   UNL     1     162.912 151.275 231.852  1.00  0.00     0.159 HD
ENDBRANCH   1  10
TORSDOF 4
ENDMDL
MODEL 7
REMARK VINA RESULT:    -4.335     13.525     14.567
REMARK INTER + INTRA:          -5.497
REMARK INTER:                  -5.142
REMARK INTRA:                  -0.354
REMARK UNBOUND:                -0.275
REMARK SMILES NC(=O)C[C@H]([NH3+])C(=O)[O-]
REMARK SMILES IDX 4 1 5 2 6 3 7 7 8 8 9 9 2 10 3 11 1 12
REMARK H PARENT 6 4 6 5 6 6 1 13 1 14
REMARK Flexibility Score: inf
ROOT
ATOM      1  C   UNL     1     161.247 151.020 232.841  1.00  0.00     0.171 C 
ENDROOT
BRANCH   1   2
ATOM      2  C   UNL     1     159.792 151.397 233.187  1.00  0.00     0.237 C 
BRANCH   2   3
ATOM      3  N   UNL     1     158.837 150.760 232.268  1.00  0.00    -0.350 N 
ATOM      4  H   UNL     1     158.259 150.058 232.783  1.00  0.00     0.345 HD
ATOM      5  H   UNL     1     158.190 151.481 231.875  1.00  0.00     0.345 HD
ATOM      6  H   UNL     1     159.339 150.284 231.484  1.00  0.00     0.345 HD
ENDBRANCH   2   3
BRANCH   2   7
ATOM      7  C   UNL     1     159.631 152.893 233.151  1.00  0.00     0.100 C 
ATOM      8  O   UNL     1     160.265 153.623 233.959  1.00  0.00    -0.544 OA
ATOM      9  O   UNL     1     158.765 153.476 232.234  1.00  0.00    -0.544 OA
ENDBRANCH   2   7
ENDBRANCH   1   2
BRANCH   1  10
ATOM     10  C   UNL     1     161.643 151.525 231.484  1.00  0.00     0.223 C 
ATOM     11  O   UNL     1     160.948 151.223 230.477  1.00  0.00    -0.275 OA
ATOM     12  N   UNL     1     162.782 152.372 231.329  1.00  0.00    -0.369 N 
ATOM     13  H   UNL     1     163.047 152.729 230.384  1.00  0.00     0.159 HD
ATOM     14  H   UNL     1     163.356 152.651 232.154  1.00  0.00     0.159 HD
ENDBRANCH   1  10
TORSDOF 4
ENDMDL
MODEL 8
REMARK VINA RESULT:    -4.281     12.703     13.873
REMARK INTER + INTRA:          -5.432
REMARK INTER:                  -5.056
REMARK INTRA:                  -0.376
REMARK UNBOUND:                -0.275
REMARK SMILES NC(=O)C[C@H]([NH3+])C(=O)[O-]
REMARK SMILES IDX 4 1 5 2 6 3 7 7 8 8 9 9 2 10 3 11 1 12
REMARK H PARENT 6 4 6 5 6 6 1 13 1 14
REMARK Flexibility Score: inf
ROOT
ATOM      1  C   UNL     1     161.256 153.437 232.778  1.00  0.00     0.171 C 
ENDROOT
BRANCH   1   2
ATOM      2  C   UNL     1     161.830 152.094 232.282  1.00  0.00     0.237 C 
BRANCH   2   3
ATOM      3  N   UNL     1     163.064 152.288 231.509  1.00  0.00    -0.350 N 
ATOM      4  H   UNL     1     163.786 151.591 231.806  1.00  0.00     0.345 HD
ATOM      5  H   UNL     1     162.873 152.137 230.492  1.00  0.00     0.345 HD
ATOM      6  H   UNL     1     163.442 153.253 231.648  1.00  0.00     0.345 HD
ENDBRANCH   2   3
BRANCH   2   7
ATOM      7  C   UNL     1     160.801 151.376 231.450  1.00  0.00     0.100 C 
ATOM      8  O   UNL     1     161.062 151.039 230.264  1.00  0.00    -0.544 OA
ATOM      9  O   UNL     1     159.548 151.098 231.982  1.00  0.00    -0.544 OA
ENDBRANCH   2   7
ENDBRANCH   1   2
BRANCH   1  10
ATOM     10  C   UNL     1     161.008 154.387 231.642  1.00  0.00     0.223 C 
ATOM     11  O   UNL     1     161.983 154.869 231.006  1.00  0.00    -0.275 OA
ATOM     12  N   UNL     1     159.675 154.723 231.255  1.00  0.00    -0.369 N 
ATOM     13  H   UNL     1     159.508 155.376 230.458  1.00  0.00     0.159 HD
ATOM     14  H   UNL     1     158.856 154.315 231.755  1.00  0.00     0.159 HD
ENDBRANCH   1  10
TORSDOF 4
ENDMDL
MODEL 9
REMARK VINA RESULT:    -4.228      1.771      3.493
REMARK INTER + INTRA:          -5.369
REMARK INTER:                  -4.902
REMARK INTRA:                  -0.467
REMARK UNBOUND:                -0.275
REMARK SMILES NC(=O)C[C@H]([NH3+])C(=O)[O-]
REMARK SMILES IDX 4 1 5 2 6 3 7 7 8 8 9 9 2 10 3 11 1 12
REMARK H PARENT 6 4 6 5 6 6 1 13 1 14
REMARK Flexibility Score: inf
ROOT
ATOM      1  C   UNL     1     156.723 164.387 232.786  1.00  0.00     0.171 C 
ENDROOT
BRANCH   1   2
ATOM      2  C   UNL     1     155.950 165.681 232.458  1.00  0.00     0.237 C 
BRANCH   2   3
ATOM      3  N   UNL     1     155.043 165.492 231.317  1.00  0.00    -0.350 N 
ATOM      4  H   UNL     1     155.579 165.151 230.486  1.00  0.00     0.345 HD
ATOM      5  H   UNL     1     154.323 164.770 231.552  1.00  0.00     0.345 HD
ATOM      6  H   UNL     1     154.563 166.388 231.072  1.00  0.00     0.345 HD
ENDBRANCH   2   3
BRANCH   2   7
ATOM      7  C   UNL     1     156.920 166.796 232.172  1.00  0.00     0.100 C 
ATOM      8  O   UNL     1     157.262 167.595 233.085  1.00  0.00    -0.544 OA
ATOM      9  O   UNL     1     157.431 166.960 230.891  1.00  0.00    -0.544 OA
ENDBRANCH   2   7
ENDBRANCH   1   2
BRANCH   1  10
ATOM     10  C   UNL     1     157.113 163.643 231.542  1.00  0.00     0.223 C 
ATOM     11  O   UNL     1     156.321 162.798 231.045  1.00  0.00    -0.275 OA
ATOM     12  N   UNL     1     158.359 163.909 230.898  1.00  0.00    -0.369 N 
ATOM     13  H   UNL     1     158.620 163.395 230.027  1.00  0.00     0.159 HD
ATOM     14  H   UNL     1     159.017 164.621 231.282  1.00  0.00     0.159 HD
ENDBRANCH   1  10
TORSDOF 4
ENDMDL
