MODEL 1
REMARK VINA RESULT:    -3.018      0.000      0.000
REMARK INTER + INTRA:          -4.965
REMARK INTER:                  -4.606
REMARK INTRA:                  -0.360
REMARK UNBOUND:                -0.360
REMARK SMILES CC1=CCC[C@H](C)C(=O)C[C@H](C(C)C)C(=O)C1
REMARK SMILES IDX 8 1 9 2 6 3 7 4 5 5 4 6 3 7 2 8 1 9 10 11 11 12 15 13 16 14
REMARK SMILES IDX 17 15 12 17 13 18 14 19
REMARK H PARENT
REMARK Flexibility Score: 70.00
ROOT
ATOM      1  C   UNL     1      13.359  24.028  14.282  1.00  0.00     0.136 C 
ATOM      2  O   UNL     1      13.675  23.695  13.148  1.00  0.00    -0.299 OA
ENDROOT
BRANCH   1   3
ATOM      3  C   UNL     1      11.917  23.849  14.748  1.00  0.00     0.053 C 
ATOM      4  C   UNL     1      11.751  24.113  16.253  1.00  0.00     0.016 C 
BRANCH   3   5
ATOM      5  C   UNL     1      10.950  24.754  13.934  1.00  0.00     0.015 C 
BRANCH   5   6
ATOM      6  C   UNL     1      10.773  26.202  14.439  1.00  0.00     0.028 C 
BRANCH   6   7
ATOM      7  C   UNL     1      11.520  27.312  13.731  1.00  0.00    -0.028 C 
ATOM      8  C   UNL     1      12.588  28.011  14.189  1.00  0.00    -0.070 CG0
ATOM      9  C   UNL     1      13.013  29.224  13.396  1.00  0.00     0.039 C 
ATOM     10  G   UNL     1      13.426  27.617  15.398  1.00  0.00     0.000 G0
ENDBRANCH   6   7
ENDBRANCH   5   6
ENDBRANCH   3   5
ENDBRANCH   1   3
BRANCH   1  11
ATOM     11  C   UNL     1      14.427  24.641  15.175  1.00  0.00     0.087 C 
BRANCH  11  12
ATOM     12  C   UNL     1      15.216  25.793  14.507  1.00  0.00     0.066 C 
BRANCH  12  13
ATOM     13  C   UNL     1      14.836  27.197  14.971  1.00  0.00     0.140 C 
ATOM     14  O   UNL     1      15.742  28.012  15.080  1.00  0.00    -0.299 OA
BRANCH  13  15
ATOM     15  C   UNL     1      13.432  27.618  15.390  1.00  0.00     0.106 CG0
ATOM     16  G   UNL     1      12.593  28.010  14.182  1.00  0.00     0.000 G0
ENDBRANCH  13  15
ENDBRANCH  12  13
BRANCH  12  17
ATOM     17  C   UNL     1      16.757  25.545  14.562  1.00  0.00    -0.006 C 
ATOM     18  C   UNL     1      17.224  25.177  15.979  1.00  0.00     0.008 C 
ATOM     19  C   UNL     1      17.254  24.493  13.557  1.00  0.00     0.008 C 
ENDBRANCH  12  17
ENDBRANCH  11  12
ENDBRANCH   1  11
TORSDOF 1
ENDMDL
MODEL 2
REMARK VINA RESULT:    -2.990      4.619      6.955
REMARK INTER + INTRA:          -4.924
REMARK INTER:                  -4.615
REMARK INTRA:                  -0.309
REMARK UNBOUND:                -0.360
REMARK SMILES CC1=CCC[C@H](C)C(=O)C[C@H](C(C)C)C(=O)C1
REMARK SMILES IDX 8 1 9 2 6 3 7 4 5 5 4 6 3 7 2 8 1 9 10 11 11 12 15 13 16 14
REMARK SMILES IDX 17 15 12 17 13 18 14 19
REMARK H PARENT
REMARK Flexibility Score: 70.00
ROOT
ATOM      1  C   UNL     1       9.703  29.465  14.609  1.00  0.00     0.136 C 
ATOM      2  O   UNL     1      10.806  29.361  15.128  1.00  0.00    -0.299 OA
ENDROOT
BRANCH   1   3
ATOM      3  C   UNL     1       8.959  30.795  14.675  1.00  0.00     0.053 C 
ATOM      4  C   UNL     1       7.792  30.864  13.677  1.00  0.00     0.016 C 
BRANCH   3   5
ATOM      5  C   UNL     1       8.451  31.080  16.117  1.00  0.00     0.015 C 
BRANCH   5   6
ATOM      6  C   UNL     1       7.940  29.864  16.919  1.00  0.00     0.028 C 
BRANCH   6   7
ATOM      7  C   UNL     1       6.566  29.312  16.601  1.00  0.00    -0.028 C 
ATOM      8  C   UNL     1       6.240  28.028  16.314  1.00  0.00    -0.070 CG0
ATOM      9  C   UNL     1       4.842  27.767  15.805  1.00  0.00     0.039 C 
ATOM     10  G   UNL     1       7.155  26.832  16.537  1.00  0.00     0.000 G0
ENDBRANCH   6   7
ENDBRANCH   5   6
ENDBRANCH   3   5
ENDBRANCH   1   3
BRANCH   1  11
ATOM     11  C   UNL     1       9.104  28.236  13.942  1.00  0.00     0.087 C 
BRANCH  11  12
ATOM     12  C   UNL     1       9.194  26.951  14.799  1.00  0.00     0.066 C 
BRANCH  12  13
ATOM     13  C   UNL     1       7.854  26.383  15.264  1.00  0.00     0.140 C 
ATOM     14  O   UNL     1       7.292  25.597  14.515  1.00  0.00    -0.299 OA
BRANCH  13  15
ATOM     15  C   UNL     1       7.138  26.800  16.543  1.00  0.00     0.106 CG0
ATOM     16  G   UNL     1       6.260  28.021  16.307  1.00  0.00     0.000 G0
ENDBRANCH  13  15
ENDBRANCH  12  13
BRANCH  12  17
ATOM     17  C   UNL     1      10.096  25.869  14.126  1.00  0.00    -0.006 C 
ATOM     18  C   UNL     1      10.890  26.444  12.943  1.00  0.00     0.008 C 
ATOM     19  C   UNL     1      11.050  25.160  15.102  1.00  0.00     0.008 C 
ENDBRANCH  12  17
ENDBRANCH  11  12
ENDBRANCH   1  11
TORSDOF 1
ENDMDL
MODEL 3
REMARK VINA RESULT:    -2.863      2.565      4.841
REMARK INTER + INTRA:          -4.730
REMARK INTER:                  -4.327
REMARK INTRA:                  -0.402
REMARK UNBOUND:                -0.360
REMARK SMILES CC1=CCC[C@H](C)C(=O)C[C@H](C(C)C)C(=O)C1
REMARK SMILES IDX 8 1 9 2 6 3 7 4 5 5 4 6 3 7 2 8 1 9 10 11 11 12 15 13 16 14
REMARK SMILES IDX 17 15 12 17 13 18 14 19
REMARK H PARENT
REMARK Flexibility Score: 70.00
ROOT
ATOM      1  C   UNL     1      11.049  24.610  14.189  1.00  0.00     0.136 C 
ATOM      2  O   UNL     1      10.946  23.472  13.750  1.00  0.00    -0.299 OA
ENDROOT
BRANCH   1   3
ATOM      3  C   UNL     1      11.806  24.852  15.491  1.00  0.00     0.053 C 
ATOM      4  C   UNL     1      11.944  23.576  16.335  1.00  0.00     0.016 C 
BRANCH   3   5
ATOM      5  C   UNL     1      13.207  25.469  15.216  1.00  0.00     0.015 C 
BRANCH   5   6
ATOM      6  C   UNL     1      13.413  26.933  15.658  1.00  0.00     0.028 C 
BRANCH   6   7
ATOM      7  C   UNL     1      13.559  27.998  14.591  1.00  0.00    -0.028 C 
ATOM      8  C   UNL     1      12.595  28.823  14.112  1.00  0.00    -0.070 CG0
ATOM      9  C   UNL     1      12.931  29.641  12.888  1.00  0.00     0.039 C 
ATOM     10  G   UNL     1      11.234  29.032  14.762  1.00  0.00     0.000 G0
ENDBRANCH   6   7
ENDBRANCH   5   6
ENDBRANCH   3   5
ENDBRANCH   1   3
BRANCH   1  11
ATOM     11  C   UNL     1      10.380  25.739  13.420  1.00  0.00     0.087 C 
BRANCH  11  12
ATOM     12  C   UNL     1       9.725  26.810  14.325  1.00  0.00     0.066 C 
BRANCH  12  13
ATOM     13  C   UNL     1      10.127  28.252  14.023  1.00  0.00     0.140 C 
ATOM     14  O   UNL     1       9.575  28.798  13.078  1.00  0.00    -0.299 OA
BRANCH  13  15
ATOM     15  C   UNL     1      11.225  29.013  14.756  1.00  0.00     0.106 CG0
ATOM     16  G   UNL     1      12.579  28.792  14.098  1.00  0.00     0.000 G0
ENDBRANCH  13  15
ENDBRANCH  12  13
BRANCH  12  17
ATOM     17  C   UNL     1       8.176  26.630  14.404  1.00  0.00    -0.006 C 
ATOM     18  C   UNL     1       7.676  25.553  13.429  1.00  0.00     0.008 C 
ATOM     19  C   UNL     1       7.656  26.335  15.821  1.00  0.00     0.008 C 
ENDBRANCH  12  17
ENDBRANCH  11  12
ENDBRANCH   1  11
TORSDOF 1
ENDMDL
MODEL 4
REMARK VINA RESULT:    -2.805      4.749      7.027
REMARK INTER + INTRA:          -4.641
REMARK INTER:                  -4.592
REMARK INTRA:                  -0.050
REMARK UNBOUND:                -0.360
REMARK SMILES CC1=CCC[C@H](C)C(=O)C[C@H](C(C)C)C(=O)C1
REMARK SMILES IDX 8 1 9 2 6 3 7 4 5 5 4 6 3 7 2 8 1 9 10 11 11 12 15 13 16 14
REMARK SMILES IDX 17 15 12 17 13 18 14 19
REMARK H PARENT
REMARK Flexibility Score: 70.00
ROOT
ATOM      1  C   UNL     1       8.535  30.139  15.764  1.00  0.00     0.136 C 
ATOM      2  O   UNL     1       9.279  31.103  15.887  1.00  0.00    -0.299 OA
ENDROOT
BRANCH   1   3
ATOM      3  C   UNL     1       7.518  29.824  16.855  1.00  0.00     0.053 C 
ATOM      4  C   UNL     1       7.265  31.023  17.784  1.00  0.00     0.016 C 
BRANCH   3   5
ATOM      5  C   UNL     1       6.178  29.327  16.243  1.00  0.00     0.015 C 
BRANCH   5   6
ATOM      6  C   UNL     1       5.732  27.901  16.630  1.00  0.00     0.028 C 
BRANCH   6   7
ATOM      7  C   UNL     1       5.454  26.904  15.525  1.00  0.00    -0.028 C 
ATOM      8  C   UNL     1       6.354  26.139  14.858  1.00  0.00    -0.070 CG0
ATOM      9  C   UNL     1       5.861  25.393  13.642  1.00  0.00     0.039 C 
ATOM     10  G   UNL     1       7.797  25.926  15.292  1.00  0.00     0.000 G0
ENDBRANCH   6   7
ENDBRANCH   5   6
ENDBRANCH   3   5
ENDBRANCH   1   3
BRANCH   1  11
ATOM     11  C   UNL     1       8.687  29.269  14.525  1.00  0.00     0.087 C 
BRANCH  11  12
ATOM     12  C   UNL     1       9.495  27.972  14.765  1.00  0.00     0.066 C 
BRANCH  12  13
ATOM     13  C   UNL     1       8.780  26.679  14.381  1.00  0.00     0.140 C 
ATOM     14  O   UNL     1       8.951  26.263  13.243  1.00  0.00    -0.299 OA
BRANCH  13  15
ATOM     15  C   UNL     1       7.805  25.931  15.283  1.00  0.00     0.106 CG0
ATOM     16  G   UNL     1       6.365  26.160  14.844  1.00  0.00     0.000 G0
ENDBRANCH  13  15
ENDBRANCH  12  13
BRANCH  12  17
ATOM     17  C   UNL     1      10.928  28.062  14.151  1.00  0.00    -0.006 C 
ATOM     18  C   UNL     1      11.251  29.483  13.664  1.00  0.00     0.008 C 
ATOM     19  C   UNL     1      12.040  27.566  15.092  1.00  0.00     0.008 C 
ENDBRANCH  12  17
ENDBRANCH  11  12
ENDBRANCH   1  11
TORSDOF 1
ENDMDL
MODEL 5
REMARK VINA RESULT:    -2.790      7.273     10.043
REMARK INTER + INTRA:          -4.618
REMARK INTER:                  -4.296
REMARK INTRA:                  -0.322
REMARK UNBOUND:                -0.360
REMARK SMILES CC1=CCC[C@H](C)C(=O)C[C@H](C(C)C)C(=O)C1
REMARK SMILES IDX 8 1 9 2 6 3 7 4 5 5 4 6 3 7 2 8 1 9 10 11 11 12 15 13 16 14
REMARK SMILES IDX 17 15 12 17 13 18 14 19
REMARK H PARENT
REMARK Flexibility Score: 70.00
ROOT
ATOM      1  C   UNL     1       6.250  28.898  16.694  1.00  0.00     0.136 C 
ATOM      2  O   UNL     1       6.804  27.934  17.206  1.00  0.00    -0.299 OA
ENDROOT
BRANCH   1   3
ATOM      3  C   UNL     1       7.077  29.931  15.935  1.00  0.00     0.053 C 
ATOM      4  C   UNL     1       8.002  30.736  16.861  1.00  0.00     0.016 C 
BRANCH   3   5
ATOM      5  C   UNL     1       7.903  29.261  14.801  1.00  0.00     0.015 C 
BRANCH   5   6
ATOM      6  C   UNL     1       7.103  28.482  13.735  1.00  0.00     0.028 C 
BRANCH   6   7
ATOM      7  C   UNL     1       7.126  26.969  13.775  1.00  0.00    -0.028 C 
ATOM      8  C   UNL     1       6.079  26.133  13.992  1.00  0.00    -0.070 CG0
ATOM      9  C   UNL     1       6.395  24.673  14.215  1.00  0.00     0.039 C 
ATOM     10  G   UNL     1       4.616  26.552  13.954  1.00  0.00     0.000 G0
ENDBRANCH   6   7
ENDBRANCH   5   6
ENDBRANCH   3   5
ENDBRANCH   1   3
BRANCH   1  11
ATOM     11  C   UNL     1       4.745  29.038  16.870  1.00  0.00     0.087 C 
BRANCH  11  12
ATOM     12  C   UNL     1       3.924  28.537  15.658  1.00  0.00     0.066 C 
BRANCH  12  13
ATOM     13  C   UNL     1       4.112  27.063  15.307  1.00  0.00     0.140 C 
ATOM     14  O   UNL     1       3.934  26.250  16.203  1.00  0.00    -0.299 OA
BRANCH  13  15
ATOM     15  C   UNL     1       4.594  26.552  13.954  1.00  0.00     0.106 CG0
ATOM     16  G   UNL     1       6.059  26.143  14.012  1.00  0.00     0.000 G0
ENDBRANCH  13  15
ENDBRANCH  12  13
BRANCH  12  17
ATOM     17  C   UNL     1       2.417  28.930  15.779  1.00  0.00    -0.006 C 
ATOM     18  C   UNL     1       2.220  30.453  15.723  1.00  0.00     0.008 C 
ATOM     19  C   UNL     1       1.511  28.246  14.741  1.00  0.00     0.008 C 
ENDBRANCH  12  17
ENDBRANCH  11  12
ENDBRANCH   1  11
TORSDOF 1
ENDMDL
MODEL 6
REMARK VINA RESULT:    -2.647      5.820      8.232
REMARK INTER + INTRA:          -4.400
REMARK INTER:                  -4.501
REMARK INTRA:                   0.101
REMARK UNBOUND:                -0.360
REMARK SMILES CC1=CCC[C@H](C)C(=O)C[C@H](C(C)C)C(=O)C1
REMARK SMILES IDX 8 1 9 2 6 3 7 4 5 5 4 6 3 7 2 8 1 9 10 11 11 12 15 13 16 14
REMARK SMILES IDX 17 15 12 17 13 18 14 19
REMARK H PARENT
REMARK Flexibility Score: 70.00
ROOT
ATOM      1  C   UNL     1       9.105  28.491  14.819  1.00  0.00     0.136 C 
ATOM      2  O   UNL     1      10.172  27.900  14.721  1.00  0.00    -0.299 OA
ENDROOT
BRANCH   1   3
ATOM      3  C   UNL     1       8.960  29.625  15.829  1.00  0.00     0.053 C 
ATOM      4  C   UNL     1       9.796  30.858  15.451  1.00  0.00     0.016 C 
BRANCH   3   5
ATOM      5  C   UNL     1       7.468  30.023  16.011  1.00  0.00     0.015 C 
BRANCH   5   6
ATOM      6  C   UNL     1       6.742  29.434  17.239  1.00  0.00     0.028 C 
BRANCH   6   7
ATOM      7  C   UNL     1       5.237  29.275  17.184  1.00  0.00    -0.028 C 
ATOM      8  C   UNL     1       4.536  28.260  16.620  1.00  0.00    -0.070 CG0
ATOM      9  C   UNL     1       3.042  28.441  16.491  1.00  0.00     0.039 C 
ATOM     10  G   UNL     1       5.137  26.933  16.179  1.00  0.00     0.000 G0
ENDBRANCH   6   7
ENDBRANCH   5   6
ENDBRANCH   3   5
ENDBRANCH   1   3
BRANCH   1  11
ATOM     11  C   UNL     1       7.950  28.038  13.940  1.00  0.00     0.087 C 
BRANCH  11  12
ATOM     12  C   UNL     1       7.201  26.796  14.479  1.00  0.00     0.066 C 
BRANCH  12  13
ATOM     13  C   UNL     1       5.721  27.010  14.788  1.00  0.00     0.140 C 
ATOM     14  O   UNL     1       5.001  27.344  13.858  1.00  0.00    -0.299 OA
BRANCH  13  15
ATOM     15  C   UNL     1       5.109  26.926  16.182  1.00  0.00     0.106 CG0
ATOM     16  G   UNL     1       4.523  28.266  16.605  1.00  0.00     0.000 G0
ENDBRANCH  13  15
ENDBRANCH  12  13
BRANCH  12  17
ATOM     17  C   UNL     1       7.445  25.540  13.583  1.00  0.00    -0.006 C 
ATOM     18  C   UNL     1       8.918  25.104  13.601  1.00  0.00     0.008 C 
ATOM     19  C   UNL     1       6.541  24.345  13.929  1.00  0.00     0.008 C 
ENDBRANCH  12  17
ENDBRANCH  11  12
ENDBRANCH   1  11
TORSDOF 1
ENDMDL
MODEL 7
REMARK VINA RESULT:    -2.507      2.023      4.482
REMARK INTER + INTRA:          -4.186
REMARK INTER:                  -4.269
REMARK INTRA:                   0.083
REMARK UNBOUND:                -0.360
REMARK SMILES CC1=CCC[C@H](C)C(=O)C[C@H](C(C)C)C(=O)C1
REMARK SMILES IDX 8 1 9 2 6 3 7 4 5 5 4 6 3 7 2 8 1 9 10 11 11 12 15 13 16 14
REMARK SMILES IDX 17 15 12 17 13 18 14 19
REMARK H PARENT
REMARK Flexibility Score: 70.00
ROOT
ATOM      1  C   UNL     1      12.514  25.056  15.580  1.00  0.00     0.136 C 
ATOM      2  O   UNL     1      11.783  24.560  16.427  1.00  0.00    -0.299 OA
ENDROOT
BRANCH   1   3
ATOM      3  C   UNL     1      14.020  25.109  15.818  1.00  0.00     0.053 C 
ATOM      4  C   UNL     1      14.818  24.468  14.671  1.00  0.00     0.016 C 
BRANCH   3   5
ATOM      5  C   UNL     1      14.497  26.569  16.054  1.00  0.00     0.015 C 
BRANCH   5   6
ATOM      6  C   UNL     1      15.607  27.092  15.117  1.00  0.00     0.028 C 
BRANCH   6   7
ATOM      7  C   UNL     1      15.435  28.456  14.482  1.00  0.00    -0.028 C 
ATOM      8  C   UNL     1      14.565  28.807  13.503  1.00  0.00    -0.070 CG0
ATOM      9  C   UNL     1      14.742  30.169  12.877  1.00  0.00     0.039 C 
ATOM     10  G   UNL     1      13.387  27.957  13.047  1.00  0.00     0.000 G0
ENDBRANCH   6   7
ENDBRANCH   5   6
ENDBRANCH   3   5
ENDBRANCH   1   3
BRANCH   1  11
ATOM     11  C   UNL     1      11.874  25.633  14.326  1.00  0.00     0.087 C 
BRANCH  11  12
ATOM     12  C   UNL     1      11.308  27.061  14.513  1.00  0.00     0.066 C 
BRANCH  12  13
ATOM     13  C   UNL     1      12.153  28.180  13.908  1.00  0.00     0.140 C 
ATOM     14  O   UNL     1      11.760  29.326  14.072  1.00  0.00    -0.299 OA
BRANCH  13  15
ATOM     15  C   UNL     1      13.390  27.957  13.044  1.00  0.00     0.106 CG0
ATOM     16  G   UNL     1      14.551  28.820  13.516  1.00  0.00     0.000 G0
ENDBRANCH  13  15
ENDBRANCH  12  13
BRANCH  12  17
ATOM     17  C   UNL     1       9.810  27.150  14.082  1.00  0.00    -0.006 C 
ATOM     18  C   UNL     1       9.269  25.789  13.616  1.00  0.00     0.008 C 
ATOM     19  C   UNL     1       8.887  27.738  15.163  1.00  0.00     0.008 C 
ENDBRANCH  12  17
ENDBRANCH  11  12
ENDBRANCH   1  11
TORSDOF 1
ENDMDL
MODEL 8
REMARK VINA RESULT:    -2.483      7.298      9.047
REMARK INTER + INTRA:          -4.149
REMARK INTER:                  -4.019
REMARK INTRA:                  -0.131
REMARK UNBOUND:                -0.360
REMARK SMILES CC1=CCC[C@H](C)C(=O)C[C@H](C(C)C)C(=O)C1
REMARK SMILES IDX 8 1 9 2 6 3 7 4 5 5 4 6 3 7 2 8 1 9 10 11 11 12 15 13 16 14
REMARK SMILES IDX 17 15 12 17 13 18 14 19
REMARK H PARENT
REMARK Flexibility Score: 70.00
ROOT
ATOM      1  C   UNL     1       6.790  25.934  15.125  1.00  0.00     0.136 C 
ATOM      2  O   UNL     1       7.862  25.618  14.626  1.00  0.00    -0.299 OA
ENDROOT
BRANCH   1   3
ATOM      3  C   UNL     1       5.507  25.259  14.649  1.00  0.00     0.053 C 
ATOM      4  C   UNL     1       4.585  24.868  15.815  1.00  0.00     0.016 C 
BRANCH   3   5
ATOM      5  C   UNL     1       4.744  26.160  13.638  1.00  0.00     0.015 C 
BRANCH   5   6
ATOM      6  C   UNL     1       3.309  26.572  14.030  1.00  0.00     0.028 C 
BRANCH   6   7
ATOM      7  C   UNL     1       2.974  28.047  14.102  1.00  0.00    -0.028 C 
ATOM      8  C   UNL     1       2.954  28.835  15.206  1.00  0.00    -0.070 CG0
ATOM      9  C   UNL     1       2.366  30.218  15.057  1.00  0.00     0.039 C 
ATOM     10  G   UNL     1       3.545  28.451  16.555  1.00  0.00     0.000 G0
ENDBRANCH   6   7
ENDBRANCH   5   6
ENDBRANCH   3   5
ENDBRANCH   1   3
BRANCH   1  11
ATOM     11  C   UNL     1       6.785  27.022  16.187  1.00  0.00     0.087 C 
BRANCH  11  12
ATOM     12  C   UNL     1       6.101  28.335  15.736  1.00  0.00     0.066 C 
BRANCH  12  13
ATOM     13  C   UNL     1       5.007  28.852  16.667  1.00  0.00     0.140 C 
ATOM     14  O   UNL     1       5.356  29.572  17.592  1.00  0.00    -0.299 OA
BRANCH  13  15
ATOM     15  C   UNL     1       3.537  28.459  16.573  1.00  0.00     0.106 CG0
ATOM     16  G   UNL     1       2.956  28.828  15.215  1.00  0.00     0.000 G0
ENDBRANCH  13  15
ENDBRANCH  12  13
BRANCH  12  17
ATOM     17  C   UNL     1       7.147  29.438  15.379  1.00  0.00    -0.006 C 
ATOM     18  C   UNL     1       8.346  29.419  16.339  1.00  0.00     0.008 C 
ATOM     19  C   UNL     1       7.641  29.378  13.923  1.00  0.00     0.008 C 
ENDBRANCH  12  17
ENDBRANCH  11  12
ENDBRANCH   1  11
TORSDOF 1
ENDMDL
MODEL 9
REMARK VINA RESULT:    -2.355      4.072      6.269
REMARK INTER + INTRA:          -3.954
REMARK INTER:                  -4.117
REMARK INTRA:                   0.163
REMARK UNBOUND:                -0.360
REMARK SMILES CC1=CCC[C@H](C)C(=O)C[C@H](C(C)C)C(=O)C1
REMARK SMILES IDX 8 1 9 2 6 3 7 4 5 5 4 6 3 7 2 8 1 9 10 11 11 12 15 13 16 14
REMARK SMILES IDX 17 15 12 17 13 18 14 19
REMARK H PARENT
REMARK Flexibility Score: 70.00
ROOT
ATOM      1  C   UNL     1       9.305  29.884  15.257  1.00  0.00     0.136 C 
ATOM      2  O   UNL     1       9.867  30.833  15.786  1.00  0.00    -0.299 OA
ENDROOT
BRANCH   1   3
ATOM      3  C   UNL     1       7.870  29.541  15.645  1.00  0.00     0.053 C 
ATOM      4  C   UNL     1       7.469  30.148  16.999  1.00  0.00     0.016 C 
BRANCH   3   5
ATOM      5  C   UNL     1       6.871  29.985  14.540  1.00  0.00     0.015 C 
BRANCH   5   6
ATOM      6  C   UNL     1       6.354  28.880  13.595  1.00  0.00     0.028 C 
BRANCH   6   7
ATOM      7  C   UNL     1       6.239  27.467  14.128  1.00  0.00    -0.028 C 
ATOM      8  C   UNL     1       7.095  26.435  13.920  1.00  0.00    -0.070 CG0
ATOM      9  C   UNL     1       6.646  25.064  14.366  1.00  0.00     0.039 C 
ATOM     10  G   UNL     1       8.495  26.576  13.340  1.00  0.00     0.000 G0
ENDBRANCH   6   7
ENDBRANCH   5   6
ENDBRANCH   3   5
ENDBRANCH   1   3
BRANCH   1  11
ATOM     11  C   UNL     1      10.087  29.059  14.245  1.00  0.00     0.087 C 
BRANCH  11  12
ATOM     12  C   UNL     1      10.516  27.667  14.768  1.00  0.00     0.066 C 
BRANCH  12  13
ATOM     13  C   UNL     1       9.560  26.524  14.436  1.00  0.00     0.140 C 
ATOM     14  O   UNL     1       9.710  25.475  15.047  1.00  0.00    -0.299 OA
BRANCH  13  15
ATOM     15  C   UNL     1       8.502  26.575  13.339  1.00  0.00     0.106 CG0
ATOM     16  G   UNL     1       7.102  26.441  13.921  1.00  0.00     0.000 G0
ENDBRANCH  13  15
ENDBRANCH  12  13
BRANCH  12  17
ATOM     17  C   UNL     1      11.993  27.336  14.387  1.00  0.00    -0.006 C 
ATOM     18  C   UNL     1      12.071  26.400  13.170  1.00  0.00     0.008 C 
ATOM     19  C   UNL     1      12.867  28.579  14.148  1.00  0.00     0.008 C 
ENDBRANCH  12  17
ENDBRANCH  11  12
ENDBRANCH   1  11
TORSDOF 1
ENDMDL
