MODEL 1
REMARK VINA RESULT:    -3.848      0.000      0.000
REMARK INTER + INTRA:         -15.418
REMARK INTER:                 -10.146
REMARK INTRA:                  -5.272
REMARK UNBOUND:                -5.272
REMARK SMILES CCCCCCCCCCCCCCCCCCCCCCCCCCCCCC(=O)[O-]
REMARK SMILES IDX 16 1 17 2 18 3 19 4 20 5 21 6 22 7 23 8 24 9 25 10 26 11
REMARK SMILES IDX 27 12 28 13 29 14 30 15 31 16 32 17 15 18 14 19 13 20 12 21
REMARK SMILES IDX 11 22 10 23 9 24 8 25 7 26 6 27 5 28 4 29 3 30 2 31 1 32
REMARK H PARENT
REMARK Flexibility Score: inf
ROOT
ATOM      1  C   UNL     1       5.615  17.319  -6.216  1.00  0.00     0.000 C 
ENDROOT
BRANCH   1   2
ATOM      2  C   UNL     1       6.544  17.671  -7.395  1.00  0.00     0.000 C 
BRANCH   2   3
ATOM      3  C   UNL     1       7.742  16.711  -7.564  1.00  0.00     0.000 C 
BRANCH   3   4
ATOM      4  C   UNL     1       7.910  16.223  -9.014  1.00  0.00     0.000 C 
BRANCH   4   5
ATOM      5  C   UNL     1       8.223  14.721  -9.102  1.00  0.00     0.000 C 
BRANCH   5   6
ATOM      6  C   UNL     1       7.665  13.926  -7.909  1.00  0.00     0.000 C 
BRANCH   6   7
ATOM      7  C   UNL     1       7.559  12.416  -8.191  1.00  0.00     0.000 C 
BRANCH   7   8
ATOM      8  C   UNL     1       8.326  11.513  -7.208  1.00  0.00     0.000 C 
BRANCH   8   9
ATOM      9  C   UNL     1       9.833  11.821  -7.159  1.00  0.00     0.000 C 
BRANCH   9  10
ATOM     10  C   UNL     1      10.694  10.546  -7.136  1.00  0.00     0.000 C 
BRANCH  10  11
ATOM     11  C   UNL     1      12.168  10.832  -6.815  1.00  0.00     0.000 C 
BRANCH  11  12
ATOM     12  C   UNL     1      12.308  12.085  -5.941  1.00  0.00     0.000 C 
BRANCH  12  13
ATOM     13  C   UNL     1      13.604  12.843  -6.268  1.00  0.00     0.006 C 
BRANCH  13  14
ATOM     14  C   UNL     1      14.754  12.466  -5.324  1.00  0.00     0.053 C 
BRANCH  14  15
ATOM     15  C   UNL     1      16.068  13.002  -5.802  1.00  0.00     0.041 C 
ATOM     16  O   UNL     1      16.797  13.678  -5.029  1.00  0.00    -0.550 OA
ATOM     17  O   UNL     1      16.476  12.777  -7.112  1.00  0.00    -0.550 OA
ENDBRANCH  14  15
ENDBRANCH  13  14
ENDBRANCH  12  13
ENDBRANCH  11  12
ENDBRANCH  10  11
ENDBRANCH   9  10
ENDBRANCH   8   9
ENDBRANCH   7   8
ENDBRANCH   6   7
ENDBRANCH   5   6
ENDBRANCH   4   5
ENDBRANCH   3   4
ENDBRANCH   2   3
ENDBRANCH   1   2
BRANCH   1  18
ATOM     18  C   UNL     1       4.242  16.747  -6.605  1.00  0.00     0.000 C 
BRANCH  18  19
ATOM     19  C   UNL     1       4.302  15.257  -6.986  1.00  0.00     0.000 C 
BRANCH  19  20
ATOM     20  C   UNL     1       4.469  15.036  -8.501  1.00  0.00     0.000 C 
BRANCH  20  21
ATOM     21  C   UNL     1       4.007  13.658  -9.011  1.00  0.00     0.000 C 
BRANCH  21  22
ATOM     22  C   UNL     1       4.634  13.280 -10.362  1.00  0.00     0.000 C 
BRANCH  22  23
ATOM     23  C   UNL     1       5.023  14.529 -11.161  1.00  0.00     0.000 C 
BRANCH  23  24
ATOM     24  C   UNL     1       6.222  14.242 -12.078  1.00  0.00    -0.000 C 
BRANCH  24  25
ATOM     25  C   UNL     1       6.757  12.809 -11.924  1.00  0.00    -0.000 C 
BRANCH  25  26
ATOM     26  C   UNL     1       8.259  12.705 -12.229  1.00  0.00    -0.000 C 
BRANCH  26  27
ATOM     27  C   UNL     1       8.790  11.304 -11.901  1.00  0.00    -0.000 C 
BRANCH  27  28
ATOM     28  C   UNL     1       9.878  11.366 -10.822  1.00  0.00    -0.000 C 
BRANCH  28  29
ATOM     29  C   UNL     1      10.610  12.717 -10.857  1.00  0.00    -0.000 C 
BRANCH  29  30
ATOM     30  C   UNL     1      11.904  12.718 -10.024  1.00  0.00    -0.000 C 
BRANCH  30  31
ATOM     31  C   UNL     1      13.062  11.901 -10.624  1.00  0.00    -0.003 C 
ATOM     32  C   UNL     1      14.289  11.842  -9.715  1.00  0.00     0.004 C 
ENDBRANCH  30  31
ENDBRANCH  29  30
ENDBRANCH  28  29
ENDBRANCH  27  28
ENDBRANCH  26  27
ENDBRANCH  25  26
ENDBRANCH  24  25
ENDBRANCH  23  24
ENDBRANCH  22  23
ENDBRANCH  21  22
ENDBRANCH  20  21
ENDBRANCH  19  20
ENDBRANCH  18  19
ENDBRANCH   1  18
TORSDOF 28
ENDMDL
MODEL 2
REMARK VINA RESULT:    -3.698      1.864      6.924
REMARK INTER + INTRA:         -15.024
REMARK INTER:                 -10.792
REMARK INTRA:                  -4.232
REMARK UNBOUND:                -5.272
REMARK SMILES CCCCCCCCCCCCCCCCCCCCCCCCCCCCCC(=O)[O-]
REMARK SMILES IDX 16 1 17 2 18 3 19 4 20 5 21 6 22 7 23 8 24 9 25 10 26 11
REMARK SMILES IDX 27 12 28 13 29 14 30 15 31 16 32 17 15 18 14 19 13 20 12 21
REMARK SMILES IDX 11 22 10 23 9 24 8 25 7 26 6 27 5 28 4 29 3 30 2 31 1 32
REMARK H PARENT
REMARK Flexibility Score: inf
ROOT
ATOM      1  C   UNL     1      15.028  11.069  -9.299  1.00  0.00     0.000 C 
ENDROOT
BRANCH   1   2
ATOM      2  C   UNL     1      14.323  12.250  -8.603  1.00  0.00     0.000 C 
BRANCH   2   3
ATOM      3  C   UNL     1      13.899  11.962  -7.146  1.00  0.00     0.000 C 
BRANCH   3   4
ATOM      4  C   UNL     1      13.297  10.555  -6.971  1.00  0.00     0.000 C 
BRANCH   4   5
ATOM      5  C   UNL     1      11.775  10.531  -7.181  1.00  0.00     0.000 C 
BRANCH   5   6
ATOM      6  C   UNL     1      11.046  11.616  -6.369  1.00  0.00     0.000 C 
BRANCH   6   7
ATOM      7  C   UNL     1      10.216  11.040  -5.207  1.00  0.00     0.000 C 
BRANCH   7   8
ATOM      8  C   UNL     1      10.653  11.499  -3.804  1.00  0.00     0.000 C 
BRANCH   8   9
ATOM      9  C   UNL     1      12.055  12.132  -3.787  1.00  0.00     0.000 C 
BRANCH   9  10
ATOM     10  C   UNL     1      13.134  11.160  -3.282  1.00  0.00     0.000 C 
BRANCH  10  11
ATOM     11  C   UNL     1      14.549  11.753  -3.359  1.00  0.00     0.000 C 
BRANCH  11  12
ATOM     12  C   UNL     1      14.607  13.129  -2.681  1.00  0.00     0.000 C 
BRANCH  12  13
ATOM     13  C   UNL     1      15.529  14.085  -3.453  1.00  0.00     0.006 C 
BRANCH  13  14
ATOM     14  C   UNL     1      16.242  13.390  -4.622  1.00  0.00     0.053 C 
BRANCH  14  15
ATOM     15  C   UNL     1      17.732  13.475  -4.498  1.00  0.00     0.041 C 
ATOM     16  O   UNL     1      18.428  13.863  -5.473  1.00  0.00    -0.550 OA
ATOM     17  O   UNL     1      18.354  13.100  -3.312  1.00  0.00    -0.550 OA
ENDBRANCH  14  15
ENDBRANCH  13  14
ENDBRANCH  12  13
ENDBRANCH  11  12
ENDBRANCH  10  11
ENDBRANCH   9  10
ENDBRANCH   8   9
ENDBRANCH   7   8
ENDBRANCH   6   7
ENDBRANCH   5   6
ENDBRANCH   4   5
ENDBRANCH   3   4
ENDBRANCH   2   3
ENDBRANCH   1   2
BRANCH   1  18
ATOM     18  C   UNL     1      14.448  10.665 -10.665  1.00  0.00     0.000 C 
BRANCH  18  19
ATOM     19  C   UNL     1      13.227   9.736 -10.542  1.00  0.00     0.000 C 
BRANCH  19  20
ATOM     20  C   UNL     1      12.005  10.250 -11.326  1.00  0.00     0.000 C 
BRANCH  20  21
ATOM     21  C   UNL     1      11.128  11.265 -10.569  1.00  0.00     0.000 C 
BRANCH  21  22
ATOM     22  C   UNL     1      11.478  12.724 -10.903  1.00  0.00     0.000 C 
BRANCH  22  23
ATOM     23  C   UNL     1      10.699  13.698 -10.011  1.00  0.00     0.000 C 
BRANCH  23  24
ATOM     24  C   UNL     1       9.458  13.018  -9.411  1.00  0.00    -0.000 C 
BRANCH  24  25
ATOM     25  C   UNL     1       8.150  13.732  -9.787  1.00  0.00    -0.000 C 
BRANCH  25  26
ATOM     26  C   UNL     1       8.280  15.262  -9.742  1.00  0.00    -0.000 C 
BRANCH  26  27
ATOM     27  C   UNL     1       7.596  15.835  -8.494  1.00  0.00    -0.000 C 
BRANCH  27  28
ATOM     28  C   UNL     1       6.621  14.819  -7.887  1.00  0.00    -0.000 C 
BRANCH  28  29
ATOM     29  C   UNL     1       5.168  15.295  -8.035  1.00  0.00    -0.000 C 
BRANCH  29  30
ATOM     30  C   UNL     1       4.996  16.798  -7.746  1.00  0.00    -0.000 C 
BRANCH  30  31
ATOM     31  C   UNL     1       4.494  17.131  -6.330  1.00  0.00    -0.003 C 
ATOM     32  C   UNL     1       5.534  17.865  -5.483  1.00  0.00     0.004 C 
ENDBRANCH  30  31
ENDBRANCH  29  30
ENDBRANCH  28  29
ENDBRANCH  27  28
ENDBRANCH  26  27
ENDBRANCH  25  26
ENDBRANCH  24  25
ENDBRANCH  23  24
ENDBRANCH  22  23
ENDBRANCH  21  22
ENDBRANCH  20  21
ENDBRANCH  19  20
ENDBRANCH  18  19
ENDBRANCH   1  18
TORSDOF 28
ENDMDL
MODEL 3
REMARK VINA RESULT:    -3.668      1.159      2.384
REMARK INTER + INTRA:         -14.945
REMARK INTER:                  -9.346
REMARK INTRA:                  -5.598
REMARK UNBOUND:                -5.272
REMARK SMILES CCCCCCCCCCCCCCCCCCCCCCCCCCCCCC(=O)[O-]
REMARK SMILES IDX 16 1 17 2 18 3 19 4 20 5 21 6 22 7 23 8 24 9 25 10 26 11
REMARK SMILES IDX 27 12 28 13 29 14 30 15 31 16 32 17 15 18 14 19 13 20 12 21
REMARK SMILES IDX 11 22 10 23 9 24 8 25 7 26 6 27 5 28 4 29 3 30 2 31 1 32
REMARK H PARENT
REMARK Flexibility Score: inf
ROOT
ATOM      1  C   UNL     1       7.165  17.486  -7.747  1.00  0.00     0.000 C 
ENDROOT
BRANCH   1   2
ATOM      2  C   UNL     1       7.986  16.240  -8.139  1.00  0.00     0.000 C 
BRANCH   2   3
ATOM      3  C   UNL     1       8.209  16.084  -9.660  1.00  0.00     0.000 C 
BRANCH   3   4
ATOM      4  C   UNL     1       8.320  14.611 -10.094  1.00  0.00     0.000 C 
BRANCH   4   5
ATOM      5  C   UNL     1       8.752  13.686  -8.945  1.00  0.00     0.000 C 
BRANCH   5   6
ATOM      6  C   UNL     1       7.634  12.724  -8.505  1.00  0.00     0.000 C 
BRANCH   6   7
ATOM      7  C   UNL     1       8.002  11.911  -7.250  1.00  0.00     0.000 C 
BRANCH   7   8
ATOM      8  C   UNL     1       8.292  10.420  -7.500  1.00  0.00     0.000 C 
BRANCH   8   9
ATOM      9  C   UNL     1       9.749  10.031  -7.196  1.00  0.00     0.000 C 
BRANCH   9  10
ATOM     10  C   UNL     1      10.665  11.256  -7.036  1.00  0.00     0.000 C 
BRANCH  10  11
ATOM     11  C   UNL     1      12.106  10.984  -7.494  1.00  0.00     0.000 C 
BRANCH  11  12
ATOM     12  C   UNL     1      12.685  12.196  -8.235  1.00  0.00     0.000 C 
BRANCH  12  13
ATOM     13  C   UNL     1      14.199  12.314  -7.999  1.00  0.00     0.006 C 
BRANCH  13  14
ATOM     14  C   UNL     1      14.618  11.773  -6.625  1.00  0.00     0.053 C 
BRANCH  14  15
ATOM     15  C   UNL     1      14.849  12.876  -5.638  1.00  0.00     0.041 C 
ATOM     16  O   UNL     1      13.883  13.358  -4.988  1.00  0.00    -0.550 OA
ATOM     17  O   UNL     1      16.128  13.390  -5.455  1.00  0.00    -0.550 OA
ENDBRANCH  14  15
ENDBRANCH  13  14
ENDBRANCH  12  13
ENDBRANCH  11  12
ENDBRANCH  10  11
ENDBRANCH   9  10
ENDBRANCH   8   9
ENDBRANCH   7   8
ENDBRANCH   6   7
ENDBRANCH   5   6
ENDBRANCH   4   5
ENDBRANCH   3   4
ENDBRANCH   2   3
ENDBRANCH   1   2
BRANCH   1  18
ATOM     18  C   UNL     1       6.547  17.454  -6.340  1.00  0.00     0.000 C 
BRANCH  18  19
ATOM     19  C   UNL     1       5.031  17.716  -6.348  1.00  0.00     0.000 C 
BRANCH  19  20
ATOM     20  C   UNL     1       4.262  16.737  -7.256  1.00  0.00     0.000 C 
BRANCH  20  21
ATOM     21  C   UNL     1       4.491  15.246  -6.945  1.00  0.00     0.000 C 
BRANCH  21  22
ATOM     22  C   UNL     1       4.423  14.357  -8.197  1.00  0.00     0.000 C 
BRANCH  22  23
ATOM     23  C   UNL     1       4.688  15.171  -9.469  1.00  0.00     0.000 C 
BRANCH  23  24
ATOM     24  C   UNL     1       4.678  14.267 -10.711  1.00  0.00    -0.000 C 
BRANCH  24  25
ATOM     25  C   UNL     1       4.368  12.799 -10.373  1.00  0.00    -0.000 C 
BRANCH  25  26
ATOM     26  C   UNL     1       5.298  11.818 -11.103  1.00  0.00    -0.000 C 
BRANCH  26  27
ATOM     27  C   UNL     1       6.104  12.534 -12.194  1.00  0.00    -0.000 C 
BRANCH  27  28
ATOM     28  C   UNL     1       7.432  11.815 -12.458  1.00  0.00    -0.000 C 
BRANCH  28  29
ATOM     29  C   UNL     1       7.701  10.745 -11.389  1.00  0.00    -0.000 C 
BRANCH  29  30
ATOM     30  C   UNL     1       9.082  10.083 -11.536  1.00  0.00    -0.000 C 
BRANCH  30  31
ATOM     31  C   UNL     1      10.215  10.764 -10.749  1.00  0.00    -0.003 C 
ATOM     32  C   UNL     1      10.827  11.955 -11.488  1.00  0.00     0.004 C 
ENDBRANCH  30  31
ENDBRANCH  29  30
ENDBRANCH  28  29
ENDBRANCH  27  28
ENDBRANCH  26  27
ENDBRANCH  25  26
ENDBRANCH  24  25
ENDBRANCH  23  24
ENDBRANCH  22  23
ENDBRANCH  21  22
ENDBRANCH  20  21
ENDBRANCH  19  20
ENDBRANCH  18  19
ENDBRANCH   1  18
TORSDOF 28
ENDMDL
MODEL 4
REMARK VINA RESULT:    -3.624      3.675      9.296
REMARK INTER + INTRA:         -14.829
REMARK INTER:                 -10.936
REMARK INTRA:                  -3.893
REMARK UNBOUND:                -5.272
REMARK SMILES CCCCCCCCCCCCCCCCCCCCCCCCCCCCCC(=O)[O-]
REMARK SMILES IDX 16 1 17 2 18 3 19 4 20 5 21 6 22 7 23 8 24 9 25 10 26 11
REMARK SMILES IDX 27 12 28 13 29 14 30 15 31 16 32 17 15 18 14 19 13 20 12 21
REMARK SMILES IDX 11 22 10 23 9 24 8 25 7 26 6 27 5 28 4 29 3 30 2 31 1 32
REMARK H PARENT
REMARK Flexibility Score: inf
ROOT
ATOM      1  C   UNL     1      11.128   9.483  -6.857  1.00  0.00     0.000 C 
ENDROOT
BRANCH   1   2
ATOM      2  C   UNL     1      10.656  10.231  -5.594  1.00  0.00     0.000 C 
BRANCH   2   3
ATOM      3  C   UNL     1       9.806  11.487  -5.885  1.00  0.00     0.000 C 
BRANCH   3   4
ATOM      4  C   UNL     1       8.959  11.346  -7.163  1.00  0.00     0.000 C 
BRANCH   4   5
ATOM      5  C   UNL     1       9.030  12.591  -8.062  1.00  0.00     0.000 C 
BRANCH   5   6
ATOM      6  C   UNL     1       9.183  12.240  -9.552  1.00  0.00     0.000 C 
BRANCH   6   7
ATOM      7  C   UNL     1       9.510  13.464 -10.427  1.00  0.00     0.000 C 
BRANCH   7   8
ATOM      8  C   UNL     1       8.843  14.779  -9.984  1.00  0.00     0.000 C 
BRANCH   8   9
ATOM      9  C   UNL     1       7.698  15.216 -10.914  1.00  0.00     0.000 C 
BRANCH   9  10
ATOM     10  C   UNL     1       6.322  14.742 -10.417  1.00  0.00     0.000 C 
BRANCH  10  11
ATOM     11  C   UNL     1       6.184  14.824  -8.889  1.00  0.00     0.000 C 
BRANCH  11  12
ATOM     12  C   UNL     1       4.964  15.666  -8.491  1.00  0.00     0.000 C 
BRANCH  12  13
ATOM     13  C   UNL     1       4.561  15.396  -7.033  1.00  0.00     0.006 C 
BRANCH  13  14
ATOM     14  C   UNL     1       4.185  16.683  -6.285  1.00  0.00     0.053 C 
BRANCH  14  15
ATOM     15  C   UNL     1       5.265  17.717  -6.376  1.00  0.00     0.041 C 
ATOM     16  O   UNL     1       5.111  18.732  -7.106  1.00  0.00    -0.550 OA
ATOM     17  O   UNL     1       6.452  17.547  -5.673  1.00  0.00    -0.550 OA
ENDBRANCH  14  15
ENDBRANCH  13  14
ENDBRANCH  12  13
ENDBRANCH  11  12
ENDBRANCH  10  11
ENDBRANCH   9  10
ENDBRANCH   8   9
ENDBRANCH   7   8
ENDBRANCH   6   7
ENDBRANCH   5   6
ENDBRANCH   4   5
ENDBRANCH   3   4
ENDBRANCH   2   3
ENDBRANCH   1   2
BRANCH   1  18
ATOM     18  C   UNL     1      12.534   9.852  -7.358  1.00  0.00     0.000 C 
BRANCH  18  19
ATOM     19  C   UNL     1      12.507  10.668  -8.663  1.00  0.00     0.000 C 
BRANCH  19  20
ATOM     20  C   UNL     1      12.690  12.179  -8.424  1.00  0.00     0.000 C 
BRANCH  20  21
ATOM     21  C   UNL     1      13.387  12.548  -7.101  1.00  0.00     0.000 C 
BRANCH  21  22
ATOM     22  C   UNL     1      14.917  12.614  -7.230  1.00  0.00     0.000 C 
BRANCH  22  23
ATOM     23  C   UNL     1      15.602  12.114  -5.952  1.00  0.00     0.000 C 
BRANCH  23  24
ATOM     24  C   UNL     1      16.775  13.027  -5.566  1.00  0.00    -0.000 C 
BRANCH  24  25
ATOM     25  C   UNL     1      16.831  13.315  -4.057  1.00  0.00    -0.000 C 
BRANCH  25  26
ATOM     26  C   UNL     1      15.497  13.843  -3.508  1.00  0.00    -0.000 C 
BRANCH  26  27
ATOM     27  C   UNL     1      15.168  13.201  -2.154  1.00  0.00    -0.000 C 
BRANCH  27  28
ATOM     28  C   UNL     1      14.383  11.897  -2.340  1.00  0.00    -0.000 C 
BRANCH  28  29
ATOM     29  C   UNL     1      13.157  12.117  -3.239  1.00  0.00    -0.000 C 
BRANCH  29  30
ATOM     30  C   UNL     1      11.828  11.809  -2.527  1.00  0.00    -0.000 C 
BRANCH  30  31
ATOM     31  C   UNL     1      11.751  12.284  -1.065  1.00  0.00    -0.003 C 
ATOM     32  C   UNL     1      10.446  11.887  -0.374  1.00  0.00     0.004 C 
ENDBRANCH  30  31
ENDBRANCH  29  30
ENDBRANCH  28  29
ENDBRANCH  27  28
ENDBRANCH  26  27
ENDBRANCH  25  26
ENDBRANCH  24  25
ENDBRANCH  23  24
ENDBRANCH  22  23
ENDBRANCH  21  22
ENDBRANCH  20  21
ENDBRANCH  19  20
ENDBRANCH  18  19
ENDBRANCH   1  18
TORSDOF 28
ENDMDL
MODEL 5
REMARK VINA RESULT:    -3.565      2.102      2.766
REMARK INTER + INTRA:         -14.674
REMARK INTER:                  -9.510
REMARK INTRA:                  -5.163
REMARK UNBOUND:                -5.272
REMARK SMILES CCCCCCCCCCCCCCCCCCCCCCCCCCCCCC(=O)[O-]
REMARK SMILES IDX 16 1 17 2 18 3 19 4 20 5 21 6 22 7 23 8 24 9 25 10 26 11
REMARK SMILES IDX 27 12 28 13 29 14 30 15 31 16 32 17 15 18 14 19 13 20 12 21
REMARK SMILES IDX 11 22 10 23 9 24 8 25 7 26 6 27 5 28 4 29 3 30 2 31 1 32
REMARK H PARENT
REMARK Flexibility Score: inf
ROOT
ATOM      1  C   UNL     1       4.556  16.274  -7.259  1.00  0.00     0.000 C 
ENDROOT
BRANCH   1   2
ATOM      2  C   UNL     1       5.837  16.911  -6.684  1.00  0.00     0.000 C 
BRANCH   2   3
ATOM      3  C   UNL     1       6.823  17.424  -7.756  1.00  0.00     0.000 C 
BRANCH   3   4
ATOM      4  C   UNL     1       7.993  16.453  -7.999  1.00  0.00     0.000 C 
BRANCH   4   5
ATOM      5  C   UNL     1       7.992  15.866  -9.419  1.00  0.00     0.000 C 
BRANCH   5   6
ATOM      6  C   UNL     1       8.249  14.349  -9.435  1.00  0.00     0.000 C 
BRANCH   6   7
ATOM      7  C   UNL     1       7.981  13.680  -8.074  1.00  0.00     0.000 C 
BRANCH   7   8
ATOM      8  C   UNL     1       7.338  12.284  -8.148  1.00  0.00     0.000 C 
BRANCH   8   9
ATOM      9  C   UNL     1       8.076  11.235  -7.298  1.00  0.00     0.000 C 
BRANCH   9  10
ATOM     10  C   UNL     1       9.428  11.748  -6.773  1.00  0.00     0.000 C 
BRANCH  10  11
ATOM     11  C   UNL     1       9.784  11.177  -5.392  1.00  0.00     0.000 C 
BRANCH  11  12
ATOM     12  C   UNL     1      11.239  11.496  -5.023  1.00  0.00     0.000 C 
BRANCH  12  13
ATOM     13  C   UNL     1      11.361  11.867  -3.537  1.00  0.00     0.006 C 
BRANCH  13  14
ATOM     14  C   UNL     1      12.770  12.356  -3.173  1.00  0.00     0.053 C 
BRANCH  14  15
ATOM     15  C   UNL     1      12.875  12.727  -1.726  1.00  0.00     0.041 C 
ATOM     16  O   UNL     1      13.974  13.115  -1.249  1.00  0.00    -0.550 OA
ATOM     17  O   UNL     1      11.764  12.619  -0.897  1.00  0.00    -0.550 OA
ENDBRANCH  14  15
ENDBRANCH  13  14
ENDBRANCH  12  13
ENDBRANCH  11  12
ENDBRANCH  10  11
ENDBRANCH   9  10
ENDBRANCH   8   9
ENDBRANCH   7   8
ENDBRANCH   6   7
ENDBRANCH   5   6
ENDBRANCH   4   5
ENDBRANCH   3   4
ENDBRANCH   2   3
ENDBRANCH   1   2
BRANCH   1  18
ATOM     18  C   UNL     1       4.570  14.740  -7.363  1.00  0.00     0.000 C 
BRANCH  18  19
ATOM     19  C   UNL     1       4.274  14.236  -8.787  1.00  0.00     0.000 C 
BRANCH  19  20
ATOM     20  C   UNL     1       4.701  15.241  -9.875  1.00  0.00     0.000 C 
BRANCH  20  21
ATOM     21  C   UNL     1       4.878  14.639 -11.281  1.00  0.00     0.000 C 
BRANCH  21  22
ATOM     22  C   UNL     1       4.925  13.103 -11.272  1.00  0.00     0.000 C 
BRANCH  22  23
ATOM     23  C   UNL     1       5.990  12.575 -12.241  1.00  0.00     0.000 C 
BRANCH  23  24
ATOM     24  C   UNL     1       6.911  11.562 -11.544  1.00  0.00    -0.000 C 
BRANCH  24  25
ATOM     25  C   UNL     1       6.389  10.119 -11.645  1.00  0.00    -0.000 C 
BRANCH  25  26
ATOM     26  C   UNL     1       7.396   9.090 -11.109  1.00  0.00    -0.000 C 
BRANCH  26  27
ATOM     27  C   UNL     1       8.836   9.583 -11.295  1.00  0.00    -0.000 C 
BRANCH  27  28
ATOM     28  C   UNL     1       9.642   9.428 -10.000  1.00  0.00    -0.000 C 
BRANCH  28  29
ATOM     29  C   UNL     1      10.880  10.337 -10.009  1.00  0.00    -0.000 C 
BRANCH  29  30
ATOM     30  C   UNL     1      10.530  11.825 -10.193  1.00  0.00    -0.000 C 
BRANCH  30  31
ATOM     31  C   UNL     1      11.658  12.805  -9.828  1.00  0.00    -0.003 C 
ATOM     32  C   UNL     1      12.558  12.291  -8.703  1.00  0.00     0.004 C 
ENDBRANCH  30  31
ENDBRANCH  29  30
ENDBRANCH  28  29
ENDBRANCH  27  28
ENDBRANCH  26  27
ENDBRANCH  25  26
ENDBRANCH  24  25
ENDBRANCH  23  24
ENDBRANCH  22  23
ENDBRANCH  21  22
ENDBRANCH  20  21
ENDBRANCH  19  20
ENDBRANCH  18  19
ENDBRANCH   1  18
TORSDOF 28
ENDMDL
MODEL 6
REMARK VINA RESULT:    -3.545      3.402      8.963
REMARK INTER + INTRA:         -14.619
REMARK INTER:                 -10.103
REMARK INTRA:                  -4.517
REMARK UNBOUND:                -5.272
REMARK SMILES CCCCCCCCCCCCCCCCCCCCCCCCCCCCCC(=O)[O-]
REMARK SMILES IDX 16 1 17 2 18 3 19 4 20 5 21 6 22 7 23 8 24 9 25 10 26 11
REMARK SMILES IDX 27 12 28 13 29 14 30 15 31 16 32 17 15 18 14 19 13 20 12 21
REMARK SMILES IDX 11 22 10 23 9 24 8 25 7 26 6 27 5 28 4 29 3 30 2 31 1 32
REMARK H PARENT
REMARK Flexibility Score: inf
ROOT
ATOM      1  C   UNL     1      10.639  10.112  -7.240  1.00  0.00     0.000 C 
ENDROOT
BRANCH   1   2
ATOM      2  C   UNL     1      12.090  10.393  -7.678  1.00  0.00     0.000 C 
BRANCH   2   3
ATOM      3  C   UNL     1      12.351  11.856  -8.098  1.00  0.00     0.000 C 
BRANCH   3   4
ATOM      4  C   UNL     1      12.439  12.027  -9.626  1.00  0.00     0.000 C 
BRANCH   4   5
ATOM      5  C   UNL     1      11.444  13.066 -10.165  1.00  0.00     0.000 C 
BRANCH   5   6
ATOM      6  C   UNL     1      10.239  12.423 -10.874  1.00  0.00     0.000 C 
BRANCH   6   7
ATOM      7  C   UNL     1       9.102  12.048  -9.905  1.00  0.00     0.000 C 
BRANCH   7   8
ATOM      8  C   UNL     1       8.836  13.071  -8.785  1.00  0.00     0.000 C 
BRANCH   8   9
ATOM      9  C   UNL     1       7.617  12.710  -7.918  1.00  0.00     0.000 C 
BRANCH   9  10
ATOM     10  C   UNL     1       6.699  13.917  -7.662  1.00  0.00     0.000 C 
BRANCH  10  11
ATOM     11  C   UNL     1       5.839  14.277  -8.883  1.00  0.00     0.000 C 
BRANCH  11  12
ATOM     12  C   UNL     1       4.976  15.514  -8.602  1.00  0.00     0.000 C 
BRANCH  12  13
ATOM     13  C   UNL     1       4.749  15.696  -7.093  1.00  0.00     0.006 C 
BRANCH  13  14
ATOM     14  C   UNL     1       4.787  17.172  -6.671  1.00  0.00     0.053 C 
BRANCH  14  15
ATOM     15  C   UNL     1       6.087  17.534  -6.021  1.00  0.00     0.041 C 
ATOM     16  O   UNL     1       7.178  17.207  -6.560  1.00  0.00    -0.550 OA
ATOM     17  O   UNL     1       6.093  18.210  -4.806  1.00  0.00    -0.550 OA
ENDBRANCH  14  15
ENDBRANCH  13  14
ENDBRANCH  12  13
ENDBRANCH  11  12
ENDBRANCH  10  11
ENDBRANCH   9  10
ENDBRANCH   8   9
ENDBRANCH   7   8
ENDBRANCH   6   7
ENDBRANCH   5   6
ENDBRANCH   4   5
ENDBRANCH   3   4
ENDBRANCH   2   3
ENDBRANCH   1   2
BRANCH   1  18
ATOM     18  C   UNL     1      10.401  10.083  -5.721  1.00  0.00     0.000 C 
BRANCH  18  19
ATOM     19  C   UNL     1      10.387  11.488  -5.092  1.00  0.00     0.000 C 
BRANCH  19  20
ATOM     20  C   UNL     1      11.683  11.809  -4.324  1.00  0.00     0.000 C 
BRANCH  20  21
ATOM     21  C   UNL     1      12.354  10.599  -3.647  1.00  0.00     0.000 C 
BRANCH  21  22
ATOM     22  C   UNL     1      13.671  10.190  -4.324  1.00  0.00     0.000 C 
BRANCH  22  23
ATOM     23  C   UNL     1      14.615   9.502  -3.330  1.00  0.00     0.000 C 
BRANCH  23  24
ATOM     24  C   UNL     1      14.503  10.141  -1.937  1.00  0.00    -0.000 C 
BRANCH  24  25
ATOM     25  C   UNL     1      15.844  10.693  -1.428  1.00  0.00    -0.000 C 
BRANCH  25  26
ATOM     26  C   UNL     1      16.307  11.932  -2.210  1.00  0.00    -0.000 C 
BRANCH  26  27
ATOM     27  C   UNL     1      15.342  13.105  -1.999  1.00  0.00    -0.000 C 
BRANCH  27  28
ATOM     28  C   UNL     1      14.766  13.590  -3.335  1.00  0.00    -0.000 C 
BRANCH  28  29
ATOM     29  C   UNL     1      15.756  13.343  -4.483  1.00  0.00    -0.000 C 
BRANCH  29  30
ATOM     30  C   UNL     1      15.060  12.987  -5.809  1.00  0.00    -0.000 C 
BRANCH  30  31
ATOM     31  C   UNL     1      16.007  12.565  -6.945  1.00  0.00    -0.003 C 
ATOM     32  C   UNL     1      15.882  11.086  -7.312  1.00  0.00     0.004 C 
ENDBRANCH  30  31
ENDBRANCH  29  30
ENDBRANCH  28  29
ENDBRANCH  27  28
ENDBRANCH  26  27
ENDBRANCH  25  26
ENDBRANCH  24  25
ENDBRANCH  23  24
ENDBRANCH  22  23
ENDBRANCH  21  22
ENDBRANCH  20  21
ENDBRANCH  19  20
ENDBRANCH  18  19
ENDBRANCH   1  18
TORSDOF 28
ENDMDL
MODEL 7
REMARK VINA RESULT:    -3.544      4.102      9.760
REMARK INTER + INTRA:         -14.617
REMARK INTER:                  -9.722
REMARK INTRA:                  -4.896
REMARK UNBOUND:                -5.272
REMARK SMILES CCCCCCCCCCCCCCCCCCCCCCCCCCCCCC(=O)[O-]
REMARK SMILES IDX 16 1 17 2 18 3 19 4 20 5 21 6 22 7 23 8 24 9 25 10 26 11
REMARK SMILES IDX 27 12 28 13 29 14 30 15 31 16 32 17 15 18 14 19 13 20 12 21
REMARK SMILES IDX 11 22 10 23 9 24 8 25 7 26 6 27 5 28 4 29 3 30 2 31 1 32
REMARK H PARENT
REMARK Flexibility Score: inf
ROOT
ATOM      1  C   UNL     1      12.112  12.331  -1.493  1.00  0.00     0.000 C 
ENDROOT
BRANCH   1   2
ATOM      2  C   UNL     1      10.788  11.544  -1.568  1.00  0.00     0.000 C 
BRANCH   2   3
ATOM      3  C   UNL     1      10.278  11.300  -3.005  1.00  0.00     0.000 C 
BRANCH   3   4
ATOM      4  C   UNL     1      11.307  11.709  -4.076  1.00  0.00     0.000 C 
BRANCH   4   5
ATOM      5  C   UNL     1      10.792  11.490  -5.507  1.00  0.00     0.000 C 
BRANCH   5   6
ATOM      6  C   UNL     1      11.880  10.959  -6.456  1.00  0.00     0.000 C 
BRANCH   6   7
ATOM      7  C   UNL     1      12.150  11.898  -7.646  1.00  0.00     0.000 C 
BRANCH   7   8
ATOM      8  C   UNL     1      11.353  11.578  -8.923  1.00  0.00     0.000 C 
BRANCH   8   9
ATOM      9  C   UNL     1      10.719  12.825  -9.565  1.00  0.00     0.000 C 
BRANCH   9  10
ATOM     10  C   UNL     1       9.183  12.757  -9.592  1.00  0.00     0.000 C 
BRANCH  10  11
ATOM     11  C   UNL     1       8.571  12.621  -8.189  1.00  0.00     0.000 C 
BRANCH  11  12
ATOM     12  C   UNL     1       7.067  12.926  -8.214  1.00  0.00     0.000 C 
BRANCH  12  13
ATOM     13  C   UNL     1       6.778  14.209  -9.009  1.00  0.00     0.006 C 
BRANCH  13  14
ATOM     14  C   UNL     1       6.567  15.425  -8.096  1.00  0.00     0.053 C 
BRANCH  14  15
ATOM     15  C   UNL     1       7.735  16.362  -8.135  1.00  0.00     0.041 C 
ATOM     16  O   UNL     1       8.629  16.225  -9.012  1.00  0.00    -0.550 OA
ATOM     17  O   UNL     1       7.851  17.370  -7.184  1.00  0.00    -0.550 OA
ENDBRANCH  14  15
ENDBRANCH  13  14
ENDBRANCH  12  13
ENDBRANCH  11  12
ENDBRANCH  10  11
ENDBRANCH   9  10
ENDBRANCH   8   9
ENDBRANCH   7   8
ENDBRANCH   6   7
ENDBRANCH   5   6
ENDBRANCH   4   5
ENDBRANCH   3   4
ENDBRANCH   2   3
ENDBRANCH   1   2
BRANCH   1  18
ATOM     18  C   UNL     1      13.285  11.590  -0.830  1.00  0.00     0.000 C 
BRANCH  18  19
ATOM     19  C   UNL     1      13.611  10.253  -1.517  1.00  0.00     0.000 C 
BRANCH  19  20
ATOM     20  C   UNL     1      15.125   9.976  -1.593  1.00  0.00     0.000 C 
BRANCH  20  21
ATOM     21  C   UNL     1      15.709   9.947  -3.018  1.00  0.00     0.000 C 
BRANCH  21  22
ATOM     22  C   UNL     1      14.672  10.296  -4.097  1.00  0.00     0.000 C 
BRANCH  22  23
ATOM     23  C   UNL     1      15.354  10.708  -5.407  1.00  0.00     0.000 C 
BRANCH  23  24
ATOM     24  C   UNL     1      15.576  12.228  -5.456  1.00  0.00    -0.000 C 
BRANCH  24  25
ATOM     25  C   UNL     1      14.577  13.002  -4.581  1.00  0.00    -0.000 C 
BRANCH  25  26
ATOM     26  C   UNL     1      15.253  14.096  -3.741  1.00  0.00    -0.000 C 
BRANCH  26  27
ATOM     27  C   UNL     1      15.639  13.564  -2.355  1.00  0.00    -0.000 C 
BRANCH  27  28
ATOM     28  C   UNL     1      17.154  13.354  -2.250  1.00  0.00    -0.000 C 
BRANCH  28  29
ATOM     29  C   UNL     1      17.520  12.626  -0.947  1.00  0.00    -0.000 C 
BRANCH  29  30
ATOM     30  C   UNL     1      16.598  13.002   0.227  1.00  0.00    -0.000 C 
BRANCH  30  31
ATOM     31  C   UNL     1      16.935  12.311   1.561  1.00  0.00    -0.003 C 
ATOM     32  C   UNL     1      15.997  11.148   1.886  1.00  0.00     0.004 C 
ENDBRANCH  30  31
ENDBRANCH  29  30
ENDBRANCH  28  29
ENDBRANCH  27  28
ENDBRANCH  26  27
ENDBRANCH  25  26
ENDBRANCH  24  25
ENDBRANCH  23  24
ENDBRANCH  22  23
ENDBRANCH  21  22
ENDBRANCH  20  21
ENDBRANCH  19  20
ENDBRANCH  18  19
ENDBRANCH   1  18
TORSDOF 28
ENDMDL
MODEL 8
REMARK VINA RESULT:    -3.534      3.847      9.114
REMARK INTER + INTRA:         -14.592
REMARK INTER:                 -11.160
REMARK INTRA:                  -3.432
REMARK UNBOUND:                -5.272
REMARK SMILES CCCCCCCCCCCCCCCCCCCCCCCCCCCCCC(=O)[O-]
REMARK SMILES IDX 16 1 17 2 18 3 19 4 20 5 21 6 22 7 23 8 24 9 25 10 26 11
REMARK SMILES IDX 27 12 28 13 29 14 30 15 31 16 32 17 15 18 14 19 13 20 12 21
REMARK SMILES IDX 11 22 10 23 9 24 8 25 7 26 6 27 5 28 4 29 3 30 2 31 1 32
REMARK H PARENT
REMARK Flexibility Score: inf
ROOT
ATOM      1  C   UNL     1      10.828  11.506  -5.920  1.00  0.00     0.000 C 
ENDROOT
BRANCH   1   2
ATOM      2  C   UNL     1       9.394  10.963  -6.078  1.00  0.00     0.000 C 
BRANCH   2   3
ATOM      3  C   UNL     1       8.513  11.780  -7.049  1.00  0.00     0.000 C 
BRANCH   3   4
ATOM      4  C   UNL     1       8.539  11.223  -8.484  1.00  0.00     0.000 C 
BRANCH   4   5
ATOM      5  C   UNL     1       9.680  11.813  -9.328  1.00  0.00     0.000 C 
BRANCH   5   6
ATOM      6  C   UNL     1       9.171  12.642 -10.521  1.00  0.00     0.000 C 
BRANCH   6   7
ATOM      7  C   UNL     1       9.333  14.158 -10.311  1.00  0.00     0.000 C 
BRANCH   7   8
ATOM      8  C   UNL     1       8.106  14.868  -9.711  1.00  0.00     0.000 C 
BRANCH   8   9
ATOM      9  C   UNL     1       6.771  14.286 -10.207  1.00  0.00     0.000 C 
BRANCH   9  10
ATOM     10  C   UNL     1       5.930  13.686  -9.067  1.00  0.00     0.000 C 
BRANCH  10  11
ATOM     11  C   UNL     1       5.995  14.521  -7.780  1.00  0.00     0.000 C 
BRANCH  11  12
ATOM     12  C   UNL     1       4.613  15.083  -7.419  1.00  0.00     0.000 C 
BRANCH  12  13
ATOM     13  C   UNL     1       4.620  16.620  -7.445  1.00  0.00     0.006 C 
BRANCH  13  14
ATOM     14  C   UNL     1       4.609  17.227  -6.035  1.00  0.00     0.053 C 
BRANCH  14  15
ATOM     15  C   UNL     1       5.964  17.719  -5.629  1.00  0.00     0.041 C 
ATOM     16  O   UNL     1       6.948  17.580  -6.402  1.00  0.00    -0.550 OA
ATOM     17  O   UNL     1       6.145  18.308  -4.382  1.00  0.00    -0.550 OA
ENDBRANCH  14  15
ENDBRANCH  13  14
ENDBRANCH  12  13
ENDBRANCH  11  12
ENDBRANCH  10  11
ENDBRANCH   9  10
ENDBRANCH   8   9
ENDBRANCH   7   8
ENDBRANCH   6   7
ENDBRANCH   5   6
ENDBRANCH   4   5
ENDBRANCH   3   4
ENDBRANCH   2   3
ENDBRANCH   1   2
BRANCH   1  18
ATOM     18  C   UNL     1      11.274  11.784  -4.475  1.00  0.00     0.000 C 
BRANCH  18  19
ATOM     19  C   UNL     1      10.616  10.838  -3.456  1.00  0.00     0.000 C 
BRANCH  19  20
ATOM     20  C   UNL     1      10.361  11.514  -2.095  1.00  0.00     0.000 C 
BRANCH  20  21
ATOM     21  C   UNL     1      10.967  10.782  -0.883  1.00  0.00     0.000 C 
BRANCH  21  22
ATOM     22  C   UNL     1      11.749  11.718   0.052  1.00  0.00     0.000 C 
BRANCH  22  23
ATOM     23  C   UNL     1      12.973  12.311  -0.656  1.00  0.00     0.000 C 
BRANCH  23  24
ATOM     24  C   UNL     1      13.836  11.203  -1.279  1.00  0.00    -0.000 C 
BRANCH  24  25
ATOM     25  C   UNL     1      14.573  11.666  -2.546  1.00  0.00    -0.000 C 
BRANCH  25  26
ATOM     26  C   UNL     1      14.263  13.127  -2.907  1.00  0.00    -0.000 C 
BRANCH  26  27
ATOM     27  C   UNL     1      15.533  13.862  -3.354  1.00  0.00    -0.000 C 
BRANCH  27  28
ATOM     28  C   UNL     1      16.717  13.519  -2.442  1.00  0.00    -0.000 C 
BRANCH  28  29
ATOM     29  C   UNL     1      17.941  13.091  -3.266  1.00  0.00    -0.000 C 
BRANCH  29  30
ATOM     30  C   UNL     1      17.854  13.529  -4.740  1.00  0.00    -0.000 C 
BRANCH  30  31
ATOM     31  C   UNL     1      17.954  12.383  -5.762  1.00  0.00    -0.003 C 
ATOM     32  C   UNL     1      16.825  11.360  -5.629  1.00  0.00     0.004 C 
ENDBRANCH  30  31
ENDBRANCH  29  30
ENDBRANCH  28  29
ENDBRANCH  27  28
ENDBRANCH  26  27
ENDBRANCH  25  26
ENDBRANCH  24  25
ENDBRANCH  23  24
ENDBRANCH  22  23
ENDBRANCH  21  22
ENDBRANCH  20  21
ENDBRANCH  19  20
ENDBRANCH  18  19
ENDBRANCH   1  18
TORSDOF 28
ENDMDL
MODEL 9
REMARK VINA RESULT:    -3.510      3.488      9.328
REMARK INTER + INTRA:         -14.528
REMARK INTER:                 -10.002
REMARK INTRA:                  -4.526
REMARK UNBOUND:                -5.272
REMARK SMILES CCCCCCCCCCCCCCCCCCCCCCCCCCCCCC(=O)[O-]
REMARK SMILES IDX 16 1 17 2 18 3 19 4 20 5 21 6 22 7 23 8 24 9 25 10 26 11
REMARK SMILES IDX 27 12 28 13 29 14 30 15 31 16 32 17 15 18 14 19 13 20 12 21
REMARK SMILES IDX 11 22 10 23 9 24 8 25 7 26 6 27 5 28 4 29 3 30 2 31 1 32
REMARK H PARENT
REMARK Flexibility Score: inf
ROOT
ATOM      1  C   UNL     1      11.801  11.870  -6.227  1.00  0.00     0.000 C 
ENDROOT
BRANCH   1   2
ATOM      2  C   UNL     1      12.896  12.517  -7.100  1.00  0.00     0.000 C 
BRANCH   2   3
ATOM      3  C   UNL     1      13.745  11.505  -7.900  1.00  0.00     0.000 C 
BRANCH   3   4
ATOM      4  C   UNL     1      13.629  11.706  -9.422  1.00  0.00     0.000 C 
BRANCH   4   5
ATOM      5  C   UNL     1      12.188  11.548  -9.933  1.00  0.00     0.000 C 
BRANCH   5   6
ATOM      6  C   UNL     1      11.703  12.769 -10.734  1.00  0.00     0.000 C 
BRANCH   6   7
ATOM      7  C   UNL     1      10.434  13.409 -10.143  1.00  0.00     0.000 C 
BRANCH   7   8
ATOM      8  C   UNL     1       9.655  12.522  -9.155  1.00  0.00     0.000 C 
BRANCH   8   9
ATOM      9  C   UNL     1       8.407  13.214  -8.579  1.00  0.00     0.000 C 
BRANCH   9  10
ATOM     10  C   UNL     1       8.156  14.594  -9.210  1.00  0.00     0.000 C 
BRANCH  10  11
ATOM     11  C   UNL     1       6.828  14.660  -9.981  1.00  0.00     0.000 C 
BRANCH  11  12
ATOM     12  C   UNL     1       5.634  14.693  -9.018  1.00  0.00     0.000 C 
BRANCH  12  13
ATOM     13  C   UNL     1       5.406  16.112  -8.473  1.00  0.00     0.006 C 
BRANCH  13  14
ATOM     14  C   UNL     1       5.616  16.193  -6.954  1.00  0.00     0.053 C 
BRANCH  14  15
ATOM     15  C   UNL     1       6.625  17.237  -6.586  1.00  0.00     0.041 C 
ATOM     16  O   UNL     1       7.766  17.232  -7.118  1.00  0.00    -0.550 OA
ATOM     17  O   UNL     1       6.312  18.200  -5.633  1.00  0.00    -0.550 OA
ENDBRANCH  14  15
ENDBRANCH  13  14
ENDBRANCH  12  13
ENDBRANCH  11  12
ENDBRANCH  10  11
ENDBRANCH   9  10
ENDBRANCH   8   9
ENDBRANCH   7   8
ENDBRANCH   6   7
ENDBRANCH   5   6
ENDBRANCH   4   5
ENDBRANCH   3   4
ENDBRANCH   2   3
ENDBRANCH   1   2
BRANCH   1  18
ATOM     18  C   UNL     1      12.051  11.917  -4.711  1.00  0.00     0.000 C 
BRANCH  18  19
ATOM     19  C   UNL     1      12.000  10.527  -4.054  1.00  0.00     0.000 C 
BRANCH  19  20
ATOM     20  C   UNL     1      12.332   9.390  -5.040  1.00  0.00     0.000 C 
BRANCH  20  21
ATOM     21  C   UNL     1      13.811   8.961  -5.062  1.00  0.00     0.000 C 
BRANCH  21  22
ATOM     22  C   UNL     1      14.608   9.502  -3.866  1.00  0.00     0.000 C 
BRANCH  22  23
ATOM     23  C   UNL     1      16.049   9.841  -4.268  1.00  0.00     0.000 C 
BRANCH  23  24
ATOM     24  C   UNL     1      16.075  10.960  -5.320  1.00  0.00    -0.000 C 
BRANCH  24  25
ATOM     25  C   UNL     1      17.299  11.880  -5.179  1.00  0.00    -0.000 C 
BRANCH  25  26
ATOM     26  C   UNL     1      16.913  13.325  -4.827  1.00  0.00    -0.000 C 
BRANCH  26  27
ATOM     27  C   UNL     1      15.420  13.427  -4.489  1.00  0.00    -0.000 C 
BRANCH  27  28
ATOM     28  C   UNL     1      15.215  13.888  -3.041  1.00  0.00    -0.000 C 
BRANCH  28  29
ATOM     29  C   UNL     1      14.713  12.732  -2.162  1.00  0.00    -0.000 C 
BRANCH  29  30
ATOM     30  C   UNL     1      15.760  12.263  -1.134  1.00  0.00    -0.000 C 
BRANCH  30  31
ATOM     31  C   UNL     1      16.813  13.319  -0.754  1.00  0.00    -0.003 C 
ATOM     32  C   UNL     1      18.170  13.076  -1.416  1.00  0.00     0.004 C 
ENDBRANCH  30  31
ENDBRANCH  29  30
ENDBRANCH  28  29
ENDBRANCH  27  28
ENDBRANCH  26  27
ENDBRANCH  25  26
ENDBRANCH  24  25
ENDBRANCH  23  24
ENDBRANCH  22  23
ENDBRANCH  21  22
ENDBRANCH  20  21
ENDBRANCH  19  20
ENDBRANCH  18  19
ENDBRANCH   1  18
TORSDOF 28
ENDMDL
