MODEL 1
REMARK VINA RESULT:    -6.199      0.000      0.000
REMARK INTER + INTRA:          -6.380
REMARK INTER:                  -6.380
REMARK INTRA:                   0.000
REMARK UNBOUND:                 0.000
REMARK SMILES C=C1[C@H](O)C[C@]23C[C@H]1C(C)(C)[C@H]2CC[C@@H]3C
REMARK SMILES IDX 16 1 15 2 14 3 13 4 12 5 6 6 7 7 8 8 9 9 10 10 11 11 2 12
REMARK SMILES IDX 1 13 3 14 5 15 4 16
REMARK H PARENT 4 17
REMARK Flexibility Score: inf
ROOT
ATOM      1  C   UNL     1     114.616 126.067 124.960  1.00  0.00     0.008 C 
ATOM      2  C   UNL     1     115.203 125.717 123.584  1.00  0.00    -0.008 C 
ATOM      3  C   UNL     1     116.729 125.749 123.598  1.00  0.00     0.004 C 
ATOM      4  C   UNL     1     117.140 124.920 122.395  1.00  0.00     0.005 C 
ATOM      5  C   UNL     1     116.125 123.766 122.364  1.00  0.00     0.002 C 
ATOM      6  C   UNL     1     114.827 124.318 123.002  1.00  0.00    -0.020 C 
ATOM      7  C   UNL     1     113.831 124.400 121.840  1.00  0.00     0.016 C 
ATOM      8  C   UNL     1     114.157 123.132 121.067  1.00  0.00     0.023 C 
ATOM      9  C   UNL     1     115.713 123.151 120.981  1.00  0.00    -0.025 C 
ATOM     10  C   UNL     1     116.145 123.993 119.751  1.00  0.00     0.012 C 
ATOM     11  C   UNL     1     116.329 121.741 120.796  1.00  0.00     0.012 C 
ATOM     12  C   UNL     1     113.637 121.955 121.891  1.00  0.00    -0.045 C 
ATOM     13  C   UNL     1     113.113 120.888 121.267  1.00  0.00     0.011 C 
ATOM     14  C   UNL     1     113.876 121.917 123.405  1.00  0.00     0.140 C 
ATOM     15  C   UNL     1     114.248 123.298 124.031  1.00  0.00     0.044 C 
ENDROOT
BRANCH  14  16
ATOM     16  O   UNL     1     112.765 121.375 124.076  1.00  0.00    -0.389 OA
ATOM     17  H   UNL     1     111.989 121.433 123.459  1.00  0.00     0.211 HD
ENDBRANCH  14  16
TORSDOF 1
ENDMDL
MODEL 2
REMARK VINA RESULT:    -5.900     11.860     13.627
REMARK INTER + INTRA:          -6.072
REMARK INTER:                  -6.072
REMARK INTRA:                   0.000
REMARK UNBOUND:                 0.000
REMARK SMILES C=C1[C@H](O)C[C@]23C[C@H]1C(C)(C)[C@H]2CC[C@@H]3C
REMARK SMILES IDX 16 1 15 2 14 3 13 4 12 5 6 6 7 7 8 8 9 9 10 10 11 11 2 12
REMARK SMILES IDX 1 13 3 14 5 15 4 16
REMARK H PARENT 4 17
REMARK Flexibility Score: inf
ROOT
ATOM      1  C   UNL     1     121.245 118.170 113.213  1.00  0.00     0.008 C 
ATOM      2  C   UNL     1     122.466 118.898 112.632  1.00  0.00    -0.008 C 
ATOM      3  C   UNL     1     122.060 120.145 111.851  1.00  0.00     0.004 C 
ATOM      4  C   UNL     1     123.320 120.989 111.795  1.00  0.00     0.005 C 
ATOM      5  C   UNL     1     123.972 120.791 113.173  1.00  0.00     0.002 C 
ATOM      6  C   UNL     1     123.539 119.386 113.656  1.00  0.00    -0.020 C 
ATOM      7  C   UNL     1     124.825 118.553 113.620  1.00  0.00     0.016 C 
ATOM      8  C   UNL     1     125.854 119.556 114.116  1.00  0.00     0.023 C 
ATOM      9  C   UNL     1     125.535 120.839 113.290  1.00  0.00    -0.025 C 
ATOM     10  C   UNL     1     126.282 120.769 111.932  1.00  0.00     0.012 C 
ATOM     11  C   UNL     1     126.000 122.143 113.988  1.00  0.00     0.012 C 
ATOM     12  C   UNL     1     125.608 119.754 115.611  1.00  0.00    -0.045 C 
ATOM     13  C   UNL     1     126.650 119.935 116.437  1.00  0.00     0.011 C 
ATOM     14  C   UNL     1     124.176 119.922 116.134  1.00  0.00     0.140 C 
ATOM     15  C   UNL     1     123.070 119.440 115.143  1.00  0.00     0.044 C 
ENDROOT
BRANCH  14  16
ATOM     16  O   UNL     1     124.015 119.281 117.375  1.00  0.00    -0.389 OA
ATOM     17  H   UNL     1     123.219 119.681 117.815  1.00  0.00     0.211 HD
ENDBRANCH  14  16
TORSDOF 1
ENDMDL
MODEL 3
REMARK VINA RESULT:    -5.762      2.562      4.476
REMARK INTER + INTRA:          -5.930
REMARK INTER:                  -5.930
REMARK INTRA:                   0.000
REMARK UNBOUND:                 0.000
REMARK SMILES C=C1[C@H](O)C[C@]23C[C@H]1C(C)(C)[C@H]2CC[C@@H]3C
REMARK SMILES IDX 16 1 15 2 14 3 13 4 12 5 6 6 7 7 8 8 9 9 10 10 11 11 2 12
REMARK SMILES IDX 1 13 3 14 5 15 4 16
REMARK H PARENT 4 17
REMARK Flexibility Score: inf
ROOT
ATOM      1  C   UNL     1     112.520 118.862 126.489  1.00  0.00     0.008 C 
ATOM      2  C   UNL     1     113.727 119.723 126.088  1.00  0.00    -0.008 C 
ATOM      3  C   UNL     1     115.040 118.961 126.247  1.00  0.00     0.004 C 
ATOM      4  C   UNL     1     116.026 119.709 125.368  1.00  0.00     0.005 C 
ATOM      5  C   UNL     1     115.203 120.117 124.136  1.00  0.00     0.002 C 
ATOM      6  C   UNL     1     113.741 120.265 124.625  1.00  0.00    -0.020 C 
ATOM      7  C   UNL     1     113.457 121.769 124.539  1.00  0.00     0.016 C 
ATOM      8  C   UNL     1     114.169 122.143 123.250  1.00  0.00     0.023 C 
ATOM      9  C   UNL     1     115.558 121.450 123.390  1.00  0.00    -0.025 C 
ATOM     10  C   UNL     1     116.518 122.386 124.171  1.00  0.00     0.012 C 
ATOM     11  C   UNL     1     116.233 121.159 122.025  1.00  0.00     0.012 C 
ATOM     12  C   UNL     1     113.348 121.566 122.097  1.00  0.00    -0.045 C 
ATOM     13  C   UNL     1     113.243 122.253 120.948  1.00  0.00     0.011 C 
ATOM     14  C   UNL     1     112.799 120.137 122.190  1.00  0.00     0.140 C 
ATOM     15  C   UNL     1     112.761 119.557 123.639  1.00  0.00     0.044 C 
ENDROOT
BRANCH  14  16
ATOM     16  O   UNL     1     111.521 120.051 121.609  1.00  0.00    -0.389 OA
ATOM     17  H   UNL     1     111.596 120.387 120.677  1.00  0.00     0.211 HD
ENDBRANCH  14  16
TORSDOF 1
ENDMDL
MODEL 4
REMARK VINA RESULT:    -5.671     11.927     13.638
REMARK INTER + INTRA:          -5.837
REMARK INTER:                  -5.837
REMARK INTRA:                   0.000
REMARK UNBOUND:                 0.000
REMARK SMILES C=C1[C@H](O)C[C@]23C[C@H]1C(C)(C)[C@H]2CC[C@@H]3C
REMARK SMILES IDX 16 1 15 2 14 3 13 4 12 5 6 6 7 7 8 8 9 9 10 10 11 11 2 12
REMARK SMILES IDX 1 13 3 14 5 15 4 16
REMARK H PARENT 4 17
REMARK Flexibility Score: inf
ROOT
ATOM      1  C   UNL     1     122.496 120.536 111.633  1.00  0.00     0.008 C 
ATOM      2  C   UNL     1     123.949 120.631 112.122  1.00  0.00    -0.008 C 
ATOM      3  C   UNL     1     124.401 122.083 112.263  1.00  0.00     0.004 C 
ATOM      4  C   UNL     1     125.595 122.023 113.198  1.00  0.00     0.005 C 
ATOM      5  C   UNL     1     125.218 120.946 114.228  1.00  0.00     0.002 C 
ATOM      6  C   UNL     1     124.267 119.967 113.498  1.00  0.00    -0.020 C 
ATOM      7  C   UNL     1     125.075 118.672 113.366  1.00  0.00     0.016 C 
ATOM      8  C   UNL     1     125.798 118.623 114.703  1.00  0.00     0.023 C 
ATOM      9  C   UNL     1     126.352 120.071 114.866  1.00  0.00    -0.025 C 
ATOM     10  C   UNL     1     127.723 120.175 114.147  1.00  0.00     0.012 C 
ATOM     11  C   UNL     1     126.593 120.467 116.345  1.00  0.00     0.012 C 
ATOM     12  C   UNL     1     124.757 118.278 115.767  1.00  0.00    -0.045 C 
ATOM     13  C   UNL     1     125.098 117.491 116.799  1.00  0.00     0.011 C 
ATOM     14  C   UNL     1     123.389 118.971 115.750  1.00  0.00     0.140 C 
ATOM     15  C   UNL     1     123.027 119.644 114.388  1.00  0.00     0.044 C 
ENDROOT
BRANCH  14  16
ATOM     16  O   UNL     1     122.369 118.078 116.125  1.00  0.00    -0.389 OA
ATOM     17  H   UNL     1     122.276 117.411 115.394  1.00  0.00     0.211 HD
ENDBRANCH  14  16
TORSDOF 1
ENDMDL
MODEL 5
REMARK VINA RESULT:    -5.541      2.251      4.353
REMARK INTER + INTRA:          -5.703
REMARK INTER:                  -5.703
REMARK INTRA:                   0.000
REMARK UNBOUND:                 0.000
REMARK SMILES C=C1[C@H](O)C[C@]23C[C@H]1C(C)(C)[C@H]2CC[C@@H]3C
REMARK SMILES IDX 16 1 15 2 14 3 13 4 12 5 6 6 7 7 8 8 9 9 10 10 11 11 2 12
REMARK SMILES IDX 1 13 3 14 5 15 4 16
REMARK H PARENT 4 17
REMARK Flexibility Score: inf
ROOT
ATOM      1  C   UNL     1     116.378 119.874 125.272  1.00  0.00     0.008 C 
ATOM      2  C   UNL     1     115.368 120.324 124.206  1.00  0.00    -0.008 C 
ATOM      3  C   UNL     1     113.974 120.518 124.798  1.00  0.00     0.004 C 
ATOM      4  C   UNL     1     113.257 121.414 123.804  1.00  0.00     0.005 C 
ATOM      5  C   UNL     1     114.336 122.404 123.338  1.00  0.00     0.002 C 
ATOM      6  C   UNL     1     115.687 121.659 123.462  1.00  0.00    -0.020 C 
ATOM      7  C   UNL     1     116.143 121.444 122.015  1.00  0.00     0.016 C 
ATOM      8  C   UNL     1     115.730 122.755 121.366  1.00  0.00     0.023 C 
ATOM      9  C   UNL     1     114.273 122.968 121.877  1.00  0.00    -0.025 C 
ATOM     10  C   UNL     1     113.290 122.215 120.941  1.00  0.00     0.012 C 
ATOM     11  C   UNL     1     113.839 124.456 121.874  1.00  0.00     0.012 C 
ATOM     12  C   UNL     1     116.685 123.833 121.877  1.00  0.00    -0.045 C 
ATOM     13  C   UNL     1     117.078 124.817 121.053  1.00  0.00     0.011 C 
ATOM     14  C   UNL     1     117.050 123.887 123.366  1.00  0.00     0.140 C 
ATOM     15  C   UNL     1     116.753 122.569 124.148  1.00  0.00     0.044 C 
ENDROOT
BRANCH  14  16
ATOM     16  O   UNL     1     118.397 124.250 123.541  1.00  0.00    -0.389 OA
ATOM     17  H   UNL     1     118.496 124.582 124.472  1.00  0.00     0.211 HD
ENDBRANCH  14  16
TORSDOF 1
ENDMDL
MODEL 6
REMARK VINA RESULT:    -5.540      1.881      4.302
REMARK INTER + INTRA:          -5.702
REMARK INTER:                  -5.702
REMARK INTRA:                   0.000
REMARK UNBOUND:                 0.000
REMARK SMILES C=C1[C@H](O)C[C@]23C[C@H]1C(C)(C)[C@H]2CC[C@@H]3C
REMARK SMILES IDX 16 1 15 2 14 3 13 4 12 5 6 6 7 7 8 8 9 9 10 10 11 11 2 12
REMARK SMILES IDX 1 13 3 14 5 15 4 16
REMARK H PARENT 4 17
REMARK Flexibility Score: inf
ROOT
ATOM      1  C   UNL     1     113.024 119.873 121.793  1.00  0.00     0.008 C 
ATOM      2  C   UNL     1     113.190 121.251 122.453  1.00  0.00    -0.008 C 
ATOM      3  C   UNL     1     113.316 121.138 123.970  1.00  0.00     0.004 C 
ATOM      4  C   UNL     1     113.963 122.442 124.399  1.00  0.00     0.005 C 
ATOM      5  C   UNL     1     114.984 122.742 123.290  1.00  0.00     0.002 C 
ATOM      6  C   UNL     1     114.421 122.096 122.000  1.00  0.00    -0.020 C 
ATOM      7  C   UNL     1     114.039 123.284 121.111  1.00  0.00     0.016 C 
ATOM      8  C   UNL     1     115.181 124.251 121.382  1.00  0.00     0.023 C 
ATOM      9  C   UNL     1     115.306 124.235 122.935  1.00  0.00    -0.025 C 
ATOM     10  C   UNL     1     114.313 125.266 123.536  1.00  0.00     0.012 C 
ATOM     11  C   UNL     1     116.718 124.632 123.435  1.00  0.00     0.012 C 
ATOM     12  C   UNL     1     116.424 123.685 120.695  1.00  0.00    -0.045 C 
ATOM     13  C   UNL     1     117.308 124.521 120.128  1.00  0.00     0.011 C 
ATOM     14  C   UNL     1     116.746 122.190 120.810  1.00  0.00     0.140 C 
ATOM     15  C   UNL     1     115.539 121.305 121.253  1.00  0.00     0.044 C 
ENDROOT
BRANCH  14  16
ATOM     16  O   UNL     1     117.280 121.697 119.605  1.00  0.00    -0.389 OA
ATOM     17  H   UNL     1     118.270 121.709 119.693  1.00  0.00     0.211 HD
ENDBRANCH  14  16
TORSDOF 1
ENDMDL
MODEL 7
REMARK VINA RESULT:    -5.513     10.650     13.036
REMARK INTER + INTRA:          -5.674
REMARK INTER:                  -5.674
REMARK INTRA:                   0.000
REMARK UNBOUND:                 0.000
REMARK SMILES C=C1[C@H](O)C[C@]23C[C@H]1C(C)(C)[C@H]2CC[C@@H]3C
REMARK SMILES IDX 16 1 15 2 14 3 13 4 12 5 6 6 7 7 8 8 9 9 10 10 11 11 2 12
REMARK SMILES IDX 1 13 3 14 5 15 4 16
REMARK H PARENT 4 17
REMARK Flexibility Score: inf
ROOT
ATOM      1  C   UNL     1     124.842 122.081 112.608  1.00  0.00     0.008 C 
ATOM      2  C   UNL     1     124.396 120.647 112.289  1.00  0.00    -0.008 C 
ATOM      3  C   UNL     1     125.583 119.751 111.945  1.00  0.00     0.004 C 
ATOM      4  C   UNL     1     125.072 118.338 112.160  1.00  0.00     0.005 C 
ATOM      5  C   UNL     1     124.174 118.443 113.403  1.00  0.00     0.002 C 
ATOM      6  C   UNL     1     123.623 119.890 113.414  1.00  0.00    -0.020 C 
ATOM      7  C   UNL     1     122.128 119.734 113.115  1.00  0.00     0.016 C 
ATOM      8  C   UNL     1     121.786 118.481 113.903  1.00  0.00     0.023 C 
ATOM      9  C   UNL     1     122.933 117.494 113.529  1.00  0.00    -0.025 C 
ATOM     10  C   UNL     1     122.558 116.752 112.219  1.00  0.00     0.012 C 
ATOM     11  C   UNL     1     123.174 116.405 114.605  1.00  0.00     0.012 C 
ATOM     12  C   UNL     1     121.808 118.859 115.384  1.00  0.00    -0.045 C 
ATOM     13  C   UNL     1     120.922 118.303 116.225  1.00  0.00     0.011 C 
ATOM     14  C   UNL     1     122.946 119.728 115.934  1.00  0.00     0.140 C 
ATOM     15  C   UNL     1     123.742 120.509 114.841  1.00  0.00     0.044 C 
ENDROOT
BRANCH  14  16
ATOM     16  O   UNL     1     122.469 120.625 116.906  1.00  0.00    -0.389 OA
ATOM     17  H   UNL     1     122.604 121.544 116.554  1.00  0.00     0.211 HD
ENDBRANCH  14  16
TORSDOF 1
ENDMDL
MODEL 8
REMARK VINA RESULT:    -5.492      1.797      3.539
REMARK INTER + INTRA:          -5.653
REMARK INTER:                  -5.653
REMARK INTRA:                   0.000
REMARK UNBOUND:                 0.000
REMARK SMILES C=C1[C@H](O)C[C@]23C[C@H]1C(C)(C)[C@H]2CC[C@@H]3C
REMARK SMILES IDX 16 1 15 2 14 3 13 4 12 5 6 6 7 7 8 8 9 9 10 10 11 11 2 12
REMARK SMILES IDX 1 13 3 14 5 15 4 16
REMARK H PARENT 4 17
REMARK Flexibility Score: inf
ROOT
ATOM      1  C   UNL     1     116.133 123.994 119.758  1.00  0.00     0.008 C 
ATOM      2  C   UNL     1     116.221 123.310 121.130  1.00  0.00    -0.008 C 
ATOM      3  C   UNL     1     116.403 124.326 122.255  1.00  0.00     0.004 C 
ATOM      4  C   UNL     1     115.968 123.591 123.510  1.00  0.00     0.005 C 
ATOM      5  C   UNL     1     114.768 122.744 123.058  1.00  0.00     0.002 C 
ATOM      6  C   UNL     1     114.996 122.441 121.557  1.00  0.00    -0.020 C 
ATOM      7  C   UNL     1     115.281 120.936 121.507  1.00  0.00     0.016 C 
ATOM      8  C   UNL     1     114.304 120.404 122.543  1.00  0.00     0.023 C 
ATOM      9  C   UNL     1     114.503 121.365 123.754  1.00  0.00    -0.025 C 
ATOM     10  C   UNL     1     115.680 120.849 124.624  1.00  0.00     0.012 C 
ATOM     11  C   UNL     1     113.262 121.440 124.680  1.00  0.00     0.012 C 
ATOM     12  C   UNL     1     112.904 120.514 121.940  1.00  0.00    -0.045 C 
ATOM     13  C   UNL     1     111.993 119.562 122.198  1.00  0.00     0.011 C 
ATOM     14  C   UNL     1     112.490 121.790 121.196  1.00  0.00     0.140 C 
ATOM     15  C   UNL     1     113.686 122.686 120.745  1.00  0.00     0.044 C 
ENDROOT
BRANCH  14  16
ATOM     16  O   UNL     1     111.680 121.485 120.088  1.00  0.00    -0.389 OA
ATOM     17  H   UNL     1     111.385 120.542 120.187  1.00  0.00     0.211 HD
ENDBRANCH  14  16
TORSDOF 1
ENDMDL
MODEL 9
REMARK VINA RESULT:    -5.487      2.103      3.505
REMARK INTER + INTRA:          -5.647
REMARK INTER:                  -5.647
REMARK INTRA:                   0.000
REMARK UNBOUND:                 0.000
REMARK SMILES C=C1[C@H](O)C[C@]23C[C@H]1C(C)(C)[C@H]2CC[C@@H]3C
REMARK SMILES IDX 16 1 15 2 14 3 13 4 12 5 6 6 7 7 8 8 9 9 10 10 11 11 2 12
REMARK SMILES IDX 1 13 3 14 5 15 4 16
REMARK H PARENT 4 17
REMARK Flexibility Score: inf
ROOT
ATOM      1  C   UNL     1     119.239 122.441 121.314  1.00  0.00     0.008 C 
ATOM      2  C   UNL     1     117.910 123.208 121.377  1.00  0.00    -0.008 C 
ATOM      3  C   UNL     1     117.677 124.035 120.115  1.00  0.00     0.004 C 
ATOM      4  C   UNL     1     116.182 124.295 120.099  1.00  0.00     0.005 C 
ATOM      5  C   UNL     1     115.562 122.987 120.614  1.00  0.00     0.002 C 
ATOM      6  C   UNL     1     116.618 122.350 121.551  1.00  0.00    -0.020 C 
ATOM      7  C   UNL     1     116.007 122.462 122.951  1.00  0.00     0.016 C 
ATOM      8  C   UNL     1     114.543 122.163 122.673  1.00  0.00     0.023 C 
ATOM      9  C   UNL     1     114.224 123.046 121.429  1.00  0.00    -0.025 C 
ATOM     10  C   UNL     1     113.825 124.468 121.904  1.00  0.00     0.012 C 
ATOM     11  C   UNL     1     113.038 122.507 120.589  1.00  0.00     0.012 C 
ATOM     12  C   UNL     1     114.438 120.669 122.364  1.00  0.00    -0.045 C 
ATOM     13  C   UNL     1     113.364 119.979 122.779  1.00  0.00     0.011 C 
ATOM     14  C   UNL     1     115.464 120.007 121.437  1.00  0.00     0.140 C 
ATOM     15  C   UNL     1     116.777 120.829 121.240  1.00  0.00     0.044 C 
ENDROOT
BRANCH  14  16
ATOM     16  O   UNL     1     115.778 118.709 121.879  1.00  0.00    -0.389 OA
ATOM     17  H   UNL     1     116.652 118.759 122.348  1.00  0.00     0.211 HD
ENDBRANCH  14  16
TORSDOF 1
ENDMDL
