MODEL 1
REMARK VINA RESULT:    -2.345      0.000      0.000
REMARK INTER + INTRA:          -2.345
REMARK INTER:                  -2.345
REMARK INTRA:                   0.000
REMARK UNBOUND:                 0.000
REMARK SMILES CC1=CC(=O)[C@@H]2C[C@H]1C2(C)C
REMARK SMILES IDX 1 1 2 2 3 3 4 4 5 5 6 6 7 7 8 8 9 9 10 10 11 11
REMARK H PARENT
REMARK Flexibility Score: inf
ROOT
ATOM      1  C   UNL     1     120.955  84.675  54.733  1.00  0.00     0.040 C 
ATOM      2  C   UNL     1     121.140  85.247  56.103  1.00  0.00    -0.066 C 
ATOM      3  C   UNL     1     122.149  84.848  56.928  1.00  0.00     0.047 C 
ATOM      4  C   UNL     1     122.208  85.511  58.271  1.00  0.00     0.159 C 
ATOM      5  O   UNL     1     123.116  85.260  59.106  1.00  0.00    -0.295 OA
ATOM      6  C   UNL     1     121.089  86.514  58.555  1.00  0.00     0.067 C 
ATOM      7  C   UNL     1     119.807  85.790  58.089  1.00  0.00     0.021 C 
ATOM      8  C   UNL     1     120.149  86.286  56.666  1.00  0.00     0.022 C 
ATOM      9  C   UNL     1     120.940  87.453  57.324  1.00  0.00    -0.019 C 
ATOM     10  C   UNL     1     120.043  88.680  57.624  1.00  0.00     0.012 C 
ATOM     11  C   UNL     1     122.232  87.955  56.618  1.00  0.00     0.012 C 
ENDROOT
TORSDOF 0
ENDMDL
MODEL 2
REMARK VINA RESULT:    -2.289      1.390      3.014
REMARK INTER + INTRA:          -2.289
REMARK INTER:                  -2.289
REMARK INTRA:                   0.000
REMARK UNBOUND:                 0.000
REMARK SMILES CC1=CC(=O)[C@@H]2C[C@H]1C2(C)C
REMARK SMILES IDX 1 1 2 2 3 3 4 4 5 5 6 6 7 7 8 8 9 9 10 10 11 11
REMARK H PARENT
REMARK Flexibility Score: inf
ROOT
ATOM      1  C   UNL     1     119.554  87.609  58.962  1.00  0.00     0.040 C 
ATOM      2  C   UNL     1     120.631  87.166  58.023  1.00  0.00    -0.066 C 
ATOM      3  C   UNL     1     121.541  86.208  58.361  1.00  0.00     0.047 C 
ATOM      4  C   UNL     1     122.561  85.867  57.317  1.00  0.00     0.159 C 
ATOM      5  O   UNL     1     123.428  84.970  57.491  1.00  0.00    -0.295 OA
ATOM      6  C   UNL     1     122.475  86.682  56.026  1.00  0.00     0.067 C 
ATOM      7  C   UNL     1     122.301  88.138  56.511  1.00  0.00     0.021 C 
ATOM      8  C   UNL     1     120.793  87.823  56.637  1.00  0.00     0.022 C 
ATOM      9  C   UNL     1     120.992  86.718  55.560  1.00  0.00    -0.019 C 
ATOM     10  C   UNL     1     120.840  87.265  54.118  1.00  0.00     0.012 C 
ATOM     11  C   UNL     1     120.149  85.416  55.679  1.00  0.00     0.012 C 
ENDROOT
TORSDOF 0
ENDMDL
MODEL 3
REMARK VINA RESULT:    -2.284      1.865      3.074
REMARK INTER + INTRA:          -2.284
REMARK INTER:                  -2.284
REMARK INTRA:                   0.000
REMARK UNBOUND:                 0.000
REMARK SMILES CC1=CC(=O)[C@@H]2C[C@H]1C2(C)C
REMARK SMILES IDX 1 1 2 2 3 3 4 4 5 5 6 6 7 7 8 8 9 9 10 10 11 11
REMARK H PARENT
REMARK Flexibility Score: inf
ROOT
ATOM      1  C   UNL     1     122.479  85.400  58.987  1.00  0.00     0.040 C 
ATOM      2  C   UNL     1     122.018  86.027  57.709  1.00  0.00    -0.066 C 
ATOM      3  C   UNL     1     121.944  85.328  56.541  1.00  0.00     0.047 C 
ATOM      4  C   UNL     1     121.462  86.089  55.343  1.00  0.00     0.159 C 
ATOM      5  O   UNL     1     121.310  85.546  54.217  1.00  0.00    -0.295 OA
ATOM      6  C   UNL     1     121.170  87.571  55.583  1.00  0.00     0.067 C 
ATOM      7  C   UNL     1     122.384  88.067  56.397  1.00  0.00     0.021 C 
ATOM      8  C   UNL     1     121.656  87.526  57.648  1.00  0.00     0.022 C 
ATOM      9  C   UNL     1     120.317  87.704  56.876  1.00  0.00    -0.019 C 
ATOM     10  C   UNL     1     119.723  89.125  57.047  1.00  0.00     0.012 C 
ATOM     11  C   UNL     1     119.183  86.669  57.123  1.00  0.00     0.012 C 
ENDROOT
TORSDOF 0
ENDMDL
MODEL 4
REMARK VINA RESULT:    -2.279     11.751     12.866
REMARK INTER + INTRA:          -2.279
REMARK INTER:                  -2.279
REMARK INTRA:                   0.000
REMARK UNBOUND:                 0.000
REMARK SMILES CC1=CC(=O)[C@@H]2C[C@H]1C2(C)C
REMARK SMILES IDX 1 1 2 2 3 3 4 4 5 5 6 6 7 7 8 8 9 9 10 10 11 11
REMARK H PARENT
REMARK Flexibility Score: inf
ROOT
ATOM      1  C   UNL     1     107.119  88.499  55.406  1.00  0.00     0.040 C 
ATOM      2  C   UNL     1     107.713  87.346  56.151  1.00  0.00    -0.066 C 
ATOM      3  C   UNL     1     107.642  86.066  55.687  1.00  0.00     0.047 C 
ATOM      4  C   UNL     1     108.285  85.016  56.542  1.00  0.00     0.159 C 
ATOM      5  O   UNL     1     108.323  83.804  56.203  1.00  0.00    -0.295 OA
ATOM      6  C   UNL     1     108.890  85.518  57.853  1.00  0.00     0.067 C 
ATOM      7  C   UNL     1     107.806  86.453  58.434  1.00  0.00     0.021 C 
ATOM      8  C   UNL     1     108.392  87.554  57.521  1.00  0.00     0.022 C 
ATOM      9  C   UNL     1     109.742  86.783  57.552  1.00  0.00    -0.019 C 
ATOM     10  C   UNL     1     110.629  87.196  58.754  1.00  0.00     0.012 C 
ATOM     11  C   UNL     1     110.624  86.792  56.271  1.00  0.00     0.012 C 
ENDROOT
TORSDOF 0
ENDMDL
MODEL 5
REMARK VINA RESULT:    -2.234     10.938     12.209
REMARK INTER + INTRA:          -2.234
REMARK INTER:                  -2.234
REMARK INTRA:                   0.000
REMARK UNBOUND:                 0.000
REMARK SMILES CC1=CC(=O)[C@@H]2C[C@H]1C2(C)C
REMARK SMILES IDX 1 1 2 2 3 3 4 4 5 5 6 6 7 7 8 8 9 9 10 10 11 11
REMARK H PARENT
REMARK Flexibility Score: inf
ROOT
ATOM      1  C   UNL     1     109.274  89.125  55.772  1.00  0.00     0.040 C 
ATOM      2  C   UNL     1     109.213  87.970  56.721  1.00  0.00    -0.066 C 
ATOM      3  C   UNL     1     108.037  87.377  57.070  1.00  0.00     0.047 C 
ATOM      4  C   UNL     1     108.133  86.230  58.030  1.00  0.00     0.159 C 
ATOM      5  O   UNL     1     107.124  85.572  58.396  1.00  0.00    -0.295 OA
ATOM      6  C   UNL     1     109.542  85.914  58.533  1.00  0.00     0.067 C 
ATOM      7  C   UNL     1     110.132  87.295  58.893  1.00  0.00     0.021 C 
ATOM      8  C   UNL     1     110.492  87.433  57.396  1.00  0.00     0.022 C 
ATOM      9  C   UNL     1     110.507  85.880  57.314  1.00  0.00    -0.019 C 
ATOM     10  C   UNL     1     111.891  85.284  57.675  1.00  0.00     0.012 C 
ATOM     11  C   UNL     1     110.015  85.208  56.001  1.00  0.00     0.012 C 
ENDROOT
TORSDOF 0
ENDMDL
MODEL 6
REMARK VINA RESULT:    -2.220      1.499      3.286
REMARK INTER + INTRA:          -2.220
REMARK INTER:                  -2.220
REMARK INTRA:                   0.000
REMARK UNBOUND:                 0.000
REMARK SMILES CC1=CC(=O)[C@@H]2C[C@H]1C2(C)C
REMARK SMILES IDX 1 1 2 2 3 3 4 4 5 5 6 6 7 7 8 8 9 9 10 10 11 11
REMARK H PARENT
REMARK Flexibility Score: inf
ROOT
ATOM      1  C   UNL     1     120.195  88.415  57.877  1.00  0.00     0.040 C 
ATOM      2  C   UNL     1     121.051  87.298  57.371  1.00  0.00    -0.066 C 
ATOM      3  C   UNL     1     122.233  87.521  56.729  1.00  0.00     0.047 C 
ATOM      4  C   UNL     1     122.983  86.303  56.280  1.00  0.00     0.159 C 
ATOM      5  O   UNL     1     124.105  86.374  55.714  1.00  0.00    -0.295 OA
ATOM      6  C   UNL     1     122.289  84.968  56.556  1.00  0.00     0.067 C 
ATOM      7  C   UNL     1     120.829  85.204  56.113  1.00  0.00     0.021 C 
ATOM      8  C   UNL     1     120.599  85.829  57.507  1.00  0.00     0.022 C 
ATOM      9  C   UNL     1     121.785  84.968  58.027  1.00  0.00    -0.019 C 
ATOM     10  C   UNL     1     121.332  83.561  58.495  1.00  0.00     0.012 C 
ATOM     11  C   UNL     1     122.707  85.572  59.124  1.00  0.00     0.012 C 
ENDROOT
TORSDOF 0
ENDMDL
MODEL 7
REMARK VINA RESULT:    -2.215     11.871     12.973
REMARK INTER + INTRA:          -2.215
REMARK INTER:                  -2.215
REMARK INTRA:                   0.000
REMARK UNBOUND:                 0.000
REMARK SMILES CC1=CC(=O)[C@@H]2C[C@H]1C2(C)C
REMARK SMILES IDX 1 1 2 2 3 3 4 4 5 5 6 6 7 7 8 8 9 9 10 10 11 11
REMARK H PARENT
REMARK Flexibility Score: inf
ROOT
ATOM      1  C   UNL     1     109.095  85.378  54.504  1.00  0.00     0.040 C 
ATOM      2  C   UNL     1     108.597  85.613  55.895  1.00  0.00    -0.066 C 
ATOM      3  C   UNL     1     107.573  84.891  56.432  1.00  0.00     0.047 C 
ATOM      4  C   UNL     1     107.184  85.238  57.838  1.00  0.00     0.159 C 
ATOM      5  O   UNL     1     106.283  84.616  58.459  1.00  0.00    -0.295 OA
ATOM      6  C   UNL     1     107.958  86.398  58.464  1.00  0.00     0.067 C 
ATOM      7  C   UNL     1     107.974  87.479  57.361  1.00  0.00     0.021 C 
ATOM      8  C   UNL     1     109.193  86.734  56.771  1.00  0.00     0.022 C 
ATOM      9  C   UNL     1     109.475  86.182  58.198  1.00  0.00    -0.019 C 
ATOM     10  C   UNL     1     110.362  87.138  59.035  1.00  0.00     0.012 C 
ATOM     11  C   UNL     1     110.050  84.743  58.329  1.00  0.00     0.012 C 
ENDROOT
TORSDOF 0
ENDMDL
MODEL 8
REMARK VINA RESULT:    -2.204      2.092      3.346
REMARK INTER + INTRA:          -2.204
REMARK INTER:                  -2.204
REMARK INTRA:                   0.000
REMARK UNBOUND:                 0.000
REMARK SMILES CC1=CC(=O)[C@@H]2C[C@H]1C2(C)C
REMARK SMILES IDX 1 1 2 2 3 3 4 4 5 5 6 6 7 7 8 8 9 9 10 10 11 11
REMARK H PARENT
REMARK Flexibility Score: inf
ROOT
ATOM      1  C   UNL     1     122.100  88.833  54.795  1.00  0.00     0.040 C 
ATOM      2  C   UNL     1     121.261  87.987  55.698  1.00  0.00    -0.066 C 
ATOM      3  C   UNL     1     120.066  87.463  55.302  1.00  0.00     0.047 C 
ATOM      4  C   UNL     1     119.338  86.634  56.317  1.00  0.00     0.159 C 
ATOM      5  O   UNL     1     118.247  86.061  56.059  1.00  0.00    -0.295 OA
ATOM      6  C   UNL     1     120.012  86.532  57.685  1.00  0.00     0.067 C 
ATOM      7  C   UNL     1     120.432  87.983  58.007  1.00  0.00     0.021 C 
ATOM      8  C   UNL     1     121.692  87.715  57.154  1.00  0.00     0.022 C 
ATOM      9  C   UNL     1     121.517  86.202  57.472  1.00  0.00    -0.019 C 
ATOM     10  C   UNL     1     122.223  85.790  58.789  1.00  0.00     0.012 C 
ATOM     11  C   UNL     1     121.899  85.171  56.372  1.00  0.00     0.012 C 
ENDROOT
TORSDOF 0
ENDMDL
MODEL 9
REMARK VINA RESULT:    -2.196     10.253     11.461
REMARK INTER + INTRA:          -2.196
REMARK INTER:                  -2.196
REMARK INTRA:                   0.000
REMARK UNBOUND:                 0.000
REMARK SMILES CC1=CC(=O)[C@@H]2C[C@H]1C2(C)C
REMARK SMILES IDX 1 1 2 2 3 3 4 4 5 5 6 6 7 7 8 8 9 9 10 10 11 11
REMARK H PARENT
REMARK Flexibility Score: inf
ROOT
ATOM      1  C   UNL     1     107.877  86.516  58.364  1.00  0.00     0.040 C 
ATOM      2  C   UNL     1     109.105  87.102  57.742  1.00  0.00    -0.066 C 
ATOM      3  C   UNL     1     110.312  87.102  58.374  1.00  0.00     0.047 C 
ATOM      4  C   UNL     1     111.452  87.724  57.625  1.00  0.00     0.159 C 
ATOM      5  O   UNL     1     112.624  87.748  58.083  1.00  0.00    -0.295 OA
ATOM      6  C   UNL     1     111.092  88.326  56.267  1.00  0.00     0.067 C 
ATOM      7  C   UNL     1     109.798  89.125  56.540  1.00  0.00     0.021 C 
ATOM      8  C   UNL     1     109.041  87.790  56.362  1.00  0.00     0.022 C 
ATOM      9  C   UNL     1     110.226  87.299  55.483  1.00  0.00    -0.019 C 
ATOM     10  C   UNL     1     110.056  87.686  53.992  1.00  0.00     0.012 C 
ATOM     11  C   UNL     1     110.621  85.796  55.554  1.00  0.00     0.012 C 
ENDROOT
TORSDOF 0
ENDMDL
