MODEL 1
REMARK VINA RESULT:    -4.499      0.000      0.000
REMARK INTER + INTRA:          -6.026
REMARK INTER:                  -5.814
REMARK INTRA:                  -0.212
REMARK UNBOUND:                -0.212
REMARK SMILES C=CC(=O)CCCCC
REMARK SMILES IDX 6 1 7 2 8 3 9 4 5 5 3 6 4 7 2 8 1 9
REMARK H PARENT
REMARK Flexibility Score: inf
ROOT
ATOM      1  C   UNL     1     -14.394 -32.002  28.576  1.00  0.00     0.008 C 
ENDROOT
BRANCH   1   2
ATOM      2  C   UNL     1     -14.817 -31.547  29.978  1.00  0.00     0.000 C 
BRANCH   2   3
ATOM      3  C   UNL     1     -14.348 -32.543  31.044  1.00  0.00    -0.003 C 
ATOM      4  C   UNL     1     -14.862 -32.153  32.428  1.00  0.00     0.004 C 
ENDBRANCH   2   3
ENDBRANCH   1   2
BRANCH   1   5
ATOM      5  C   UNL     1     -13.004 -32.654  28.604  1.00  0.00     0.080 C 
BRANCH   5   6
ATOM      6  C   UNL     1     -12.950 -33.963  27.850  1.00  0.00     0.155 C 
ATOM      7  O   UNL     1     -13.959 -34.719  27.822  1.00  0.00    -0.295 OA
BRANCH   6   8
ATOM      8  C   UNL     1     -11.735 -34.399  27.132  1.00  0.00     0.039 C 
ATOM      9  C   UNL     1     -11.551 -34.229  25.823  1.00  0.00     0.012 C 
ENDBRANCH   6   8
ENDBRANCH   5   6
ENDBRANCH   1   5
TORSDOF 5
ENDMDL
MODEL 2
REMARK VINA RESULT:    -4.487      1.403      1.938
REMARK INTER + INTRA:          -6.011
REMARK INTER:                  -5.744
REMARK INTRA:                  -0.268
REMARK UNBOUND:                -0.212
REMARK SMILES C=CC(=O)CCCCC
REMARK SMILES IDX 6 1 7 2 8 3 9 4 5 5 3 6 4 7 2 8 1 9
REMARK H PARENT
REMARK Flexibility Score: inf
ROOT
ATOM      1  C   UNL     1     -14.360 -32.446  27.533  1.00  0.00     0.008 C 
ENDROOT
BRANCH   1   2
ATOM      2  C   UNL     1     -14.048 -32.147  29.004  1.00  0.00     0.000 C 
BRANCH   2   3
ATOM      3  C   UNL     1     -15.132 -31.260  29.627  1.00  0.00    -0.003 C 
ATOM      4  C   UNL     1     -15.494 -30.099  28.703  1.00  0.00     0.004 C 
ENDBRANCH   2   3
ENDBRANCH   1   2
BRANCH   1   5
ATOM      5  C   UNL     1     -14.327 -33.956  27.258  1.00  0.00     0.080 C 
BRANCH   5   6
ATOM      6  C   UNL     1     -13.015 -34.599  27.643  1.00  0.00     0.155 C 
ATOM      7  O   UNL     1     -12.990 -35.516  28.509  1.00  0.00    -0.295 OA
BRANCH   6   8
ATOM      8  C   UNL     1     -11.735 -34.185  27.034  1.00  0.00     0.039 C 
ATOM      9  C   UNL     1     -11.430 -34.388  25.752  1.00  0.00     0.012 C 
ENDBRANCH   6   8
ENDBRANCH   5   6
ENDBRANCH   1   5
TORSDOF 5
ENDMDL
MODEL 3
REMARK VINA RESULT:    -4.451      1.573      5.065
REMARK INTER + INTRA:          -5.964
REMARK INTER:                  -5.854
REMARK INTRA:                  -0.110
REMARK UNBOUND:                -0.212
REMARK SMILES C=CC(=O)CCCCC
REMARK SMILES IDX 6 1 7 2 8 3 9 4 5 5 3 6 4 7 2 8 1 9
REMARK H PARENT
REMARK Flexibility Score: inf
ROOT
ATOM      1  C   UNL     1     -13.567 -32.635  28.101  1.00  0.00     0.008 C 
ENDROOT
BRANCH   1   2
ATOM      2  C   UNL     1     -13.522 -33.741  27.039  1.00  0.00     0.000 C 
BRANCH   2   3
ATOM      3  C   UNL     1     -12.198 -34.512  27.103  1.00  0.00    -0.003 C 
ATOM      4  C   UNL     1     -11.415 -34.372  25.800  1.00  0.00     0.004 C 
ENDBRANCH   2   3
ENDBRANCH   1   2
BRANCH   1   5
ATOM      5  C   UNL     1     -13.558 -33.230  29.517  1.00  0.00     0.080 C 
BRANCH   5   6
ATOM      6  C   UNL     1     -14.364 -32.418  30.504  1.00  0.00     0.155 C 
ATOM      7  O   UNL     1     -15.017 -31.413  30.113  1.00  0.00    -0.295 OA
BRANCH   6   8
ATOM      8  C   UNL     1     -14.416 -32.764  31.940  1.00  0.00     0.039 C 
ATOM      9  C   UNL     1     -15.035 -32.019  32.855  1.00  0.00     0.012 C 
ENDBRANCH   6   8
ENDBRANCH   5   6
ENDBRANCH   1   5
TORSDOF 5
ENDMDL
MODEL 4
REMARK VINA RESULT:    -4.450      1.894      4.772
REMARK INTER + INTRA:          -5.962
REMARK INTER:                  -5.767
REMARK INTRA:                  -0.195
REMARK UNBOUND:                -0.212
REMARK SMILES C=CC(=O)CCCCC
REMARK SMILES IDX 6 1 7 2 8 3 9 4 5 5 3 6 4 7 2 8 1 9
REMARK H PARENT
REMARK Flexibility Score: inf
ROOT
ATOM      1  C   UNL     1     -12.007 -33.101  29.160  1.00  0.00     0.008 C 
ENDROOT
BRANCH   1   2
ATOM      2  C   UNL     1     -11.142 -33.973  28.241  1.00  0.00     0.000 C 
BRANCH   2   3
ATOM      3  C   UNL     1     -11.992 -34.633  27.150  1.00  0.00    -0.003 C 
ATOM      4  C   UNL     1     -11.410 -34.371  25.763  1.00  0.00     0.004 C 
ENDBRANCH   2   3
ENDBRANCH   1   2
BRANCH   1   5
ATOM      5  C   UNL     1     -13.498 -33.262  28.830  1.00  0.00     0.080 C 
BRANCH   5   6
ATOM      6  C   UNL     1     -14.343 -32.115  29.334  1.00  0.00     0.155 C 
ATOM      7  O   UNL     1     -14.624 -32.027  30.560  1.00  0.00    -0.295 OA
BRANCH   6   8
ATOM      8  C   UNL     1     -14.863 -31.072  28.426  1.00  0.00     0.039 C 
ATOM      9  C   UNL     1     -15.629 -30.058  28.830  1.00  0.00     0.012 C 
ENDBRANCH   6   8
ENDBRANCH   5   6
ENDBRANCH   1   5
TORSDOF 5
ENDMDL
MODEL 5
REMARK VINA RESULT:    -4.391      1.965      3.222
REMARK INTER + INTRA:          -5.886
REMARK INTER:                  -5.491
REMARK INTRA:                  -0.395
REMARK UNBOUND:                -0.212
REMARK SMILES C=CC(=O)CCCCC
REMARK SMILES IDX 6 1 7 2 8 3 9 4 5 5 3 6 4 7 2 8 1 9
REMARK H PARENT
REMARK Flexibility Score: inf
ROOT
ATOM      1  C   UNL     1     -13.944 -33.605  30.001  1.00  0.00     0.008 C 
ENDROOT
BRANCH   1   2
ATOM      2  C   UNL     1     -13.112 -33.363  31.266  1.00  0.00     0.000 C 
BRANCH   2   3
ATOM      3  C   UNL     1     -14.011 -33.253  32.503  1.00  0.00    -0.003 C 
ATOM      4  C   UNL     1     -14.895 -32.011  32.434  1.00  0.00     0.004 C 
ENDBRANCH   2   3
ENDBRANCH   1   2
BRANCH   1   5
ATOM      5  C   UNL     1     -13.314 -32.910  28.785  1.00  0.00     0.080 C 
BRANCH   5   6
ATOM      6  C   UNL     1     -14.314 -32.122  27.971  1.00  0.00     0.155 C 
ATOM      7  O   UNL     1     -14.805 -32.618  26.919  1.00  0.00    -0.295 OA
BRANCH   6   8
ATOM      8  C   UNL     1     -14.747 -30.766  28.367  1.00  0.00     0.039 C 
ATOM      9  C   UNL     1     -15.813 -30.527  29.131  1.00  0.00     0.012 C 
ENDBRANCH   6   8
ENDBRANCH   5   6
ENDBRANCH   1   5
TORSDOF 5
ENDMDL
MODEL 6
REMARK VINA RESULT:    -4.330      2.740      4.056
REMARK INTER + INTRA:          -5.807
REMARK INTER:                  -5.527
REMARK INTRA:                  -0.281
REMARK UNBOUND:                -0.212
REMARK SMILES C=CC(=O)CCCCC
REMARK SMILES IDX 6 1 7 2 8 3 9 4 5 5 3 6 4 7 2 8 1 9
REMARK H PARENT
REMARK Flexibility Score: inf
ROOT
ATOM      1  C   UNL     1     -14.350 -32.458  30.843  1.00  0.00     0.008 C 
ENDROOT
BRANCH   1   2
ATOM      2  C   UNL     1     -13.953 -32.987  29.460  1.00  0.00     0.000 C 
BRANCH   2   3
ATOM      3  C   UNL     1     -14.024 -31.878  28.405  1.00  0.00    -0.003 C 
ATOM      4  C   UNL     1     -15.104 -30.856  28.751  1.00  0.00     0.004 C 
ENDBRANCH   2   3
ENDBRANCH   1   2
BRANCH   1   5
ATOM      5  C   UNL     1     -14.165 -33.537  31.921  1.00  0.00     0.080 C 
BRANCH   5   6
ATOM      6  C   UNL     1     -12.782 -34.144  31.918  1.00  0.00     0.155 C 
ATOM      7  O   UNL     1     -11.785 -33.449  32.257  1.00  0.00    -0.295 OA
BRANCH   6   8
ATOM      8  C   UNL     1     -12.547 -35.548  31.525  1.00  0.00     0.039 C 
ATOM      9  C   UNL     1     -13.522 -36.448  31.391  1.00  0.00     0.012 C 
ENDBRANCH   6   8
ENDBRANCH   5   6
ENDBRANCH   1   5
TORSDOF 5
ENDMDL
MODEL 7
REMARK VINA RESULT:    -4.327      2.451      3.730
REMARK INTER + INTRA:          -5.804
REMARK INTER:                  -5.391
REMARK INTRA:                  -0.413
REMARK UNBOUND:                -0.212
REMARK SMILES C=CC(=O)CCCCC
REMARK SMILES IDX 6 1 7 2 8 3 9 4 5 5 3 6 4 7 2 8 1 9
REMARK H PARENT
REMARK Flexibility Score: inf
ROOT
ATOM      1  C   UNL     1     -12.970 -34.687  27.760  1.00  0.00     0.008 C 
ENDROOT
BRANCH   1   2
ATOM      2  C   UNL     1     -12.600 -33.380  28.472  1.00  0.00     0.000 C 
BRANCH   2   3
ATOM      3  C   UNL     1     -13.823 -32.763  29.159  1.00  0.00    -0.003 C 
ATOM      4  C   UNL     1     -14.371 -31.585  28.357  1.00  0.00     0.004 C 
ENDBRANCH   2   3
ENDBRANCH   1   2
BRANCH   1   5
ATOM      5  C   UNL     1     -14.260 -35.284  28.339  1.00  0.00     0.080 C 
BRANCH   5   6
ATOM      6  C   UNL     1     -14.091 -36.709  28.815  1.00  0.00     0.155 C 
ATOM      7  O   UNL     1     -14.454 -37.668  28.081  1.00  0.00    -0.295 OA
BRANCH   6   8
ATOM      8  C   UNL     1     -13.506 -37.025  30.134  1.00  0.00     0.039 C 
ATOM      9  C   UNL     1     -13.638 -36.243  31.205  1.00  0.00     0.012 C 
ENDBRANCH   6   8
ENDBRANCH   5   6
ENDBRANCH   1   5
TORSDOF 5
ENDMDL
MODEL 8
REMARK VINA RESULT:    -4.323      3.161      4.016
REMARK INTER + INTRA:          -5.799
REMARK INTER:                  -5.316
REMARK INTRA:                  -0.483
REMARK UNBOUND:                -0.212
REMARK SMILES C=CC(=O)CCCCC
REMARK SMILES IDX 6 1 7 2 8 3 9 4 5 5 3 6 4 7 2 8 1 9
REMARK H PARENT
REMARK Flexibility Score: inf
ROOT
ATOM      1  C   UNL     1     -12.946 -34.573  31.009  1.00  0.00     0.008 C 
ENDROOT
BRANCH   1   2
ATOM      2  C   UNL     1     -13.978 -33.473  30.730  1.00  0.00     0.000 C 
BRANCH   2   3
ATOM      3  C   UNL     1     -13.862 -32.962  29.290  1.00  0.00    -0.003 C 
ATOM      4  C   UNL     1     -12.492 -33.286  28.698  1.00  0.00     0.004 C 
ENDBRANCH   2   3
ENDBRANCH   1   2
BRANCH   1   5
ATOM      5  C   UNL     1     -13.634 -35.881  31.429  1.00  0.00     0.080 C 
BRANCH   5   6
ATOM      6  C   UNL     1     -13.098 -37.091  30.700  1.00  0.00     0.155 C 
ATOM      7  O   UNL     1     -12.519 -38.011  31.340  1.00  0.00    -0.295 OA
BRANCH   6   8
ATOM      8  C   UNL     1     -13.229 -37.241  29.236  1.00  0.00     0.039 C 
ATOM      9  C   UNL     1     -14.394 -37.184  28.590  1.00  0.00     0.012 C 
ENDBRANCH   6   8
ENDBRANCH   5   6
ENDBRANCH   1   5
TORSDOF 5
ENDMDL
MODEL 9
REMARK VINA RESULT:    -4.235      2.821      4.264
REMARK INTER + INTRA:          -5.685
REMARK INTER:                  -5.225
REMARK INTRA:                  -0.459
REMARK UNBOUND:                -0.212
REMARK SMILES C=CC(=O)CCCCC
REMARK SMILES IDX 6 1 7 2 8 3 9 4 5 5 3 6 4 7 2 8 1 9
REMARK H PARENT
REMARK Flexibility Score: inf
ROOT
ATOM      1  C   UNL     1     -12.961 -35.060  31.193  1.00  0.00     0.008 C 
ENDROOT
BRANCH   1   2
ATOM      2  C   UNL     1     -13.622 -36.443  31.240  1.00  0.00     0.000 C 
BRANCH   2   3
ATOM      3  C   UNL     1     -13.294 -37.253  29.981  1.00  0.00    -0.003 C 
ATOM      4  C   UNL     1     -14.135 -36.791  28.793  1.00  0.00     0.004 C 
ENDBRANCH   2   3
ENDBRANCH   1   2
BRANCH   1   5
ATOM      5  C   UNL     1     -13.967 -33.955  31.546  1.00  0.00     0.080 C 
BRANCH   5   6
ATOM      6  C   UNL     1     -14.059 -32.879  30.489  1.00  0.00     0.155 C 
ATOM      7  O   UNL     1     -14.774 -31.858  30.686  1.00  0.00    -0.295 OA
BRANCH   6   8
ATOM      8  C   UNL     1     -13.328 -32.979  29.209  1.00  0.00     0.039 C 
ATOM      9  C   UNL     1     -13.922 -32.928  28.017  1.00  0.00     0.012 C 
ENDBRANCH   6   8
ENDBRANCH   5   6
ENDBRANCH   1   5
TORSDOF 5
ENDMDL
