MODEL 1
REMARK VINA RESULT:    -4.357      0.000      0.000
REMARK INTER + INTRA:          -5.496
REMARK INTER:                  -5.376
REMARK INTRA:                  -0.120
REMARK UNBOUND:                -0.120
REMARK SMILES CCCCCC(=O)[O-]
REMARK SMILES IDX 4 1 5 2 6 3 7 4 8 5 3 6 2 7 1 8
REMARK H PARENT
REMARK Flexibility Score: inf
ROOT
ATOM      1  C   UNL     1     -13.921   2.360  -9.339  1.00  0.00     0.006 C 
ENDROOT
BRANCH   1   2
ATOM      2  C   UNL     1     -12.476   2.849  -9.506  1.00  0.00     0.053 C 
BRANCH   2   3
ATOM      3  C   UNL     1     -12.099   3.841  -8.448  1.00  0.00     0.041 C 
ATOM      4  O   UNL     1     -12.948   4.671  -8.029  1.00  0.00    -0.550 OA
ATOM      5  O   UNL     1     -10.803   3.870  -7.951  1.00  0.00    -0.550 OA
ENDBRANCH   2   3
ENDBRANCH   1   2
BRANCH   1   6
ATOM      6  C   UNL     1     -14.089   0.891  -9.756  1.00  0.00     0.000 C 
BRANCH   6   7
ATOM      7  C   UNL     1     -12.727   0.234 -10.007  1.00  0.00    -0.003 C 
ATOM      8  C   UNL     1     -12.859  -0.975 -10.930  1.00  0.00     0.004 C 
ENDBRANCH   6   7
ENDBRANCH   1   6
TORSDOF 4
ENDMDL
MODEL 2
REMARK VINA RESULT:    -3.985      3.012      4.477
REMARK INTER + INTRA:          -5.037
REMARK INTER:                  -4.912
REMARK INTRA:                  -0.125
REMARK UNBOUND:                -0.120
REMARK SMILES CCCCCC(=O)[O-]
REMARK SMILES IDX 4 1 5 2 6 3 7 4 8 5 3 6 2 7 1 8
REMARK H PARENT
REMARK Flexibility Score: inf
ROOT
ATOM      1  C   UNL     1     -14.137   0.888  -9.325  1.00  0.00     0.006 C 
ENDROOT
BRANCH   1   2
ATOM      2  C   UNL     1     -13.964  -0.005 -10.561  1.00  0.00     0.053 C 
BRANCH   2   3
ATOM      3  C   UNL     1     -12.678  -0.771 -10.519  1.00  0.00     0.041 C 
ATOM      4  O   UNL     1     -11.577  -0.159 -10.516  1.00  0.00    -0.550 OA
ATOM      5  O   UNL     1     -12.693  -2.160 -10.518  1.00  0.00    -0.550 OA
ENDBRANCH   2   3
ENDBRANCH   1   2
BRANCH   1   6
ATOM      6  C   UNL     1     -14.000   2.380  -9.662  1.00  0.00     0.000 C 
BRANCH   6   7
ATOM      7  C   UNL     1     -12.616   2.907  -9.265  1.00  0.00    -0.003 C 
ATOM      8  C   UNL     1     -12.727   4.205  -8.470  1.00  0.00     0.004 C 
ENDBRANCH   6   7
ENDBRANCH   1   6
TORSDOF 4
ENDMDL
MODEL 3
REMARK VINA RESULT:    -3.966      4.054      4.956
REMARK INTER + INTRA:          -5.013
REMARK INTER:                  -4.851
REMARK INTRA:                  -0.162
REMARK UNBOUND:                -0.120
REMARK SMILES CCCCCC(=O)[O-]
REMARK SMILES IDX 4 1 5 2 6 3 7 4 8 5 3 6 2 7 1 8
REMARK H PARENT
REMARK Flexibility Score: inf
ROOT
ATOM      1  C   UNL     1     -11.723  -0.252 -10.377  1.00  0.00     0.006 C 
ENDROOT
BRANCH   1   2
ATOM      2  C   UNL     1     -10.557  -0.881  -9.601  1.00  0.00     0.053 C 
BRANCH   2   3
ATOM      3  C   UNL     1     -10.628  -2.377  -9.606  1.00  0.00     0.041 C 
ATOM      4  O   UNL     1     -11.740  -2.958  -9.718  1.00  0.00    -0.550 OA
ATOM      5  O   UNL     1      -9.471  -3.130  -9.453  1.00  0.00    -0.550 OA
ENDBRANCH   2   3
ENDBRANCH   1   2
BRANCH   1   6
ATOM      6  C   UNL     1     -12.296   0.982  -9.665  1.00  0.00     0.000 C 
BRANCH   6   7
ATOM      7  C   UNL     1     -13.828   0.974  -9.702  1.00  0.00    -0.003 C 
ATOM      8  C   UNL     1     -14.364  -0.402 -10.088  1.00  0.00     0.004 C 
ENDBRANCH   6   7
ENDBRANCH   1   6
TORSDOF 4
ENDMDL
MODEL 4
REMARK VINA RESULT:    -3.792      4.242      5.629
REMARK INTER + INTRA:          -4.799
REMARK INTER:                  -4.740
REMARK INTRA:                  -0.059
REMARK UNBOUND:                -0.120
REMARK SMILES CCCCCC(=O)[O-]
REMARK SMILES IDX 4 1 5 2 6 3 7 4 8 5 3 6 2 7 1 8
REMARK H PARENT
REMARK Flexibility Score: inf
ROOT
ATOM      1  C   UNL     1     -10.655  -0.943  -9.693  1.00  0.00     0.006 C 
ENDROOT
BRANCH   1   2
ATOM      2  C   UNL     1     -10.795  -2.469  -9.607  1.00  0.00     0.053 C 
BRANCH   2   3
ATOM      3  C   UNL     1      -9.833  -3.062  -8.623  1.00  0.00     0.041 C 
ATOM      4  O   UNL     1      -9.226  -4.130  -8.897  1.00  0.00    -0.550 OA
ATOM      5  O   UNL     1      -9.633  -2.453  -7.391  1.00  0.00    -0.550 OA
ENDBRANCH   2   3
ENDBRANCH   1   2
BRANCH   1   6
ATOM      6  C   UNL     1     -11.826  -0.293 -10.443  1.00  0.00     0.000 C 
BRANCH   6   7
ATOM      7  C   UNL     1     -12.351   0.932  -9.685  1.00  0.00    -0.003 C 
ATOM      8  C   UNL     1     -13.876   0.982  -9.704  1.00  0.00     0.004 C 
ENDBRANCH   6   7
ENDBRANCH   1   6
TORSDOF 4
ENDMDL
MODEL 5
REMARK VINA RESULT:    -3.623      2.914      4.392
REMARK INTER + INTRA:          -4.590
REMARK INTER:                  -4.519
REMARK INTRA:                  -0.071
REMARK UNBOUND:                -0.120
REMARK SMILES CCCCCC(=O)[O-]
REMARK SMILES IDX 4 1 5 2 6 3 7 4 8 5 3 6 2 7 1 8
REMARK H PARENT
REMARK Flexibility Score: inf
ROOT
ATOM      1  C   UNL     1     -12.999   2.393  -9.372  1.00  0.00     0.006 C 
ENDROOT
BRANCH   1   2
ATOM      2  C   UNL     1     -14.311   1.630  -9.600  1.00  0.00     0.053 C 
BRANCH   2   3
ATOM      3  C   UNL     1     -14.069   0.180  -9.886  1.00  0.00     0.041 C 
ATOM      4  O   UNL     1     -14.915  -0.684  -9.536  1.00  0.00    -0.550 OA
ATOM      5  O   UNL     1     -12.894  -0.220 -10.510  1.00  0.00    -0.550 OA
ENDBRANCH   2   3
ENDBRANCH   1   2
BRANCH   1   6
ATOM      6  C   UNL     1     -13.240   3.854  -8.964  1.00  0.00     0.000 C 
BRANCH   6   7
ATOM      7  C   UNL     1     -12.299   4.267  -7.825  1.00  0.00    -0.003 C 
ATOM      8  C   UNL     1     -10.855   3.883  -8.136  1.00  0.00     0.004 C 
ENDBRANCH   6   7
ENDBRANCH   1   6
TORSDOF 4
ENDMDL
MODEL 6
REMARK VINA RESULT:    -3.604      7.958      9.128
REMARK INTER + INTRA:          -4.566
REMARK INTER:                  -4.365
REMARK INTRA:                  -0.200
REMARK UNBOUND:                -0.120
REMARK SMILES CCCCCC(=O)[O-]
REMARK SMILES IDX 4 1 5 2 6 3 7 4 8 5 3 6 2 7 1 8
REMARK H PARENT
REMARK Flexibility Score: inf
ROOT
ATOM      1  C   UNL     1     -10.322  -5.366  -5.846  1.00  0.00     0.006 C 
ENDROOT
BRANCH   1   2
ATOM      2  C   UNL     1     -10.259  -4.411  -7.046  1.00  0.00     0.053 C 
BRANCH   2   3
ATOM      3  C   UNL     1      -9.521  -5.016  -8.201  1.00  0.00     0.041 C 
ATOM      4  O   UNL     1      -9.924  -6.092  -8.715  1.00  0.00    -0.550 OA
ATOM      5  O   UNL     1      -8.370  -4.409  -8.686  1.00  0.00    -0.550 OA
ENDBRANCH   2   3
ENDBRANCH   1   2
BRANCH   1   6
ATOM      6  C   UNL     1     -11.748  -5.865  -5.574  1.00  0.00     0.000 C 
BRANCH   6   7
ATOM      7  C   UNL     1     -11.744  -7.344  -5.170  1.00  0.00    -0.003 C 
ATOM      8  C   UNL     1     -10.570  -8.086  -5.804  1.00  0.00     0.004 C 
ENDBRANCH   6   7
ENDBRANCH   1   6
TORSDOF 4
ENDMDL
MODEL 7
REMARK VINA RESULT:    -3.544      7.116      8.102
REMARK INTER + INTRA:          -4.492
REMARK INTER:                  -4.365
REMARK INTRA:                  -0.128
REMARK UNBOUND:                -0.120
REMARK SMILES CCCCCC(=O)[O-]
REMARK SMILES IDX 4 1 5 2 6 3 7 4 8 5 3 6 2 7 1 8
REMARK H PARENT
REMARK Flexibility Score: inf
ROOT
ATOM      1  C   UNL     1     -10.204  -4.431  -6.616  1.00  0.00     0.006 C 
ENDROOT
BRANCH   1   2
ATOM      2  C   UNL     1     -10.333  -4.294  -8.139  1.00  0.00     0.053 C 
BRANCH   2   3
ATOM      3  C   UNL     1      -9.155  -3.587  -8.736  1.00  0.00     0.041 C 
ATOM      4  O   UNL     1      -8.095  -3.449  -8.070  1.00  0.00    -0.550 OA
ATOM      5  O   UNL     1      -9.238  -3.051 -10.014  1.00  0.00    -0.550 OA
ENDBRANCH   2   3
ENDBRANCH   1   2
BRANCH   1   6
ATOM      6  C   UNL     1     -10.277  -5.894  -6.156  1.00  0.00     0.000 C 
BRANCH   6   7
ATOM      7  C   UNL     1     -11.422  -6.099  -5.158  1.00  0.00    -0.003 C 
ATOM      8  C   UNL     1     -12.759  -6.256  -5.876  1.00  0.00     0.004 C 
ENDBRANCH   6   7
ENDBRANCH   1   6
TORSDOF 4
ENDMDL
MODEL 8
REMARK VINA RESULT:    -3.505     14.762     16.288
REMARK INTER + INTRA:          -4.444
REMARK INTER:                  -4.219
REMARK INTRA:                  -0.225
REMARK UNBOUND:                -0.120
REMARK SMILES CCCCCC(=O)[O-]
REMARK SMILES IDX 4 1 5 2 6 3 7 4 8 5 3 6 2 7 1 8
REMARK H PARENT
REMARK Flexibility Score: inf
ROOT
ATOM      1  C   UNL     1     -10.070   6.202   5.433  1.00  0.00     0.006 C 
ENDROOT
BRANCH   1   2
ATOM      2  C   UNL     1     -10.942   4.995   5.060  1.00  0.00     0.053 C 
BRANCH   2   3
ATOM      3  C   UNL     1     -12.402   5.327   5.108  1.00  0.00     0.041 C 
ATOM      4  O   UNL     1     -12.961   5.561   6.211  1.00  0.00    -0.550 OA
ATOM      5  O   UNL     1     -13.151   5.344   3.939  1.00  0.00    -0.550 OA
ENDBRANCH   2   3
ENDBRANCH   1   2
BRANCH   1   6
ATOM      6  C   UNL     1      -9.181   5.921   6.654  1.00  0.00     0.000 C 
BRANCH   6   7
ATOM      7  C   UNL     1      -9.918   6.253   7.956  1.00  0.00    -0.003 C 
ATOM      8  C   UNL     1     -10.179   4.994   8.779  1.00  0.00     0.004 C 
ENDBRANCH   6   7
ENDBRANCH   1   6
TORSDOF 4
ENDMDL
MODEL 9
REMARK VINA RESULT:    -3.448     15.564     17.003
REMARK INTER + INTRA:          -4.374
REMARK INTER:                  -4.112
REMARK INTRA:                  -0.262
REMARK UNBOUND:                -0.120
REMARK SMILES CCCCCC(=O)[O-]
REMARK SMILES IDX 4 1 5 2 6 3 7 4 8 5 3 6 2 7 1 8
REMARK H PARENT
REMARK Flexibility Score: inf
ROOT
ATOM      1  C   UNL     1     -11.289   6.590   7.668  1.00  0.00     0.006 C 
ENDROOT
BRANCH   1   2
ATOM      2  C   UNL     1     -11.019   7.097   6.245  1.00  0.00     0.053 C 
BRANCH   2   3
ATOM      3  C   UNL     1     -10.328   6.065   5.407  1.00  0.00     0.041 C 
ATOM      4  O   UNL     1      -9.174   6.286   4.956  1.00  0.00    -0.550 OA
ATOM      5  O   UNL     1     -10.972   4.874   5.098  1.00  0.00    -0.550 OA
ENDBRANCH   2   3
ENDBRANCH   1   2
BRANCH   1   6
ATOM      6  C   UNL     1     -10.006   6.132   8.375  1.00  0.00     0.000 C 
BRANCH   6   7
ATOM      7  C   UNL     1     -10.233   4.813   9.124  1.00  0.00    -0.003 C 
ATOM      8  C   UNL     1     -11.442   4.065   8.570  1.00  0.00     0.004 C 
ENDBRANCH   6   7
ENDBRANCH   1   6
TORSDOF 4
ENDMDL
