MODEL 1
REMARK VINA RESULT:    -3.795      0.000      0.000
REMARK INTER + INTRA:          -4.599
REMARK INTER:                  -4.461
REMARK INTRA:                  -0.138
REMARK UNBOUND:                -0.138
REMARK SMILES O=C([O-])CCC(=O)[O-]
REMARK SMILES IDX 4 1 2 2 1 3 3 4 5 5 6 6 7 7 8 8
REMARK H PARENT
REMARK Flexibility Score: inf
ROOT
ATOM      1  C   UNL     1     -10.464  -3.512  -1.744  1.00  0.00     0.059 C 
ENDROOT
BRANCH   1   2
ATOM      2  C   UNL     1      -8.970  -3.639  -1.730  1.00  0.00     0.042 C 
ATOM      3  O   UNL     1      -8.432  -4.767  -1.575  1.00  0.00    -0.550 OA
ATOM      4  O   UNL     1      -8.176  -2.518  -1.930  1.00  0.00    -0.550 OA
ENDBRANCH   1   2
BRANCH   1   5
ATOM      5  C   UNL     1     -11.090  -4.334  -2.874  1.00  0.00     0.059 C 
BRANCH   5   6
ATOM      6  C   UNL     1     -10.622  -3.868  -4.219  1.00  0.00     0.042 C 
ATOM      7  O   UNL     1     -10.330  -4.704  -5.114  1.00  0.00    -0.550 OA
ATOM      8  O   UNL     1     -10.544  -2.508  -4.495  1.00  0.00    -0.550 OA
ENDBRANCH   5   6
ENDBRANCH   1   5
TORSDOF 3
ENDMDL
MODEL 2
REMARK VINA RESULT:    -3.791      0.032      3.156
REMARK INTER + INTRA:          -4.594
REMARK INTER:                  -4.453
REMARK INTRA:                  -0.141
REMARK UNBOUND:                -0.138
REMARK SMILES O=C([O-])CCC(=O)[O-]
REMARK SMILES IDX 4 1 2 2 1 3 3 4 5 5 6 6 7 7 8 8
REMARK H PARENT
REMARK Flexibility Score: inf
ROOT
ATOM      1  C   UNL     1     -11.074  -4.353  -2.873  1.00  0.00     0.059 C 
ENDROOT
BRANCH   1   2
ATOM      2  C   UNL     1     -10.617  -3.902  -4.227  1.00  0.00     0.042 C 
ATOM      3  O   UNL     1     -10.336  -4.750  -5.116  1.00  0.00    -0.550 OA
ATOM      4  O   UNL     1     -10.541  -2.547  -4.519  1.00  0.00    -0.550 OA
ENDBRANCH   1   2
BRANCH   1   5
ATOM      5  C   UNL     1     -10.453  -3.506  -1.757  1.00  0.00     0.059 C 
BRANCH   5   6
ATOM      6  C   UNL     1      -8.961  -3.637  -1.732  1.00  0.00     0.042 C 
ATOM      7  O   UNL     1      -8.425  -4.760  -1.544  1.00  0.00    -0.550 OA
ATOM      8  O   UNL     1      -8.162  -2.522  -1.954  1.00  0.00    -0.550 OA
ENDBRANCH   5   6
ENDBRANCH   1   5
TORSDOF 3
ENDMDL
MODEL 3
REMARK VINA RESULT:    -3.771      0.128      1.152
REMARK INTER + INTRA:          -4.570
REMARK INTER:                  -4.417
REMARK INTRA:                  -0.153
REMARK UNBOUND:                -0.138
REMARK SMILES O=C([O-])CCC(=O)[O-]
REMARK SMILES IDX 4 1 2 2 1 3 3 4 5 5 6 6 7 7 8 8
REMARK H PARENT
REMARK Flexibility Score: inf
ROOT
ATOM      1  C   UNL     1     -10.407  -3.371  -1.709  1.00  0.00     0.059 C 
ENDROOT
BRANCH   1   2
ATOM      2  C   UNL     1      -8.917  -3.531  -1.751  1.00  0.00     0.042 C 
ATOM      3  O   UNL     1      -8.177  -2.530  -1.940  1.00  0.00    -0.550 OA
ATOM      4  O   UNL     1      -8.348  -4.780  -1.541  1.00  0.00    -0.550 OA
ENDBRANCH   1   2
BRANCH   1   5
ATOM      5  C   UNL     1     -11.097  -4.220  -2.782  1.00  0.00     0.059 C 
BRANCH   5   6
ATOM      6  C   UNL     1     -10.593  -3.889  -4.154  1.00  0.00     0.042 C 
ATOM      7  O   UNL     1     -10.249  -4.808  -4.942  1.00  0.00    -0.550 OA
ATOM      8  O   UNL     1     -10.541  -2.565  -4.575  1.00  0.00    -0.550 OA
ENDBRANCH   5   6
ENDBRANCH   1   5
TORSDOF 3
ENDMDL
MODEL 4
REMARK VINA RESULT:    -3.732      0.753      3.513
REMARK INTER + INTRA:          -4.524
REMARK INTER:                  -4.389
REMARK INTRA:                  -0.136
REMARK UNBOUND:                -0.138
REMARK SMILES O=C([O-])CCC(=O)[O-]
REMARK SMILES IDX 4 1 2 2 1 3 3 4 5 5 6 6 7 7 8 8
REMARK H PARENT
REMARK Flexibility Score: inf
ROOT
ATOM      1  C   UNL     1     -11.005  -4.526  -2.899  1.00  0.00     0.059 C 
ENDROOT
BRANCH   1   2
ATOM      2  C   UNL     1     -10.457  -4.721  -4.280  1.00  0.00     0.042 C 
ATOM      3  O   UNL     1     -10.766  -3.923  -5.204  1.00  0.00    -0.550 OA
ATOM      4  O   UNL     1      -9.572  -5.761  -4.535  1.00  0.00    -0.550 OA
ENDBRANCH   1   2
BRANCH   1   5
ATOM      5  C   UNL     1     -10.412  -3.284  -2.226  1.00  0.00     0.059 C 
BRANCH   5   6
ATOM      6  C   UNL     1      -8.958  -3.469  -1.912  1.00  0.00     0.042 C 
ATOM      7  O   UNL     1      -8.161  -2.499  -2.003  1.00  0.00    -0.550 OA
ATOM      8  O   UNL     1      -8.492  -4.705  -1.482  1.00  0.00    -0.550 OA
ENDBRANCH   5   6
ENDBRANCH   1   5
TORSDOF 3
ENDMDL
MODEL 5
REMARK VINA RESULT:    -3.723      0.762      1.745
REMARK INTER + INTRA:          -4.513
REMARK INTER:                  -4.382
REMARK INTRA:                  -0.131
REMARK UNBOUND:                -0.138
REMARK SMILES O=C([O-])CCC(=O)[O-]
REMARK SMILES IDX 4 1 2 2 1 3 3 4 5 5 6 6 7 7 8 8
REMARK H PARENT
REMARK Flexibility Score: inf
ROOT
ATOM      1  C   UNL     1     -10.388  -3.248  -2.237  1.00  0.00     0.059 C 
ENDROOT
BRANCH   1   2
ATOM      2  C   UNL     1      -8.941  -3.439  -1.899  1.00  0.00     0.042 C 
ATOM      3  O   UNL     1      -8.143  -2.466  -1.955  1.00  0.00    -0.550 OA
ATOM      4  O   UNL     1      -8.483  -4.682  -1.483  1.00  0.00    -0.550 OA
ENDBRANCH   1   2
BRANCH   1   5
ATOM      5  C   UNL     1     -10.997  -4.513  -2.850  1.00  0.00     0.059 C 
BRANCH   5   6
ATOM      6  C   UNL     1     -10.485  -4.753  -4.238  1.00  0.00     0.042 C 
ATOM      7  O   UNL     1     -10.784  -3.961  -5.170  1.00  0.00    -0.550 OA
ATOM      8  O   UNL     1      -9.647  -5.832  -4.493  1.00  0.00    -0.550 OA
ENDBRANCH   5   6
ENDBRANCH   1   5
TORSDOF 3
ENDMDL
MODEL 6
REMARK VINA RESULT:    -3.317      1.498      2.416
REMARK INTER + INTRA:          -4.037
REMARK INTER:                  -3.925
REMARK INTRA:                  -0.112
REMARK UNBOUND:                -0.138
REMARK SMILES O=C([O-])CCC(=O)[O-]
REMARK SMILES IDX 4 1 2 2 1 3 3 4 5 5 6 6 7 7 8 8
REMARK H PARENT
REMARK Flexibility Score: inf
ROOT
ATOM      1  C   UNL     1     -11.060  -4.450  -3.185  1.00  0.00     0.059 C 
ENDROOT
BRANCH   1   2
ATOM      2  C   UNL     1      -9.988  -3.822  -2.347  1.00  0.00     0.042 C 
ATOM      3  O   UNL     1     -10.110  -2.634  -1.945  1.00  0.00    -0.550 OA
ATOM      4  O   UNL     1      -8.873  -4.563  -1.975  1.00  0.00    -0.550 OA
ENDBRANCH   1   2
BRANCH   1   5
ATOM      5  C   UNL     1     -10.721  -4.384  -4.677  1.00  0.00     0.059 C 
BRANCH   5   6
ATOM      6  C   UNL     1     -10.196  -5.693  -5.182  1.00  0.00     0.042 C 
ATOM      7  O   UNL     1      -9.515  -5.739  -6.239  1.00  0.00    -0.550 OA
ATOM      8  O   UNL     1     -10.429  -6.859  -4.461  1.00  0.00    -0.550 OA
ENDBRANCH   5   6
ENDBRANCH   1   5
TORSDOF 3
ENDMDL
MODEL 7
REMARK VINA RESULT:    -3.204      2.547      3.601
REMARK INTER + INTRA:          -3.903
REMARK INTER:                  -3.794
REMARK INTRA:                  -0.109
REMARK UNBOUND:                -0.138
REMARK SMILES O=C([O-])CCC(=O)[O-]
REMARK SMILES IDX 4 1 2 2 1 3 3 4 5 5 6 6 7 7 8 8
REMARK H PARENT
REMARK Flexibility Score: inf
ROOT
ATOM      1  C   UNL     1     -10.414  -5.510  -4.523  1.00  0.00     0.059 C 
ENDROOT
BRANCH   1   2
ATOM      2  C   UNL     1      -9.870  -4.363  -3.726  1.00  0.00     0.042 C 
ATOM      3  O   UNL     1     -10.216  -3.183  -3.997  1.00  0.00    -0.550 OA
ATOM      4  O   UNL     1      -9.014  -4.603  -2.659  1.00  0.00    -0.550 OA
ENDBRANCH   1   2
BRANCH   1   5
ATOM      5  C   UNL     1      -9.760  -5.598  -5.906  1.00  0.00     0.059 C 
BRANCH   5   6
ATOM      6  C   UNL     1      -8.672  -6.628  -5.936  1.00  0.00     0.042 C 
ATOM      7  O   UNL     1      -8.475  -7.372  -4.940  1.00  0.00    -0.550 OA
ATOM      8  O   UNL     1      -7.902  -6.791  -7.081  1.00  0.00    -0.550 OA
ENDBRANCH   5   6
ENDBRANCH   1   5
TORSDOF 3
ENDMDL
MODEL 8
REMARK VINA RESULT:    -3.173      2.525      3.999
REMARK INTER + INTRA:          -3.867
REMARK INTER:                  -3.743
REMARK INTRA:                  -0.124
REMARK UNBOUND:                -0.138
REMARK SMILES O=C([O-])CCC(=O)[O-]
REMARK SMILES IDX 4 1 2 2 1 3 3 4 5 5 6 6 7 7 8 8
REMARK H PARENT
REMARK Flexibility Score: inf
ROOT
ATOM      1  C   UNL     1      -9.849  -5.604  -5.964  1.00  0.00     0.059 C 
ENDROOT
BRANCH   1   2
ATOM      2  C   UNL     1      -8.697  -6.564  -5.980  1.00  0.00     0.042 C 
ATOM      3  O   UNL     1      -7.858  -6.531  -6.919  1.00  0.00    -0.550 OA
ATOM      4  O   UNL     1      -8.530  -7.465  -4.937  1.00  0.00    -0.550 OA
ENDBRANCH   1   2
BRANCH   1   5
ATOM      5  C   UNL     1     -10.504  -5.532  -4.581  1.00  0.00     0.059 C 
BRANCH   5   6
ATOM      6  C   UNL     1      -9.924  -4.424  -3.755  1.00  0.00     0.042 C 
ATOM      7  O   UNL     1      -9.085  -4.679  -2.852  1.00  0.00    -0.550 OA
ATOM      8  O   UNL     1     -10.283  -3.106  -4.009  1.00  0.00    -0.550 OA
ENDBRANCH   5   6
ENDBRANCH   1   5
TORSDOF 3
ENDMDL
MODEL 9
REMARK VINA RESULT:    -3.077      4.401      6.046
REMARK INTER + INTRA:          -3.754
REMARK INTER:                  -3.606
REMARK INTRA:                  -0.149
REMARK UNBOUND:                -0.138
REMARK SMILES O=C([O-])CCC(=O)[O-]
REMARK SMILES IDX 4 1 2 2 1 3 3 4 5 5 6 6 7 7 8 8
REMARK H PARENT
REMARK Flexibility Score: inf
ROOT
ATOM      1  C   UNL     1      -9.108  -5.596  -7.652  1.00  0.00     0.059 C 
ENDROOT
BRANCH   1   2
ATOM      2  C   UNL     1      -7.923  -5.863  -8.529  1.00  0.00     0.042 C 
ATOM      3  O   UNL     1      -7.811  -6.966  -9.126  1.00  0.00    -0.550 OA
ATOM      4  O   UNL     1      -6.963  -4.877  -8.718  1.00  0.00    -0.550 OA
ENDBRANCH   1   2
BRANCH   1   5
ATOM      5  C   UNL     1      -9.322  -6.721  -6.634  1.00  0.00     0.059 C 
BRANCH   5   6
ATOM      6  C   UNL     1      -8.244  -6.735  -5.594  1.00  0.00     0.042 C 
ATOM      7  O   UNL     1      -8.272  -5.915  -4.639  1.00  0.00    -0.550 OA
ATOM      8  O   UNL     1      -7.227  -7.680  -5.659  1.00  0.00    -0.550 OA
ENDBRANCH   5   6
ENDBRANCH   1   5
TORSDOF 3
ENDMDL
