MODEL 1
REMARK VINA RESULT:    -7.675      0.000      0.000
REMARK INTER + INTRA:         -11.982
REMARK INTER:                 -10.367
REMARK INTRA:                  -1.615
REMARK UNBOUND:                -1.615
REMARK SMILES CC[C@@H](CC[C@H](C)[C@@H]1CC[C@@H]2[C@@H]3CC(=O)C4=CC(=O)CC[C@]4(C)[C@@H]3CC[C@]21C)C(C)C
REMARK SMILES IDX 4 1 3 2 2 3 1 4 29 5 30 6 31 7 5 8 6 9 7 10 8 11 9 12 27 13
REMARK SMILES IDX 10 14 11 15 26 16 28 17 12 18 25 19 24 20 13 21 22 22 14 23
REMARK SMILES IDX 16 24 21 25 23 26 15 27 17 28 20 29 18 30 19 31
REMARK H PARENT
REMARK Flexibility Score: inf
ROOT
ATOM      1  C   UNL     1      -4.239  -0.729  -1.358  1.00  0.00     0.004 C 
ENDROOT
BRANCH   1   2
ATOM      2  C   UNL     1      -5.605  -0.555  -0.639  1.00  0.00    -0.009 C 
BRANCH   2   3
ATOM      3  C   UNL     1      -5.584   0.453   0.547  1.00  0.00     0.000 C 
ATOM      4  C   UNL     1      -6.809   0.426   1.466  1.00  0.00     0.004 C 
ENDBRANCH   2   3
BRANCH   2   5
ATOM      5  C   UNL     1      -6.323  -1.900  -0.297  1.00  0.00    -0.014 C 
ATOM      6  C   UNL     1      -5.466  -2.903   0.487  1.00  0.00     0.007 C 
ATOM      7  C   UNL     1      -6.938  -2.571  -1.538  1.00  0.00     0.007 C 
ENDBRANCH   2   5
ENDBRANCH   1   2
BRANCH   1   8
ATOM      8  C   UNL     1      -3.022  -0.253  -0.512  1.00  0.00     0.004 C 
BRANCH   8   9
ATOM      9  C   UNL     1      -1.862  -1.290  -0.432  1.00  0.00    -0.011 C 
ATOM     10  C   UNL     1      -2.137  -2.456  -1.390  1.00  0.00     0.008 C 
BRANCH   9  11
ATOM     11  C   UNL     1      -1.591  -1.782   1.041  1.00  0.00    -0.002 C 
ATOM     12  C   UNL     1      -2.705  -1.323   2.027  1.00  0.00     0.005 C 
ATOM     13  C   UNL     1      -0.278  -1.296   1.742  1.00  0.00    -0.026 C 
ATOM     14  C   UNL     1      -2.073  -1.069   3.392  1.00  0.00     0.005 C 
ATOM     15  C   UNL     1      -0.640  -1.526   3.225  1.00  0.00    -0.001 C 
ATOM     16  C   UNL     1       0.983  -2.157   1.486  1.00  0.00     0.007 C 
ATOM     17  C   UNL     1      -0.002   0.202   1.411  1.00  0.00     0.012 C 
ATOM     18  C   UNL     1       0.400  -1.052   4.255  1.00  0.00     0.004 C 
ATOM     19  C   UNL     1       2.156  -1.716   2.397  1.00  0.00     0.005 C 
ATOM     20  C   UNL     1       1.821  -1.666   3.926  1.00  0.00     0.003 C 
ATOM     21  C   UNL     1       0.317   0.469   4.635  1.00  0.00     0.085 C 
ATOM     22  C   UNL     1       2.946  -1.005   4.791  1.00  0.00    -0.000 C 
ATOM     23  C   UNL     1       1.629   1.168   4.825  1.00  0.00     0.159 C 
ATOM     24  C   UNL     1       2.897   0.488   4.529  1.00  0.00     0.005 C 
ATOM     25  C   UNL     1       4.383  -1.600   4.556  1.00  0.00     0.020 C 
ATOM     26  C   UNL     1       2.630  -1.254   6.297  1.00  0.00     0.017 C 
ATOM     27  O   UNL     1       1.641   2.384   5.201  1.00  0.00    -0.295 OA
ATOM     28  C   UNL     1       3.807   1.126   3.795  1.00  0.00     0.055 C 
ATOM     29  C   UNL     1       5.174  -1.037   3.370  1.00  0.00     0.081 C 
ATOM     30  C   UNL     1       4.933   0.424   3.155  1.00  0.00     0.156 C 
ATOM     31  O   UNL     1       5.624   1.042   2.308  1.00  0.00    -0.295 OA
ENDBRANCH   9  11
ENDBRANCH   8   9
ENDBRANCH   1   8
TORSDOF 6
ENDMDL
MODEL 2
REMARK VINA RESULT:    -7.353      1.682      3.072
REMARK INTER + INTRA:         -11.547
REMARK INTER:                 -10.344
REMARK INTRA:                  -1.203
REMARK UNBOUND:                -1.615
REMARK SMILES CC[C@@H](CC[C@H](C)[C@@H]1CC[C@@H]2[C@@H]3CC(=O)C4=CC(=O)CC[C@]4(C)[C@@H]3CC[C@]21C)C(C)C
REMARK SMILES IDX 4 1 3 2 2 3 1 4 29 5 30 6 31 7 5 8 6 9 7 10 8 11 9 12 27 13
REMARK SMILES IDX 10 14 11 15 26 16 28 17 12 18 25 19 24 20 13 21 22 22 14 23
REMARK SMILES IDX 16 24 21 25 23 26 15 27 17 28 20 29 18 30 19 31
REMARK H PARENT
REMARK Flexibility Score: inf
ROOT
ATOM      1  C   UNL     1      -3.984  -1.236  -1.144  1.00  0.00     0.004 C 
ENDROOT
BRANCH   1   2
ATOM      2  C   UNL     1      -4.796  -1.273   0.179  1.00  0.00    -0.009 C 
BRANCH   2   3
ATOM      3  C   UNL     1      -5.965  -2.300   0.188  1.00  0.00     0.000 C 
ATOM      4  C   UNL     1      -6.733  -2.448  -1.129  1.00  0.00     0.004 C 
ENDBRANCH   2   3
BRANCH   2   5
ATOM      5  C   UNL     1      -5.204   0.135   0.719  1.00  0.00    -0.014 C 
ATOM      6  C   UNL     1      -4.333   0.658   1.869  1.00  0.00     0.007 C 
ATOM      7  C   UNL     1      -6.695   0.212   1.096  1.00  0.00     0.007 C 
ENDBRANCH   2   5
ENDBRANCH   1   2
BRANCH   1   8
ATOM      8  C   UNL     1      -2.533  -1.782  -1.003  1.00  0.00     0.004 C 
BRANCH   8   9
ATOM      9  C   UNL     1      -1.452  -0.674  -0.830  1.00  0.00    -0.011 C 
ATOM     10  C   UNL     1      -1.285   0.101  -2.143  1.00  0.00     0.008 C 
BRANCH   9  11
ATOM     11  C   UNL     1      -0.083  -1.243  -0.297  1.00  0.00    -0.002 C 
ATOM     12  C   UNL     1      -0.114  -2.791  -0.132  1.00  0.00     0.005 C 
ATOM     13  C   UNL     1       0.416  -0.750   1.104  1.00  0.00    -0.026 C 
ATOM     14  C   UNL     1       0.767  -3.174   1.053  1.00  0.00     0.005 C 
ATOM     15  C   UNL     1       1.417  -1.870   1.464  1.00  0.00    -0.001 C 
ATOM     16  C   UNL     1       1.243   0.559   1.105  1.00  0.00     0.007 C 
ATOM     17  C   UNL     1      -0.773  -0.654   2.106  1.00  0.00     0.012 C 
ATOM     18  C   UNL     1       2.050  -1.783   2.863  1.00  0.00     0.004 C 
ATOM     19  C   UNL     1       1.865   0.827   2.498  1.00  0.00     0.005 C 
ATOM     20  C   UNL     1       2.704  -0.359   3.085  1.00  0.00     0.003 C 
ATOM     21  C   UNL     1       1.190  -2.395   4.025  1.00  0.00     0.085 C 
ATOM     22  C   UNL     1       3.126  -0.147   4.577  1.00  0.00    -0.000 C 
ATOM     23  C   UNL     1       1.211  -1.643   5.321  1.00  0.00     0.159 C 
ATOM     24  C   UNL     1       1.886  -0.342   5.428  1.00  0.00     0.005 C 
ATOM     25  C   UNL     1       3.831   1.230   4.866  1.00  0.00     0.020 C 
ATOM     26  C   UNL     1       4.169  -1.241   4.962  1.00  0.00     0.017 C 
ATOM     27  O   UNL     1       0.592  -2.113   6.328  1.00  0.00    -0.295 OA
ATOM     28  C   UNL     1       1.240   0.666   6.011  1.00  0.00     0.055 C 
ATOM     29  C   UNL     1       2.914   2.432   5.113  1.00  0.00     0.081 C 
ATOM     30  C   UNL     1       1.669   2.067   5.857  1.00  0.00     0.156 C 
ATOM     31  O   UNL     1       0.899   2.979   6.250  1.00  0.00    -0.295 OA
ENDBRANCH   9  11
ENDBRANCH   8   9
ENDBRANCH   1   8
TORSDOF 6
ENDMDL
MODEL 3
REMARK VINA RESULT:    -7.005      1.729      2.837
REMARK INTER + INTRA:         -11.077
REMARK INTER:                  -9.694
REMARK INTRA:                  -1.383
REMARK UNBOUND:                -1.615
REMARK SMILES CC[C@@H](CC[C@H](C)[C@@H]1CC[C@@H]2[C@@H]3CC(=O)C4=CC(=O)CC[C@]4(C)[C@@H]3CC[C@]21C)C(C)C
REMARK SMILES IDX 4 1 3 2 2 3 1 4 29 5 30 6 31 7 5 8 6 9 7 10 8 11 9 12 27 13
REMARK SMILES IDX 10 14 11 15 26 16 28 17 12 18 25 19 24 20 13 21 22 22 14 23
REMARK SMILES IDX 16 24 21 25 23 26 15 27 17 28 20 29 18 30 19 31
REMARK H PARENT
REMARK Flexibility Score: inf
ROOT
ATOM      1  C   UNL     1      -4.508  -2.479   0.745  1.00  0.00     0.004 C 
ENDROOT
BRANCH   1   2
ATOM      2  C   UNL     1      -5.878  -1.833   0.404  1.00  0.00    -0.009 C 
BRANCH   2   3
ATOM      3  C   UNL     1      -6.515  -2.337  -0.924  1.00  0.00     0.000 C 
ATOM      4  C   UNL     1      -5.579  -3.104  -1.862  1.00  0.00     0.004 C 
ENDBRANCH   2   3
BRANCH   2   5
ATOM      5  C   UNL     1      -5.908  -0.278   0.555  1.00  0.00    -0.014 C 
ATOM      6  C   UNL     1      -7.093   0.265   1.365  1.00  0.00     0.007 C 
ATOM      7  C   UNL     1      -5.805   0.447  -0.800  1.00  0.00     0.007 C 
ENDBRANCH   2   5
ENDBRANCH   1   2
BRANCH   1   8
ATOM      8  C   UNL     1      -3.564  -1.548   1.561  1.00  0.00     0.004 C 
BRANCH   8   9
ATOM      9  C   UNL     1      -2.245  -1.175   0.819  1.00  0.00    -0.011 C 
ATOM     10  C   UNL     1      -2.233  -1.815  -0.576  1.00  0.00     0.008 C 
BRANCH   9  11
ATOM     11  C   UNL     1      -0.959  -1.542   1.653  1.00  0.00    -0.002 C 
ATOM     12  C   UNL     1      -1.310  -2.249   2.995  1.00  0.00     0.005 C 
ATOM     13  C   UNL     1      -0.026  -0.369   2.108  1.00  0.00    -0.026 C 
ATOM     14  C   UNL     1      -0.277  -1.848   4.043  1.00  0.00     0.005 C 
ATOM     15  C   UNL     1       0.742  -1.042   3.266  1.00  0.00    -0.001 C 
ATOM     16  C   UNL     1       1.058   0.066   1.091  1.00  0.00     0.007 C 
ATOM     17  C   UNL     1      -0.872   0.856   2.571  1.00  0.00     0.012 C 
ATOM     18  C   UNL     1       1.706  -0.137   4.052  1.00  0.00     0.004 C 
ATOM     19  C   UNL     1       2.053   1.068   1.727  1.00  0.00     0.005 C 
ATOM     20  C   UNL     1       2.709   0.588   3.065  1.00  0.00     0.003 C 
ATOM     21  C   UNL     1       1.044   0.711   5.194  1.00  0.00     0.085 C 
ATOM     22  C   UNL     1       3.527   1.704   3.797  1.00  0.00    -0.000 C 
ATOM     23  C   UNL     1       1.562   2.108   5.357  1.00  0.00     0.159 C 
ATOM     24  C   UNL     1       2.528   2.671   4.403  1.00  0.00     0.005 C 
ATOM     25  C   UNL     1       4.584   2.437   2.890  1.00  0.00     0.020 C 
ATOM     26  C   UNL     1       4.346   1.049   4.950  1.00  0.00     0.017 C 
ATOM     27  O   UNL     1       1.121   2.833   6.305  1.00  0.00    -0.295 OA
ATOM     28  C   UNL     1       2.303   3.886   3.908  1.00  0.00     0.055 C 
ATOM     29  C   UNL     1       4.065   3.593   2.029  1.00  0.00     0.081 C 
ATOM     30  C   UNL     1       2.995   4.387   2.708  1.00  0.00     0.156 C 
ATOM     31  O   UNL     1       2.583   5.446   2.173  1.00  0.00    -0.295 OA
ENDBRANCH   9  11
ENDBRANCH   8   9
ENDBRANCH   1   8
TORSDOF 6
ENDMDL
MODEL 4
REMARK VINA RESULT:    -6.826      3.057      8.145
REMARK INTER + INTRA:         -10.836
REMARK INTER:                  -8.947
REMARK INTRA:                  -1.889
REMARK UNBOUND:                -1.615
REMARK SMILES CC[C@@H](CC[C@H](C)[C@@H]1CC[C@@H]2[C@@H]3CC(=O)C4=CC(=O)CC[C@]4(C)[C@@H]3CC[C@]21C)C(C)C
REMARK SMILES IDX 4 1 3 2 2 3 1 4 29 5 30 6 31 7 5 8 6 9 7 10 8 11 9 12 27 13
REMARK SMILES IDX 10 14 11 15 26 16 28 17 12 18 25 19 24 20 13 21 22 22 14 23
REMARK SMILES IDX 16 24 21 25 23 26 15 27 17 28 20 29 18 30 19 31
REMARK H PARENT
REMARK Flexibility Score: inf
ROOT
ATOM      1  C   UNL     1       1.097   2.355   4.351  1.00  0.00     0.004 C 
ENDROOT
BRANCH   1   2
ATOM      2  C   UNL     1       0.870   3.139   3.030  1.00  0.00    -0.009 C 
BRANCH   2   3
ATOM      3  C   UNL     1       1.862   2.775   1.887  1.00  0.00     0.000 C 
ATOM      4  C   UNL     1       1.227   2.455   0.530  1.00  0.00     0.004 C 
ENDBRANCH   2   3
BRANCH   2   5
ATOM      5  C   UNL     1       0.685   4.678   3.223  1.00  0.00    -0.014 C 
ATOM      6  C   UNL     1       1.993   5.467   3.375  1.00  0.00     0.007 C 
ATOM      7  C   UNL     1      -0.284   5.016   4.372  1.00  0.00     0.007 C 
ENDBRANCH   2   5
ENDBRANCH   1   2
BRANCH   1   8
ATOM      8  C   UNL     1       1.535   0.877   4.133  1.00  0.00     0.004 C 
BRANCH   8   9
ATOM      9  C   UNL     1       0.404  -0.163   4.388  1.00  0.00    -0.011 C 
ATOM     10  C   UNL     1       0.636  -0.868   5.731  1.00  0.00     0.008 C 
BRANCH   9  11
ATOM     11  C   UNL     1       0.245  -1.186   3.199  1.00  0.00    -0.002 C 
ATOM     12  C   UNL     1       1.372  -1.030   2.136  1.00  0.00     0.005 C 
ATOM     13  C   UNL     1      -1.062  -1.109   2.340  1.00  0.00    -0.026 C 
ATOM     14  C   UNL     1       0.795  -1.354   0.762  1.00  0.00     0.005 C 
ATOM     15  C   UNL     1      -0.608  -1.839   1.057  1.00  0.00    -0.001 C 
ATOM     16  C   UNL     1      -2.269  -1.918   2.872  1.00  0.00     0.007 C 
ATOM     17  C   UNL     1      -1.461   0.376   2.083  1.00  0.00     0.012 C 
ATOM     18  C   UNL     1      -1.625  -1.869  -0.097  1.00  0.00     0.004 C 
ATOM     19  C   UNL     1      -3.422  -1.948   1.838  1.00  0.00     0.005 C 
ATOM     20  C   UNL     1      -3.013  -2.438   0.408  1.00  0.00     0.003 C 
ATOM     21  C   UNL     1      -1.632  -0.596  -1.014  1.00  0.00     0.085 C 
ATOM     22  C   UNL     1      -4.137  -2.242  -0.665  1.00  0.00    -0.000 C 
ATOM     23  C   UNL     1      -2.979  -0.132  -1.479  1.00  0.00     0.159 C 
ATOM     24  C   UNL     1      -4.209  -0.760  -0.977  1.00  0.00     0.005 C 
ATOM     25  C   UNL     1      -5.538  -2.829  -0.255  1.00  0.00     0.020 C 
ATOM     26  C   UNL     1      -3.726  -3.003  -1.963  1.00  0.00     0.017 C 
ATOM     27  O   UNL     1      -3.060   0.854  -2.280  1.00  0.00    -0.295 OA
ATOM     28  C   UNL     1      -5.199   0.023  -0.554  1.00  0.00     0.055 C 
ATOM     29  C   UNL     1      -6.427  -1.938   0.618  1.00  0.00     0.081 C 
ATOM     30  C   UNL     1      -6.303  -0.486   0.279  1.00  0.00     0.156 C 
ATOM     31  O   UNL     1      -7.080   0.339   0.819  1.00  0.00    -0.295 OA
ENDBRANCH   9  11
ENDBRANCH   8   9
ENDBRANCH   1   8
TORSDOF 6
ENDMDL
MODEL 5
REMARK VINA RESULT:    -6.794      6.153      8.896
REMARK INTER + INTRA:         -10.792
REMARK INTER:                  -9.095
REMARK INTRA:                  -1.697
REMARK UNBOUND:                -1.615
REMARK SMILES CC[C@@H](CC[C@H](C)[C@@H]1CC[C@@H]2[C@@H]3CC(=O)C4=CC(=O)CC[C@]4(C)[C@@H]3CC[C@]21C)C(C)C
REMARK SMILES IDX 4 1 3 2 2 3 1 4 29 5 30 6 31 7 5 8 6 9 7 10 8 11 9 12 27 13
REMARK SMILES IDX 10 14 11 15 26 16 28 17 12 18 25 19 24 20 13 21 22 22 14 23
REMARK SMILES IDX 16 24 21 25 23 26 15 27 17 28 20 29 18 30 19 31
REMARK H PARENT
REMARK Flexibility Score: inf
ROOT
ATOM      1  C   UNL     1      -2.719  -1.702  -2.860  1.00  0.00     0.004 C 
ENDROOT
BRANCH   1   2
ATOM      2  C   UNL     1      -3.209  -1.919  -1.403  1.00  0.00    -0.009 C 
BRANCH   2   3
ATOM      3  C   UNL     1      -4.407  -2.902  -1.266  1.00  0.00     0.000 C 
ATOM      4  C   UNL     1      -5.021  -3.393  -2.580  1.00  0.00     0.004 C 
ENDBRANCH   2   3
BRANCH   2   5
ATOM      5  C   UNL     1      -3.393  -0.599  -0.587  1.00  0.00    -0.014 C 
ATOM      6  C   UNL     1      -2.939  -0.682   0.876  1.00  0.00     0.007 C 
ATOM      7  C   UNL     1      -4.829  -0.048  -0.675  1.00  0.00     0.007 C 
ENDBRANCH   2   5
ENDBRANCH   1   2
BRANCH   1   8
ATOM      8  C   UNL     1      -1.205  -1.358  -2.967  1.00  0.00     0.004 C 
BRANCH   8   9
ATOM      9  C   UNL     1      -0.301  -2.167  -1.990  1.00  0.00    -0.011 C 
ATOM     10  C   UNL     1       0.378  -1.214  -0.996  1.00  0.00     0.008 C 
BRANCH   9  11
ATOM     11  C   UNL     1       0.740  -3.079  -2.744  1.00  0.00    -0.002 C 
ATOM     12  C   UNL     1       0.716  -2.847  -4.284  1.00  0.00     0.005 C 
ATOM     13  C   UNL     1       0.576  -4.631  -2.620  1.00  0.00    -0.026 C 
ATOM     14  C   UNL     1       1.030  -4.167  -4.981  1.00  0.00     0.005 C 
ATOM     15  C   UNL     1       1.382  -5.107  -3.848  1.00  0.00    -0.001 C 
ATOM     16  C   UNL     1       1.261  -5.287  -1.396  1.00  0.00     0.007 C 
ATOM     17  C   UNL     1      -0.929  -5.030  -2.690  1.00  0.00     0.012 C 
ATOM     18  C   UNL     1       1.359  -6.620  -4.124  1.00  0.00     0.004 C 
ATOM     19  C   UNL     1       1.222  -6.832  -1.494  1.00  0.00     0.005 C 
ATOM     20  C   UNL     1       1.789  -7.423  -2.829  1.00  0.00     0.003 C 
ATOM     21  C   UNL     1       0.118  -7.132  -4.938  1.00  0.00     0.085 C 
ATOM     22  C   UNL     1       1.529  -8.958  -2.994  1.00  0.00    -0.000 C 
ATOM     23  C   UNL     1      -0.447  -8.452  -4.509  1.00  0.00     0.159 C 
ATOM     24  C   UNL     1       0.056  -9.135  -3.309  1.00  0.00     0.005 C 
ATOM     25  C   UNL     1       1.980  -9.830  -1.764  1.00  0.00     0.020 C 
ATOM     26  C   UNL     1       2.362  -9.479  -4.205  1.00  0.00     0.017 C 
ATOM     27  O   UNL     1      -1.411  -8.963  -5.164  1.00  0.00    -0.295 OA
ATOM     28  C   UNL     1      -0.822  -9.609  -2.428  1.00  0.00     0.055 C 
ATOM     29  C   UNL     1       0.988  -9.941  -0.601  1.00  0.00     0.081 C 
ATOM     30  C   UNL     1      -0.436  -9.982  -1.057  1.00  0.00     0.156 C 
ATOM     31  O   UNL     1      -1.342 -10.215  -0.218  1.00  0.00    -0.295 OA
ENDBRANCH   9  11
ENDBRANCH   8   9
ENDBRANCH   1   8
TORSDOF 6
ENDMDL
MODEL 6
REMARK VINA RESULT:    -6.714      3.716      5.210
REMARK INTER + INTRA:         -10.683
REMARK INTER:                  -8.993
REMARK INTRA:                  -1.690
REMARK UNBOUND:                -1.615
REMARK SMILES CC[C@@H](CC[C@H](C)[C@@H]1CC[C@@H]2[C@@H]3CC(=O)C4=CC(=O)CC[C@]4(C)[C@@H]3CC[C@]21C)C(C)C
REMARK SMILES IDX 4 1 3 2 2 3 1 4 29 5 30 6 31 7 5 8 6 9 7 10 8 11 9 12 27 13
REMARK SMILES IDX 10 14 11 15 26 16 28 17 12 18 25 19 24 20 13 21 22 22 14 23
REMARK SMILES IDX 16 24 21 25 23 26 15 27 17 28 20 29 18 30 19 31
REMARK H PARENT
REMARK Flexibility Score: inf
ROOT
ATOM      1  C   UNL     1      -3.300  -1.214   2.624  1.00  0.00     0.004 C 
ENDROOT
BRANCH   1   2
ATOM      2  C   UNL     1      -3.698  -0.817   1.176  1.00  0.00    -0.009 C 
BRANCH   2   3
ATOM      3  C   UNL     1      -4.555   0.477   1.076  1.00  0.00     0.000 C 
ATOM      4  C   UNL     1      -4.878   1.168   2.405  1.00  0.00     0.004 C 
ENDBRANCH   2   3
BRANCH   2   5
ATOM      5  C   UNL     1      -4.256  -1.999   0.319  1.00  0.00    -0.014 C 
ATOM      6  C   UNL     1      -3.901  -1.933  -1.172  1.00  0.00     0.007 C 
ATOM      7  C   UNL     1      -5.773  -2.194   0.503  1.00  0.00     0.007 C 
ENDBRANCH   2   5
ENDBRANCH   1   2
BRANCH   1   8
ATOM      8  C   UNL     1      -1.786  -1.536   2.790  1.00  0.00     0.004 C 
BRANCH   8   9
ATOM      9  C   UNL     1      -0.871  -0.840   1.739  1.00  0.00    -0.011 C 
ATOM     10  C   UNL     1      -0.382  -1.867   0.710  1.00  0.00     0.008 C 
BRANCH   9  11
ATOM     11  C   UNL     1       0.321  -0.051   2.404  1.00  0.00    -0.002 C 
ATOM     12  C   UNL     1       0.409  -0.303   3.938  1.00  0.00     0.005 C 
ATOM     13  C   UNL     1       0.307   1.512   2.305  1.00  0.00    -0.026 C 
ATOM     14  C   UNL     1       0.917   0.967   4.613  1.00  0.00     0.005 C 
ATOM     15  C   UNL     1       1.263   1.884   3.459  1.00  0.00    -0.001 C 
ATOM     16  C   UNL     1       0.945   2.114   1.029  1.00  0.00     0.007 C 
ATOM     17  C   UNL     1      -1.137   2.061   2.512  1.00  0.00     0.012 C 
ATOM     18  C   UNL     1       1.420   3.387   3.746  1.00  0.00     0.004 C 
ATOM     19  C   UNL     1       1.074   3.654   1.141  1.00  0.00     0.005 C 
ATOM     20  C   UNL     1       1.814   4.162   2.424  1.00  0.00     0.003 C 
ATOM     21  C   UNL     1       0.315   4.009   4.671  1.00  0.00     0.085 C 
ATOM     22  C   UNL     1       1.729   5.713   2.621  1.00  0.00    -0.000 C 
ATOM     23  C   UNL     1      -0.147   5.386   4.304  1.00  0.00     0.159 C 
ATOM     24  C   UNL     1       0.316   6.034   3.069  1.00  0.00     0.005 C 
ATOM     25  C   UNL     1       2.156   6.554   1.362  1.00  0.00     0.020 C 
ATOM     26  C   UNL     1       2.715   6.127   3.757  1.00  0.00     0.017 C 
ATOM     27  O   UNL     1      -0.991   5.983   5.046  1.00  0.00    -0.295 OA
ATOM     28  C   UNL     1      -0.584   6.609   2.273  1.00  0.00     0.055 C 
ATOM     29  C   UNL     1       1.083   6.784   0.294  1.00  0.00     0.081 C 
ATOM     30  C   UNL     1      -0.284   6.963   0.875  1.00  0.00     0.156 C 
ATOM     31  O   UNL     1      -1.231   7.300   0.123  1.00  0.00    -0.295 OA
ENDBRANCH   9  11
ENDBRANCH   8   9
ENDBRANCH   1   8
TORSDOF 6
ENDMDL
MODEL 7
REMARK VINA RESULT:    -6.506      1.570      3.392
REMARK INTER + INTRA:         -10.404
REMARK INTER:                  -9.010
REMARK INTRA:                  -1.393
REMARK UNBOUND:                -1.615
REMARK SMILES CC[C@@H](CC[C@H](C)[C@@H]1CC[C@@H]2[C@@H]3CC(=O)C4=CC(=O)CC[C@]4(C)[C@@H]3CC[C@]21C)C(C)C
REMARK SMILES IDX 4 1 3 2 2 3 1 4 29 5 30 6 31 7 5 8 6 9 7 10 8 11 9 12 27 13
REMARK SMILES IDX 10 14 11 15 26 16 28 17 12 18 25 19 24 20 13 21 22 22 14 23
REMARK SMILES IDX 16 24 21 25 23 26 15 27 17 28 20 29 18 30 19 31
REMARK H PARENT
REMARK Flexibility Score: inf
ROOT
ATOM      1  C   UNL     1      -4.840  -2.005   0.684  1.00  0.00     0.004 C 
ENDROOT
BRANCH   1   2
ATOM      2  C   UNL     1      -4.309  -1.283  -0.584  1.00  0.00    -0.009 C 
BRANCH   2   3
ATOM      3  C   UNL     1      -4.938   0.118  -0.837  1.00  0.00     0.000 C 
ATOM      4  C   UNL     1      -6.332   0.341  -0.242  1.00  0.00     0.004 C 
ENDBRANCH   2   3
BRANCH   2   5
ATOM      5  C   UNL     1      -4.264  -2.182  -1.861  1.00  0.00    -0.014 C 
ATOM      6  C   UNL     1      -5.353  -3.261  -1.923  1.00  0.00     0.007 C 
ATOM      7  C   UNL     1      -2.875  -2.804  -2.094  1.00  0.00     0.007 C 
ENDBRANCH   2   5
ENDBRANCH   1   2
BRANCH   1   8
ATOM      8  C   UNL     1      -3.714  -2.493   1.643  1.00  0.00     0.004 C 
BRANCH   8   9
ATOM      9  C   UNL     1      -2.944  -1.342   2.355  1.00  0.00    -0.011 C 
ATOM     10  C   UNL     1      -3.879  -0.146   2.574  1.00  0.00     0.008 C 
BRANCH   9  11
ATOM     11  C   UNL     1      -1.626  -0.934   1.592  1.00  0.00    -0.002 C 
ATOM     12  C   UNL     1      -0.978  -2.142   0.853  1.00  0.00     0.005 C 
ATOM     13  C   UNL     1      -0.439  -0.364   2.440  1.00  0.00    -0.026 C 
ATOM     14  C   UNL     1       0.537  -1.968   0.868  1.00  0.00     0.005 C 
ATOM     15  C   UNL     1       0.744  -0.597   1.475  1.00  0.00    -0.001 C 
ATOM     16  C   UNL     1      -0.467   1.162   2.700  1.00  0.00     0.007 C 
ATOM     17  C   UNL     1      -0.294  -1.150   3.778  1.00  0.00     0.012 C 
ATOM     18  C   UNL     1       2.138  -0.246   2.022  1.00  0.00     0.004 C 
ATOM     19  C   UNL     1       0.855   1.644   3.349  1.00  0.00     0.005 C 
ATOM     20  C   UNL     1       2.156   1.236   2.578  1.00  0.00     0.003 C 
ATOM     21  C   UNL     1       2.822  -1.369   2.879  1.00  0.00     0.085 C 
ATOM     22  C   UNL     1       3.472   1.537   3.370  1.00  0.00    -0.000 C 
ATOM     23  C   UNL     1       3.591  -0.902   4.076  1.00  0.00     0.159 C 
ATOM     24  C   UNL     1       3.573   0.511   4.482  1.00  0.00     0.005 C 
ATOM     25  C   UNL     1       3.585   3.009   3.911  1.00  0.00     0.020 C 
ATOM     26  C   UNL     1       4.687   1.348   2.410  1.00  0.00     0.017 C 
ATOM     27  O   UNL     1       4.229  -1.748   4.781  1.00  0.00    -0.295 OA
ATOM     28  C   UNL     1       3.352   0.804   5.762  1.00  0.00     0.055 C 
ATOM     29  C   UNL     1       2.894   3.305   5.246  1.00  0.00     0.081 C 
ATOM     30  C   UNL     1       2.966   2.156   6.202  1.00  0.00     0.156 C 
ATOM     31  O   UNL     1       2.566   2.314   7.382  1.00  0.00    -0.295 OA
ENDBRANCH   9  11
ENDBRANCH   8   9
ENDBRANCH   1   8
TORSDOF 6
ENDMDL
MODEL 8
REMARK VINA RESULT:    -6.457      4.150      7.033
REMARK INTER + INTRA:         -10.337
REMARK INTER:                  -8.581
REMARK INTRA:                  -1.756
REMARK UNBOUND:                -1.615
REMARK SMILES CC[C@@H](CC[C@H](C)[C@@H]1CC[C@@H]2[C@@H]3CC(=O)C4=CC(=O)CC[C@]4(C)[C@@H]3CC[C@]21C)C(C)C
REMARK SMILES IDX 4 1 3 2 2 3 1 4 29 5 30 6 31 7 5 8 6 9 7 10 8 11 9 12 27 13
REMARK SMILES IDX 10 14 11 15 26 16 28 17 12 18 25 19 24 20 13 21 22 22 14 23
REMARK SMILES IDX 16 24 21 25 23 26 15 27 17 28 20 29 18 30 19 31
REMARK H PARENT
REMARK Flexibility Score: inf
ROOT
ATOM      1  C   UNL     1       1.331   7.348   1.953  1.00  0.00     0.004 C 
ENDROOT
BRANCH   1   2
ATOM      2  C   UNL     1       0.592   7.899   3.202  1.00  0.00    -0.009 C 
BRANCH   2   3
ATOM      3  C   UNL     1       1.465   7.967   4.488  1.00  0.00     0.000 C 
ATOM      4  C   UNL     1       2.665   8.917   4.431  1.00  0.00     0.004 C 
ENDBRANCH   2   3
BRANCH   2   5
ATOM      5  C   UNL     1      -0.818   7.269   3.442  1.00  0.00    -0.014 C 
ATOM      6  C   UNL     1      -1.986   8.066   2.846  1.00  0.00     0.007 C 
ATOM      7  C   UNL     1      -1.080   6.960   4.927  1.00  0.00     0.007 C 
ENDBRANCH   2   5
ENDBRANCH   1   2
BRANCH   1   8
ATOM      8  C   UNL     1       2.166   6.065   2.236  1.00  0.00     0.004 C 
BRANCH   8   9
ATOM      9  C   UNL     1       1.454   4.742   1.828  1.00  0.00    -0.011 C 
ATOM     10  C   UNL     1       0.369   5.033   0.783  1.00  0.00     0.008 C 
BRANCH   9  11
ATOM     11  C   UNL     1       0.888   3.952   3.069  1.00  0.00    -0.002 C 
ATOM     12  C   UNL     1       1.494   4.456   4.412  1.00  0.00     0.005 C 
ATOM     13  C   UNL     1       1.139   2.407   3.127  1.00  0.00    -0.026 C 
ATOM     14  C   UNL     1       1.608   3.275   5.369  1.00  0.00     0.005 C 
ATOM     15  C   UNL     1       0.932   2.137   4.633  1.00  0.00    -0.001 C 
ATOM     16  C   UNL     1       0.095   1.525   2.401  1.00  0.00     0.007 C 
ATOM     17  C   UNL     1       2.582   2.068   2.644  1.00  0.00     0.012 C 
ATOM     18  C   UNL     1       1.207   0.700   5.105  1.00  0.00     0.004 C 
ATOM     19  C   UNL     1       0.319   0.023   2.711  1.00  0.00     0.005 C 
ATOM     20  C   UNL     1       0.383  -0.333   4.235  1.00  0.00     0.003 C 
ATOM     21  C   UNL     1       2.711   0.376   5.416  1.00  0.00     0.085 C 
ATOM     22  C   UNL     1       0.833  -1.807   4.513  1.00  0.00    -0.000 C 
ATOM     23  C   UNL     1       3.187  -0.984   5.003  1.00  0.00     0.159 C 
ATOM     24  C   UNL     1       2.321  -1.884   4.230  1.00  0.00     0.005 C 
ATOM     25  C   UNL     1       0.022  -2.897   3.720  1.00  0.00     0.020 C 
ATOM     26  C   UNL     1       0.599  -2.124   6.022  1.00  0.00     0.017 C 
ATOM     27  O   UNL     1       4.375  -1.343   5.283  1.00  0.00    -0.295 OA
ATOM     28  C   UNL     1       2.824  -2.485   3.153  1.00  0.00     0.055 C 
ATOM     29  C   UNL     1       0.482  -3.188   2.288  1.00  0.00     0.081 C 
ATOM     30  C   UNL     1       1.968  -3.108   2.129  1.00  0.00     0.156 C 
ATOM     31  O   UNL     1       2.488  -3.463   1.043  1.00  0.00    -0.295 OA
ENDBRANCH   9  11
ENDBRANCH   8   9
ENDBRANCH   1   8
TORSDOF 6
ENDMDL
MODEL 9
REMARK VINA RESULT:    -6.400      4.511      6.567
REMARK INTER + INTRA:         -10.260
REMARK INTER:                  -8.490
REMARK INTRA:                  -1.771
REMARK UNBOUND:                -1.615
REMARK SMILES CC[C@@H](CC[C@H](C)[C@@H]1CC[C@@H]2[C@@H]3CC(=O)C4=CC(=O)CC[C@]4(C)[C@@H]3CC[C@]21C)C(C)C
REMARK SMILES IDX 4 1 3 2 2 3 1 4 29 5 30 6 31 7 5 8 6 9 7 10 8 11 9 12 27 13
REMARK SMILES IDX 10 14 11 15 26 16 28 17 12 18 25 19 24 20 13 21 22 22 14 23
REMARK SMILES IDX 16 24 21 25 23 26 15 27 17 28 20 29 18 30 19 31
REMARK H PARENT
REMARK Flexibility Score: inf
ROOT
ATOM      1  C   UNL     1      -1.159  -1.508   3.467  1.00  0.00     0.004 C 
ENDROOT
BRANCH   1   2
ATOM      2  C   UNL     1      -1.899  -0.757   2.327  1.00  0.00    -0.009 C 
BRANCH   2   3
ATOM      3  C   UNL     1      -3.415  -0.522   2.589  1.00  0.00     0.000 C 
ATOM      4  C   UNL     1      -3.942   0.876   2.250  1.00  0.00     0.004 C 
ENDBRANCH   2   3
BRANCH   2   5
ATOM      5  C   UNL     1      -1.596  -1.307   0.896  1.00  0.00    -0.014 C 
ATOM      6  C   UNL     1      -0.758  -0.372   0.014  1.00  0.00     0.007 C 
ATOM      7  C   UNL     1      -2.870  -1.750   0.153  1.00  0.00     0.007 C 
ENDBRANCH   2   5
ENDBRANCH   1   2
BRANCH   1   8
ATOM      8  C   UNL     1      -0.053  -0.658   4.159  1.00  0.00     0.004 C 
BRANCH   8   9
ATOM      9  C   UNL     1       0.943   0.014   3.168  1.00  0.00    -0.011 C 
ATOM     10  C   UNL     1       2.044  -0.981   2.778  1.00  0.00     0.008 C 
BRANCH   9  11
ATOM     11  C   UNL     1       1.533   1.364   3.727  1.00  0.00    -0.002 C 
ATOM     12  C   UNL     1       1.125   1.614   5.208  1.00  0.00     0.005 C 
ATOM     13  C   UNL     1       1.110   2.695   3.016  1.00  0.00    -0.026 C 
ATOM     14  C   UNL     1       0.968   3.116   5.425  1.00  0.00     0.005 C 
ATOM     15  C   UNL     1       1.432   3.726   4.119  1.00  0.00    -0.001 C 
ATOM     16  C   UNL     1       1.967   3.112   1.797  1.00  0.00     0.007 C 
ATOM     17  C   UNL     1      -0.403   2.659   2.642  1.00  0.00     0.012 C 
ATOM     18  C   UNL     1       1.038   5.182   3.817  1.00  0.00     0.004 C 
ATOM     19  C   UNL     1       1.601   4.539   1.317  1.00  0.00     0.005 C 
ATOM     20  C   UNL     1       1.646   5.640   2.429  1.00  0.00     0.003 C 
ATOM     21  C   UNL     1      -0.456   5.549   4.130  1.00  0.00     0.085 C 
ATOM     22  C   UNL     1       1.056   7.016   1.970  1.00  0.00    -0.000 C 
ATOM     23  C   UNL     1      -1.126   6.463   3.150  1.00  0.00     0.159 C 
ATOM     24  C   UNL     1      -0.451   6.862   1.907  1.00  0.00     0.005 C 
ATOM     25  C   UNL     1       1.652   7.563   0.621  1.00  0.00     0.020 C 
ATOM     26  C   UNL     1       1.400   8.091   3.047  1.00  0.00     0.017 C 
ATOM     27  O   UNL     1      -2.314   6.858   3.373  1.00  0.00    -0.295 OA
ATOM     28  C   UNL     1      -1.124   6.780   0.761  1.00  0.00     0.055 C 
ATOM     29  C   UNL     1       1.023   7.034  -0.672  1.00  0.00     0.081 C 
ATOM     30  C   UNL     1      -0.452   6.812  -0.549  1.00  0.00     0.156 C 
ATOM     31  O   UNL     1      -1.115   6.516  -1.574  1.00  0.00    -0.295 OA
ENDBRANCH   9  11
ENDBRANCH   8   9
ENDBRANCH   1   8
TORSDOF 6
ENDMDL
