MODEL 1
REMARK VINA RESULT:    -2.238      0.000      0.000
REMARK INTER + INTRA:          -2.748
REMARK INTER:                  -2.631
REMARK INTRA:                  -0.117
REMARK UNBOUND:                -0.117
REMARK SMILES O=C([O-])CCC(=O)[O-]
REMARK SMILES IDX 4 1 2 2 1 3 3 4 5 5 6 6 7 7 8 8
REMARK H PARENT
REMARK Flexibility Score: inf
ROOT
ATOM      1  C   UNL     1      55.646 -35.834  21.987  1.00  0.00     0.059 C 
ENDROOT
BRANCH   1   2
ATOM      2  C   UNL     1      54.865 -35.011  22.962  1.00  0.00     0.042 C 
ATOM      3  O   UNL     1      55.134 -33.791  23.121  1.00  0.00    -0.550 OA
ATOM      4  O   UNL     1      53.806 -35.579  23.660  1.00  0.00    -0.550 OA
ENDBRANCH   1   2
BRANCH   1   5
ATOM      5  C   UNL     1      56.647 -36.727  22.722  1.00  0.00     0.059 C 
BRANCH   5   6
ATOM      6  C   UNL     1      58.031 -36.172  22.599  1.00  0.00     0.042 C 
ATOM      7  O   UNL     1      58.881 -36.745  21.868  1.00  0.00    -0.550 OA
ATOM      8  O   UNL     1      58.398 -35.050  23.332  1.00  0.00    -0.550 OA
ENDBRANCH   5   6
ENDBRANCH   1   5
TORSDOF 3
ENDMDL
MODEL 2
REMARK VINA RESULT:    -2.236      0.079      3.799
REMARK INTER + INTRA:          -2.745
REMARK INTER:                  -2.634
REMARK INTRA:                  -0.111
REMARK UNBOUND:                -0.117
REMARK SMILES O=C([O-])CCC(=O)[O-]
REMARK SMILES IDX 4 1 2 2 1 3 3 4 5 5 6 6 7 7 8 8
REMARK H PARENT
REMARK Flexibility Score: inf
ROOT
ATOM      1  C   UNL     1      56.651 -36.737  22.710  1.00  0.00     0.059 C 
ENDROOT
BRANCH   1   2
ATOM      2  C   UNL     1      58.048 -36.209  22.632  1.00  0.00     0.042 C 
ATOM      3  O   UNL     1      58.900 -36.776  21.899  1.00  0.00    -0.550 OA
ATOM      4  O   UNL     1      58.397 -35.059  23.329  1.00  0.00    -0.550 OA
ENDBRANCH   1   2
BRANCH   1   5
ATOM      5  C   UNL     1      55.687 -35.814  21.961  1.00  0.00     0.059 C 
BRANCH   5   6
ATOM      6  C   UNL     1      54.865 -35.022  22.926  1.00  0.00     0.042 C 
ATOM      7  O   UNL     1      53.909 -35.565  23.541  1.00  0.00    -0.550 OA
ATOM      8  O   UNL     1      55.121 -33.668  23.111  1.00  0.00    -0.550 OA
ENDBRANCH   5   6
ENDBRANCH   1   5
TORSDOF 3
ENDMDL
MODEL 3
REMARK VINA RESULT:    -2.170      1.337      1.774
REMARK INTER + INTRA:          -2.668
REMARK INTER:                  -2.549
REMARK INTRA:                  -0.118
REMARK UNBOUND:                -0.117
REMARK SMILES O=C([O-])CCC(=O)[O-]
REMARK SMILES IDX 4 1 2 2 1 3 3 4 5 5 6 6 7 7 8 8
REMARK H PARENT
REMARK Flexibility Score: inf
ROOT
ATOM      1  C   UNL     1      55.093 -34.868  22.838  1.00  0.00     0.059 C 
ENDROOT
BRANCH   1   2
ATOM      2  C   UNL     1      53.865 -35.258  23.598  1.00  0.00     0.042 C 
ATOM      3  O   UNL     1      52.725 -35.095  23.089  1.00  0.00    -0.550 OA
ATOM      4  O   UNL     1      53.981 -35.847  24.852  1.00  0.00    -0.550 OA
ENDBRANCH   1   2
BRANCH   1   5
ATOM      5  C   UNL     1      55.665 -36.075  22.091  1.00  0.00     0.059 C 
BRANCH   5   6
ATOM      6  C   UNL     1      56.989 -36.466  22.666  1.00  0.00     0.042 C 
ATOM      7  O   UNL     1      57.045 -37.124  23.738  1.00  0.00    -0.550 OA
ATOM      8  O   UNL     1      58.164 -36.062  22.044  1.00  0.00    -0.550 OA
ENDBRANCH   5   6
ENDBRANCH   1   5
TORSDOF 3
ENDMDL
MODEL 4
REMARK VINA RESULT:    -2.156      1.391      4.121
REMARK INTER + INTRA:          -2.651
REMARK INTER:                  -2.536
REMARK INTRA:                  -0.115
REMARK UNBOUND:                -0.117
REMARK SMILES O=C([O-])CCC(=O)[O-]
REMARK SMILES IDX 4 1 2 2 1 3 3 4 5 5 6 6 7 7 8 8
REMARK H PARENT
REMARK Flexibility Score: inf
ROOT
ATOM      1  C   UNL     1      55.581 -36.099  22.150  1.00  0.00     0.059 C 
ENDROOT
BRANCH   1   2
ATOM      2  C   UNL     1      56.920 -36.465  22.708  1.00  0.00     0.042 C 
ATOM      3  O   UNL     1      57.003 -37.105  23.789  1.00  0.00    -0.550 OA
ATOM      4  O   UNL     1      58.077 -36.142  22.009  1.00  0.00    -0.550 OA
ENDBRANCH   1   2
BRANCH   1   5
ATOM      5  C   UNL     1      54.992 -34.908  22.909  1.00  0.00     0.059 C 
BRANCH   5   6
ATOM      6  C   UNL     1      53.766 -35.321  23.660  1.00  0.00     0.042 C 
ATOM      7  O   UNL     1      52.625 -35.131  23.164  1.00  0.00    -0.550 OA
ATOM      8  O   UNL     1      53.882 -35.870  24.931  1.00  0.00    -0.550 OA
ENDBRANCH   5   6
ENDBRANCH   1   5
TORSDOF 3
ENDMDL
MODEL 5
REMARK VINA RESULT:    -2.072      1.322      1.814
REMARK INTER + INTRA:          -2.553
REMARK INTER:                  -2.406
REMARK INTRA:                  -0.146
REMARK UNBOUND:                -0.117
REMARK SMILES O=C([O-])CCC(=O)[O-]
REMARK SMILES IDX 4 1 2 2 1 3 3 4 5 5 6 6 7 7 8 8
REMARK H PARENT
REMARK Flexibility Score: inf
ROOT
ATOM      1  C   UNL     1      54.711 -35.555  23.081  1.00  0.00     0.059 C 
ENDROOT
BRANCH   1   2
ATOM      2  C   UNL     1      55.010 -34.286  23.814  1.00  0.00     0.042 C 
ATOM      3  O   UNL     1      55.242 -34.308  25.051  1.00  0.00    -0.550 OA
ATOM      4  O   UNL     1      55.082 -33.083  23.122  1.00  0.00    -0.550 OA
ENDBRANCH   1   2
BRANCH   1   5
ATOM      5  C   UNL     1      55.748 -35.794  21.982  1.00  0.00     0.059 C 
BRANCH   5   6
ATOM      6  C   UNL     1      57.028 -36.297  22.570  1.00  0.00     0.042 C 
ATOM      7  O   UNL     1      58.129 -36.012  22.031  1.00  0.00    -0.550 OA
ATOM      8  O   UNL     1      57.002 -37.125  23.687  1.00  0.00    -0.550 OA
ENDBRANCH   5   6
ENDBRANCH   1   5
TORSDOF 3
ENDMDL
MODEL 6
REMARK VINA RESULT:    -2.044      2.030      4.564
REMARK INTER + INTRA:          -2.519
REMARK INTER:                  -2.435
REMARK INTRA:                  -0.084
REMARK UNBOUND:                -0.117
REMARK SMILES O=C([O-])CCC(=O)[O-]
REMARK SMILES IDX 4 1 2 2 1 3 3 4 5 5 6 6 7 7 8 8
REMARK H PARENT
REMARK Flexibility Score: inf
ROOT
ATOM      1  C   UNL     1      55.107 -34.898  23.413  1.00  0.00     0.059 C 
ENDROOT
BRANCH   1   2
ATOM      2  C   UNL     1      55.618 -35.767  22.309  1.00  0.00     0.042 C 
ATOM      3  O   UNL     1      56.761 -36.288  22.388  1.00  0.00    -0.550 OA
ATOM      4  O   UNL     1      54.811 -36.045  21.212  1.00  0.00    -0.550 OA
ENDBRANCH   1   2
BRANCH   1   5
ATOM      5  C   UNL     1      53.769 -35.425  23.934  1.00  0.00     0.059 C 
BRANCH   5   6
ATOM      6  C   UNL     1      52.658 -34.499  23.551  1.00  0.00     0.042 C 
ATOM      7  O   UNL     1      52.728 -33.274  23.833  1.00  0.00    -0.550 OA
ATOM      8  O   UNL     1      51.520 -34.998  22.928  1.00  0.00    -0.550 OA
ENDBRANCH   5   6
ENDBRANCH   1   5
TORSDOF 3
ENDMDL
MODEL 7
REMARK VINA RESULT:    -2.016      2.009      4.551
REMARK INTER + INTRA:          -2.487
REMARK INTER:                  -2.365
REMARK INTRA:                  -0.122
REMARK UNBOUND:                -0.117
REMARK SMILES O=C([O-])CCC(=O)[O-]
REMARK SMILES IDX 4 1 2 2 1 3 3 4 5 5 6 6 7 7 8 8
REMARK H PARENT
REMARK Flexibility Score: inf
ROOT
ATOM      1  C   UNL     1      54.780 -34.722  23.244  1.00  0.00     0.059 C 
ENDROOT
BRANCH   1   2
ATOM      2  C   UNL     1      55.423 -35.657  22.269  1.00  0.00     0.042 C 
ATOM      3  O   UNL     1      54.768 -36.099  21.288  1.00  0.00    -0.550 OA
ATOM      4  O   UNL     1      56.761 -36.002  22.414  1.00  0.00    -0.550 OA
ENDBRANCH   1   2
BRANCH   1   5
ATOM      5  C   UNL     1      54.049 -35.506  24.335  1.00  0.00     0.059 C 
BRANCH   5   6
ATOM      6  C   UNL     1      52.580 -35.547  24.054  1.00  0.00     0.042 C 
ATOM      7  O   UNL     1      51.827 -36.299  24.726  1.00  0.00    -0.550 OA
ATOM      8  O   UNL     1      52.049 -34.791  23.015  1.00  0.00    -0.550 OA
ENDBRANCH   5   6
ENDBRANCH   1   5
TORSDOF 3
ENDMDL
MODEL 8
REMARK VINA RESULT:    -1.993      1.908      2.943
REMARK INTER + INTRA:          -2.460
REMARK INTER:                  -2.352
REMARK INTRA:                  -0.108
REMARK UNBOUND:                -0.117
REMARK SMILES O=C([O-])CCC(=O)[O-]
REMARK SMILES IDX 4 1 2 2 1 3 3 4 5 5 6 6 7 7 8 8
REMARK H PARENT
REMARK Flexibility Score: inf
ROOT
ATOM      1  C   UNL     1      55.624 -34.291  24.214  1.00  0.00     0.059 C 
ENDROOT
BRANCH   1   2
ATOM      2  C   UNL     1      55.224 -32.928  23.745  1.00  0.00     0.042 C 
ATOM      3  O   UNL     1      54.017 -32.673  23.493  1.00  0.00    -0.550 OA
ATOM      4  O   UNL     1      56.178 -31.924  23.634  1.00  0.00    -0.550 OA
ENDBRANCH   1   2
BRANCH   1   5
ATOM      5  C   UNL     1      54.786 -35.365  23.517  1.00  0.00     0.059 C 
BRANCH   5   6
ATOM      6  C   UNL     1      55.454 -35.812  22.255  1.00  0.00     0.042 C 
ATOM      7  O   UNL     1      54.771 -36.042  21.223  1.00  0.00    -0.550 OA
ATOM      8  O   UNL     1      56.828 -36.024  22.233  1.00  0.00    -0.550 OA
ENDBRANCH   5   6
ENDBRANCH   1   5
TORSDOF 3
ENDMDL
MODEL 9
REMARK VINA RESULT:    -1.984      2.275      3.106
REMARK INTER + INTRA:          -2.449
REMARK INTER:                  -2.404
REMARK INTRA:                  -0.045
REMARK UNBOUND:                -0.117
REMARK SMILES O=C([O-])CCC(=O)[O-]
REMARK SMILES IDX 4 1 2 2 1 3 3 4 5 5 6 6 7 7 8 8
REMARK H PARENT
REMARK Flexibility Score: inf
ROOT
ATOM      1  C   UNL     1      53.161 -35.123  23.300  1.00  0.00     0.059 C 
ENDROOT
BRANCH   1   2
ATOM      2  C   UNL     1      52.479 -33.866  23.739  1.00  0.00     0.042 C 
ATOM      3  O   UNL     1      51.380 -33.528  23.226  1.00  0.00    -0.550 OA
ATOM      4  O   UNL     1      53.032 -33.092  24.752  1.00  0.00    -0.550 OA
ENDBRANCH   1   2
BRANCH   1   5
ATOM      5  C   UNL     1      54.680 -34.945  23.329  1.00  0.00     0.059 C 
BRANCH   5   6
ATOM      6  C   UNL     1      55.323 -35.763  22.254  1.00  0.00     0.042 C 
ATOM      7  O   UNL     1      54.692 -36.032  21.199  1.00  0.00    -0.550 OA
ATOM      8  O   UNL     1      56.603 -36.272  22.439  1.00  0.00    -0.550 OA
ENDBRANCH   5   6
ENDBRANCH   1   5
TORSDOF 3
ENDMDL
