MODEL 1
REMARK VINA RESULT:    -4.234      0.000      0.000
REMARK INTER + INTRA:          -5.083
REMARK INTER:                  -4.977
REMARK INTRA:                  -0.107
REMARK UNBOUND:                -0.107
REMARK SMILES O=C([O-])CCC(=O)[O-]
REMARK SMILES IDX 4 1 2 2 1 3 3 4 5 5 6 6 7 7 8 8
REMARK H PARENT
REMARK Flexibility Score: inf
ROOT
ATOM      1  C   UNL     1       9.009 -17.058 -27.324  1.00  0.00     0.059 C 
ENDROOT
BRANCH   1   2
ATOM      2  C   UNL     1       9.096 -17.825 -28.606  1.00  0.00     0.042 C 
ATOM      3  O   UNL     1       8.161 -17.761 -29.446  1.00  0.00    -0.550 OA
ATOM      4  O   UNL     1      10.186 -18.650 -28.851  1.00  0.00    -0.550 OA
ENDBRANCH   1   2
BRANCH   1   5
ATOM      5  C   UNL     1       7.568 -16.618 -27.060  1.00  0.00     0.059 C 
BRANCH   5   6
ATOM      6  C   UNL     1       7.439 -15.135 -27.202  1.00  0.00     0.042 C 
ATOM      7  O   UNL     1       6.909 -14.640 -28.230  1.00  0.00    -0.550 OA
ATOM      8  O   UNL     1       7.948 -14.295 -26.219  1.00  0.00    -0.550 OA
ENDBRANCH   5   6
ENDBRANCH   1   5
TORSDOF 3
ENDMDL
MODEL 2
REMARK VINA RESULT:    -4.208      2.171      3.105
REMARK INTER + INTRA:          -5.053
REMARK INTER:                  -4.962
REMARK INTRA:                  -0.091
REMARK UNBOUND:                -0.107
REMARK SMILES O=C([O-])CCC(=O)[O-]
REMARK SMILES IDX 4 1 2 2 1 3 3 4 5 5 6 6 7 7 8 8
REMARK H PARENT
REMARK Flexibility Score: inf
ROOT
ATOM      1  C   UNL     1       8.960 -16.852 -29.675  1.00  0.00     0.059 C 
ENDROOT
BRANCH   1   2
ATOM      2  C   UNL     1       7.939 -15.985 -30.343  1.00  0.00     0.042 C 
ATOM      3  O   UNL     1       7.643 -16.172 -31.552  1.00  0.00    -0.550 OA
ATOM      4  O   UNL     1       7.351 -14.938 -29.645  1.00  0.00    -0.550 OA
ENDBRANCH   1   2
BRANCH   1   5
ATOM      5  C   UNL     1       8.282 -17.844 -28.728  1.00  0.00     0.059 C 
BRANCH   5   6
ATOM      6  C   UNL     1       8.334 -17.342 -27.320  1.00  0.00     0.042 C 
ATOM      7  O   UNL     1       9.425 -16.961 -26.823  1.00  0.00    -0.550 OA
ATOM      8  O   UNL     1       7.184 -17.341 -26.540  1.00  0.00    -0.550 OA
ENDBRANCH   5   6
ENDBRANCH   1   5
TORSDOF 3
ENDMDL
MODEL 3
REMARK VINA RESULT:    -4.171      2.177      3.581
REMARK INTER + INTRA:          -5.010
REMARK INTER:                  -4.951
REMARK INTRA:                  -0.059
REMARK UNBOUND:                -0.107
REMARK SMILES O=C([O-])CCC(=O)[O-]
REMARK SMILES IDX 4 1 2 2 1 3 3 4 5 5 6 6 7 7 8 8
REMARK H PARENT
REMARK Flexibility Score: inf
ROOT
ATOM      1  C   UNL     1       8.385 -17.881 -28.631  1.00  0.00     0.059 C 
ENDROOT
BRANCH   1   2
ATOM      2  C   UNL     1       8.405 -17.229 -27.285  1.00  0.00     0.042 C 
ATOM      3  O   UNL     1       9.501 -16.966 -26.725  1.00  0.00    -0.550 OA
ATOM      4  O   UNL     1       7.213 -16.958 -26.625  1.00  0.00    -0.550 OA
ENDBRANCH   1   2
BRANCH   1   5
ATOM      5  C   UNL     1       9.183 -17.052 -29.639  1.00  0.00     0.059 C 
BRANCH   5   6
ATOM      6  C   UNL     1       8.325 -16.682 -30.808  1.00  0.00     0.042 C 
ATOM      7  O   UNL     1       8.555 -17.175 -31.943  1.00  0.00    -0.550 OA
ATOM      8  O   UNL     1       7.301 -15.757 -30.654  1.00  0.00    -0.550 OA
ENDBRANCH   5   6
ENDBRANCH   1   5
TORSDOF 3
ENDMDL
MODEL 4
REMARK VINA RESULT:    -4.157      4.109      5.543
REMARK INTER + INTRA:          -4.993
REMARK INTER:                  -4.911
REMARK INTRA:                  -0.081
REMARK UNBOUND:                -0.107
REMARK SMILES O=C([O-])CCC(=O)[O-]
REMARK SMILES IDX 4 1 2 2 1 3 3 4 5 5 6 6 7 7 8 8
REMARK H PARENT
REMARK Flexibility Score: inf
ROOT
ATOM      1  C   UNL     1      12.798 -19.022 -26.368  1.00  0.00     0.059 C 
ENDROOT
BRANCH   1   2
ATOM      2  C   UNL     1      12.158 -18.441 -25.147  1.00  0.00     0.042 C 
ATOM      3  O   UNL     1      10.911 -18.268 -25.108  1.00  0.00    -0.550 OA
ATOM      4  O   UNL     1      12.942 -18.046 -24.070  1.00  0.00    -0.550 OA
ENDBRANCH   1   2
BRANCH   1   5
ATOM      5  C   UNL     1      12.351 -18.263 -27.619  1.00  0.00     0.059 C 
BRANCH   5   6
ATOM      6  C   UNL     1      11.471 -19.126 -28.467  1.00  0.00     0.042 C 
ATOM      7  O   UNL     1      11.877 -20.249 -28.863  1.00  0.00    -0.550 OA
ATOM      8  O   UNL     1      10.219 -18.669 -28.859  1.00  0.00    -0.550 OA
ENDBRANCH   5   6
ENDBRANCH   1   5
TORSDOF 3
ENDMDL
MODEL 5
REMARK VINA RESULT:    -4.132      4.109      4.938
REMARK INTER + INTRA:          -4.963
REMARK INTER:                  -4.879
REMARK INTRA:                  -0.084
REMARK UNBOUND:                -0.107
REMARK SMILES O=C([O-])CCC(=O)[O-]
REMARK SMILES IDX 4 1 2 2 1 3 3 4 5 5 6 6 7 7 8 8
REMARK H PARENT
REMARK Flexibility Score: inf
ROOT
ATOM      1  C   UNL     1      12.371 -18.353 -27.609  1.00  0.00     0.059 C 
ENDROOT
BRANCH   1   2
ATOM      2  C   UNL     1      11.450 -19.174 -28.455  1.00  0.00     0.042 C 
ATOM      3  O   UNL     1      11.812 -20.307 -28.869  1.00  0.00    -0.550 OA
ATOM      4  O   UNL     1      10.212 -18.668 -28.830  1.00  0.00    -0.550 OA
ENDBRANCH   1   2
BRANCH   1   5
ATOM      5  C   UNL     1      12.756 -19.118 -26.341  1.00  0.00     0.059 C 
BRANCH   5   6
ATOM      6  C   UNL     1      12.167 -18.459 -25.134  1.00  0.00     0.042 C 
ATOM      7  O   UNL     1      10.935 -18.206 -25.088  1.00  0.00    -0.550 OA
ATOM      8  O   UNL     1      12.987 -18.082 -24.078  1.00  0.00    -0.550 OA
ENDBRANCH   5   6
ENDBRANCH   1   5
TORSDOF 3
ENDMDL
MODEL 6
REMARK VINA RESULT:    -4.062      1.720      2.384
REMARK INTER + INTRA:          -4.881
REMARK INTER:                  -4.824
REMARK INTRA:                  -0.057
REMARK UNBOUND:                -0.107
REMARK SMILES O=C([O-])CCC(=O)[O-]
REMARK SMILES IDX 4 1 2 2 1 3 3 4 5 5 6 6 7 7 8 8
REMARK H PARENT
REMARK Flexibility Score: inf
ROOT
ATOM      1  C   UNL     1       8.360 -17.644 -28.778  1.00  0.00     0.059 C 
ENDROOT
BRANCH   1   2
ATOM      2  C   UNL     1       9.739 -17.974 -28.299  1.00  0.00     0.042 C 
ATOM      3  O   UNL     1      10.469 -18.756 -28.962  1.00  0.00    -0.550 OA
ATOM      4  O   UNL     1      10.200 -17.457 -27.095  1.00  0.00    -0.550 OA
ENDBRANCH   1   2
BRANCH   1   5
ATOM      5  C   UNL     1       7.935 -16.264 -28.274  1.00  0.00     0.059 C 
BRANCH   5   6
ATOM      6  C   UNL     1       7.519 -15.394 -29.419  1.00  0.00     0.042 C 
ATOM      7  O   UNL     1       7.212 -14.190 -29.220  1.00  0.00    -0.550 OA
ATOM      8  O   UNL     1       7.426 -15.927 -30.698  1.00  0.00    -0.550 OA
ENDBRANCH   5   6
ENDBRANCH   1   5
TORSDOF 3
ENDMDL
MODEL 7
REMARK VINA RESULT:    -3.985      0.956      3.777
REMARK INTER + INTRA:          -4.791
REMARK INTER:                  -4.713
REMARK INTRA:                  -0.078
REMARK UNBOUND:                -0.107
REMARK SMILES O=C([O-])CCC(=O)[O-]
REMARK SMILES IDX 4 1 2 2 1 3 3 4 5 5 6 6 7 7 8 8
REMARK H PARENT
REMARK Flexibility Score: inf
ROOT
ATOM      1  C   UNL     1       7.610 -16.541 -26.962  1.00  0.00     0.059 C 
ENDROOT
BRANCH   1   2
ATOM      2  C   UNL     1       7.456 -15.065 -27.153  1.00  0.00     0.042 C 
ATOM      3  O   UNL     1       6.893 -14.616 -28.186  1.00  0.00    -0.550 OA
ATOM      4  O   UNL     1       7.978 -14.184 -26.215  1.00  0.00    -0.550 OA
ENDBRANCH   1   2
BRANCH   1   5
ATOM      5  C   UNL     1       8.116 -17.197 -28.248  1.00  0.00     0.059 C 
BRANCH   5   6
ATOM      6  C   UNL     1       9.486 -17.762 -28.043  1.00  0.00     0.042 C 
ATOM      7  O   UNL     1      10.003 -18.503 -28.919  1.00  0.00    -0.550 OA
ATOM      8  O   UNL     1      10.173 -17.509 -26.863  1.00  0.00    -0.550 OA
ENDBRANCH   5   6
ENDBRANCH   1   5
TORSDOF 3
ENDMDL
MODEL 8
REMARK VINA RESULT:    -3.983      2.570      3.487
REMARK INTER + INTRA:          -4.788
REMARK INTER:                  -4.699
REMARK INTRA:                  -0.090
REMARK UNBOUND:                -0.107
REMARK SMILES O=C([O-])CCC(=O)[O-]
REMARK SMILES IDX 4 1 2 2 1 3 3 4 5 5 6 6 7 7 8 8
REMARK H PARENT
REMARK Flexibility Score: inf
ROOT
ATOM      1  C   UNL     1       8.384 -16.328 -29.449  1.00  0.00     0.059 C 
ENDROOT
BRANCH   1   2
ATOM      2  C   UNL     1       8.585 -16.418 -30.929  1.00  0.00     0.042 C 
ATOM      3  O   UNL     1       7.636 -16.156 -31.714  1.00  0.00    -0.550 OA
ATOM      4  O   UNL     1       9.805 -16.842 -31.441  1.00  0.00    -0.550 OA
ENDBRANCH   1   2
BRANCH   1   5
ATOM      5  C   UNL     1       8.367 -17.724 -28.825  1.00  0.00     0.059 C 
BRANCH   5   6
ATOM      6  C   UNL     1       9.704 -18.052 -28.241  1.00  0.00     0.042 C 
ATOM      7  O   UNL     1      10.487 -18.828 -28.848  1.00  0.00    -0.550 OA
ATOM      8  O   UNL     1      10.067 -17.539 -27.002  1.00  0.00    -0.550 OA
ENDBRANCH   5   6
ENDBRANCH   1   5
TORSDOF 3
ENDMDL
MODEL 9
REMARK VINA RESULT:    -3.781      2.146      4.187
REMARK INTER + INTRA:          -4.551
REMARK INTER:                  -4.444
REMARK INTRA:                  -0.107
REMARK UNBOUND:                -0.107
REMARK SMILES O=C([O-])CCC(=O)[O-]
REMARK SMILES IDX 4 1 2 2 1 3 3 4 5 5 6 6 7 7 8 8
REMARK H PARENT
REMARK Flexibility Score: inf
ROOT
ATOM      1  C   UNL     1       9.498 -17.178 -27.048  1.00  0.00     0.059 C 
ENDROOT
BRANCH   1   2
ATOM      2  C   UNL     1       8.156 -17.661 -27.500  1.00  0.00     0.042 C 
ATOM      3  O   UNL     1       7.181 -17.657 -26.704  1.00  0.00    -0.550 OA
ATOM      4  O   UNL     1       7.994 -18.163 -28.785  1.00  0.00    -0.550 OA
ENDBRANCH   1   2
BRANCH   1   5
ATOM      5  C   UNL     1      10.417 -18.361 -26.741  1.00  0.00     0.059 C 
BRANCH   5   6
ATOM      6  C   UNL     1      11.330 -18.629 -27.895  1.00  0.00     0.042 C 
ATOM      7  O   UNL     1      12.387 -17.961 -28.036  1.00  0.00    -0.550 OA
ATOM      8  O   UNL     1      10.989 -19.585 -28.844  1.00  0.00    -0.550 OA
ENDBRANCH   5   6
ENDBRANCH   1   5
TORSDOF 3
ENDMDL
