MODEL 1
REMARK VINA RESULT:    -3.610      0.000      0.000
REMARK INTER + INTRA:          -4.677
REMARK INTER:                  -4.454
REMARK INTRA:                  -0.223
REMARK UNBOUND:                -0.223
REMARK SMILES CCCCC=CC(C)=O
REMARK SMILES IDX 4 1 3 2 2 3 1 4 5 5 6 6 7 7 9 8 8 9
REMARK H PARENT
REMARK Flexibility Score: inf
ROOT
ATOM      1  C   UNL     1      20.611  26.750  29.222  1.00  0.00     0.027 C 
ENDROOT
BRANCH   1   2
ATOM      2  C   UNL     1      20.648  25.282  28.779  1.00  0.00     0.004 C 
BRANCH   2   3
ATOM      3  C   UNL     1      19.867  25.082  27.476  1.00  0.00    -0.003 C 
ATOM      4  C   UNL     1      20.604  24.135  26.532  1.00  0.00     0.004 C 
ENDBRANCH   2   3
ENDBRANCH   1   2
BRANCH   1   5
ATOM      5  C   UNL     1      21.873  27.466  28.835  1.00  0.00    -0.023 C 
ATOM      6  C   UNL     1      22.913  26.813  28.306  1.00  0.00     0.042 C 
BRANCH   6   7
ATOM      7  C   UNL     1      24.155  27.500  27.907  1.00  0.00     0.152 C 
ATOM      8  O   UNL     1      24.238  28.091  26.795  1.00  0.00    -0.295 OA
ATOM      9  C   UNL     1      25.330  27.499  28.830  1.00  0.00     0.093 C 
ENDBRANCH   6   7
ENDBRANCH   1   5
TORSDOF 4
ENDMDL
MODEL 2
REMARK VINA RESULT:    -3.528      3.297      4.895
REMARK INTER + INTRA:          -4.577
REMARK INTER:                  -4.468
REMARK INTRA:                  -0.109
REMARK UNBOUND:                -0.223
REMARK SMILES CCCCC=CC(C)=O
REMARK SMILES IDX 4 1 3 2 2 3 1 4 5 5 6 6 7 7 9 8 8 9
REMARK H PARENT
REMARK Flexibility Score: inf
ROOT
ATOM      1  C   UNL     1      20.854  23.549  25.181  1.00  0.00     0.027 C 
ENDROOT
BRANCH   1   2
ATOM      2  C   UNL     1      21.657  24.148  24.020  1.00  0.00     0.004 C 
BRANCH   2   3
ATOM      3  C   UNL     1      22.087  23.059  23.030  1.00  0.00    -0.003 C 
ATOM      4  C   UNL     1      20.875  22.392  22.384  1.00  0.00     0.004 C 
ENDBRANCH   2   3
ENDBRANCH   1   2
BRANCH   1   5
ATOM      5  C   UNL     1      20.996  24.378  26.425  1.00  0.00    -0.023 C 
ATOM      6  C   UNL     1      19.927  24.790  27.116  1.00  0.00     0.042 C 
BRANCH   6   7
ATOM      7  C   UNL     1      20.046  25.593  28.347  1.00  0.00     0.152 C 
ATOM      8  O   UNL     1      20.889  25.292  29.236  1.00  0.00    -0.295 OA
ATOM      9  C   UNL     1      19.160  26.780  28.545  1.00  0.00     0.093 C 
ENDBRANCH   6   7
ENDBRANCH   1   5
TORSDOF 4
ENDMDL
MODEL 3
REMARK VINA RESULT:    -3.510      3.367      4.439
REMARK INTER + INTRA:          -4.553
REMARK INTER:                  -4.277
REMARK INTRA:                  -0.276
REMARK UNBOUND:                -0.223
REMARK SMILES CCCCC=CC(C)=O
REMARK SMILES IDX 4 1 3 2 2 3 1 4 5 5 6 6 7 7 9 8 8 9
REMARK H PARENT
REMARK Flexibility Score: inf
ROOT
ATOM      1  C   UNL     1      17.407  26.673  27.936  1.00  0.00     0.027 C 
ENDROOT
BRANCH   1   2
ATOM      2  C   UNL     1      16.625  25.412  28.324  1.00  0.00     0.004 C 
BRANCH   2   3
ATOM      3  C   UNL     1      15.535  25.101  27.293  1.00  0.00    -0.003 C 
ATOM      4  C   UNL     1      15.784  23.757  26.615  1.00  0.00     0.004 C 
ENDBRANCH   2   3
ENDBRANCH   1   2
BRANCH   1   5
ATOM      5  C   UNL     1      18.824  26.343  27.566  1.00  0.00    -0.023 C 
ATOM      6  C   UNL     1      19.276  25.083  27.586  1.00  0.00     0.042 C 
BRANCH   6   7
ATOM      7  C   UNL     1      20.660  24.737  27.213  1.00  0.00     0.152 C 
ATOM      8  O   UNL     1      21.623  25.003  27.983  1.00  0.00    -0.295 OA
ATOM      9  C   UNL     1      20.926  24.058  25.909  1.00  0.00     0.093 C 
ENDBRANCH   6   7
ENDBRANCH   1   5
TORSDOF 4
ENDMDL
MODEL 4
REMARK VINA RESULT:    -3.477      1.271      1.779
REMARK INTER + INTRA:          -4.513
REMARK INTER:                  -4.291
REMARK INTRA:                  -0.223
REMARK UNBOUND:                -0.223
REMARK SMILES CCCCC=CC(C)=O
REMARK SMILES IDX 4 1 3 2 2 3 1 4 5 5 6 6 7 7 9 8 8 9
REMARK H PARENT
REMARK Flexibility Score: inf
ROOT
ATOM      1  C   UNL     1      20.877  25.393  28.840  1.00  0.00     0.027 C 
ENDROOT
BRANCH   1   2
ATOM      2  C   UNL     1      19.859  25.361  27.693  1.00  0.00     0.004 C 
BRANCH   2   3
ATOM      3  C   UNL     1      18.539  26.016  28.112  1.00  0.00    -0.003 C 
ATOM      4  C   UNL     1      18.408  27.419  27.525  1.00  0.00     0.004 C 
ENDBRANCH   2   3
ENDBRANCH   1   2
BRANCH   1   5
ATOM      5  C   UNL     1      22.185  25.975  28.389  1.00  0.00    -0.023 C 
ATOM      6  C   UNL     1      22.501  27.254  28.628  1.00  0.00     0.042 C 
BRANCH   6   7
ATOM      7  C   UNL     1      23.787  27.840  28.206  1.00  0.00     0.152 C 
ATOM      8  O   UNL     1      24.142  27.816  26.996  1.00  0.00    -0.295 OA
ATOM      9  C   UNL     1      24.679  28.474  29.224  1.00  0.00     0.093 C 
ENDBRANCH   6   7
ENDBRANCH   1   5
TORSDOF 4
ENDMDL
MODEL 5
REMARK VINA RESULT:    -3.415      7.122      7.805
REMARK INTER + INTRA:          -4.437
REMARK INTER:                  -4.175
REMARK INTRA:                  -0.262
REMARK UNBOUND:                -0.223
REMARK SMILES CCCCC=CC(C)=O
REMARK SMILES IDX 4 1 3 2 2 3 1 4 5 5 6 6 7 7 9 8 8 9
REMARK H PARENT
REMARK Flexibility Score: inf
ROOT
ATOM      1  C   UNL     1      16.370  32.622  28.999  1.00  0.00     0.027 C 
ENDROOT
BRANCH   1   2
ATOM      2  C   UNL     1      15.820  32.540  30.428  1.00  0.00     0.004 C 
BRANCH   2   3
ATOM      3  C   UNL     1      14.930  31.305  30.604  1.00  0.00    -0.003 C 
ATOM      4  C   UNL     1      15.214  30.263  29.526  1.00  0.00     0.004 C 
ENDBRANCH   2   3
ENDBRANCH   1   2
BRANCH   1   5
ATOM      5  C   UNL     1      17.745  33.226  28.978  1.00  0.00    -0.023 C 
ATOM      6  C   UNL     1      18.774  32.643  29.604  1.00  0.00     0.042 C 
BRANCH   6   7
ATOM      7  C   UNL     1      20.134  33.213  29.585  1.00  0.00     0.152 C 
ATOM      8  O   UNL     1      21.148  32.464  29.566  1.00  0.00    -0.295 OA
ATOM      9  C   UNL     1      20.313  34.697  29.583  1.00  0.00     0.093 C 
ENDBRANCH   6   7
ENDBRANCH   1   5
TORSDOF 4
ENDMDL
MODEL 6
REMARK VINA RESULT:    -3.377      5.350      6.872
REMARK INTER + INTRA:          -4.390
REMARK INTER:                  -4.129
REMARK INTRA:                  -0.261
REMARK UNBOUND:                -0.223
REMARK SMILES CCCCC=CC(C)=O
REMARK SMILES IDX 4 1 3 2 2 3 1 4 5 5 6 6 7 7 9 8 8 9
REMARK H PARENT
REMARK Flexibility Score: inf
ROOT
ATOM      1  C   UNL     1      18.493  32.030  29.938  1.00  0.00     0.027 C 
ENDROOT
BRANCH   1   2
ATOM      2  C   UNL     1      17.839  32.993  28.940  1.00  0.00     0.004 C 
BRANCH   2   3
ATOM      3  C   UNL     1      16.312  32.858  28.966  1.00  0.00    -0.003 C 
ATOM      4  C   UNL     1      15.824  32.377  30.330  1.00  0.00     0.004 C 
ENDBRANCH   2   3
ENDBRANCH   1   2
BRANCH   1   5
ATOM      5  C   UNL     1      19.141  30.874  29.233  1.00  0.00    -0.023 C 
ATOM      6  C   UNL     1      18.502  29.710  29.067  1.00  0.00     0.042 C 
BRANCH   6   7
ATOM      7  C   UNL     1      19.116  28.567  28.366  1.00  0.00     0.152 C 
ATOM      8  O   UNL     1      20.340  28.301  28.512  1.00  0.00    -0.295 OA
ATOM      9  C   UNL     1      18.277  27.711  27.473  1.00  0.00     0.093 C 
ENDBRANCH   6   7
ENDBRANCH   1   5
TORSDOF 4
ENDMDL
MODEL 7
REMARK VINA RESULT:    -3.316      4.986      6.198
REMARK INTER + INTRA:          -4.315
REMARK INTER:                  -4.106
REMARK INTRA:                  -0.208
REMARK UNBOUND:                -0.223
REMARK SMILES CCCCC=CC(C)=O
REMARK SMILES IDX 4 1 3 2 2 3 1 4 5 5 6 6 7 7 9 8 8 9
REMARK H PARENT
REMARK Flexibility Score: inf
ROOT
ATOM      1  C   UNL     1      15.394  23.815  27.283  1.00  0.00     0.027 C 
ENDROOT
BRANCH   1   2
ATOM      2  C   UNL     1      15.932  23.335  25.929  1.00  0.00     0.004 C 
BRANCH   2   3
ATOM      3  C   UNL     1      16.678  22.005  26.074  1.00  0.00    -0.003 C 
ATOM      4  C   UNL     1      18.107  22.114  25.550  1.00  0.00     0.004 C 
ENDBRANCH   2   3
ENDBRANCH   1   2
BRANCH   1   5
ATOM      5  C   UNL     1      15.750  25.252  27.532  1.00  0.00    -0.023 C 
ATOM      6  C   UNL     1      16.969  25.606  27.956  1.00  0.00     0.042 C 
BRANCH   6   7
ATOM      7  C   UNL     1      17.343  27.012  28.194  1.00  0.00     0.152 C 
ATOM      8  O   UNL     1      16.793  27.681  29.111  1.00  0.00    -0.295 OA
ATOM      9  C   UNL     1      18.388  27.653  27.339  1.00  0.00     0.093 C 
ENDBRANCH   6   7
ENDBRANCH   1   5
TORSDOF 4
ENDMDL
MODEL 8
REMARK VINA RESULT:    -3.294      4.612      6.531
REMARK INTER + INTRA:          -4.287
REMARK INTER:                  -4.181
REMARK INTRA:                  -0.106
REMARK UNBOUND:                -0.223
REMARK SMILES CCCCC=CC(C)=O
REMARK SMILES IDX 4 1 3 2 2 3 1 4 5 5 6 6 7 7 9 8 8 9
REMARK H PARENT
REMARK Flexibility Score: inf
ROOT
ATOM      1  C   UNL     1      18.905  30.029  28.690  1.00  0.00     0.027 C 
ENDROOT
BRANCH   1   2
ATOM      2  C   UNL     1      17.796  30.791  29.426  1.00  0.00     0.004 C 
BRANCH   2   3
ATOM      3  C   UNL     1      17.822  32.280  29.068  1.00  0.00    -0.003 C 
ATOM      4  C   UNL     1      16.420  32.883  29.115  1.00  0.00     0.004 C 
ENDBRANCH   2   3
ENDBRANCH   1   2
BRANCH   1   5
ATOM      5  C   UNL     1      18.664  28.547  28.727  1.00  0.00    -0.023 C 
ATOM      6  C   UNL     1      18.561  27.828  27.604  1.00  0.00     0.042 C 
BRANCH   6   7
ATOM      7  C   UNL     1      18.338  26.370  27.618  1.00  0.00     0.152 C 
ATOM      8  O   UNL     1      19.286  25.569  27.392  1.00  0.00    -0.295 OA
ATOM      9  C   UNL     1      16.973  25.834  27.908  1.00  0.00     0.093 C 
ENDBRANCH   6   7
ENDBRANCH   1   5
TORSDOF 4
ENDMDL
MODEL 9
REMARK VINA RESULT:    -3.277      5.200      6.304
REMARK INTER + INTRA:          -4.267
REMARK INTER:                  -4.081
REMARK INTRA:                  -0.186
REMARK UNBOUND:                -0.223
REMARK SMILES CCCCC=CC(C)=O
REMARK SMILES IDX 4 1 3 2 2 3 1 4 5 5 6 6 7 7 9 8 8 9
REMARK H PARENT
REMARK Flexibility Score: inf
ROOT
ATOM      1  C   UNL     1      18.331  28.882  29.631  1.00  0.00     0.027 C 
ENDROOT
BRANCH   1   2
ATOM      2  C   UNL     1      19.014  28.649  28.278  1.00  0.00     0.004 C 
BRANCH   2   3
ATOM      3  C   UNL     1      18.215  27.661  27.422  1.00  0.00    -0.003 C 
ATOM      4  C   UNL     1      18.747  26.239  27.580  1.00  0.00     0.004 C 
ENDBRANCH   2   3
ENDBRANCH   1   2
BRANCH   1   5
ATOM      5  C   UNL     1      17.774  30.273  29.727  1.00  0.00    -0.023 C 
ATOM      6  C   UNL     1      18.323  31.293  29.057  1.00  0.00     0.042 C 
BRANCH   6   7
ATOM      7  C   UNL     1      17.783  32.664  29.127  1.00  0.00     0.152 C 
ATOM      8  O   UNL     1      18.554  33.663  29.125  1.00  0.00    -0.295 OA
ATOM      9  C   UNL     1      16.305  32.873  29.197  1.00  0.00     0.093 C 
ENDBRANCH   6   7
ENDBRANCH   1   5
TORSDOF 4
ENDMDL
