MODEL 1
REMARK VINA RESULT:    -3.526      0.000      0.000
REMARK INTER + INTRA:          -5.961
REMARK INTER:                  -5.381
REMARK INTRA:                  -0.580
REMARK UNBOUND:                -0.580
REMARK SMILES O=C([O-])CCCCCCCCC(=O)[O-]
REMARK SMILES IDX 7 1 6 2 5 3 4 4 2 5 1 6 3 7 8 8 9 9 10 10 11 11 12 12 13 13
REMARK SMILES IDX 14 14
REMARK H PARENT
REMARK Flexibility Score: inf
ROOT
ATOM      1  C   UNL     1      37.784   4.218  -8.225  1.00  0.00     0.000 C 
ENDROOT
BRANCH   1   2
ATOM      2  C   UNL     1      36.375   4.811  -8.385  1.00  0.00     0.000 C 
BRANCH   2   3
ATOM      3  C   UNL     1      35.340   4.133  -7.471  1.00  0.00     0.006 C 
BRANCH   3   4
ATOM      4  C   UNL     1      34.455   5.153  -6.742  1.00  0.00     0.053 C 
BRANCH   4   5
ATOM      5  C   UNL     1      34.884   5.345  -5.320  1.00  0.00     0.041 C 
ATOM      6  O   UNL     1      34.406   4.618  -4.409  1.00  0.00    -0.550 OA
ATOM      7  O   UNL     1      35.833   6.309  -5.004  1.00  0.00    -0.550 OA
ENDBRANCH   4   5
ENDBRANCH   3   4
ENDBRANCH   2   3
ENDBRANCH   1   2
BRANCH   1   8
ATOM      8  C   UNL     1      38.455   4.631  -6.906  1.00  0.00     0.000 C 
BRANCH   8   9
ATOM      9  C   UNL     1      39.743   3.833  -6.672  1.00  0.00     0.000 C 
BRANCH   9  10
ATOM     10  C   UNL     1      39.659   2.447  -7.332  1.00  0.00     0.006 C 
BRANCH  10  11
ATOM     11  C   UNL     1      40.977   1.670  -7.220  1.00  0.00     0.053 C 
BRANCH  11  12
ATOM     12  C   UNL     1      41.232   1.211  -5.817  1.00  0.00     0.041 C 
ATOM     13  O   UNL     1      42.316   1.493  -5.243  1.00  0.00    -0.550 OA
ATOM     14  O   UNL     1      40.257   0.497  -5.132  1.00  0.00    -0.550 OA
ENDBRANCH  11  12
ENDBRANCH  10  11
ENDBRANCH   9  10
ENDBRANCH   8   9
ENDBRANCH   1   8
TORSDOF 9
ENDMDL
MODEL 2
REMARK VINA RESULT:    -3.453      1.529      2.195
REMARK INTER + INTRA:          -5.849
REMARK INTER:                  -5.174
REMARK INTRA:                  -0.675
REMARK UNBOUND:                -0.580
REMARK SMILES O=C([O-])CCCCCCCCC(=O)[O-]
REMARK SMILES IDX 7 1 6 2 5 3 4 4 2 5 1 6 3 7 8 8 9 9 10 10 11 11 12 12 13 13
REMARK SMILES IDX 14 14
REMARK H PARENT
REMARK Flexibility Score: inf
ROOT
ATOM      1  C   UNL     1      35.480   3.765  -7.613  1.00  0.00     0.000 C 
ENDROOT
BRANCH   1   2
ATOM      2  C   UNL     1      35.687   5.288  -7.616  1.00  0.00     0.000 C 
BRANCH   2   3
ATOM      3  C   UNL     1      36.496   5.778  -6.404  1.00  0.00     0.006 C 
BRANCH   3   4
ATOM      4  C   UNL     1      35.855   7.003  -5.736  1.00  0.00     0.053 C 
BRANCH   4   5
ATOM      5  C   UNL     1      34.990   6.614  -4.577  1.00  0.00     0.041 C 
ATOM      6  O   UNL     1      34.502   7.498  -3.824  1.00  0.00    -0.550 OA
ATOM      7  O   UNL     1      34.698   5.275  -4.346  1.00  0.00    -0.550 OA
ENDBRANCH   4   5
ENDBRANCH   3   4
ENDBRANCH   2   3
ENDBRANCH   1   2
BRANCH   1   8
ATOM      8  C   UNL     1      36.343   3.047  -8.662  1.00  0.00     0.000 C 
BRANCH   8   9
ATOM      9  C   UNL     1      37.564   2.389  -8.009  1.00  0.00     0.000 C 
BRANCH   9  10
ATOM     10  C   UNL     1      38.809   3.280  -8.145  1.00  0.00     0.006 C 
BRANCH  10  11
ATOM     11  C   UNL     1      39.497   3.527  -6.797  1.00  0.00     0.053 C 
BRANCH  11  12
ATOM     12  C   UNL     1      40.367   2.374  -6.399  1.00  0.00     0.041 C 
ATOM     13  O   UNL     1      41.366   2.062  -7.097  1.00  0.00    -0.550 OA
ATOM     14  O   UNL     1      40.089   1.662  -5.239  1.00  0.00    -0.550 OA
ENDBRANCH  11  12
ENDBRANCH  10  11
ENDBRANCH   9  10
ENDBRANCH   8   9
ENDBRANCH   1   8
TORSDOF 9
ENDMDL
MODEL 3
REMARK VINA RESULT:    -3.439      5.342      8.055
REMARK INTER + INTRA:          -5.828
REMARK INTER:                  -5.243
REMARK INTRA:                  -0.586
REMARK UNBOUND:                -0.580
REMARK SMILES O=C([O-])CCCCCCCCC(=O)[O-]
REMARK SMILES IDX 7 1 6 2 5 3 4 4 2 5 1 6 3 7 8 8 9 9 10 10 11 11 12 12 13 13
REMARK SMILES IDX 14 14
REMARK H PARENT
REMARK Flexibility Score: inf
ROOT
ATOM      1  C   UNL     1      29.958   6.851  -7.057  1.00  0.00     0.000 C 
ENDROOT
BRANCH   1   2
ATOM      2  C   UNL     1      28.980   7.978  -7.425  1.00  0.00     0.000 C 
BRANCH   2   3
ATOM      3  C   UNL     1      29.058   8.366  -8.912  1.00  0.00     0.006 C 
BRANCH   3   4
ATOM      4  C   UNL     1      28.553   7.245  -9.830  1.00  0.00     0.053 C 
BRANCH   4   5
ATOM      5  C   UNL     1      29.566   6.879 -10.871  1.00  0.00     0.041 C 
ATOM      6  O   UNL     1      30.679   7.467 -10.907  1.00  0.00    -0.550 OA
ATOM      7  O   UNL     1      29.291   5.869 -11.784  1.00  0.00    -0.550 OA
ENDBRANCH   4   5
ENDBRANCH   3   4
ENDBRANCH   2   3
ENDBRANCH   1   2
BRANCH   1   8
ATOM      8  C   UNL     1      31.404   7.162  -7.470  1.00  0.00     0.000 C 
BRANCH   8   9
ATOM      9  C   UNL     1      32.168   5.875  -7.803  1.00  0.00     0.000 C 
BRANCH   9  10
ATOM     10  C   UNL     1      33.101   5.473  -6.650  1.00  0.00     0.006 C 
BRANCH  10  11
ATOM     11  C   UNL     1      33.860   6.674  -6.071  1.00  0.00     0.053 C 
BRANCH  11  12
ATOM     12  C   UNL     1      34.834   6.256  -5.012  1.00  0.00     0.041 C 
ATOM     13  O   UNL     1      34.704   5.147  -4.432  1.00  0.00    -0.550 OA
ATOM     14  O   UNL     1      35.904   7.080  -4.688  1.00  0.00    -0.550 OA
ENDBRANCH  11  12
ENDBRANCH  10  11
ENDBRANCH   9  10
ENDBRANCH   8   9
ENDBRANCH   1   8
TORSDOF 9
ENDMDL
MODEL 4
REMARK VINA RESULT:    -3.405      5.463      7.147
REMARK INTER + INTRA:          -5.776
REMARK INTER:                  -5.254
REMARK INTRA:                  -0.522
REMARK UNBOUND:                -0.580
REMARK SMILES O=C([O-])CCCCCCCCC(=O)[O-]
REMARK SMILES IDX 7 1 6 2 5 3 4 4 2 5 1 6 3 7 8 8 9 9 10 10 11 11 12 12 13 13
REMARK SMILES IDX 14 14
REMARK H PARENT
REMARK Flexibility Score: inf
ROOT
ATOM      1  C   UNL     1      36.431   6.666  -6.175  1.00  0.00     0.000 C 
ENDROOT
BRANCH   1   2
ATOM      2  C   UNL     1      35.553   7.846  -5.728  1.00  0.00     0.000 C 
BRANCH   2   3
ATOM      3  C   UNL     1      35.841   8.284  -4.281  1.00  0.00     0.006 C 
BRANCH   3   4
ATOM      4  C   UNL     1      34.559   8.648  -3.520  1.00  0.00     0.053 C 
BRANCH   4   5
ATOM      5  C   UNL     1      34.727   8.487  -2.041  1.00  0.00     0.041 C 
ATOM      6  O   UNL     1      35.806   8.822  -1.484  1.00  0.00    -0.550 OA
ATOM      7  O   UNL     1      33.680   7.994  -1.272  1.00  0.00    -0.550 OA
ENDBRANCH   4   5
ENDBRANCH   3   4
ENDBRANCH   2   3
ENDBRANCH   1   2
BRANCH   1   8
ATOM      8  C   UNL     1      35.610   5.416  -6.524  1.00  0.00     0.000 C 
BRANCH   8   9
ATOM      9  C   UNL     1      34.316   5.364  -5.703  1.00  0.00     0.000 C 
BRANCH   9  10
ATOM     10  C   UNL     1      33.084   5.308  -6.620  1.00  0.00     0.006 C 
BRANCH  10  11
ATOM     11  C   UNL     1      33.377   5.861  -8.021  1.00  0.00     0.053 C 
BRANCH  11  12
ATOM     12  C   UNL     1      32.117   6.093  -8.799  1.00  0.00     0.041 C 
ATOM     13  O   UNL     1      31.143   6.688  -8.268  1.00  0.00    -0.550 OA
ATOM     14  O   UNL     1      32.032   5.679 -10.122  1.00  0.00    -0.550 OA
ENDBRANCH  11  12
ENDBRANCH  10  11
ENDBRANCH   9  10
ENDBRANCH   8   9
ENDBRANCH   1   8
TORSDOF 9
ENDMDL
MODEL 5
REMARK VINA RESULT:    -3.397      1.421      6.158
REMARK INTER + INTRA:          -5.765
REMARK INTER:                  -5.136
REMARK INTRA:                  -0.629
REMARK UNBOUND:                -0.580
REMARK SMILES O=C([O-])CCCCCCCCC(=O)[O-]
REMARK SMILES IDX 7 1 6 2 5 3 4 4 2 5 1 6 3 7 8 8 9 9 10 10 11 11 12 12 13 13
REMARK SMILES IDX 14 14
REMARK H PARENT
REMARK Flexibility Score: inf
ROOT
ATOM      1  C   UNL     1      37.299   3.481  -8.892  1.00  0.00     0.000 C 
ENDROOT
BRANCH   1   2
ATOM      2  C   UNL     1      38.516   2.690  -8.385  1.00  0.00     0.000 C 
BRANCH   2   3
ATOM      3  C   UNL     1      39.681   3.602  -7.963  1.00  0.00     0.006 C 
BRANCH   3   4
ATOM      4  C   UNL     1      40.008   3.469  -6.470  1.00  0.00     0.053 C 
BRANCH   4   5
ATOM      5  C   UNL     1      40.590   2.127  -6.146  1.00  0.00     0.041 C 
ATOM      6  O   UNL     1      40.080   1.416  -5.240  1.00  0.00    -0.550 OA
ATOM      7  O   UNL     1      41.679   1.649  -6.866  1.00  0.00    -0.550 OA
ENDBRANCH   4   5
ENDBRANCH   3   4
ENDBRANCH   2   3
ENDBRANCH   1   2
BRANCH   1   8
ATOM      8  C   UNL     1      36.053   3.273  -8.019  1.00  0.00     0.000 C 
BRANCH   8   9
ATOM      9  C   UNL     1      35.574   4.602  -7.422  1.00  0.00     0.000 C 
BRANCH   9  10
ATOM     10  C   UNL     1      36.707   5.301  -6.655  1.00  0.00     0.006 C 
BRANCH  10  11
ATOM     11  C   UNL     1      36.254   6.627  -6.030  1.00  0.00     0.053 C 
BRANCH  11  12
ATOM     12  C   UNL     1      34.950   6.482  -5.307  1.00  0.00     0.041 C 
ATOM     13  O   UNL     1      34.867   5.748  -4.288  1.00  0.00    -0.550 OA
ATOM     14  O   UNL     1      33.833   7.183  -5.742  1.00  0.00    -0.550 OA
ENDBRANCH  11  12
ENDBRANCH  10  11
ENDBRANCH   9  10
ENDBRANCH   8   9
ENDBRANCH   1   8
TORSDOF 9
ENDMDL
MODEL 6
REMARK VINA RESULT:    -3.367     11.365     14.240
REMARK INTER + INTRA:          -5.718
REMARK INTER:                  -5.302
REMARK INTRA:                  -0.415
REMARK UNBOUND:                -0.580
REMARK SMILES O=C([O-])CCCCCCCCC(=O)[O-]
REMARK SMILES IDX 7 1 6 2 5 3 4 4 2 5 1 6 3 7 8 8 9 9 10 10 11 11 12 12 13 13
REMARK SMILES IDX 14 14
REMARK H PARENT
REMARK Flexibility Score: inf
ROOT
ATOM      1  C   UNL     1      30.526  -1.371   2.836  1.00  0.00     0.000 C 
ENDROOT
BRANCH   1   2
ATOM      2  C   UNL     1      31.656  -0.330   2.868  1.00  0.00     0.000 C 
BRANCH   2   3
ATOM      3  C   UNL     1      31.522   0.724   1.756  1.00  0.00     0.006 C 
BRANCH   3   4
ATOM      4  C   UNL     1      31.981   2.114   2.217  1.00  0.00     0.053 C 
BRANCH   4   5
ATOM      5  C   UNL     1      32.319   3.000   1.058  1.00  0.00     0.041 C 
ATOM      6  O   UNL     1      33.378   2.812   0.403  1.00  0.00    -0.550 OA
ATOM      7  O   UNL     1      31.450   4.018   0.684  1.00  0.00    -0.550 OA
ENDBRANCH   4   5
ENDBRANCH   3   4
ENDBRANCH   2   3
ENDBRANCH   1   2
BRANCH   1   8
ATOM      8  C   UNL     1      29.178  -0.797   3.300  1.00  0.00     0.000 C 
BRANCH   8   9
ATOM      9  C   UNL     1      28.152  -0.822   2.161  1.00  0.00     0.000 C 
BRANCH   9  10
ATOM     10  C   UNL     1      27.342  -2.128   2.177  1.00  0.00     0.006 C 
BRANCH  10  11
ATOM     11  C   UNL     1      25.907  -1.916   2.677  1.00  0.00     0.053 C 
BRANCH  11  12
ATOM     12  C   UNL     1      25.794  -2.148   4.153  1.00  0.00     0.041 C 
ATOM     13  O   UNL     1      26.131  -3.255   4.650  1.00  0.00    -0.550 OA
ATOM     14  O   UNL     1      25.346  -1.130   4.984  1.00  0.00    -0.550 OA
ENDBRANCH  11  12
ENDBRANCH  10  11
ENDBRANCH   9  10
ENDBRANCH   8   9
ENDBRANCH   1   8
TORSDOF 9
ENDMDL
MODEL 7
REMARK VINA RESULT:    -3.355      0.980      1.803
REMARK INTER + INTRA:          -5.700
REMARK INTER:                  -5.033
REMARK INTRA:                  -0.667
REMARK UNBOUND:                -0.580
REMARK SMILES O=C([O-])CCCCCCCCC(=O)[O-]
REMARK SMILES IDX 7 1 6 2 5 3 4 4 2 5 1 6 3 7 8 8 9 9 10 10 11 11 12 12 13 13
REMARK SMILES IDX 14 14
REMARK H PARENT
REMARK Flexibility Score: inf
ROOT
ATOM      1  C   UNL     1      37.084   6.392  -8.176  1.00  0.00     0.000 C 
ENDROOT
BRANCH   1   2
ATOM      2  C   UNL     1      35.790   5.661  -8.568  1.00  0.00     0.000 C 
BRANCH   2   3
ATOM      3  C   UNL     1      34.631   5.947  -7.597  1.00  0.00     0.006 C 
BRANCH   3   4
ATOM      4  C   UNL     1      34.389   4.784  -6.625  1.00  0.00     0.053 C 
BRANCH   4   5
ATOM      5  C   UNL     1      34.769   5.144  -5.222  1.00  0.00     0.041 C 
ATOM      6  O   UNL     1      35.608   6.058  -5.007  1.00  0.00    -0.550 OA
ATOM      7  O   UNL     1      34.175   4.488  -4.151  1.00  0.00    -0.550 OA
ENDBRANCH   4   5
ENDBRANCH   3   4
ENDBRANCH   2   3
ENDBRANCH   1   2
BRANCH   1   8
ATOM      8  C   UNL     1      38.107   5.466  -7.502  1.00  0.00     0.000 C 
BRANCH   8   9
ATOM      9  C   UNL     1      37.796   3.995  -7.802  1.00  0.00     0.000 C 
BRANCH   9  10
ATOM     10  C   UNL     1      39.084   3.158  -7.852  1.00  0.00     0.006 C 
BRANCH  10  11
ATOM     11  C   UNL     1      39.995   3.421  -6.646  1.00  0.00     0.053 C 
BRANCH  11  12
ATOM     12  C   UNL     1      40.594   2.153  -6.117  1.00  0.00     0.041 C 
ATOM     13  O   UNL     1      40.001   1.496  -5.222  1.00  0.00    -0.550 OA
ATOM     14  O   UNL     1      41.793   1.682  -6.636  1.00  0.00    -0.550 OA
ENDBRANCH  11  12
ENDBRANCH  10  11
ENDBRANCH   9  10
ENDBRANCH   8   9
ENDBRANCH   1   8
TORSDOF 9
ENDMDL
MODEL 8
REMARK VINA RESULT:    -3.277      0.947      5.883
REMARK INTER + INTRA:          -5.581
REMARK INTER:                  -4.960
REMARK INTRA:                  -0.621
REMARK UNBOUND:                -0.580
REMARK SMILES O=C([O-])CCCCCCCCC(=O)[O-]
REMARK SMILES IDX 7 1 6 2 5 3 4 4 2 5 1 6 3 7 8 8 9 9 10 10 11 11 12 12 13 13
REMARK SMILES IDX 14 14
REMARK H PARENT
REMARK Flexibility Score: inf
ROOT
ATOM      1  C   UNL     1      37.915   4.016  -7.985  1.00  0.00     0.000 C 
ENDROOT
BRANCH   1   2
ATOM      2  C   UNL     1      39.242   4.559  -7.429  1.00  0.00     0.000 C 
BRANCH   2   3
ATOM      3  C   UNL     1      39.952   3.552  -6.506  1.00  0.00     0.006 C 
BRANCH   3   4
ATOM      4  C   UNL     1      40.236   2.220  -7.214  1.00  0.00     0.053 C 
BRANCH   4   5
ATOM      5  C   UNL     1      39.651   1.060  -6.469  1.00  0.00     0.041 C 
ATOM      6  O   UNL     1      38.684   0.416  -6.955  1.00  0.00    -0.550 OA
ATOM      7  O   UNL     1      40.193   0.672  -5.249  1.00  0.00    -0.550 OA
ENDBRANCH   4   5
ENDBRANCH   3   4
ENDBRANCH   2   3
ENDBRANCH   1   2
BRANCH   1   8
ATOM      8  C   UNL     1      37.229   5.000  -8.945  1.00  0.00     0.000 C 
BRANCH   8   9
ATOM      9  C   UNL     1      35.703   4.874  -8.861  1.00  0.00     0.000 C 
BRANCH   9  10
ATOM     10  C   UNL     1      35.282   4.119  -7.591  1.00  0.00     0.006 C 
BRANCH  10  11
ATOM     11  C   UNL     1      34.365   4.959  -6.692  1.00  0.00     0.053 C 
BRANCH  11  12
ATOM     12  C   UNL     1      35.069   5.408  -5.448  1.00  0.00     0.041 C 
ATOM     13  O   UNL     1      36.080   6.153  -5.524  1.00  0.00    -0.550 OA
ATOM     14  O   UNL     1      34.588   5.027  -4.202  1.00  0.00    -0.550 OA
ENDBRANCH  11  12
ENDBRANCH  10  11
ENDBRANCH   9  10
ENDBRANCH   8   9
ENDBRANCH   1   8
TORSDOF 9
ENDMDL
MODEL 9
REMARK VINA RESULT:    -3.262      3.212      4.739
REMARK INTER + INTRA:          -5.558
REMARK INTER:                  -5.106
REMARK INTRA:                  -0.452
REMARK UNBOUND:                -0.580
REMARK SMILES O=C([O-])CCCCCCCCC(=O)[O-]
REMARK SMILES IDX 7 1 6 2 5 3 4 4 2 5 1 6 3 7 8 8 9 9 10 10 11 11 12 12 13 13
REMARK SMILES IDX 14 14
REMARK H PARENT
REMARK Flexibility Score: inf
ROOT
ATOM      1  C   UNL     1      36.211   6.219  -6.092  1.00  0.00     0.000 C 
ENDROOT
BRANCH   1   2
ATOM      2  C   UNL     1      36.296   7.728  -5.811  1.00  0.00     0.000 C 
BRANCH   2   3
ATOM      3  C   UNL     1      35.311   8.183  -4.720  1.00  0.00     0.006 C 
BRANCH   3   4
ATOM      4  C   UNL     1      36.016   8.926  -3.577  1.00  0.00     0.053 C 
BRANCH   4   5
ATOM      5  C   UNL     1      35.365   8.657  -2.255  1.00  0.00     0.041 C 
ATOM      6  O   UNL     1      35.970   8.925  -1.184  1.00  0.00    -0.550 OA
ATOM      7  O   UNL     1      34.078   8.136  -2.208  1.00  0.00    -0.550 OA
ENDBRANCH   4   5
ENDBRANCH   3   4
ENDBRANCH   2   3
ENDBRANCH   1   2
BRANCH   1   8
ATOM      8  C   UNL     1      34.885   5.603  -5.623  1.00  0.00     0.000 C 
BRANCH   8   9
ATOM      9  C   UNL     1      34.467   4.442  -6.535  1.00  0.00     0.000 C 
BRANCH   9  10
ATOM     10  C   UNL     1      35.445   4.285  -7.710  1.00  0.00     0.006 C 
BRANCH  10  11
ATOM     11  C   UNL     1      35.788   2.816  -7.988  1.00  0.00     0.053 C 
BRANCH  11  12
ATOM     12  C   UNL     1      37.264   2.613  -8.152  1.00  0.00     0.041 C 
ATOM     13  O   UNL     1      37.750   1.452  -8.147  1.00  0.00    -0.550 OA
ATOM     14  O   UNL     1      38.098   3.707  -8.343  1.00  0.00    -0.550 OA
ENDBRANCH  11  12
ENDBRANCH  10  11
ENDBRANCH   9  10
ENDBRANCH   8   9
ENDBRANCH   1   8
TORSDOF 9
ENDMDL
