MODEL 1
REMARK VINA RESULT:    -6.899      0.000      0.000
REMARK INTER + INTRA:          -9.332
REMARK INTER:                  -8.714
REMARK INTRA:                  -0.618
REMARK UNBOUND:                -0.618
REMARK SMILES O=C(C=Cc1ccc(O)cc1)c1ccc(O)cc1O
REMARK SMILES IDX 4 1 3 2 5 3 6 4 7 5 8 6 11 7 10 8 9 9 2 11 1 12 12 13 18 14
REMARK SMILES IDX 13 15 17 16 14 17 15 18 19 19 16 21
REMARK H PARENT 9 10 19 20 16 22
REMARK Flexibility Score: inf
ROOT
ATOM      1  C   UNL     1      38.866   3.863  -2.639  1.00  0.00     0.012 C 
ATOM      2  C   UNL     1      39.488   4.401  -1.578  1.00  0.00     0.053 C 
ENDROOT
BRANCH   1   3
ATOM      3  C   UNL     1      37.434   4.087  -2.954  1.00  0.00    -0.025 A 
ATOM      4  C   UNL     1      36.521   4.197  -1.891  1.00  0.00     0.012 A 
ATOM      5  C   UNL     1      35.163   4.417  -2.140  1.00  0.00     0.047 A 
ATOM      6  C   UNL     1      34.699   4.543  -3.452  1.00  0.00     0.115 A 
ATOM      7  C   UNL     1      36.961   4.230  -4.274  1.00  0.00     0.012 A 
ATOM      8  C   UNL     1      35.602   4.452  -4.518  1.00  0.00     0.047 A 
BRANCH   6   9
ATOM      9  O   UNL     1      33.343   4.762  -3.685  1.00  0.00    -0.508 OA
ATOM     10  H   UNL     1      32.949   4.700  -4.617  1.00  0.00     0.293 HD
ENDBRANCH   6   9
ENDBRANCH   1   3
BRANCH   2  11
ATOM     11  C   UNL     1      40.921   4.166  -1.303  1.00  0.00     0.189 C 
ATOM     12  O   UNL     1      41.636   3.549  -2.141  1.00  0.00    -0.289 OA
BRANCH  11  13
ATOM     13  C   UNL     1      41.523   4.624  -0.031  1.00  0.00     0.064 A 
ATOM     14  C   UNL     1      42.893   4.972   0.066  1.00  0.00     0.130 A 
ATOM     15  C   UNL     1      40.722   4.677   1.124  1.00  0.00     0.020 A 
ATOM     16  C   UNL     1      43.431   5.329   1.309  1.00  0.00     0.093 A 
ATOM     17  C   UNL     1      41.269   5.048   2.353  1.00  0.00     0.047 A 
ATOM     18  C   UNL     1      42.628   5.370   2.450  1.00  0.00     0.119 A 
BRANCH  14  19
ATOM     19  O   UNL     1      43.736   5.003  -1.046  1.00  0.00    -0.507 OA
ATOM     20  H   UNL     1      44.745   4.980  -0.980  1.00  0.00     0.293 HD
ENDBRANCH  14  19
BRANCH  18  21
ATOM     21  O   UNL     1      43.185   5.734   3.673  1.00  0.00    -0.508 OA
ATOM     22  H   UNL     1      42.635   5.747   4.524  1.00  0.00     0.293 HD
ENDBRANCH  18  21
ENDBRANCH  11  13
ENDBRANCH   2  11
TORSDOF 6
ENDMDL
MODEL 2
REMARK VINA RESULT:    -6.834      1.272      7.596
REMARK INTER + INTRA:          -9.250
REMARK INTER:                  -8.625
REMARK INTRA:                  -0.626
REMARK UNBOUND:                -0.618
REMARK SMILES O=C(C=Cc1ccc(O)cc1)c1ccc(O)cc1O
REMARK SMILES IDX 4 1 3 2 5 3 6 4 7 5 8 6 11 7 10 8 9 9 2 11 1 12 12 13 18 14
REMARK SMILES IDX 13 15 17 16 14 17 15 18 19 19 16 21
REMARK H PARENT 9 10 19 20 16 22
REMARK Flexibility Score: inf
ROOT
ATOM      1  C   UNL     1      40.444   3.920  -1.253  1.00  0.00     0.012 C 
ATOM      2  C   UNL     1      39.359   4.488  -1.801  1.00  0.00     0.053 C 
ENDROOT
BRANCH   1   3
ATOM      3  C   UNL     1      41.202   4.513  -0.124  1.00  0.00    -0.025 A 
ATOM      4  C   UNL     1      40.613   4.519   1.152  1.00  0.00     0.012 A 
ATOM      5  C   UNL     1      41.294   5.059   2.247  1.00  0.00     0.047 A 
ATOM      6  C   UNL     1      42.576   5.590   2.087  1.00  0.00     0.115 A 
ATOM      7  C   UNL     1      42.502   5.037  -0.275  1.00  0.00     0.012 A 
ATOM      8  C   UNL     1      43.179   5.575   0.823  1.00  0.00     0.047 A 
BRANCH   6   9
ATOM      9  O   UNL     1      43.242   6.125   3.187  1.00  0.00    -0.508 OA
ATOM     10  H   UNL     1      44.178   5.824   3.438  1.00  0.00     0.293 HD
ENDBRANCH   6   9
ENDBRANCH   1   3
BRANCH   2  11
ATOM     11  C   UNL     1      38.621   3.860  -2.918  1.00  0.00     0.189 C 
ATOM     12  O   UNL     1      39.229   3.138  -3.755  1.00  0.00    -0.289 OA
BRANCH  11  13
ATOM     13  C   UNL     1      37.170   4.098  -3.081  1.00  0.00     0.064 A 
ATOM     14  C   UNL     1      36.580   4.285  -4.356  1.00  0.00     0.130 A 
ATOM     15  C   UNL     1      36.357   4.182  -1.936  1.00  0.00     0.020 A 
ATOM     16  C   UNL     1      35.215   4.581  -4.452  1.00  0.00     0.093 A 
ATOM     17  C   UNL     1      34.995   4.463  -2.048  1.00  0.00     0.047 A 
ATOM     18  C   UNL     1      34.421   4.668  -3.308  1.00  0.00     0.119 A 
BRANCH  14  19
ATOM     19  O   UNL     1      37.309   4.156  -5.541  1.00  0.00    -0.507 OA
ATOM     20  H   UNL     1      38.118   4.721  -5.759  1.00  0.00     0.293 HD
ENDBRANCH  14  19
BRANCH  18  21
ATOM     21  O   UNL     1      33.064   4.957  -3.431  1.00  0.00    -0.508 OA
ATOM     22  H   UNL     1      32.694   5.874  -3.209  1.00  0.00     0.293 HD
ENDBRANCH  18  21
ENDBRANCH  11  13
ENDBRANCH   2  11
TORSDOF 6
ENDMDL
MODEL 3
REMARK VINA RESULT:    -6.788      1.715      7.912
REMARK INTER + INTRA:          -9.193
REMARK INTER:                  -8.574
REMARK INTRA:                  -0.619
REMARK UNBOUND:                -0.618
REMARK SMILES O=C(C=Cc1ccc(O)cc1)c1ccc(O)cc1O
REMARK SMILES IDX 4 1 3 2 5 3 6 4 7 5 8 6 11 7 10 8 9 9 2 11 1 12 12 13 18 14
REMARK SMILES IDX 13 15 17 16 14 17 15 18 19 19 16 21
REMARK H PARENT 9 10 19 20 16 22
REMARK Flexibility Score: inf
ROOT
ATOM      1  C   UNL     1      39.117   4.152  -0.002  1.00  0.00     0.012 C 
ATOM      2  C   UNL     1      38.177   4.991  -0.462  1.00  0.00     0.053 C 
ENDROOT
BRANCH   1   3
ATOM      3  C   UNL     1      40.463   4.590   0.444  1.00  0.00    -0.025 A 
ATOM      4  C   UNL     1      40.648   4.921   1.798  1.00  0.00     0.012 A 
ATOM      5  C   UNL     1      41.901   5.329   2.264  1.00  0.00     0.047 A 
ATOM      6  C   UNL     1      42.989   5.403   1.390  1.00  0.00     0.115 A 
ATOM      7  C   UNL     1      41.568   4.652  -0.429  1.00  0.00     0.012 A 
ATOM      8  C   UNL     1      42.820   5.061   0.043  1.00  0.00     0.047 A 
BRANCH   6   9
ATOM      9  O   UNL     1      44.231   5.812   1.869  1.00  0.00    -0.508 OA
ATOM     10  H   UNL     1      44.667   5.359   2.665  1.00  0.00     0.293 HD
ENDBRANCH   6   9
ENDBRANCH   1   3
BRANCH   2  11
ATOM     11  C   UNL     1      36.841   4.520  -0.886  1.00  0.00     0.189 C 
ATOM     12  O   UNL     1      35.976   4.205  -0.023  1.00  0.00    -0.289 OA
BRANCH  11  13
ATOM     13  C   UNL     1      36.518   4.383  -2.323  1.00  0.00     0.064 A 
ATOM     14  C   UNL     1      35.180   4.376  -2.792  1.00  0.00     0.130 A 
ATOM     15  C   UNL     1      37.565   4.214  -3.247  1.00  0.00     0.020 A 
ATOM     16  C   UNL     1      34.924   4.170  -4.154  1.00  0.00     0.093 A 
ATOM     17  C   UNL     1      37.295   4.024  -4.603  1.00  0.00     0.047 A 
ATOM     18  C   UNL     1      35.972   3.996  -5.059  1.00  0.00     0.119 A 
BRANCH  14  19
ATOM     19  O   UNL     1      34.092   4.599  -1.947  1.00  0.00    -0.507 OA
ATOM     20  H   UNL     1      33.244   5.062  -2.244  1.00  0.00     0.293 HD
ENDBRANCH  14  19
BRANCH  18  21
ATOM     21  O   UNL     1      35.692   3.799  -6.409  1.00  0.00    -0.508 OA
ATOM     22  H   UNL     1      35.064   4.412  -6.916  1.00  0.00     0.293 HD
ENDBRANCH  18  21
ENDBRANCH  11  13
ENDBRANCH   2  11
TORSDOF 6
ENDMDL
MODEL 4
REMARK VINA RESULT:    -6.739      1.903      7.696
REMARK INTER + INTRA:          -9.130
REMARK INTER:                  -8.686
REMARK INTRA:                  -0.444
REMARK UNBOUND:                -0.618
REMARK SMILES O=C(C=Cc1ccc(O)cc1)c1ccc(O)cc1O
REMARK SMILES IDX 4 1 3 2 5 3 6 4 7 5 8 6 11 7 10 8 9 9 2 11 1 12 12 13 18 14
REMARK SMILES IDX 13 15 17 16 14 17 15 18 19 19 16 21
REMARK H PARENT 9 10 19 20 16 22
REMARK Flexibility Score: inf
ROOT
ATOM      1  C   UNL     1      40.267   3.989   0.602  1.00  0.00     0.012 C 
ATOM      2  C   UNL     1      40.111   3.741  -0.707  1.00  0.00     0.053 C 
ENDROOT
BRANCH   1   3
ATOM      3  C   UNL     1      41.502   4.563   1.189  1.00  0.00    -0.025 A 
ATOM      4  C   UNL     1      41.632   4.593   2.588  1.00  0.00     0.012 A 
ATOM      5  C   UNL     1      42.782   5.116   3.185  1.00  0.00     0.047 A 
ATOM      6  C   UNL     1      43.825   5.606   2.395  1.00  0.00     0.115 A 
ATOM      7  C   UNL     1      42.565   5.045   0.398  1.00  0.00     0.012 A 
ATOM      8  C   UNL     1      43.715   5.567   1.000  1.00  0.00     0.047 A 
BRANCH   6   9
ATOM      9  O   UNL     1      44.966   6.125   3.004  1.00  0.00    -0.508 OA
ATOM     10  H   UNL     1      45.132   6.015   3.998  1.00  0.00     0.293 HD
ENDBRANCH   6   9
ENDBRANCH   1   3
BRANCH   2  11
ATOM     11  C   UNL     1      38.859   3.180  -1.258  1.00  0.00     0.189 C 
ATOM     12  O   UNL     1      38.428   2.067  -0.849  1.00  0.00    -0.289 OA
BRANCH  11  13
ATOM     13  C   UNL     1      38.119   3.903  -2.316  1.00  0.00     0.064 A 
ATOM     14  C   UNL     1      37.332   5.047  -2.031  1.00  0.00     0.130 A 
ATOM     15  C   UNL     1      38.163   3.417  -3.636  1.00  0.00     0.020 A 
ATOM     16  C   UNL     1      36.592   5.651  -3.054  1.00  0.00     0.093 A 
ATOM     17  C   UNL     1      37.431   4.039  -4.648  1.00  0.00     0.047 A 
ATOM     18  C   UNL     1      36.638   5.156  -4.359  1.00  0.00     0.119 A 
BRANCH  14  19
ATOM     19  O   UNL     1      37.287   5.623  -0.760  1.00  0.00    -0.507 OA
ATOM     20  H   UNL     1      36.765   5.228   0.010  1.00  0.00     0.293 HD
ENDBRANCH  14  19
BRANCH  18  21
ATOM     21  O   UNL     1      35.898   5.779  -5.360  1.00  0.00    -0.508 OA
ATOM     22  H   UNL     1      35.840   5.393  -6.295  1.00  0.00     0.293 HD
ENDBRANCH  18  21
ENDBRANCH  11  13
ENDBRANCH   2  11
TORSDOF 6
ENDMDL
MODEL 5
REMARK VINA RESULT:    -6.690      3.908      6.257
REMARK INTER + INTRA:          -9.069
REMARK INTER:                  -8.370
REMARK INTRA:                  -0.698
REMARK UNBOUND:                -0.618
REMARK SMILES O=C(C=Cc1ccc(O)cc1)c1ccc(O)cc1O
REMARK SMILES IDX 4 1 3 2 5 3 6 4 7 5 8 6 11 7 10 8 9 9 2 11 1 12 12 13 18 14
REMARK SMILES IDX 13 15 17 16 14 17 15 18 19 19 16 21
REMARK H PARENT 9 10 19 20 16 22
REMARK Flexibility Score: inf
ROOT
ATOM      1  C   UNL     1      35.899   2.521  -5.062  1.00  0.00     0.012 C 
ATOM      2  C   UNL     1      36.747   3.522  -5.341  1.00  0.00     0.053 C 
ENDROOT
BRANCH   1   3
ATOM      3  C   UNL     1      36.001   1.167  -5.659  1.00  0.00    -0.025 A 
ATOM      4  C   UNL     1      35.435   0.945  -6.927  1.00  0.00     0.012 A 
ATOM      5  C   UNL     1      35.515  -0.312  -7.531  1.00  0.00     0.047 A 
ATOM      6  C   UNL     1      36.171  -1.364  -6.886  1.00  0.00     0.115 A 
ATOM      7  C   UNL     1      36.674   0.105  -5.021  1.00  0.00     0.012 A 
ATOM      8  C   UNL     1      36.752  -1.151  -5.630  1.00  0.00     0.047 A 
BRANCH   6   9
ATOM      9  O   UNL     1      36.242  -2.612  -7.501  1.00  0.00    -0.508 OA
ATOM     10  H   UNL     1      36.542  -2.711  -8.464  1.00  0.00     0.293 HD
ENDBRANCH   6   9
ENDBRANCH   1   3
BRANCH   2  11
ATOM     11  C   UNL     1      36.623   4.857  -4.717  1.00  0.00     0.189 C 
ATOM     12  O   UNL     1      36.299   5.857  -5.415  1.00  0.00    -0.289 OA
BRANCH  11  13
ATOM     13  C   UNL     1      36.907   5.036  -3.276  1.00  0.00     0.064 A 
ATOM     14  C   UNL     1      35.937   5.552  -2.380  1.00  0.00     0.130 A 
ATOM     15  C   UNL     1      38.189   4.725  -2.787  1.00  0.00     0.020 A 
ATOM     16  C   UNL     1      36.279   5.773  -1.040  1.00  0.00     0.093 A 
ATOM     17  C   UNL     1      38.510   4.937  -1.445  1.00  0.00     0.047 A 
ATOM     18  C   UNL     1      37.556   5.466  -0.569  1.00  0.00     0.119 A 
BRANCH  14  19
ATOM     19  O   UNL     1      34.627   5.827  -2.776  1.00  0.00    -0.507 OA
ATOM     20  H   UNL     1      33.944   6.264  -2.172  1.00  0.00     0.293 HD
ENDBRANCH  14  19
BRANCH  18  21
ATOM     21  O   UNL     1      37.870   5.689   0.770  1.00  0.00    -0.508 OA
ATOM     22  H   UNL     1      38.518   6.415   1.049  1.00  0.00     0.293 HD
ENDBRANCH  18  21
ENDBRANCH  11  13
ENDBRANCH   2  11
TORSDOF 6
ENDMDL
MODEL 6
REMARK VINA RESULT:    -6.666      1.789      7.953
REMARK INTER + INTRA:          -9.038
REMARK INTER:                  -8.437
REMARK INTRA:                  -0.601
REMARK UNBOUND:                -0.618
REMARK SMILES O=C(C=Cc1ccc(O)cc1)c1ccc(O)cc1O
REMARK SMILES IDX 4 1 3 2 5 3 6 4 7 5 8 6 11 7 10 8 9 9 2 11 1 12 12 13 18 14
REMARK SMILES IDX 13 15 17 16 14 17 15 18 19 19 16 21
REMARK H PARENT 9 10 19 20 16 22
REMARK Flexibility Score: inf
ROOT
ATOM      1  C   UNL     1      42.766   5.248   0.636  1.00  0.00     0.012 C 
ATOM      2  C   UNL     1      41.460   5.346   0.342  1.00  0.00     0.053 C 
ENDROOT
BRANCH   1   3
ATOM      3  C   UNL     1      43.285   5.042   2.010  1.00  0.00    -0.025 A 
ATOM      4  C   UNL     1      44.330   4.122   2.203  1.00  0.00     0.012 A 
ATOM      5  C   UNL     1      44.858   3.902   3.479  1.00  0.00     0.047 A 
ATOM      6  C   UNL     1      44.359   4.605   4.578  1.00  0.00     0.115 A 
ATOM      7  C   UNL     1      42.797   5.758   3.122  1.00  0.00     0.012 A 
ATOM      8  C   UNL     1      43.329   5.536   4.396  1.00  0.00     0.047 A 
BRANCH   6   9
ATOM      9  O   UNL     1      44.894   4.375   5.844  1.00  0.00    -0.508 OA
ATOM     10  H   UNL     1      45.652   4.941   6.209  1.00  0.00     0.293 HD
ENDBRANCH   6   9
ENDBRANCH   1   3
BRANCH   2  11
ATOM     11  C   UNL     1      40.978   5.539  -1.043  1.00  0.00     0.189 C 
ATOM     12  O   UNL     1      41.718   6.094  -1.901  1.00  0.00    -0.289 OA
BRANCH  11  13
ATOM     13  C   UNL     1      39.614   5.111  -1.425  1.00  0.00     0.064 A 
ATOM     14  C   UNL     1      39.371   4.332  -2.584  1.00  0.00     0.130 A 
ATOM     15  C   UNL     1      38.523   5.523  -0.639  1.00  0.00     0.020 A 
ATOM     16  C   UNL     1      38.055   4.016  -2.943  1.00  0.00     0.093 A 
ATOM     17  C   UNL     1      37.217   5.188  -1.001  1.00  0.00     0.047 A 
ATOM     18  C   UNL     1      36.980   4.437  -2.158  1.00  0.00     0.119 A 
BRANCH  14  19
ATOM     19  O   UNL     1      40.405   3.835  -3.379  1.00  0.00    -0.507 OA
ATOM     20  H   UNL     1      41.361   3.754  -3.060  1.00  0.00     0.293 HD
ENDBRANCH  14  19
BRANCH  18  21
ATOM     21  O   UNL     1      35.680   4.104  -2.533  1.00  0.00    -0.508 OA
ATOM     22  H   UNL     1      35.495   3.503  -3.327  1.00  0.00     0.293 HD
ENDBRANCH  18  21
ENDBRANCH  11  13
ENDBRANCH   2  11
TORSDOF 6
ENDMDL
MODEL 7
REMARK VINA RESULT:    -6.442      5.827      7.980
REMARK INTER + INTRA:          -8.756
REMARK INTER:                  -7.996
REMARK INTRA:                  -0.760
REMARK UNBOUND:                -0.618
REMARK SMILES O=C(C=Cc1ccc(O)cc1)c1ccc(O)cc1O
REMARK SMILES IDX 4 1 3 2 5 3 6 4 7 5 8 6 11 7 10 8 9 9 2 11 1 12 12 13 18 14
REMARK SMILES IDX 13 15 17 16 14 17 15 18 19 19 16 21
REMARK H PARENT 9 10 19 20 16 22
REMARK Flexibility Score: inf
ROOT
ATOM      1  C   UNL     1      39.300   0.318  -3.014  1.00  0.00     0.012 C 
ATOM      2  C   UNL     1      40.223  -0.655  -2.963  1.00  0.00     0.053 C 
ENDROOT
BRANCH   1   3
ATOM      3  C   UNL     1      39.595   1.746  -2.747  1.00  0.00    -0.025 A 
ATOM      4  C   UNL     1      40.846   2.085  -2.202  1.00  0.00     0.012 A 
ATOM      5  C   UNL     1      41.171   3.419  -1.943  1.00  0.00     0.047 A 
ATOM      6  C   UNL     1      40.258   4.436  -2.234  1.00  0.00     0.115 A 
ATOM      7  C   UNL     1      38.686   2.779  -3.053  1.00  0.00     0.012 A 
ATOM      8  C   UNL     1      39.016   4.113  -2.793  1.00  0.00     0.047 A 
BRANCH   6   9
ATOM      9  O   UNL     1      40.596   5.761  -1.970  1.00  0.00    -0.508 OA
ATOM     10  H   UNL     1      41.191   6.011  -1.188  1.00  0.00     0.293 HD
ENDBRANCH   6   9
ENDBRANCH   1   3
BRANCH   2  11
ATOM     11  C   UNL     1      39.894  -2.068  -3.249  1.00  0.00     0.189 C 
ATOM     12  O   UNL     1      40.499  -2.688  -4.167  1.00  0.00    -0.289 OA
BRANCH  11  13
ATOM     13  C   UNL     1      38.832  -2.758  -2.483  1.00  0.00     0.064 A 
ATOM     14  C   UNL     1      37.712  -3.348  -3.120  1.00  0.00     0.130 A 
ATOM     15  C   UNL     1      38.915  -2.794  -1.079  1.00  0.00     0.020 A 
ATOM     16  C   UNL     1      36.698  -3.924  -2.346  1.00  0.00     0.093 A 
ATOM     17  C   UNL     1      37.903  -3.385  -0.321  1.00  0.00     0.047 A 
ATOM     18  C   UNL     1      36.788  -3.947  -0.953  1.00  0.00     0.119 A 
BRANCH  14  19
ATOM     19  O   UNL     1      37.590  -3.406  -4.510  1.00  0.00    -0.507 OA
ATOM     20  H   UNL     1      36.936  -4.014  -4.985  1.00  0.00     0.293 HD
ENDBRANCH  14  19
BRANCH  18  21
ATOM     21  O   UNL     1      35.769  -4.532  -0.205  1.00  0.00    -0.508 OA
ATOM     22  H   UNL     1      35.964  -5.050   0.643  1.00  0.00     0.293 HD
ENDBRANCH  18  21
ENDBRANCH  11  13
ENDBRANCH   2  11
TORSDOF 6
ENDMDL
MODEL 8
REMARK VINA RESULT:    -6.404      4.907      5.755
REMARK INTER + INTRA:          -8.707
REMARK INTER:                  -8.325
REMARK INTRA:                  -0.382
REMARK UNBOUND:                -0.618
REMARK SMILES O=C(C=Cc1ccc(O)cc1)c1ccc(O)cc1O
REMARK SMILES IDX 4 1 3 2 5 3 6 4 7 5 8 6 11 7 10 8 9 9 2 11 1 12 12 13 18 14
REMARK SMILES IDX 13 15 17 16 14 17 15 18 19 19 16 21
REMARK H PARENT 9 10 19 20 16 22
REMARK Flexibility Score: inf
ROOT
ATOM      1  C   UNL     1      39.329  -0.701  -3.179  1.00  0.00     0.012 C 
ATOM      2  C   UNL     1      39.119   0.622  -3.098  1.00  0.00     0.053 C 
ENDROOT
BRANCH   1   3
ATOM      3  C   UNL     1      38.363  -1.651  -3.783  1.00  0.00    -0.025 A 
ATOM      4  C   UNL     1      37.825  -1.352  -5.047  1.00  0.00     0.012 A 
ATOM      5  C   UNL     1      36.919  -2.223  -5.658  1.00  0.00     0.047 A 
ATOM      6  C   UNL     1      36.544  -3.410  -5.022  1.00  0.00     0.115 A 
ATOM      7  C   UNL     1      37.992  -2.857  -3.154  1.00  0.00     0.012 A 
ATOM      8  C   UNL     1      37.085  -3.726  -3.770  1.00  0.00     0.047 A 
BRANCH   6   9
ATOM      9  O   UNL     1      35.640  -4.268  -5.643  1.00  0.00    -0.508 OA
ATOM     10  H   UNL     1      35.855  -5.247  -5.792  1.00  0.00     0.293 HD
ENDBRANCH   6   9
ENDBRANCH   1   3
BRANCH   2  11
ATOM     11  C   UNL     1      40.112   1.541  -2.501  1.00  0.00     0.189 C 
ATOM     12  O   UNL     1      41.347   1.330  -2.656  1.00  0.00    -0.289 OA
BRANCH  11  13
ATOM     13  C   UNL     1      39.668   2.697  -1.692  1.00  0.00     0.064 A 
ATOM     14  C   UNL     1      39.084   3.845  -2.283  1.00  0.00     0.130 A 
ATOM     15  C   UNL     1      39.867   2.674  -0.299  1.00  0.00     0.020 A 
ATOM     16  C   UNL     1      38.749   4.943  -1.481  1.00  0.00     0.093 A 
ATOM     17  C   UNL     1      39.514   3.771   0.489  1.00  0.00     0.047 A 
ATOM     18  C   UNL     1      38.958   4.911  -0.101  1.00  0.00     0.119 A 
BRANCH  14  19
ATOM     19  O   UNL     1      38.799   3.918  -3.648  1.00  0.00    -0.507 OA
ATOM     20  H   UNL     1      39.280   4.540  -4.283  1.00  0.00     0.293 HD
ENDBRANCH  14  19
BRANCH  18  21
ATOM     21  O   UNL     1      38.610   6.013   0.675  1.00  0.00    -0.508 OA
ATOM     22  H   UNL     1      38.360   5.916   1.652  1.00  0.00     0.293 HD
ENDBRANCH  18  21
ENDBRANCH  11  13
ENDBRANCH   2  11
TORSDOF 6
ENDMDL
MODEL 9
REMARK VINA RESULT:    -6.398      5.101      8.543
REMARK INTER + INTRA:          -8.700
REMARK INTER:                  -7.983
REMARK INTRA:                  -0.717
REMARK UNBOUND:                -0.618
REMARK SMILES O=C(C=Cc1ccc(O)cc1)c1ccc(O)cc1O
REMARK SMILES IDX 4 1 3 2 5 3 6 4 7 5 8 6 11 7 10 8 9 9 2 11 1 12 12 13 18 14
REMARK SMILES IDX 13 15 17 16 14 17 15 18 19 19 16 21
REMARK H PARENT 9 10 19 20 16 22
REMARK Flexibility Score: inf
ROOT
ATOM      1  C   UNL     1      39.408   0.468  -2.088  1.00  0.00     0.012 C 
ATOM      2  C   UNL     1      40.066  -0.287  -2.981  1.00  0.00     0.053 C 
ENDROOT
BRANCH   1   3
ATOM      3  C   UNL     1      39.835   1.831  -1.689  1.00  0.00    -0.025 A 
ATOM      4  C   UNL     1      40.482   2.639  -2.640  1.00  0.00     0.012 A 
ATOM      5  C   UNL     1      40.893   3.934  -2.311  1.00  0.00     0.047 A 
ATOM      6  C   UNL     1      40.655   4.445  -1.032  1.00  0.00     0.115 A 
ATOM      7  C   UNL     1      39.585   2.359  -0.406  1.00  0.00     0.012 A 
ATOM      8  C   UNL     1      39.998   3.655  -0.081  1.00  0.00     0.047 A 
BRANCH   6   9
ATOM      9  O   UNL     1      41.072   5.736  -0.718  1.00  0.00    -0.508 OA
ATOM     10  H   UNL     1      41.040   6.484  -1.402  1.00  0.00     0.293 HD
ENDBRANCH   6   9
ENDBRANCH   1   3
BRANCH   2  11
ATOM     11  C   UNL     1      39.602  -1.637  -3.365  1.00  0.00     0.189 C 
ATOM     12  O   UNL     1      40.377  -2.628  -3.260  1.00  0.00    -0.289 OA
BRANCH  11  13
ATOM     13  C   UNL     1      38.239  -1.833  -3.905  1.00  0.00     0.064 A 
ATOM     14  C   UNL     1      37.397  -2.879  -3.451  1.00  0.00     0.130 A 
ATOM     15  C   UNL     1      37.779  -0.983  -4.927  1.00  0.00     0.020 A 
ATOM     16  C   UNL     1      36.144  -3.068  -4.046  1.00  0.00     0.093 A 
ATOM     17  C   UNL     1      36.521  -1.175  -5.501  1.00  0.00     0.047 A 
ATOM     18  C   UNL     1      35.702  -2.222  -5.065  1.00  0.00     0.119 A 
BRANCH  14  19
ATOM     19  O   UNL     1      37.758  -3.724  -2.400  1.00  0.00    -0.507 OA
ATOM     20  H   UNL     1      37.189  -3.859  -1.575  1.00  0.00     0.293 HD
ENDBRANCH  14  19
BRANCH  18  21
ATOM     21  O   UNL     1      34.448  -2.427  -5.636  1.00  0.00    -0.508 OA
ATOM     22  H   UNL     1      34.117  -1.859  -6.407  1.00  0.00     0.293 HD
ENDBRANCH  18  21
ENDBRANCH  11  13
ENDBRANCH   2  11
TORSDOF 6
ENDMDL
