MODEL 1
REMARK VINA RESULT:    -5.535      0.000      0.000
REMARK INTER + INTRA:          -6.096
REMARK INTER:                  -6.506
REMARK INTRA:                   0.410
REMARK UNBOUND:                 0.410
REMARK SMILES O=C([O-])C=Cc1ccc(O)c(O)c1
REMARK SMILES IDX 6 1 13 2 7 3 11 4 8 5 9 6 5 7 4 8 2 9 1 10 3 11 12 12 10 14
REMARK H PARENT 12 13 10 15
REMARK Flexibility Score: inf
ROOT
ATOM      1  C   UNL     1       9.326  15.239 -18.907  1.00  0.00    -0.022 A 
ATOM      2  C   UNL     1       9.708  14.239 -18.002  1.00  0.00     0.058 A 
ATOM      3  C   UNL     1       7.961  15.447 -19.166  1.00  0.00     0.012 A 
ATOM      4  C   UNL     1       8.747  13.417 -17.402  1.00  0.00     0.157 A 
ATOM      5  C   UNL     1       6.998  14.630 -18.569  1.00  0.00     0.051 A 
ATOM      6  C   UNL     1       7.384  13.610 -17.689  1.00  0.00     0.157 A 
ENDROOT
BRANCH   1   7
ATOM      7  C   UNL     1      10.358  16.124 -19.484  1.00  0.00     0.010 C 
ATOM      8  C   UNL     1      11.046  15.885 -20.612  1.00  0.00     0.025 C 
BRANCH   8   9
ATOM      9  C   UNL     1      11.033  14.618 -21.368  1.00  0.00     0.064 C 
ATOM     10  O   UNL     1      11.421  14.613 -22.565  1.00  0.00    -0.545 OA
ATOM     11  O   UNL     1      10.672  13.418 -20.769  1.00  0.00    -0.545 OA
ENDBRANCH   8   9
ENDBRANCH   1   7
BRANCH   4  12
ATOM     12  O   UNL     1       9.163  12.419 -16.522  1.00  0.00    -0.504 OA
ATOM     13  H   UNL     1       9.353  12.607 -15.544  1.00  0.00     0.293 HD
ENDBRANCH   4  12
BRANCH   6  14
ATOM     14  O   UNL     1       6.422  12.794 -17.097  1.00  0.00    -0.504 OA
ATOM     15  H   UNL     1       6.433  11.787 -17.217  1.00  0.00     0.293 HD
ENDBRANCH   6  14
TORSDOF 4
ENDMDL
MODEL 2
REMARK VINA RESULT:    -5.302      1.086      2.037
REMARK INTER + INTRA:          -5.822
REMARK INTER:                  -6.116
REMARK INTRA:                   0.294
REMARK UNBOUND:                 0.410
REMARK SMILES O=C([O-])C=Cc1ccc(O)c(O)c1
REMARK SMILES IDX 6 1 13 2 7 3 11 4 8 5 9 6 5 7 4 8 2 9 1 10 3 11 12 12 10 14
REMARK H PARENT 12 13 10 15
REMARK Flexibility Score: inf
ROOT
ATOM      1  C   UNL     1       9.559  15.399 -19.020  1.00  0.00    -0.022 A 
ATOM      2  C   UNL     1       8.290  15.682 -19.544  1.00  0.00     0.058 A 
ATOM      3  C   UNL     1       9.697  14.376 -18.065  1.00  0.00     0.012 A 
ATOM      4  C   UNL     1       7.161  14.996 -19.085  1.00  0.00     0.157 A 
ATOM      5  C   UNL     1       8.572  13.688 -17.604  1.00  0.00     0.051 A 
ATOM      6  C   UNL     1       7.300  13.996 -18.106  1.00  0.00     0.157 A 
ENDROOT
BRANCH   1   7
ATOM      7  C   UNL     1      10.740  16.103 -19.562  1.00  0.00     0.010 C 
ATOM      8  C   UNL     1      11.363  15.804 -20.712  1.00  0.00     0.025 C 
BRANCH   8   9
ATOM      9  C   UNL     1      11.104  14.610 -21.540  1.00  0.00     0.064 C 
ATOM     10  O   UNL     1      11.469  14.606 -22.744  1.00  0.00    -0.545 OA
ATOM     11  O   UNL     1      10.532  13.464 -21.002  1.00  0.00    -0.545 OA
ENDBRANCH   8   9
ENDBRANCH   1   7
BRANCH   4  12
ATOM     12  O   UNL     1       5.911  15.317 -19.613  1.00  0.00    -0.504 OA
ATOM     13  H   UNL     1       5.645  15.065 -20.558  1.00  0.00     0.293 HD
ENDBRANCH   4  12
BRANCH   6  14
ATOM     14  O   UNL     1       6.179  13.309 -17.643  1.00  0.00    -0.504 OA
ATOM     15  H   UNL     1       5.787  12.526 -18.155  1.00  0.00     0.293 HD
ENDBRANCH   6  14
TORSDOF 4
ENDMDL
MODEL 3
REMARK VINA RESULT:    -4.050      1.796      5.020
REMARK INTER + INTRA:          -4.351
REMARK INTER:                  -4.239
REMARK INTRA:                  -0.112
REMARK UNBOUND:                 0.410
REMARK SMILES O=C([O-])C=Cc1ccc(O)c(O)c1
REMARK SMILES IDX 6 1 13 2 7 3 11 4 8 5 9 6 5 7 4 8 2 9 1 10 3 11 12 12 10 14
REMARK H PARENT 12 13 10 15
REMARK Flexibility Score: inf
ROOT
ATOM      1  C   UNL     1       9.581  13.875 -18.288  1.00  0.00    -0.022 A 
ATOM      2  C   UNL     1       9.462  13.524 -19.639  1.00  0.00     0.058 A 
ATOM      3  C   UNL     1      10.325  15.015 -17.936  1.00  0.00     0.012 A 
ATOM      4  C   UNL     1      10.121  14.265 -20.628  1.00  0.00     0.157 A 
ATOM      5  C   UNL     1      10.984  15.756 -18.919  1.00  0.00     0.051 A 
ATOM      6  C   UNL     1      10.890  15.384 -20.267  1.00  0.00     0.157 A 
ENDROOT
BRANCH   1   7
ATOM      7  C   UNL     1       8.832  13.107 -17.272  1.00  0.00     0.010 C 
ATOM      8  C   UNL     1       7.620  13.427 -16.793  1.00  0.00     0.025 C 
BRANCH   8   9
ATOM      9  C   UNL     1       6.906  14.692 -17.049  1.00  0.00     0.064 C 
ATOM     10  O   UNL     1       6.625  15.446 -16.082  1.00  0.00    -0.545 OA
ATOM     11  O   UNL     1       6.602  15.106 -18.340  1.00  0.00    -0.545 OA
ENDBRANCH   8   9
ENDBRANCH   1   7
BRANCH   4  12
ATOM     12  O   UNL     1       9.997  13.876 -21.961  1.00  0.00    -0.504 OA
ATOM     13  H   UNL     1       9.096  13.804 -22.420  1.00  0.00     0.293 HD
ENDBRANCH   4  12
BRANCH   6  14
ATOM     14  O   UNL     1      11.550  16.125 -21.246  1.00  0.00    -0.504 OA
ATOM     15  H   UNL     1      11.274  16.080 -22.221  1.00  0.00     0.293 HD
ENDBRANCH   6  14
TORSDOF 4
ENDMDL
MODEL 4
REMARK VINA RESULT:    -4.017      1.490      4.641
REMARK INTER + INTRA:          -4.312
REMARK INTER:                  -4.232
REMARK INTRA:                  -0.080
REMARK UNBOUND:                 0.410
REMARK SMILES O=C([O-])C=Cc1ccc(O)c(O)c1
REMARK SMILES IDX 6 1 13 2 7 3 11 4 8 5 9 6 5 7 4 8 2 9 1 10 3 11 12 12 10 14
REMARK H PARENT 12 13 10 15
REMARK Flexibility Score: inf
ROOT
ATOM      1  C   UNL     1       8.092  14.837 -18.005  1.00  0.00    -0.022 A 
ATOM      2  C   UNL     1       9.405  14.351 -18.069  1.00  0.00     0.058 A 
ATOM      3  C   UNL     1       7.383  15.064 -19.197  1.00  0.00     0.012 A 
ATOM      4  C   UNL     1      10.028  14.143 -19.305  1.00  0.00     0.157 A 
ATOM      5  C   UNL     1       8.001  14.858 -20.433  1.00  0.00     0.051 A 
ATOM      6  C   UNL     1       9.325  14.402 -20.494  1.00  0.00     0.157 A 
ENDROOT
BRANCH   1   7
ATOM      7  C   UNL     1       7.443  14.997 -16.687  1.00  0.00     0.010 C 
ATOM      8  C   UNL     1       7.035  13.993 -15.895  1.00  0.00     0.025 C 
BRANCH   8   9
ATOM      9  C   UNL     1       6.986  12.569 -16.276  1.00  0.00     0.064 C 
ATOM     10  O   UNL     1       6.339  12.229 -17.301  1.00  0.00    -0.545 OA
ATOM     11  O   UNL     1       7.697  11.604 -15.573  1.00  0.00    -0.545 OA
ENDBRANCH   8   9
ENDBRANCH   1   7
BRANCH   4  12
ATOM     12  O   UNL     1      11.342  13.677 -19.332  1.00  0.00    -0.504 OA
ATOM     13  H   UNL     1      11.760  13.295 -20.172  1.00  0.00     0.293 HD
ENDBRANCH   4  12
BRANCH   6  14
ATOM     14  O   UNL     1       9.939  14.198 -21.729  1.00  0.00    -0.504 OA
ATOM     15  H   UNL     1      10.235  14.976 -22.309  1.00  0.00     0.293 HD
ENDBRANCH   6  14
TORSDOF 4
ENDMDL
MODEL 5
REMARK VINA RESULT:    -3.694      1.145      4.869
REMARK INTER + INTRA:          -3.933
REMARK INTER:                  -4.272
REMARK INTRA:                   0.340
REMARK UNBOUND:                 0.410
REMARK SMILES O=C([O-])C=Cc1ccc(O)c(O)c1
REMARK SMILES IDX 6 1 13 2 7 3 11 4 8 5 9 6 5 7 4 8 2 9 1 10 3 11 12 12 10 14
REMARK H PARENT 12 13 10 15
REMARK Flexibility Score: inf
ROOT
ATOM      1  C   UNL     1       8.491  15.316 -18.939  1.00  0.00    -0.022 A 
ATOM      2  C   UNL     1       8.475  14.559 -20.119  1.00  0.00     0.058 A 
ATOM      3  C   UNL     1       9.621  16.095 -18.637  1.00  0.00     0.012 A 
ATOM      4  C   UNL     1       9.591  14.533 -20.963  1.00  0.00     0.157 A 
ATOM      5  C   UNL     1      10.737  16.071 -19.476  1.00  0.00     0.051 A 
ATOM      6  C   UNL     1      10.730  15.289 -20.639  1.00  0.00     0.157 A 
ENDROOT
BRANCH   1   7
ATOM      7  C   UNL     1       7.279  15.366 -18.095  1.00  0.00     0.010 C 
ATOM      8  C   UNL     1       6.989  14.511 -17.102  1.00  0.00     0.025 C 
BRANCH   8   9
ATOM      9  C   UNL     1       7.723  13.268 -16.801  1.00  0.00     0.064 C 
ATOM     10  O   UNL     1       7.136  12.342 -16.183  1.00  0.00    -0.545 OA
ATOM     11  O   UNL     1       9.023  13.066 -17.247  1.00  0.00    -0.545 OA
ENDBRANCH   8   9
ENDBRANCH   1   7
BRANCH   4  12
ATOM     12  O   UNL     1       9.548  13.754 -22.119  1.00  0.00    -0.504 OA
ATOM     13  H   UNL     1       8.849  13.895 -22.838  1.00  0.00     0.293 HD
ENDBRANCH   4  12
BRANCH   6  14
ATOM     14  O   UNL     1      11.846  15.266 -21.474  1.00  0.00    -0.504 OA
ATOM     15  H   UNL     1      11.769  15.024 -22.457  1.00  0.00     0.293 HD
ENDBRANCH   6  14
TORSDOF 4
ENDMDL
MODEL 6
REMARK VINA RESULT:    -3.527      2.140      5.241
REMARK INTER + INTRA:          -3.736
REMARK INTER:                  -4.216
REMARK INTRA:                   0.480
REMARK UNBOUND:                 0.410
REMARK SMILES O=C([O-])C=Cc1ccc(O)c(O)c1
REMARK SMILES IDX 6 1 13 2 7 3 11 4 8 5 9 6 5 7 4 8 2 9 1 10 3 11 12 12 10 14
REMARK H PARENT 12 13 10 15
REMARK Flexibility Score: inf
ROOT
ATOM      1  C   UNL     1       7.483  13.543 -17.035  1.00  0.00    -0.022 A 
ATOM      2  C   UNL     1       6.653  14.181 -17.967  1.00  0.00     0.058 A 
ATOM      3  C   UNL     1       8.869  13.504 -17.263  1.00  0.00     0.012 A 
ATOM      4  C   UNL     1       7.187  14.727 -19.140  1.00  0.00     0.157 A 
ATOM      5  C   UNL     1       9.407  14.048 -18.432  1.00  0.00     0.051 A 
ATOM      6  C   UNL     1       8.570  14.657 -19.377  1.00  0.00     0.157 A 
ENDROOT
BRANCH   1   7
ATOM      7  C   UNL     1       6.898  13.023 -15.782  1.00  0.00     0.010 C 
ATOM      8  C   UNL     1       7.258  11.883 -15.172  1.00  0.00     0.025 C 
BRANCH   8   9
ATOM      9  C   UNL     1       8.157  10.858 -15.735  1.00  0.00     0.064 C 
ATOM     10  O   UNL     1       9.402  11.035 -15.679  1.00  0.00    -0.545 OA
ATOM     11  O   UNL     1       7.665   9.670 -16.260  1.00  0.00    -0.545 OA
ENDBRANCH   8   9
ENDBRANCH   1   7
BRANCH   4  12
ATOM     12  O   UNL     1       6.329  15.337 -20.055  1.00  0.00    -0.504 OA
ATOM     13  H   UNL     1       5.803  16.172 -19.826  1.00  0.00     0.293 HD
ENDBRANCH   4  12
BRANCH   6  14
ATOM     14  O   UNL     1       9.108  15.197 -20.544  1.00  0.00    -0.504 OA
ATOM     15  H   UNL     1       9.016  16.183 -20.764  1.00  0.00     0.293 HD
ENDBRANCH   6  14
TORSDOF 4
ENDMDL
