MODEL 1
REMARK VINA RESULT:    -4.730      0.000      0.000
REMARK INTER + INTRA:          -5.849
REMARK INTER:                  -6.390
REMARK INTRA:                   0.540
REMARK UNBOUND:                 0.540
REMARK SMILES O=c1c(-c2ccc(O)cc2)coc2c([C@H]3O[C@H](CO)[C@@H](O)[C@@H](O)[C@@H]3O)c(O)ccc12
REMARK SMILES IDX 3 1 11 2 12 3 13 4 30 5 2 6 1 7 29 8 28 9 26 10 14 11 4 12
REMARK SMILES IDX 5 13 6 14 7 15 10 16 9 17 8 18 15 20 24 21 16 22 22 23 17 24
REMARK SMILES IDX 20 25 25 26 23 28 18 30 19 31 21 33 27 35
REMARK H PARENT 8 19 25 27 23 29 19 32 21 34 27 36
REMARK Flexibility Score: inf
ROOT
ATOM      1  C   UNL     1     -47.149  95.665  21.857  1.00  0.00     0.065 A 
ATOM      2  C   UNL     1     -46.670  96.628  22.753  1.00  0.00     0.208 A 
ATOM      3  O   UNL     1     -46.699  96.415  24.062  1.00  0.00    -0.463 OA
ATOM      4  C   UNL     1     -47.174  95.302  24.617  1.00  0.00     0.147 A 
ATOM      5  C   UNL     1     -47.656  94.267  23.779  1.00  0.00     0.066 A 
ATOM      6  C   UNL     1     -47.656  94.465  22.386  1.00  0.00     0.200 A 
ATOM      7  O   UNL     1     -48.119  93.577  21.616  1.00  0.00    -0.288 OA
ATOM      8  C   UNL     1     -48.108  93.072  24.347  1.00  0.00     0.020 A 
ATOM      9  C   UNL     1     -48.029  92.879  25.719  1.00  0.00     0.047 A 
ATOM     10  C   UNL     1     -47.540  93.885  26.562  1.00  0.00     0.125 A 
ATOM     11  C   UNL     1     -47.193  95.163  26.036  1.00  0.00     0.069 A 
ENDROOT
BRANCH   1  12
ATOM     12  C   UNL     1     -47.112  95.928  20.397  1.00  0.00    -0.011 A 
ATOM     13  C   UNL     1     -48.080  96.747  19.790  1.00  0.00     0.013 A 
ATOM     14  C   UNL     1     -48.045  96.982  18.412  1.00  0.00     0.047 A 
ATOM     15  C   UNL     1     -47.043  96.399  17.624  1.00  0.00     0.115 A 
ATOM     16  C   UNL     1     -46.115  95.341  19.598  1.00  0.00     0.013 A 
ATOM     17  C   UNL     1     -46.081  95.579  18.220  1.00  0.00     0.047 A 
BRANCH  15  18
ATOM     18  O   UNL     1     -46.998  96.626  16.251  1.00  0.00    -0.508 OA
ATOM     19  H   UNL     1     -46.390  96.089  15.643  1.00  0.00     0.293 HD
ENDBRANCH  15  18
ENDBRANCH   1  12
BRANCH  11  20
ATOM     20  C   UNL     1     -46.693  96.344  26.913  1.00  0.00     0.188 C 
ATOM     21  C   UNL     1     -45.645  97.347  26.339  1.00  0.00     0.179 C 
ATOM     22  O   UNL     1     -46.237  95.908  28.190  1.00  0.00    -0.362 OA
ATOM     23  C   UNL     1     -44.260  96.684  26.227  1.00  0.00     0.177 C 
ATOM     24  C   UNL     1     -45.027  95.163  28.107  1.00  0.00     0.176 C 
ATOM     25  C   UNL     1     -43.874  96.053  27.577  1.00  0.00     0.177 C 
BRANCH  21  26
ATOM     26  O   UNL     1     -45.536  98.444  27.213  1.00  0.00    -0.387 OA
ATOM     27  H   UNL     1     -44.630  98.408  27.617  1.00  0.00     0.211 HD
ENDBRANCH  21  26
BRANCH  23  28
ATOM     28  O   UNL     1     -44.263  95.707  25.217  1.00  0.00    -0.387 OA
ATOM     29  H   UNL     1     -45.200  95.627  24.898  1.00  0.00     0.211 HD
ENDBRANCH  23  28
BRANCH  24  30
ATOM     30  C   UNL     1     -44.714  94.619  29.508  1.00  0.00     0.191 C 
BRANCH  30  31
ATOM     31  O   UNL     1     -43.609  95.286  30.061  1.00  0.00    -0.394 OA
ATOM     32  H   UNL     1     -43.592  96.200  29.672  1.00  0.00     0.210 HD
ENDBRANCH  30  31
ENDBRANCH  24  30
BRANCH  25  33
ATOM     33  O   UNL     1     -42.663  95.345  27.467  1.00  0.00    -0.388 OA
ATOM     34  H   UNL     1     -42.695  94.810  26.632  1.00  0.00     0.211 HD
ENDBRANCH  25  33
ENDBRANCH  11  20
BRANCH  10  35
ATOM     35  O   UNL     1     -47.385  93.580  27.911  1.00  0.00    -0.507 OA
ATOM     36  H   UNL     1     -47.095  92.661  28.226  1.00  0.00     0.293 HD
ENDBRANCH  10  35
TORSDOF 9
ENDMDL
