MODEL 1
REMARK VINA RESULT:    -6.928      0.000      0.000
REMARK INTER + INTRA:          -8.712
REMARK INTER:                  -8.548
REMARK INTRA:                  -0.164
REMARK UNBOUND:                -0.164
REMARK SMILES COc1cc(-c2oc3cc(O)cc(O)c3c(=O)c2O)ccc1O
REMARK SMILES IDX 6 1 18 2 16 3 17 4 15 5 13 6 12 7 10 8 9 9 8 10 7 11 5 12
REMARK SMILES IDX 3 13 22 14 4 15 21 16 20 17 2 18 1 19 23 20 19 22 14 24
REMARK SMILES IDX 11 26
REMARK H PARENT 23 21 19 23 14 25 11 27
REMARK Flexibility Score: inf
ROOT
ATOM      1  C   UNL     1       7.349  -5.641   6.132  1.00  0.00     0.180 A 
ATOM      2  C   UNL     1       8.113  -6.649   6.744  1.00  0.00     0.208 A 
ATOM      3  C   UNL     1       7.472  -7.822   7.177  1.00  0.00     0.238 A 
ATOM      4  O   UNL     1       8.169  -8.743   7.675  1.00  0.00    -0.285 OA
ATOM      5  C   UNL     1       6.073  -7.964   7.005  1.00  0.00     0.111 A 
ATOM      6  C   UNL     1       5.314  -9.091   7.441  1.00  0.00     0.134 A 
ATOM      7  C   UNL     1       3.959  -9.184   7.101  1.00  0.00     0.093 A 
ATOM      8  C   UNL     1       3.320  -8.159   6.399  1.00  0.00     0.123 A 
ATOM      9  C   UNL     1       4.040  -7.027   6.021  1.00  0.00     0.094 A 
ATOM     10  C   UNL     1       5.402  -6.923   6.313  1.00  0.00     0.146 A 
ATOM     11  O   UNL     1       6.051  -5.832   5.926  1.00  0.00    -0.452 OA
ENDROOT
BRANCH   1  12
ATOM     12  C   UNL     1       7.949  -4.367   5.673  1.00  0.00     0.025 A 
ATOM     13  C   UNL     1       9.212  -2.316   6.109  1.00  0.00     0.161 A 
ATOM     14  C   UNL     1       9.025  -1.929   4.769  1.00  0.00     0.157 A 
ATOM     15  C   UNL     1       8.663  -3.535   6.556  1.00  0.00     0.062 A 
ATOM     16  C   UNL     1       8.298  -2.746   3.900  1.00  0.00     0.051 A 
ATOM     17  C   UNL     1       7.757  -3.951   4.348  1.00  0.00     0.016 A 
BRANCH  13  18
ATOM     18  O   UNL     1       9.938  -1.471   6.963  1.00  0.00    -0.493 OA
ATOM     19  C   UNL     1       9.556  -1.148   8.297  1.00  0.00     0.278 C 
ENDBRANCH  13  18
BRANCH  14  20
ATOM     20  O   UNL     1       9.554  -0.733   4.285  1.00  0.00    -0.504 OA
ATOM     21  H   UNL     1      10.334  -0.266   4.733  1.00  0.00     0.293 HD
ENDBRANCH  14  20
ENDBRANCH   1  12
BRANCH   2  22
ATOM     22  O   UNL     1       9.495  -6.497   6.884  1.00  0.00    -0.502 OA
ATOM     23  H   UNL     1       9.997  -5.709   6.493  1.00  0.00     0.293 HD
ENDBRANCH   2  22
BRANCH   6  24
ATOM     24  O   UNL     1       5.833 -10.125   8.227  1.00  0.00    -0.507 OA
ATOM     25  H   UNL     1       5.682 -10.224   9.219  1.00  0.00     0.293 HD
ENDBRANCH   6  24
BRANCH   8  26
ATOM     26  O   UNL     1       1.968  -8.251   6.080  1.00  0.00    -0.508 OA
ATOM     27  H   UNL     1       1.266  -8.426   6.791  1.00  0.00     0.293 HD
ENDBRANCH   8  26
TORSDOF 6
ENDMDL
MODEL 2
REMARK VINA RESULT:    -6.739      1.790      7.090
REMARK INTER + INTRA:          -8.479
REMARK INTER:                  -8.151
REMARK INTRA:                  -0.328
REMARK UNBOUND:                -0.164
REMARK SMILES COc1cc(-c2oc3cc(O)cc(O)c3c(=O)c2O)ccc1O
REMARK SMILES IDX 6 1 18 2 16 3 17 4 15 5 13 6 12 7 10 8 9 9 8 10 7 11 5 12
REMARK SMILES IDX 3 13 22 14 4 15 21 16 20 17 2 18 1 19 23 20 19 22 14 24
REMARK SMILES IDX 11 26
REMARK H PARENT 23 21 19 23 14 25 11 27
REMARK Flexibility Score: inf
ROOT
ATOM      1  C   UNL     1       7.080  -5.267   6.117  1.00  0.00     0.180 A 
ATOM      2  C   UNL     1       7.936  -4.969   7.191  1.00  0.00     0.208 A 
ATOM      3  C   UNL     1       8.967  -4.034   7.002  1.00  0.00     0.238 A 
ATOM      4  O   UNL     1       9.696  -3.732   7.981  1.00  0.00    -0.285 OA
ATOM      5  C   UNL     1       9.138  -3.422   5.737  1.00  0.00     0.111 A 
ATOM      6  C   UNL     1      10.173  -2.491   5.421  1.00  0.00     0.134 A 
ATOM      7  C   UNL     1      10.167  -1.848   4.176  1.00  0.00     0.093 A 
ATOM      8  C   UNL     1       9.202  -2.152   3.213  1.00  0.00     0.123 A 
ATOM      9  C   UNL     1       8.223  -3.104   3.491  1.00  0.00     0.094 A 
ATOM     10  C   UNL     1       8.181  -3.734   4.737  1.00  0.00     0.146 A 
ATOM     11  O   UNL     1       7.225  -4.627   4.963  1.00  0.00    -0.452 OA
ENDROOT
BRANCH   1  12
ATOM     12  C   UNL     1       5.987  -6.260   6.233  1.00  0.00     0.025 A 
ATOM     13  C   UNL     1       5.036  -8.463   5.751  1.00  0.00     0.161 A 
ATOM     14  C   UNL     1       3.862  -8.094   6.433  1.00  0.00     0.157 A 
ATOM     15  C   UNL     1       6.093  -7.536   5.649  1.00  0.00     0.062 A 
ATOM     16  C   UNL     1       3.750  -6.818   6.993  1.00  0.00     0.051 A 
ATOM     17  C   UNL     1       4.799  -5.905   6.889  1.00  0.00     0.016 A 
BRANCH  13  18
ATOM     18  O   UNL     1       5.117  -9.746   5.188  1.00  0.00    -0.493 OA
ATOM     19  C   UNL     1       6.035 -10.125   4.167  1.00  0.00     0.278 C 
ENDBRANCH  13  18
BRANCH  14  20
ATOM     20  O   UNL     1       2.794  -8.981   6.560  1.00  0.00    -0.504 OA
ATOM     21  H   UNL     1       2.277  -9.084   7.426  1.00  0.00     0.293 HD
ENDBRANCH  14  20
ENDBRANCH   1  12
BRANCH   2  22
ATOM     22  O   UNL     1       7.736  -5.570   8.437  1.00  0.00    -0.502 OA
ATOM     23  H   UNL     1       8.393  -5.469   9.201  1.00  0.00     0.293 HD
ENDBRANCH   2  22
BRANCH   6  24
ATOM     24  O   UNL     1      11.236  -2.185   6.276  1.00  0.00    -0.507 OA
ATOM     25  H   UNL     1      11.483  -2.715   7.098  1.00  0.00     0.293 HD
ENDBRANCH   6  24
BRANCH   8  26
ATOM     26  O   UNL     1       9.213  -1.521   1.972  1.00  0.00    -0.508 OA
ATOM     27  H   UNL     1       8.539  -0.801   1.737  1.00  0.00     0.293 HD
ENDBRANCH   8  26
TORSDOF 6
ENDMDL
MODEL 3
REMARK VINA RESULT:    -6.644      0.796      1.954
REMARK INTER + INTRA:          -8.362
REMARK INTER:                  -8.202
REMARK INTRA:                  -0.160
REMARK UNBOUND:                -0.164
REMARK SMILES COc1cc(-c2oc3cc(O)cc(O)c3c(=O)c2O)ccc1O
REMARK SMILES IDX 6 1 18 2 16 3 17 4 15 5 13 6 12 7 10 8 9 9 8 10 7 11 5 12
REMARK SMILES IDX 3 13 22 14 4 15 21 16 20 17 2 18 1 19 23 20 19 22 14 24
REMARK SMILES IDX 11 26
REMARK H PARENT 23 21 19 23 14 25 11 27
REMARK Flexibility Score: inf
ROOT
ATOM      1  C   UNL     1       7.505  -5.638   6.312  1.00  0.00     0.180 A 
ATOM      2  C   UNL     1       8.253  -6.636   6.960  1.00  0.00     0.208 A 
ATOM      3  C   UNL     1       7.607  -7.812   7.374  1.00  0.00     0.238 A 
ATOM      4  O   UNL     1       8.292  -8.725   7.904  1.00  0.00    -0.285 OA
ATOM      5  C   UNL     1       6.217  -7.969   7.150  1.00  0.00     0.111 A 
ATOM      6  C   UNL     1       5.452  -9.100   7.563  1.00  0.00     0.134 A 
ATOM      7  C   UNL     1       4.111  -9.207   7.172  1.00  0.00     0.093 A 
ATOM      8  C   UNL     1       3.491  -8.191   6.439  1.00  0.00     0.123 A 
ATOM      9  C   UNL     1       4.215  -7.055   6.083  1.00  0.00     0.094 A 
ATOM     10  C   UNL     1       5.563  -6.938   6.427  1.00  0.00     0.146 A 
ATOM     11  O   UNL     1       6.218  -5.843   6.058  1.00  0.00    -0.452 OA
ENDROOT
BRANCH   1  12
ATOM     12  C   UNL     1       8.111  -4.362   5.869  1.00  0.00     0.025 A 
ATOM     13  C   UNL     1       8.792  -2.817   4.098  1.00  0.00     0.161 A 
ATOM     14  C   UNL     1       9.320  -1.950   5.072  1.00  0.00     0.157 A 
ATOM     15  C   UNL     1       8.195  -4.027   4.505  1.00  0.00     0.062 A 
ATOM     16  C   UNL     1       9.256  -2.295   6.424  1.00  0.00     0.051 A 
ATOM     17  C   UNL     1       8.664  -3.494   6.821  1.00  0.00     0.016 A 
BRANCH  13  18
ATOM     18  O   UNL     1       8.881  -2.451   2.745  1.00  0.00    -0.493 OA
ATOM     19  C   UNL     1      10.039  -2.628   1.934  1.00  0.00     0.278 C 
ENDBRANCH  13  18
BRANCH  14  20
ATOM     20  O   UNL     1       9.917  -0.742   4.713  1.00  0.00    -0.504 OA
ATOM     21  H   UNL     1      10.693  -0.347   5.231  1.00  0.00     0.293 HD
ENDBRANCH  14  20
ENDBRANCH   1  12
BRANCH   2  22
ATOM     22  O   UNL     1       9.628  -6.471   7.151  1.00  0.00    -0.502 OA
ATOM     23  H   UNL     1      10.028  -5.607   7.495  1.00  0.00     0.293 HD
ENDBRANCH   2  22
BRANCH   6  24
ATOM     24  O   UNL     1       5.949 -10.125   8.374  1.00  0.00    -0.507 OA
ATOM     25  H   UNL     1       6.702 -10.746   8.118  1.00  0.00     0.293 HD
ENDBRANCH   6  24
BRANCH   8  26
ATOM     26  O   UNL     1       2.153  -8.298   6.069  1.00  0.00    -0.508 OA
ATOM     27  H   UNL     1       1.425  -7.790   6.560  1.00  0.00     0.293 HD
ENDBRANCH   8  26
TORSDOF 6
ENDMDL
MODEL 4
REMARK VINA RESULT:    -6.593      2.196      7.419
REMARK INTER + INTRA:          -8.298
REMARK INTER:                  -7.899
REMARK INTRA:                  -0.399
REMARK UNBOUND:                -0.164
REMARK SMILES COc1cc(-c2oc3cc(O)cc(O)c3c(=O)c2O)ccc1O
REMARK SMILES IDX 6 1 18 2 16 3 17 4 15 5 13 6 12 7 10 8 9 9 8 10 7 11 5 12
REMARK SMILES IDX 3 13 22 14 4 15 21 16 20 17 2 18 1 19 23 20 19 22 14 24
REMARK SMILES IDX 11 26
REMARK H PARENT 23 21 19 23 14 25 11 27
REMARK Flexibility Score: inf
ROOT
ATOM      1  C   UNL     1       7.764  -4.764   5.727  1.00  0.00     0.180 A 
ATOM      2  C   UNL     1       7.845  -3.671   4.847  1.00  0.00     0.208 A 
ATOM      3  C   UNL     1       8.958  -2.818   4.920  1.00  0.00     0.238 A 
ATOM      4  O   UNL     1       9.051  -1.873   4.094  1.00  0.00    -0.285 OA
ATOM      5  C   UNL     1       9.969  -3.059   5.882  1.00  0.00     0.111 A 
ATOM      6  C   UNL     1      11.121  -2.238   6.071  1.00  0.00     0.134 A 
ATOM      7  C   UNL     1      12.120  -2.646   6.963  1.00  0.00     0.093 A 
ATOM      8  C   UNL     1      11.979  -3.812   7.720  1.00  0.00     0.123 A 
ATOM      9  C   UNL     1      10.830  -4.588   7.585  1.00  0.00     0.094 A 
ATOM     10  C   UNL     1       9.833  -4.227   6.677  1.00  0.00     0.146 A 
ATOM     11  O   UNL     1       8.760  -5.001   6.573  1.00  0.00    -0.452 OA
ENDROOT
BRANCH   1  12
ATOM     12  C   UNL     1       6.610  -5.692   5.727  1.00  0.00     0.025 A 
ATOM     13  C   UNL     1       5.490  -7.715   4.926  1.00  0.00     0.161 A 
ATOM     14  C   UNL     1       4.372  -7.397   5.718  1.00  0.00     0.157 A 
ATOM     15  C   UNL     1       6.604  -6.852   4.930  1.00  0.00     0.062 A 
ATOM     16  C   UNL     1       4.371  -6.233   6.492  1.00  0.00     0.051 A 
ATOM     17  C   UNL     1       5.477  -5.382   6.491  1.00  0.00     0.016 A 
BRANCH  13  18
ATOM     18  O   UNL     1       5.459  -8.885   4.149  1.00  0.00    -0.493 OA
ATOM     19  C   UNL     1       6.176 -10.077   4.455  1.00  0.00     0.278 C 
ENDBRANCH  13  18
BRANCH  14  20
ATOM     20  O   UNL     1       3.250  -8.225   5.746  1.00  0.00    -0.504 OA
ATOM     21  H   UNL     1       3.317  -9.220   5.927  1.00  0.00     0.293 HD
ENDBRANCH  14  20
ENDBRANCH   1  12
BRANCH   2  22
ATOM     22  O   UNL     1       6.847  -3.463   3.891  1.00  0.00    -0.502 OA
ATOM     23  H   UNL     1       6.373  -4.228   3.425  1.00  0.00     0.293 HD
ENDBRANCH   2  22
BRANCH   6  24
ATOM     24  O   UNL     1      11.316  -1.009   5.434  1.00  0.00    -0.507 OA
ATOM     25  H   UNL     1      11.173  -0.843   4.450  1.00  0.00     0.293 HD
ENDBRANCH   6  24
BRANCH   8  26
ATOM     26  O   UNL     1      12.970  -4.201   8.617  1.00  0.00    -0.508 OA
ATOM     27  H   UNL     1      13.016  -5.147   8.979  1.00  0.00     0.293 HD
ENDBRANCH   8  26
TORSDOF 6
ENDMDL
MODEL 5
REMARK VINA RESULT:    -6.314      1.615      7.301
REMARK INTER + INTRA:          -7.954
REMARK INTER:                  -7.625
REMARK INTRA:                  -0.329
REMARK UNBOUND:                -0.164
REMARK SMILES COc1cc(-c2oc3cc(O)cc(O)c3c(=O)c2O)ccc1O
REMARK SMILES IDX 6 1 18 2 16 3 17 4 15 5 13 6 12 7 10 8 9 9 8 10 7 11 5 12
REMARK SMILES IDX 3 13 22 14 4 15 21 16 20 17 2 18 1 19 23 20 19 22 14 24
REMARK SMILES IDX 11 26
REMARK H PARENT 23 21 19 23 14 25 11 27
REMARK Flexibility Score: inf
ROOT
ATOM      1  C   UNL     1       7.708  -4.721   5.869  1.00  0.00     0.180 A 
ATOM      2  C   UNL     1       8.198  -4.425   4.585  1.00  0.00     0.208 A 
ATOM      3  C   UNL     1       9.108  -3.366   4.430  1.00  0.00     0.238 A 
ATOM      4  O   UNL     1       9.584  -3.140   3.288  1.00  0.00    -0.285 OA
ATOM      5  C   UNL     1       9.503  -2.606   5.558  1.00  0.00     0.111 A 
ATOM      6  C   UNL     1      10.388  -1.487   5.512  1.00  0.00     0.134 A 
ATOM      7  C   UNL     1      10.813  -0.894   6.707  1.00  0.00     0.093 A 
ATOM      8  C   UNL     1      10.334  -1.337   7.943  1.00  0.00     0.123 A 
ATOM      9  C   UNL     1       9.423  -2.390   7.993  1.00  0.00     0.094 A 
ATOM     10  C   UNL     1       9.010  -3.026   6.821  1.00  0.00     0.146 A 
ATOM     11  O   UNL     1       8.149  -4.033   6.916  1.00  0.00    -0.452 OA
ENDROOT
BRANCH   1  12
ATOM     12  C   UNL     1       6.729  -5.805   6.107  1.00  0.00     0.025 A 
ATOM     13  C   UNL     1       6.181  -8.068   6.864  1.00  0.00     0.161 A 
ATOM     14  C   UNL     1       4.841  -7.857   6.491  1.00  0.00     0.157 A 
ATOM     15  C   UNL     1       7.122  -7.037   6.661  1.00  0.00     0.062 A 
ATOM     16  C   UNL     1       4.457  -6.640   5.921  1.00  0.00     0.051 A 
ATOM     17  C   UNL     1       5.393  -5.625   5.722  1.00  0.00     0.016 A 
BRANCH  13  18
ATOM     18  O   UNL     1       6.542  -9.303   7.424  1.00  0.00    -0.493 OA
ATOM     19  C   UNL     1       7.152  -9.465   8.701  1.00  0.00     0.278 C 
ENDBRANCH  13  18
BRANCH  14  20
ATOM     20  O   UNL     1       3.878  -8.847   6.678  1.00  0.00    -0.504 OA
ATOM     21  H   UNL     1       4.094  -9.737   7.112  1.00  0.00     0.293 HD
ENDBRANCH  14  20
ENDBRANCH   1  12
BRANCH   2  22
ATOM     22  O   UNL     1       7.811  -5.200   3.489  1.00  0.00    -0.502 OA
ATOM     23  H   UNL     1       7.116  -4.889   2.821  1.00  0.00     0.293 HD
ENDBRANCH   2  22
BRANCH   6  24
ATOM     24  O   UNL     1      10.852  -0.908   4.328  1.00  0.00    -0.507 OA
ATOM     25  H   UNL     1      11.747  -0.455   4.222  1.00  0.00     0.293 HD
ENDBRANCH   6  24
BRANCH   8  26
ATOM     26  O   UNL     1      10.749  -0.730   9.125  1.00  0.00    -0.508 OA
ATOM     27  H   UNL     1      10.521  -1.124  10.031  1.00  0.00     0.293 HD
ENDBRANCH   8  26
TORSDOF 6
ENDMDL
MODEL 6
REMARK VINA RESULT:    -6.313      2.026      7.351
REMARK INTER + INTRA:          -7.953
REMARK INTER:                  -7.581
REMARK INTRA:                  -0.372
REMARK UNBOUND:                -0.164
REMARK SMILES COc1cc(-c2oc3cc(O)cc(O)c3c(=O)c2O)ccc1O
REMARK SMILES IDX 6 1 18 2 16 3 17 4 15 5 13 6 12 7 10 8 9 9 8 10 7 11 5 12
REMARK SMILES IDX 3 13 22 14 4 15 21 16 20 17 2 18 1 19 23 20 19 22 14 24
REMARK SMILES IDX 11 26
REMARK H PARENT 23 21 19 23 14 25 11 27
REMARK Flexibility Score: inf
ROOT
ATOM      1  C   UNL     1       7.703  -5.194   5.754  1.00  0.00     0.180 A 
ATOM      2  C   UNL     1       7.420  -4.025   5.027  1.00  0.00     0.208 A 
ATOM      3  C   UNL     1       8.347  -2.970   5.046  1.00  0.00     0.238 A 
ATOM      4  O   UNL     1       8.113  -1.947   4.350  1.00  0.00    -0.285 OA
ATOM      5  C   UNL     1       9.537  -3.091   5.803  1.00  0.00     0.111 A 
ATOM      6  C   UNL     1      10.527  -2.070   5.925  1.00  0.00     0.134 A 
ATOM      7  C   UNL     1      11.726  -2.348   6.593  1.00  0.00     0.093 A 
ATOM      8  C   UNL     1      11.943  -3.588   7.199  1.00  0.00     0.123 A 
ATOM      9  C   UNL     1      10.957  -4.570   7.135  1.00  0.00     0.094 A 
ATOM     10  C   UNL     1       9.766  -4.335   6.445  1.00  0.00     0.146 A 
ATOM     11  O   UNL     1       8.858  -5.302   6.401  1.00  0.00    -0.452 OA
ENDROOT
BRANCH   1  12
ATOM     12  C   UNL     1       6.764  -6.337   5.804  1.00  0.00     0.025 A 
ATOM     13  C   UNL     1       4.925  -7.553   6.868  1.00  0.00     0.161 A 
ATOM     14  C   UNL     1       5.036  -8.557   5.888  1.00  0.00     0.157 A 
ATOM     15  C   UNL     1       5.799  -6.448   6.822  1.00  0.00     0.062 A 
ATOM     16  C   UNL     1       6.009  -8.456   4.890  1.00  0.00     0.051 A 
ATOM     17  C   UNL     1       6.872  -7.360   4.851  1.00  0.00     0.016 A 
BRANCH  13  18
ATOM     18  O   UNL     1       3.946  -7.686   7.866  1.00  0.00    -0.493 OA
ATOM     19  C   UNL     1       4.123  -8.409   9.080  1.00  0.00     0.278 C 
ENDBRANCH  13  18
BRANCH  14  20
ATOM     20  O   UNL     1       4.190  -9.665   5.894  1.00  0.00    -0.504 OA
ATOM     21  H   UNL     1       3.400  -9.739   6.525  1.00  0.00     0.293 HD
ENDBRANCH  14  20
ENDBRANCH   1  12
BRANCH   2  22
ATOM     22  O   UNL     1       6.249  -3.935   4.270  1.00  0.00    -0.502 OA
ATOM     23  H   UNL     1       6.188  -4.280   3.320  1.00  0.00     0.293 HD
ENDBRANCH   2  22
BRANCH   6  24
ATOM     24  O   UNL     1      10.371  -0.769   5.437  1.00  0.00    -0.507 OA
ATOM     25  H   UNL     1       9.738  -0.084   5.820  1.00  0.00     0.293 HD
ENDBRANCH   6  24
BRANCH   8  26
ATOM     26  O   UNL     1      13.132  -3.850   7.875  1.00  0.00    -0.508 OA
ATOM     27  H   UNL     1      13.907  -4.320   7.421  1.00  0.00     0.293 HD
ENDBRANCH   8  26
TORSDOF 6
ENDMDL
MODEL 7
REMARK VINA RESULT:    -6.195      1.592      7.156
REMARK INTER + INTRA:          -7.808
REMARK INTER:                  -7.431
REMARK INTRA:                  -0.377
REMARK UNBOUND:                -0.164
REMARK SMILES COc1cc(-c2oc3cc(O)cc(O)c3c(=O)c2O)ccc1O
REMARK SMILES IDX 6 1 18 2 16 3 17 4 15 5 13 6 12 7 10 8 9 9 8 10 7 11 5 12
REMARK SMILES IDX 3 13 22 14 4 15 21 16 20 17 2 18 1 19 23 20 19 22 14 24
REMARK SMILES IDX 11 26
REMARK H PARENT 23 21 19 23 14 25 11 27
REMARK Flexibility Score: inf
ROOT
ATOM      1  C   UNL     1       8.034  -5.244   6.771  1.00  0.00     0.180 A 
ATOM      2  C   UNL     1       8.627  -4.468   7.782  1.00  0.00     0.208 A 
ATOM      3  C   UNL     1       9.315  -3.297   7.427  1.00  0.00     0.238 A 
ATOM      4  O   UNL     1       9.796  -2.578   8.341  1.00  0.00    -0.285 OA
ATOM      5  C   UNL     1       9.416  -2.924   6.064  1.00  0.00     0.111 A 
ATOM      6  C   UNL     1      10.122  -1.780   5.587  1.00  0.00     0.134 A 
ATOM      7  C   UNL     1      10.045  -1.436   4.232  1.00  0.00     0.093 A 
ATOM      8  C   UNL     1       9.341  -2.233   3.325  1.00  0.00     0.123 A 
ATOM      9  C   UNL     1       8.697  -3.385   3.772  1.00  0.00     0.094 A 
ATOM     10  C   UNL     1       8.726  -3.733   5.124  1.00  0.00     0.146 A 
ATOM     11  O   UNL     1       8.090  -4.834   5.509  1.00  0.00    -0.452 OA
ENDROOT
BRANCH   1  12
ATOM     12  C   UNL     1       7.315  -6.504   7.064  1.00  0.00     0.025 A 
ATOM     13  C   UNL     1       5.243  -7.739   7.481  1.00  0.00     0.161 A 
ATOM     14  C   UNL     1       5.994  -8.912   7.677  1.00  0.00     0.157 A 
ATOM     15  C   UNL     1       5.913  -6.535   7.181  1.00  0.00     0.062 A 
ATOM     16  C   UNL     1       7.388  -8.875   7.582  1.00  0.00     0.051 A 
ATOM     17  C   UNL     1       8.045  -7.680   7.286  1.00  0.00     0.016 A 
BRANCH  13  18
ATOM     18  O   UNL     1       3.845  -7.803   7.594  1.00  0.00    -0.493 OA
ATOM     19  C   UNL     1       2.948  -7.894   6.492  1.00  0.00     0.278 C 
ENDBRANCH  13  18
BRANCH  14  20
ATOM     20  O   UNL     1       5.372 -10.125   7.972  1.00  0.00    -0.504 OA
ATOM     21  H   UNL     1       4.931 -10.303   8.867  1.00  0.00     0.293 HD
ENDBRANCH  14  20
ENDBRANCH   1  12
BRANCH   2  22
ATOM     22  O   UNL     1       8.497  -4.843   9.122  1.00  0.00    -0.502 OA
ATOM     23  H   UNL     1       8.674  -5.787   9.442  1.00  0.00     0.293 HD
ENDBRANCH   2  22
BRANCH   6  24
ATOM     24  O   UNL     1      10.930  -0.970   6.391  1.00  0.00    -0.507 OA
ATOM     25  H   UNL     1      10.721  -0.715   7.344  1.00  0.00     0.293 HD
ENDBRANCH   6  24
BRANCH   8  26
ATOM     26  O   UNL     1       9.283  -1.893   1.976  1.00  0.00    -0.508 OA
ATOM     27  H   UNL     1       8.558  -2.258   1.368  1.00  0.00     0.293 HD
ENDBRANCH   8  26
TORSDOF 6
ENDMDL
MODEL 8
REMARK VINA RESULT:    -6.132      2.032      2.165
REMARK INTER + INTRA:          -7.729
REMARK INTER:                  -7.518
REMARK INTRA:                  -0.211
REMARK UNBOUND:                -0.164
REMARK SMILES COc1cc(-c2oc3cc(O)cc(O)c3c(=O)c2O)ccc1O
REMARK SMILES IDX 6 1 18 2 16 3 17 4 15 5 13 6 12 7 10 8 9 9 8 10 7 11 5 12
REMARK SMILES IDX 3 13 22 14 4 15 21 16 20 17 2 18 1 19 23 20 19 22 14 24
REMARK SMILES IDX 11 26
REMARK H PARENT 23 21 19 23 14 25 11 27
REMARK Flexibility Score: inf
ROOT
ATOM      1  C   UNL     1       8.018  -5.150   6.059  1.00  0.00     0.180 A 
ATOM      2  C   UNL     1       7.691  -5.366   7.408  1.00  0.00     0.208 A 
ATOM      3  C   UNL     1       6.937  -6.500   7.753  1.00  0.00     0.238 A 
ATOM      4  O   UNL     1       6.693  -6.717   8.969  1.00  0.00    -0.285 OA
ATOM      5  C   UNL     1       6.508  -7.394   6.743  1.00  0.00     0.111 A 
ATOM      6  C   UNL     1       5.707  -8.553   6.973  1.00  0.00     0.134 A 
ATOM      7  C   UNL     1       5.452  -9.437   5.918  1.00  0.00     0.093 A 
ATOM      8  C   UNL     1       5.914  -9.170   4.626  1.00  0.00     0.123 A 
ATOM      9  C   UNL     1       6.647  -8.011   4.380  1.00  0.00     0.094 A 
ATOM     10  C   UNL     1       6.948  -7.129   5.420  1.00  0.00     0.146 A 
ATOM     11  O   UNL     1       7.657  -6.041   5.143  1.00  0.00    -0.452 OA
ENDROOT
BRANCH   1  12
ATOM     12  C   UNL     1       8.787  -3.965   5.615  1.00  0.00     0.025 A 
ATOM     13  C   UNL     1      10.821  -2.602   5.635  1.00  0.00     0.161 A 
ATOM     14  C   UNL     1      10.191  -1.670   4.789  1.00  0.00     0.157 A 
ATOM     15  C   UNL     1      10.108  -3.745   6.050  1.00  0.00     0.062 A 
ATOM     16  C   UNL     1       8.873  -1.879   4.376  1.00  0.00     0.051 A 
ATOM     17  C   UNL     1       8.172  -3.012   4.791  1.00  0.00     0.016 A 
BRANCH  13  18
ATOM     18  O   UNL     1      12.142  -2.361   6.044  1.00  0.00    -0.493 OA
ATOM     19  C   UNL     1      12.508  -1.766   7.285  1.00  0.00     0.278 C 
ENDBRANCH  13  18
BRANCH  14  20
ATOM     20  O   UNL     1      10.861  -0.528   4.351  1.00  0.00    -0.504 OA
ATOM     21  H   UNL     1      10.428   0.150   3.734  1.00  0.00     0.293 HD
ENDBRANCH  14  20
ENDBRANCH   1  12
BRANCH   2  22
ATOM     22  O   UNL     1       8.143  -4.481   8.391  1.00  0.00    -0.502 OA
ATOM     23  H   UNL     1       7.515  -3.883   8.915  1.00  0.00     0.293 HD
ENDBRANCH   2  22
BRANCH   6  24
ATOM     24  O   UNL     1       5.119  -8.863   8.203  1.00  0.00    -0.507 OA
ATOM     25  H   UNL     1       5.245  -8.331   9.051  1.00  0.00     0.293 HD
ENDBRANCH   6  24
BRANCH   8  26
ATOM     26  O   UNL     1       5.642 -10.047   3.579  1.00  0.00    -0.508 OA
ATOM     27  H   UNL     1       6.079  -9.938   2.670  1.00  0.00     0.293 HD
ENDBRANCH   8  26
TORSDOF 6
ENDMDL
MODEL 9
REMARK VINA RESULT:    -5.984      1.926      3.529
REMARK INTER + INTRA:          -7.547
REMARK INTER:                  -7.160
REMARK INTRA:                  -0.387
REMARK UNBOUND:                -0.164
REMARK SMILES COc1cc(-c2oc3cc(O)cc(O)c3c(=O)c2O)ccc1O
REMARK SMILES IDX 6 1 18 2 16 3 17 4 15 5 13 6 12 7 10 8 9 9 8 10 7 11 5 12
REMARK SMILES IDX 3 13 22 14 4 15 21 16 20 17 2 18 1 19 23 20 19 22 14 24
REMARK SMILES IDX 11 26
REMARK H PARENT 23 21 19 23 14 25 11 27
REMARK Flexibility Score: inf
ROOT
ATOM      1  C   UNL     1       8.919  -4.408   6.198  1.00  0.00     0.180 A 
ATOM      2  C   UNL     1       7.729  -4.291   5.459  1.00  0.00     0.208 A 
ATOM      3  C   UNL     1       6.858  -5.390   5.391  1.00  0.00     0.238 A 
ATOM      4  O   UNL     1       5.770  -5.262   4.773  1.00  0.00    -0.285 OA
ATOM      5  C   UNL     1       7.196  -6.598   6.049  1.00  0.00     0.111 A 
ATOM      6  C   UNL     1       6.407  -7.787   6.015  1.00  0.00     0.134 A 
ATOM      7  C   UNL     1       6.772  -8.881   6.810  1.00  0.00     0.093 A 
ATOM      8  C   UNL     1       7.932  -8.851   7.588  1.00  0.00     0.123 A 
ATOM      9  C   UNL     1       8.740  -7.715   7.581  1.00  0.00     0.094 A 
ATOM     10  C   UNL     1       8.382  -6.596   6.827  1.00  0.00     0.146 A 
ATOM     11  O   UNL     1       9.175  -5.531   6.858  1.00  0.00    -0.452 OA
ENDROOT
BRANCH   1  12
ATOM     12  C   UNL     1       9.898  -3.301   6.295  1.00  0.00     0.025 A 
ATOM     13  C   UNL     1      10.757  -1.294   7.402  1.00  0.00     0.161 A 
ATOM     14  C   UNL     1      11.748  -1.184   6.409  1.00  0.00     0.157 A 
ATOM     15  C   UNL     1       9.830  -2.354   7.334  1.00  0.00     0.062 A 
ATOM     16  C   UNL     1      11.801  -2.113   5.367  1.00  0.00     0.051 A 
ATOM     17  C   UNL     1      10.879  -3.159   5.304  1.00  0.00     0.016 A 
BRANCH  13  18
ATOM     18  O   UNL     1      10.721  -0.340   8.431  1.00  0.00    -0.493 OA
ATOM     19  C   UNL     1       9.534   0.095   9.088  1.00  0.00     0.278 C 
ENDBRANCH  13  18
BRANCH  14  20
ATOM     20  O   UNL     1      12.687  -0.154   6.440  1.00  0.00    -0.504 OA
ATOM     21  H   UNL     1      12.669   0.573   7.147  1.00  0.00     0.293 HD
ENDBRANCH  14  20
ENDBRANCH   1  12
BRANCH   2  22
ATOM     22  O   UNL     1       7.406  -3.083   4.835  1.00  0.00    -0.502 OA
ATOM     23  H   UNL     1       6.451  -2.819   4.623  1.00  0.00     0.293 HD
ENDBRANCH   2  22
BRANCH   6  24
ATOM     24  O   UNL     1       5.282  -7.954   5.201  1.00  0.00    -0.507 OA
ATOM     25  H   UNL     1       4.990  -8.831   4.798  1.00  0.00     0.293 HD
ENDBRANCH   6  24
BRANCH   8  26
ATOM     26  O   UNL     1       8.297  -9.949   8.363  1.00  0.00    -0.508 OA
ATOM     27  H   UNL     1       8.562 -10.832   7.940  1.00  0.00     0.293 HD
ENDBRANCH   8  26
TORSDOF 6
ENDMDL
