MODEL 1
REMARK VINA RESULT:    -5.687      0.000      0.000
REMARK INTER + INTRA:         -17.204
REMARK INTER:                 -14.995
REMARK INTRA:                  -2.209
REMARK UNBOUND:                -2.209
REMARK SMILES CCCCCCCCCCCCCCCCCCCCCCCCCCCCCC(=O)[O-]
REMARK SMILES IDX 16 1 17 2 18 3 19 4 20 5 21 6 22 7 23 8 24 9 25 10 26 11
REMARK SMILES IDX 27 12 28 13 29 14 30 15 31 16 32 17 15 18 14 19 13 20 12 21
REMARK SMILES IDX 11 22 10 23 9 24 8 25 7 26 6 27 5 28 4 29 3 30 2 31 1 32
REMARK H PARENT
REMARK Flexibility Score: inf
ROOT
ATOM      1  C   UNL     1     -17.213  25.748   1.117  1.00  0.00     0.000 C 
ENDROOT
BRANCH   1   2
ATOM      2  C   UNL     1     -17.960  25.390  -0.180  1.00  0.00     0.000 C 
BRANCH   2   3
ATOM      3  C   UNL     1     -18.838  24.136  -0.038  1.00  0.00     0.000 C 
BRANCH   3   4
ATOM      4  C   UNL     1     -18.496  23.066  -1.087  1.00  0.00     0.000 C 
BRANCH   4   5
ATOM      5  C   UNL     1     -19.737  22.595  -1.865  1.00  0.00     0.000 C 
BRANCH   5   6
ATOM      6  C   UNL     1     -21.045  22.765  -1.071  1.00  0.00     0.000 C 
BRANCH   6   7
ATOM      7  C   UNL     1     -21.493  21.521  -0.283  1.00  0.00     0.000 C 
BRANCH   7   8
ATOM      8  C   UNL     1     -22.611  21.822   0.732  1.00  0.00     0.000 C 
BRANCH   8   9
ATOM      9  C   UNL     1     -23.758  22.658   0.124  1.00  0.00     0.000 C 
BRANCH   9  10
ATOM     10  C   UNL     1     -25.159  22.067   0.376  1.00  0.00     0.000 C 
BRANCH  10  11
ATOM     11  C   UNL     1     -25.908  21.593  -0.884  1.00  0.00     0.000 C 
BRANCH  11  12
ATOM     12  C   UNL     1     -27.010  22.547  -1.383  1.00  0.00     0.000 C 
BRANCH  12  13
ATOM     13  C   UNL     1     -26.454  23.724  -2.203  1.00  0.00     0.006 C 
BRANCH  13  14
ATOM     14  C   UNL     1     -26.566  23.481  -3.713  1.00  0.00     0.053 C 
BRANCH  14  15
ATOM     15  C   UNL     1     -25.608  24.331  -4.489  1.00  0.00     0.041 C 
ATOM     16  O   UNL     1     -25.815  25.568  -4.611  1.00  0.00    -0.550 OA
ATOM     17  O   UNL     1     -24.497  23.757  -5.093  1.00  0.00    -0.550 OA
ENDBRANCH  14  15
ENDBRANCH  13  14
ENDBRANCH  12  13
ENDBRANCH  11  12
ENDBRANCH  10  11
ENDBRANCH   9  10
ENDBRANCH   8   9
ENDBRANCH   7   8
ENDBRANCH   6   7
ENDBRANCH   5   6
ENDBRANCH   4   5
ENDBRANCH   3   4
ENDBRANCH   2   3
ENDBRANCH   1   2
BRANCH   1  18
ATOM     18  C   UNL     1     -16.655  27.186   1.179  1.00  0.00     0.000 C 
BRANCH  18  19
ATOM     19  C   UNL     1     -16.271  27.808  -0.177  1.00  0.00     0.000 C 
BRANCH  19  20
ATOM     20  C   UNL     1     -17.033  29.109  -0.481  1.00  0.00     0.000 C 
BRANCH  20  21
ATOM     21  C   UNL     1     -18.413  28.850  -1.111  1.00  0.00     0.000 C 
BRANCH  21  22
ATOM     22  C   UNL     1     -19.053  30.070  -1.808  1.00  0.00     0.000 C 
BRANCH  22  23
ATOM     23  C   UNL     1     -18.112  31.269  -2.021  1.00  0.00     0.000 C 
BRANCH  23  24
ATOM     24  C   UNL     1     -18.251  32.404  -0.987  1.00  0.00    -0.000 C 
BRANCH  24  25
ATOM     25  C   UNL     1     -16.938  33.173  -0.717  1.00  0.00    -0.000 C 
BRANCH  25  26
ATOM     26  C   UNL     1     -16.479  33.173   0.755  1.00  0.00    -0.000 C 
BRANCH  26  27
ATOM     27  C   UNL     1     -16.783  31.882   1.542  1.00  0.00    -0.000 C 
BRANCH  27  28
ATOM     28  C   UNL     1     -15.541  31.007   1.806  1.00  0.00    -0.000 C 
BRANCH  28  29
ATOM     29  C   UNL     1     -15.744  30.065   3.004  1.00  0.00    -0.000 C 
BRANCH  29  30
ATOM     30  C   UNL     1     -16.533  30.722   4.148  1.00  0.00    -0.000 C 
BRANCH  30  31
ATOM     31  C   UNL     1     -15.754  30.730   5.473  1.00  0.00    -0.003 C 
ATOM     32  C   UNL     1     -14.350  30.161   5.287  1.00  0.00     0.004 C 
ENDBRANCH  30  31
ENDBRANCH  29  30
ENDBRANCH  28  29
ENDBRANCH  27  28
ENDBRANCH  26  27
ENDBRANCH  25  26
ENDBRANCH  24  25
ENDBRANCH  23  24
ENDBRANCH  22  23
ENDBRANCH  21  22
ENDBRANCH  20  21
ENDBRANCH  19  20
ENDBRANCH  18  19
ENDBRANCH   1  18
TORSDOF 28
ENDMDL
MODEL 2
REMARK VINA RESULT:    -5.506      3.580     11.261
REMARK INTER + INTRA:         -16.727
REMARK INTER:                 -14.382
REMARK INTRA:                  -2.346
REMARK UNBOUND:                -2.209
REMARK SMILES CCCCCCCCCCCCCCCCCCCCCCCCCCCCCC(=O)[O-]
REMARK SMILES IDX 16 1 17 2 18 3 19 4 20 5 21 6 22 7 23 8 24 9 25 10 26 11
REMARK SMILES IDX 27 12 28 13 29 14 30 15 31 16 32 17 15 18 14 19 13 20 12 21
REMARK SMILES IDX 11 22 10 23 9 24 8 25 7 26 6 27 5 28 4 29 3 30 2 31 1 32
REMARK H PARENT
REMARK Flexibility Score: inf
ROOT
ATOM      1  C   UNL     1     -17.097  27.273  -0.481  1.00  0.00     0.000 C 
ENDROOT
BRANCH   1   2
ATOM      2  C   UNL     1     -17.524  28.736  -0.692  1.00  0.00     0.000 C 
BRANCH   2   3
ATOM      3  C   UNL     1     -18.940  28.868  -1.275  1.00  0.00     0.000 C 
BRANCH   3   4
ATOM      4  C   UNL     1     -19.184  30.249  -1.903  1.00  0.00     0.000 C 
BRANCH   4   5
ATOM      5  C   UNL     1     -17.953  31.167  -1.792  1.00  0.00     0.000 C 
BRANCH   5   6
ATOM      6  C   UNL     1     -18.154  32.324  -0.797  1.00  0.00     0.000 C 
BRANCH   6   7
ATOM      7  C   UNL     1     -16.977  33.311  -0.702  1.00  0.00     0.000 C 
BRANCH   7   8
ATOM      8  C   UNL     1     -16.230  33.229   0.642  1.00  0.00     0.000 C 
BRANCH   8   9
ATOM      9  C   UNL     1     -16.679  32.027   1.500  1.00  0.00     0.000 C 
BRANCH   9  10
ATOM     10  C   UNL     1     -15.907  30.727   1.201  1.00  0.00     0.000 C 
BRANCH  10  11
ATOM     11  C   UNL     1     -15.539  29.883   2.436  1.00  0.00     0.000 C 
BRANCH  11  12
ATOM     12  C   UNL     1     -15.068  30.691   3.660  1.00  0.00     0.000 C 
BRANCH  12  13
ATOM     13  C   UNL     1     -15.407  30.006   4.995  1.00  0.00     0.006 C 
BRANCH  13  14
ATOM     14  C   UNL     1     -16.826  29.424   5.001  1.00  0.00     0.053 C 
BRANCH  14  15
ATOM     15  C   UNL     1     -17.824  30.387   5.565  1.00  0.00     0.041 C 
ATOM     16  O   UNL     1     -17.467  31.551   5.890  1.00  0.00    -0.550 OA
ATOM     17  O   UNL     1     -19.144  29.996   5.748  1.00  0.00    -0.550 OA
ENDBRANCH  14  15
ENDBRANCH  13  14
ENDBRANCH  12  13
ENDBRANCH  11  12
ENDBRANCH  10  11
ENDBRANCH   9  10
ENDBRANCH   8   9
ENDBRANCH   7   8
ENDBRANCH   6   7
ENDBRANCH   5   6
ENDBRANCH   4   5
ENDBRANCH   3   4
ENDBRANCH   2   3
ENDBRANCH   1   2
BRANCH   1  18
ATOM     18  C   UNL     1     -16.986  26.827   0.993  1.00  0.00     0.000 C 
BRANCH  18  19
ATOM     19  C   UNL     1     -17.598  25.452   1.318  1.00  0.00     0.000 C 
BRANCH  19  20
ATOM     20  C   UNL     1     -18.915  25.186   0.568  1.00  0.00     0.000 C 
BRANCH  20  21
ATOM     21  C   UNL     1     -19.109  23.696   0.230  1.00  0.00     0.000 C 
BRANCH  21  22
ATOM     22  C   UNL     1     -18.882  23.327  -1.252  1.00  0.00     0.000 C 
BRANCH  22  23
ATOM     23  C   UNL     1     -19.876  22.305  -1.830  1.00  0.00     0.000 C 
BRANCH  23  24
ATOM     24  C   UNL     1     -20.267  21.159  -0.875  1.00  0.00    -0.000 C 
BRANCH  24  25
ATOM     25  C   UNL     1     -21.772  21.118  -0.525  1.00  0.00    -0.000 C 
BRANCH  25  26
ATOM     26  C   UNL     1     -22.269  22.297   0.335  1.00  0.00    -0.000 C 
BRANCH  26  27
ATOM     27  C   UNL     1     -23.040  23.392  -0.429  1.00  0.00    -0.000 C 
BRANCH  27  28
ATOM     28  C   UNL     1     -24.541  23.083  -0.611  1.00  0.00    -0.000 C 
BRANCH  28  29
ATOM     29  C   UNL     1     -25.240  24.127  -1.497  1.00  0.00    -0.000 C 
BRANCH  29  30
ATOM     30  C   UNL     1     -26.381  23.526  -2.334  1.00  0.00    -0.000 C 
BRANCH  30  31
ATOM     31  C   UNL     1     -26.437  24.104  -3.757  1.00  0.00    -0.003 C 
ATOM     32  C   UNL     1     -25.152  24.857  -4.094  1.00  0.00     0.004 C 
ENDBRANCH  30  31
ENDBRANCH  29  30
ENDBRANCH  28  29
ENDBRANCH  27  28
ENDBRANCH  26  27
ENDBRANCH  25  26
ENDBRANCH  24  25
ENDBRANCH  23  24
ENDBRANCH  22  23
ENDBRANCH  21  22
ENDBRANCH  20  21
ENDBRANCH  19  20
ENDBRANCH  18  19
ENDBRANCH   1  18
TORSDOF 28
ENDMDL
MODEL 3
REMARK VINA RESULT:    -5.316      4.073     11.463
REMARK INTER + INTRA:         -16.228
REMARK INTER:                 -14.222
REMARK INTRA:                  -2.006
REMARK UNBOUND:                -2.209
REMARK SMILES CCCCCCCCCCCCCCCCCCCCCCCCCCCCCC(=O)[O-]
REMARK SMILES IDX 16 1 17 2 18 3 19 4 20 5 21 6 22 7 23 8 24 9 25 10 26 11
REMARK SMILES IDX 27 12 28 13 29 14 30 15 31 16 32 17 15 18 14 19 13 20 12 21
REMARK SMILES IDX 11 22 10 23 9 24 8 25 7 26 6 27 5 28 4 29 3 30 2 31 1 32
REMARK H PARENT
REMARK Flexibility Score: inf
ROOT
ATOM      1  C   UNL     1     -17.266  25.563   1.310  1.00  0.00     0.000 C 
ENDROOT
BRANCH   1   2
ATOM      2  C   UNL     1     -16.506  26.893   1.159  1.00  0.00     0.000 C 
BRANCH   2   3
ATOM      3  C   UNL     1     -16.536  27.441  -0.276  1.00  0.00     0.000 C 
BRANCH   3   4
ATOM      4  C   UNL     1     -17.258  28.794  -0.367  1.00  0.00     0.000 C 
BRANCH   4   5
ATOM      5  C   UNL     1     -18.548  28.714  -1.203  1.00  0.00     0.000 C 
BRANCH   5   6
ATOM      6  C   UNL     1     -19.052  30.093  -1.663  1.00  0.00     0.000 C 
BRANCH   6   7
ATOM      7  C   UNL     1     -17.963  31.174  -1.789  1.00  0.00     0.000 C 
BRANCH   7   8
ATOM      8  C   UNL     1     -18.262  32.429  -0.949  1.00  0.00     0.000 C 
BRANCH   8   9
ATOM      9  C   UNL     1     -17.007  32.983  -0.240  1.00  0.00     0.000 C 
BRANCH   9  10
ATOM     10  C   UNL     1     -16.785  32.406   1.172  1.00  0.00     0.000 C 
BRANCH  10  11
ATOM     11  C   UNL     1     -16.074  31.041   1.218  1.00  0.00     0.000 C 
BRANCH  11  12
ATOM     12  C   UNL     1     -15.383  30.711   2.555  1.00  0.00     0.000 C 
BRANCH  12  13
ATOM     13  C   UNL     1     -16.186  29.719   3.414  1.00  0.00     0.006 C 
BRANCH  13  14
ATOM     14  C   UNL     1     -16.823  30.395   4.635  1.00  0.00     0.053 C 
BRANCH  14  15
ATOM     15  C   UNL     1     -15.832  31.216   5.400  1.00  0.00     0.041 C 
ATOM     16  O   UNL     1     -14.791  30.682   5.867  1.00  0.00    -0.550 OA
ATOM     17  O   UNL     1     -16.065  32.569   5.615  1.00  0.00    -0.550 OA
ENDBRANCH  14  15
ENDBRANCH  13  14
ENDBRANCH  12  13
ENDBRANCH  11  12
ENDBRANCH  10  11
ENDBRANCH   9  10
ENDBRANCH   8   9
ENDBRANCH   7   8
ENDBRANCH   6   7
ENDBRANCH   5   6
ENDBRANCH   4   5
ENDBRANCH   3   4
ENDBRANCH   2   3
ENDBRANCH   1   2
BRANCH   1  18
ATOM     18  C   UNL     1     -18.522  25.420   0.426  1.00  0.00     0.000 C 
BRANCH  18  19
ATOM     19  C   UNL     1     -18.878  23.982   0.005  1.00  0.00     0.000 C 
BRANCH  19  20
ATOM     20  C   UNL     1     -18.825  23.769  -1.518  1.00  0.00     0.000 C 
BRANCH  20  21
ATOM     21  C   UNL     1     -19.310  22.368  -1.933  1.00  0.00     0.000 C 
BRANCH  21  22
ATOM     22  C   UNL     1     -18.902  21.226  -0.978  1.00  0.00     0.000 C 
BRANCH  22  23
ATOM     23  C   UNL     1     -19.899  20.937   0.158  1.00  0.00     0.000 C 
BRANCH  23  24
ATOM     24  C   UNL     1     -21.386  21.098  -0.218  1.00  0.00    -0.000 C 
BRANCH  24  25
ATOM     25  C   UNL     1     -22.102  22.246   0.528  1.00  0.00    -0.000 C 
BRANCH  25  26
ATOM     26  C   UNL     1     -23.152  23.005  -0.308  1.00  0.00    -0.000 C 
BRANCH  26  27
ATOM     27  C   UNL     1     -24.620  22.753   0.090  1.00  0.00    -0.000 C 
BRANCH  27  28
ATOM     28  C   UNL     1     -25.592  22.712  -1.109  1.00  0.00    -0.000 C 
BRANCH  28  29
ATOM     29  C   UNL     1     -25.807  24.104  -1.724  1.00  0.00    -0.000 C 
BRANCH  29  30
ATOM     30  C   UNL     1     -26.359  24.040  -3.157  1.00  0.00    -0.000 C 
BRANCH  30  31
ATOM     31  C   UNL     1     -25.290  24.353  -4.215  1.00  0.00    -0.003 C 
ATOM     32  C   UNL     1     -25.895  24.378  -5.616  1.00  0.00     0.004 C 
ENDBRANCH  30  31
ENDBRANCH  29  30
ENDBRANCH  28  29
ENDBRANCH  27  28
ENDBRANCH  26  27
ENDBRANCH  25  26
ENDBRANCH  24  25
ENDBRANCH  23  24
ENDBRANCH  22  23
ENDBRANCH  21  22
ENDBRANCH  20  21
ENDBRANCH  19  20
ENDBRANCH  18  19
ENDBRANCH   1  18
TORSDOF 28
ENDMDL
MODEL 4
REMARK VINA RESULT:    -4.870      0.850      2.514
REMARK INTER + INTRA:         -15.050
REMARK INTER:                 -12.812
REMARK INTRA:                  -2.238
REMARK UNBOUND:                -2.209
REMARK SMILES CCCCCCCCCCCCCCCCCCCCCCCCCCCCCC(=O)[O-]
REMARK SMILES IDX 16 1 17 2 18 3 19 4 20 5 21 6 22 7 23 8 24 9 25 10 26 11
REMARK SMILES IDX 27 12 28 13 29 14 30 15 31 16 32 17 15 18 14 19 13 20 12 21
REMARK SMILES IDX 11 22 10 23 9 24 8 25 7 26 6 27 5 28 4 29 3 30 2 31 1 32
REMARK H PARENT
REMARK Flexibility Score: inf
ROOT
ATOM      1  C   UNL     1     -17.347  28.157  -0.356  1.00  0.00     0.000 C 
ENDROOT
BRANCH   1   2
ATOM      2  C   UNL     1     -17.280  27.168   0.821  1.00  0.00     0.000 C 
BRANCH   2   3
ATOM      3  C   UNL     1     -17.055  25.716   0.370  1.00  0.00     0.000 C 
BRANCH   3   4
ATOM      4  C   UNL     1     -18.359  25.036  -0.075  1.00  0.00     0.000 C 
BRANCH   4   5
ATOM      5  C   UNL     1     -18.101  23.765  -0.904  1.00  0.00     0.000 C 
BRANCH   5   6
ATOM      6  C   UNL     1     -19.373  23.221  -1.579  1.00  0.00     0.000 C 
BRANCH   6   7
ATOM      7  C   UNL     1     -20.372  22.538  -0.628  1.00  0.00     0.000 C 
BRANCH   7   8
ATOM      8  C   UNL     1     -21.528  23.463  -0.206  1.00  0.00     0.000 C 
BRANCH   8   9
ATOM      9  C   UNL     1     -22.794  22.682   0.211  1.00  0.00     0.000 C 
BRANCH   9  10
ATOM     10  C   UNL     1     -24.069  23.125  -0.532  1.00  0.00     0.000 C 
BRANCH  10  11
ATOM     11  C   UNL     1     -25.254  22.145  -0.443  1.00  0.00     0.000 C 
BRANCH  11  12
ATOM     12  C   UNL     1     -26.358  22.360  -1.496  1.00  0.00     0.000 C 
BRANCH  12  13
ATOM     13  C   UNL     1     -26.377  23.791  -2.058  1.00  0.00     0.006 C 
BRANCH  13  14
ATOM     14  C   UNL     1     -26.772  23.826  -3.539  1.00  0.00     0.053 C 
BRANCH  14  15
ATOM     15  C   UNL     1     -25.694  24.420  -4.392  1.00  0.00     0.041 C 
ATOM     16  O   UNL     1     -24.720  23.713  -4.764  1.00  0.00    -0.550 OA
ATOM     17  O   UNL     1     -25.755  25.757  -4.762  1.00  0.00    -0.550 OA
ENDBRANCH  14  15
ENDBRANCH  13  14
ENDBRANCH  12  13
ENDBRANCH  11  12
ENDBRANCH  10  11
ENDBRANCH   9  10
ENDBRANCH   8   9
ENDBRANCH   7   8
ENDBRANCH   6   7
ENDBRANCH   5   6
ENDBRANCH   4   5
ENDBRANCH   3   4
ENDBRANCH   2   3
ENDBRANCH   1   2
BRANCH   1  18
ATOM     18  C   UNL     1     -18.743  28.330  -0.990  1.00  0.00     0.000 C 
BRANCH  18  19
ATOM     19  C   UNL     1     -18.979  29.665  -1.722  1.00  0.00     0.000 C 
BRANCH  19  20
ATOM     20  C   UNL     1     -17.788  30.632  -1.612  1.00  0.00     0.000 C 
BRANCH  20  21
ATOM     21  C   UNL     1     -18.108  31.864  -0.747  1.00  0.00     0.000 C 
BRANCH  21  22
ATOM     22  C   UNL     1     -17.005  32.944  -0.714  1.00  0.00     0.000 C 
BRANCH  22  23
ATOM     23  C   UNL     1     -16.493  33.314   0.689  1.00  0.00     0.000 C 
BRANCH  23  24
ATOM     24  C   UNL     1     -16.458  32.150   1.701  1.00  0.00    -0.000 C 
BRANCH  24  25
ATOM     25  C   UNL     1     -15.410  31.063   1.373  1.00  0.00    -0.000 C 
BRANCH  25  26
ATOM     26  C   UNL     1     -15.347  29.899   2.382  1.00  0.00    -0.000 C 
BRANCH  26  27
ATOM     27  C   UNL     1     -16.530  29.816   3.368  1.00  0.00    -0.000 C 
BRANCH  27  28
ATOM     28  C   UNL     1     -16.140  29.288   4.764  1.00  0.00    -0.000 C 
BRANCH  28  29
ATOM     29  C   UNL     1     -16.037  30.420   5.799  1.00  0.00    -0.000 C 
BRANCH  29  30
ATOM     30  C   UNL     1     -14.585  30.839   6.077  1.00  0.00    -0.000 C 
BRANCH  30  31
ATOM     31  C   UNL     1     -13.621  29.642   6.112  1.00  0.00    -0.003 C 
ATOM     32  C   UNL     1     -12.192  30.079   5.801  1.00  0.00     0.004 C 
ENDBRANCH  30  31
ENDBRANCH  29  30
ENDBRANCH  28  29
ENDBRANCH  27  28
ENDBRANCH  26  27
ENDBRANCH  25  26
ENDBRANCH  24  25
ENDBRANCH  23  24
ENDBRANCH  22  23
ENDBRANCH  21  22
ENDBRANCH  20  21
ENDBRANCH  19  20
ENDBRANCH  18  19
ENDBRANCH   1  18
TORSDOF 28
ENDMDL
MODEL 5
REMARK VINA RESULT:    -4.707      1.169      3.722
REMARK INTER + INTRA:         -14.621
REMARK INTER:                 -12.492
REMARK INTRA:                  -2.129
REMARK UNBOUND:                -2.209
REMARK SMILES CCCCCCCCCCCCCCCCCCCCCCCCCCCCCC(=O)[O-]
REMARK SMILES IDX 16 1 17 2 18 3 19 4 20 5 21 6 22 7 23 8 24 9 25 10 26 11
REMARK SMILES IDX 27 12 28 13 29 14 30 15 31 16 32 17 15 18 14 19 13 20 12 21
REMARK SMILES IDX 11 22 10 23 9 24 8 25 7 26 6 27 5 28 4 29 3 30 2 31 1 32
REMARK H PARENT
REMARK Flexibility Score: inf
ROOT
ATOM      1  C   UNL     1     -18.084  25.800  -0.471  1.00  0.00     0.000 C 
ENDROOT
BRANCH   1   2
ATOM      2  C   UNL     1     -18.458  24.326  -0.238  1.00  0.00     0.000 C 
BRANCH   2   3
ATOM      3  C   UNL     1     -19.335  24.120   1.007  1.00  0.00     0.000 C 
BRANCH   3   4
ATOM      4  C   UNL     1     -20.230  22.877   0.889  1.00  0.00     0.000 C 
BRANCH   4   5
ATOM      5  C   UNL     1     -19.972  21.861   2.016  1.00  0.00     0.000 C 
BRANCH   5   6
ATOM      6  C   UNL     1     -21.146  20.890   2.230  1.00  0.00     0.000 C 
BRANCH   6   7
ATOM      7  C   UNL     1     -22.338  21.092   1.277  1.00  0.00     0.000 C 
BRANCH   7   8
ATOM      8  C   UNL     1     -23.574  21.688   1.976  1.00  0.00     0.000 C 
BRANCH   8   9
ATOM      9  C   UNL     1     -24.893  21.342   1.253  1.00  0.00     0.000 C 
BRANCH   9  10
ATOM     10  C   UNL     1     -24.894  21.705  -0.245  1.00  0.00     0.000 C 
BRANCH  10  11
ATOM     11  C   UNL     1     -26.165  21.304  -1.017  1.00  0.00     0.000 C 
BRANCH  11  12
ATOM     12  C   UNL     1     -27.028  22.482  -1.509  1.00  0.00     0.000 C 
BRANCH  12  13
ATOM     13  C   UNL     1     -26.196  23.604  -2.153  1.00  0.00     0.006 C 
BRANCH  13  14
ATOM     14  C   UNL     1     -26.512  23.774  -3.644  1.00  0.00     0.053 C 
BRANCH  14  15
ATOM     15  C   UNL     1     -25.424  24.508  -4.366  1.00  0.00     0.041 C 
ATOM     16  O   UNL     1     -24.568  23.871  -5.036  1.00  0.00    -0.550 OA
ATOM     17  O   UNL     1     -25.343  25.892  -4.285  1.00  0.00    -0.550 OA
ENDBRANCH  14  15
ENDBRANCH  13  14
ENDBRANCH  12  13
ENDBRANCH  11  12
ENDBRANCH  10  11
ENDBRANCH   9  10
ENDBRANCH   8   9
ENDBRANCH   7   8
ENDBRANCH   6   7
ENDBRANCH   5   6
ENDBRANCH   4   5
ENDBRANCH   3   4
ENDBRANCH   2   3
ENDBRANCH   1   2
BRANCH   1  18
ATOM     18  C   UNL     1     -16.936  26.335   0.411  1.00  0.00     0.000 C 
BRANCH  18  19
ATOM     19  C   UNL     1     -16.281  27.643  -0.071  1.00  0.00     0.000 C 
BRANCH  19  20
ATOM     20  C   UNL     1     -16.251  28.736   1.011  1.00  0.00     0.000 C 
BRANCH  20  21
ATOM     21  C   UNL     1     -16.287  28.155   2.436  1.00  0.00     0.000 C 
BRANCH  21  22
ATOM     22  C   UNL     1     -15.790  29.109   3.544  1.00  0.00     0.000 C 
BRANCH  22  23
ATOM     23  C   UNL     1     -16.888  29.937   4.235  1.00  0.00     0.000 C 
BRANCH  23  24
ATOM     24  C   UNL     1     -16.711  31.466   4.142  1.00  0.00    -0.000 C 
BRANCH  24  25
ATOM     25  C   UNL     1     -15.968  31.937   2.871  1.00  0.00    -0.000 C 
BRANCH  25  26
ATOM     26  C   UNL     1     -16.883  32.315   1.689  1.00  0.00    -0.000 C 
BRANCH  26  27
ATOM     27  C   UNL     1     -16.311  33.371   0.722  1.00  0.00    -0.000 C 
BRANCH  27  28
ATOM     28  C   UNL     1     -16.925  33.317  -0.692  1.00  0.00    -0.000 C 
BRANCH  28  29
ATOM     29  C   UNL     1     -18.191  32.448  -0.738  1.00  0.00    -0.000 C 
BRANCH  29  30
ATOM     30  C   UNL     1     -18.209  31.487  -1.937  1.00  0.00    -0.000 C 
BRANCH  30  31
ATOM     31  C   UNL     1     -18.549  30.044  -1.533  1.00  0.00    -0.003 C 
ATOM     32  C   UNL     1     -19.778  29.539  -2.283  1.00  0.00     0.004 C 
ENDBRANCH  30  31
ENDBRANCH  29  30
ENDBRANCH  28  29
ENDBRANCH  27  28
ENDBRANCH  26  27
ENDBRANCH  25  26
ENDBRANCH  24  25
ENDBRANCH  23  24
ENDBRANCH  22  23
ENDBRANCH  21  22
ENDBRANCH  20  21
ENDBRANCH  19  20
ENDBRANCH  18  19
ENDBRANCH   1  18
TORSDOF 28
ENDMDL
MODEL 6
REMARK VINA RESULT:    -4.663      3.093     11.150
REMARK INTER + INTRA:         -14.505
REMARK INTER:                 -12.347
REMARK INTRA:                  -2.158
REMARK UNBOUND:                -2.209
REMARK SMILES CCCCCCCCCCCCCCCCCCCCCCCCCCCCCC(=O)[O-]
REMARK SMILES IDX 16 1 17 2 18 3 19 4 20 5 21 6 22 7 23 8 24 9 25 10 26 11
REMARK SMILES IDX 27 12 28 13 29 14 30 15 31 16 32 17 15 18 14 19 13 20 12 21
REMARK SMILES IDX 11 22 10 23 9 24 8 25 7 26 6 27 5 28 4 29 3 30 2 31 1 32
REMARK H PARENT
REMARK Flexibility Score: inf
ROOT
ATOM      1  C   UNL     1     -20.826  23.337   0.448  1.00  0.00     0.000 C 
ENDROOT
BRANCH   1   2
ATOM      2  C   UNL     1     -20.153  23.041  -0.903  1.00  0.00     0.000 C 
BRANCH   2   3
ATOM      3  C   UNL     1     -18.773  23.702  -1.043  1.00  0.00     0.000 C 
BRANCH   3   4
ATOM      4  C   UNL     1     -18.605  24.902  -0.097  1.00  0.00     0.000 C 
BRANCH   4   5
ATOM      5  C   UNL     1     -17.127  25.279   0.110  1.00  0.00     0.000 C 
BRANCH   5   6
ATOM      6  C   UNL     1     -16.922  26.784   0.364  1.00  0.00     0.000 C 
BRANCH   6   7
ATOM      7  C   UNL     1     -16.251  27.130   1.706  1.00  0.00     0.000 C 
BRANCH   7   8
ATOM      8  C   UNL     1     -16.336  28.628   2.051  1.00  0.00     0.000 C 
BRANCH   8   9
ATOM      9  C   UNL     1     -15.765  29.530   0.935  1.00  0.00     0.000 C 
BRANCH   9  10
ATOM     10  C   UNL     1     -15.436  30.962   1.400  1.00  0.00     0.000 C 
BRANCH  10  11
ATOM     11  C   UNL     1     -16.645  31.910   1.510  1.00  0.00     0.000 C 
BRANCH  11  12
ATOM     12  C   UNL     1     -16.567  33.170   0.628  1.00  0.00     0.000 C 
BRANCH  12  13
ATOM     13  C   UNL     1     -16.953  32.900  -0.836  1.00  0.00     0.006 C 
BRANCH  13  14
ATOM     14  C   UNL     1     -18.359  32.302  -0.962  1.00  0.00     0.053 C 
BRANCH  14  15
ATOM     15  C   UNL     1     -18.371  31.077  -1.823  1.00  0.00     0.041 C 
ATOM     16  O   UNL     1     -18.632  29.952  -1.320  1.00  0.00    -0.550 OA
ATOM     17  O   UNL     1     -18.077  31.173  -3.177  1.00  0.00    -0.550 OA
ENDBRANCH  14  15
ENDBRANCH  13  14
ENDBRANCH  12  13
ENDBRANCH  11  12
ENDBRANCH  10  11
ENDBRANCH   9  10
ENDBRANCH   8   9
ENDBRANCH   7   8
ENDBRANCH   6   7
ENDBRANCH   5   6
ENDBRANCH   4   5
ENDBRANCH   3   4
ENDBRANCH   2   3
ENDBRANCH   1   2
BRANCH   1  18
ATOM     18  C   UNL     1     -20.404  22.413   1.610  1.00  0.00     0.000 C 
BRANCH  18  19
ATOM     19  C   UNL     1     -21.024  21.003   1.596  1.00  0.00     0.000 C 
BRANCH  19  20
ATOM     20  C   UNL     1     -22.251  20.875   2.515  1.00  0.00     0.000 C 
BRANCH  20  21
ATOM     21  C   UNL     1     -21.895  21.062   4.001  1.00  0.00     0.000 C 
BRANCH  21  22
ATOM     22  C   UNL     1     -22.726  22.131   4.743  1.00  0.00     0.000 C 
BRANCH  22  23
ATOM     23  C   UNL     1     -23.996  21.607   5.436  1.00  0.00     0.000 C 
BRANCH  23  24
ATOM     24  C   UNL     1     -25.134  21.184   4.486  1.00  0.00    -0.000 C 
BRANCH  24  25
ATOM     25  C   UNL     1     -25.847  22.367   3.792  1.00  0.00    -0.000 C 
BRANCH  25  26
ATOM     26  C   UNL     1     -27.121  21.987   3.012  1.00  0.00    -0.000 C 
BRANCH  26  27
ATOM     27  C   UNL     1     -26.887  21.195   1.710  1.00  0.00    -0.000 C 
BRANCH  27  28
ATOM     28  C   UNL     1     -25.467  21.359   1.129  1.00  0.00    -0.000 C 
BRANCH  28  29
ATOM     29  C   UNL     1     -25.488  21.979  -0.277  1.00  0.00    -0.000 C 
BRANCH  29  30
ATOM     30  C   UNL     1     -24.542  23.183  -0.410  1.00  0.00    -0.000 C 
BRANCH  30  31
ATOM     31  C   UNL     1     -25.089  24.263  -1.357  1.00  0.00    -0.003 C 
ATOM     32  C   UNL     1     -26.074  23.665  -2.358  1.00  0.00     0.004 C 
ENDBRANCH  30  31
ENDBRANCH  29  30
ENDBRANCH  28  29
ENDBRANCH  27  28
ENDBRANCH  26  27
ENDBRANCH  25  26
ENDBRANCH  24  25
ENDBRANCH  23  24
ENDBRANCH  22  23
ENDBRANCH  21  22
ENDBRANCH  20  21
ENDBRANCH  19  20
ENDBRANCH  18  19
ENDBRANCH   1  18
TORSDOF 28
ENDMDL
MODEL 7
REMARK VINA RESULT:    -4.520      4.007     11.996
REMARK INTER + INTRA:         -14.126
REMARK INTER:                 -11.992
REMARK INTRA:                  -2.134
REMARK UNBOUND:                -2.209
REMARK SMILES CCCCCCCCCCCCCCCCCCCCCCCCCCCCCC(=O)[O-]
REMARK SMILES IDX 16 1 17 2 18 3 19 4 20 5 21 6 22 7 23 8 24 9 25 10 26 11
REMARK SMILES IDX 27 12 28 13 29 14 30 15 31 16 32 17 15 18 14 19 13 20 12 21
REMARK SMILES IDX 11 22 10 23 9 24 8 25 7 26 6 27 5 28 4 29 3 30 2 31 1 32
REMARK H PARENT
REMARK Flexibility Score: inf
ROOT
ATOM      1  C   UNL     1     -18.037  27.432  -0.865  1.00  0.00     0.000 C 
ENDROOT
BRANCH   1   2
ATOM      2  C   UNL     1     -17.760  28.942  -0.755  1.00  0.00     0.000 C 
BRANCH   2   3
ATOM      3  C   UNL     1     -18.783  29.796  -1.520  1.00  0.00     0.000 C 
BRANCH   3   4
ATOM      4  C   UNL     1     -18.171  31.102  -2.049  1.00  0.00     0.000 C 
BRANCH   4   5
ATOM      5  C   UNL     1     -18.322  32.264  -1.051  1.00  0.00     0.000 C 
BRANCH   5   6
ATOM      6  C   UNL     1     -17.057  33.133  -0.945  1.00  0.00     0.000 C 
BRANCH   6   7
ATOM      7  C   UNL     1     -16.633  33.492   0.491  1.00  0.00     0.000 C 
BRANCH   7   8
ATOM      8  C   UNL     1     -15.752  32.412   1.146  1.00  0.00     0.000 C 
BRANCH   8   9
ATOM      9  C   UNL     1     -16.558  31.168   1.578  1.00  0.00     0.000 C 
BRANCH   9  10
ATOM     10  C   UNL     1     -15.682  29.943   1.905  1.00  0.00     0.000 C 
BRANCH  10  11
ATOM     11  C   UNL     1     -16.312  28.925   2.874  1.00  0.00     0.000 C 
BRANCH  11  12
ATOM     12  C   UNL     1     -15.814  29.017   4.329  1.00  0.00     0.000 C 
BRANCH  12  13
ATOM     13  C   UNL     1     -14.868  30.207   4.563  1.00  0.00     0.006 C 
BRANCH  13  14
ATOM     14  C   UNL     1     -15.163  30.929   5.883  1.00  0.00     0.053 C 
BRANCH  14  15
ATOM     15  C   UNL     1     -16.164  32.029   5.708  1.00  0.00     0.041 C 
ATOM     16  O   UNL     1     -17.344  31.885   6.125  1.00  0.00    -0.550 OA
ATOM     17  O   UNL     1     -15.800  33.207   5.068  1.00  0.00    -0.550 OA
ENDBRANCH  14  15
ENDBRANCH  13  14
ENDBRANCH  12  13
ENDBRANCH  11  12
ENDBRANCH  10  11
ENDBRANCH   9  10
ENDBRANCH   8   9
ENDBRANCH   7   8
ENDBRANCH   6   7
ENDBRANCH   5   6
ENDBRANCH   4   5
ENDBRANCH   3   4
ENDBRANCH   2   3
ENDBRANCH   1   2
BRANCH   1  18
ATOM     18  C   UNL     1     -17.269  26.548   0.140  1.00  0.00     0.000 C 
BRANCH  18  19
ATOM     19  C   UNL     1     -18.091  25.427   0.803  1.00  0.00     0.000 C 
BRANCH  19  20
ATOM     20  C   UNL     1     -18.286  24.202  -0.108  1.00  0.00     0.000 C 
BRANCH  20  21
ATOM     21  C   UNL     1     -19.771  23.860  -0.324  1.00  0.00     0.000 C 
BRANCH  21  22
ATOM     22  C   UNL     1     -20.450  23.125   0.852  1.00  0.00     0.000 C 
BRANCH  22  23
ATOM     23  C   UNL     1     -21.881  22.631   0.575  1.00  0.00     0.000 C 
BRANCH  23  24
ATOM     24  C   UNL     1     -22.490  23.103  -0.760  1.00  0.00    -0.000 C 
BRANCH  24  25
ATOM     25  C   UNL     1     -23.982  23.497  -0.667  1.00  0.00    -0.000 C 
BRANCH  25  26
ATOM     26  C   UNL     1     -24.894  22.430  -0.030  1.00  0.00    -0.000 C 
BRANCH  26  27
ATOM     27  C   UNL     1     -26.105  22.002  -0.884  1.00  0.00    -0.000 C 
BRANCH  27  28
ATOM     28  C   UNL     1     -26.472  23.011  -1.992  1.00  0.00    -0.000 C 
BRANCH  28  29
ATOM     29  C   UNL     1     -27.109  22.322  -3.210  1.00  0.00    -0.000 C 
BRANCH  29  30
ATOM     30  C   UNL     1     -26.327  22.572  -4.509  1.00  0.00    -0.000 C 
BRANCH  30  31
ATOM     31  C   UNL     1     -25.872  24.033  -4.652  1.00  0.00    -0.003 C 
ATOM     32  C   UNL     1     -27.029  24.928  -5.088  1.00  0.00     0.004 C 
ENDBRANCH  30  31
ENDBRANCH  29  30
ENDBRANCH  28  29
ENDBRANCH  27  28
ENDBRANCH  26  27
ENDBRANCH  25  26
ENDBRANCH  24  25
ENDBRANCH  23  24
ENDBRANCH  22  23
ENDBRANCH  21  22
ENDBRANCH  20  21
ENDBRANCH  19  20
ENDBRANCH  18  19
ENDBRANCH   1  18
TORSDOF 28
ENDMDL
MODEL 8
REMARK VINA RESULT:    -4.418      2.319      4.573
REMARK INTER + INTRA:         -13.858
REMARK INTER:                 -11.797
REMARK INTRA:                  -2.061
REMARK UNBOUND:                -2.209
REMARK SMILES CCCCCCCCCCCCCCCCCCCCCCCCCCCCCC(=O)[O-]
REMARK SMILES IDX 16 1 17 2 18 3 19 4 20 5 21 6 22 7 23 8 24 9 25 10 26 11
REMARK SMILES IDX 27 12 28 13 29 14 30 15 31 16 32 17 15 18 14 19 13 20 12 21
REMARK SMILES IDX 11 22 10 23 9 24 8 25 7 26 6 27 5 28 4 29 3 30 2 31 1 32
REMARK H PARENT
REMARK Flexibility Score: inf
ROOT
ATOM      1  C   UNL     1     -19.883  23.498   0.622  1.00  0.00     0.000 C 
ENDROOT
BRANCH   1   2
ATOM      2  C   UNL     1     -19.890  23.062   2.098  1.00  0.00     0.000 C 
BRANCH   2   3
ATOM      3  C   UNL     1     -19.806  21.537   2.272  1.00  0.00     0.000 C 
BRANCH   3   4
ATOM      4  C   UNL     1     -21.194  20.883   2.351  1.00  0.00     0.000 C 
BRANCH   4   5
ATOM      5  C   UNL     1     -22.108  21.574   3.379  1.00  0.00     0.000 C 
BRANCH   5   6
ATOM      6  C   UNL     1     -21.728  21.248   4.834  1.00  0.00     0.000 C 
BRANCH   6   7
ATOM      7  C   UNL     1     -22.826  21.541   5.873  1.00  0.00     0.000 C 
BRANCH   7   8
ATOM      8  C   UNL     1     -23.975  22.396   5.308  1.00  0.00     0.000 C 
BRANCH   8   9
ATOM      9  C   UNL     1     -25.193  21.548   4.880  1.00  0.00     0.000 C 
BRANCH   9  10
ATOM     10  C   UNL     1     -26.033  22.190   3.758  1.00  0.00     0.000 C 
BRANCH  10  11
ATOM     11  C   UNL     1     -25.909  21.516   2.379  1.00  0.00     0.000 C 
BRANCH  11  12
ATOM     12  C   UNL     1     -24.834  22.120   1.454  1.00  0.00     0.000 C 
BRANCH  12  13
ATOM     13  C   UNL     1     -25.271  22.164  -0.020  1.00  0.00     0.006 C 
BRANCH  13  14
ATOM     14  C   UNL     1     -24.780  23.431  -0.731  1.00  0.00     0.053 C 
BRANCH  14  15
ATOM     15  C   UNL     1     -25.728  23.876  -1.801  1.00  0.00     0.041 C 
ATOM     16  O   UNL     1     -25.498  24.928  -2.455  1.00  0.00    -0.550 OA
ATOM     17  O   UNL     1     -26.876  23.139  -2.066  1.00  0.00    -0.550 OA
ENDBRANCH  14  15
ENDBRANCH  13  14
ENDBRANCH  12  13
ENDBRANCH  11  12
ENDBRANCH  10  11
ENDBRANCH   9  10
ENDBRANCH   8   9
ENDBRANCH   7   8
ENDBRANCH   6   7
ENDBRANCH   5   6
ENDBRANCH   4   5
ENDBRANCH   3   4
ENDBRANCH   2   3
ENDBRANCH   1   2
BRANCH   1  18
ATOM     18  C   UNL     1     -19.557  24.986   0.378  1.00  0.00     0.000 C 
BRANCH  18  19
ATOM     19  C   UNL     1     -18.128  25.281  -0.115  1.00  0.00     0.000 C 
BRANCH  19  20
ATOM     20  C   UNL     1     -17.306  26.114   0.883  1.00  0.00     0.000 C 
BRANCH  20  21
ATOM     21  C   UNL     1     -16.211  26.948   0.193  1.00  0.00     0.000 C 
BRANCH  21  22
ATOM     22  C   UNL     1     -16.199  28.446   0.566  1.00  0.00     0.000 C 
BRANCH  22  23
ATOM     23  C   UNL     1     -16.323  28.747   2.070  1.00  0.00     0.000 C 
BRANCH  23  24
ATOM     24  C   UNL     1     -15.475  29.932   2.574  1.00  0.00    -0.000 C 
BRANCH  24  25
ATOM     25  C   UNL     1     -16.306  31.089   3.175  1.00  0.00    -0.000 C 
BRANCH  25  26
ATOM     26  C   UNL     1     -16.334  32.375   2.325  1.00  0.00    -0.000 C 
BRANCH  26  27
ATOM     27  C   UNL     1     -16.182  32.166   0.805  1.00  0.00    -0.000 C 
BRANCH  27  28
ATOM     28  C   UNL     1     -16.769  33.314  -0.043  1.00  0.00    -0.000 C 
BRANCH  28  29
ATOM     29  C   UNL     1     -17.976  32.855  -0.875  1.00  0.00    -0.000 C 
BRANCH  29  30
ATOM     30  C   UNL     1     -18.019  31.331  -1.070  1.00  0.00    -0.000 C 
BRANCH  30  31
ATOM     31  C   UNL     1     -18.576  30.926  -2.444  1.00  0.00    -0.003 C 
ATOM     32  C   UNL     1     -19.411  29.653  -2.344  1.00  0.00     0.004 C 
ENDBRANCH  30  31
ENDBRANCH  29  30
ENDBRANCH  28  29
ENDBRANCH  27  28
ENDBRANCH  26  27
ENDBRANCH  25  26
ENDBRANCH  24  25
ENDBRANCH  23  24
ENDBRANCH  22  23
ENDBRANCH  21  22
ENDBRANCH  20  21
ENDBRANCH  19  20
ENDBRANCH  18  19
ENDBRANCH   1  18
TORSDOF 28
ENDMDL
MODEL 9
REMARK VINA RESULT:    -4.395      1.154      2.796
REMARK INTER + INTRA:         -13.798
REMARK INTER:                 -11.464
REMARK INTRA:                  -2.335
REMARK UNBOUND:                -2.209
REMARK SMILES CCCCCCCCCCCCCCCCCCCCCCCCCCCCCC(=O)[O-]
REMARK SMILES IDX 16 1 17 2 18 3 19 4 20 5 21 6 22 7 23 8 24 9 25 10 26 11
REMARK SMILES IDX 27 12 28 13 29 14 30 15 31 16 32 17 15 18 14 19 13 20 12 21
REMARK SMILES IDX 11 22 10 23 9 24 8 25 7 26 6 27 5 28 4 29 3 30 2 31 1 32
REMARK H PARENT
REMARK Flexibility Score: inf
ROOT
ATOM      1  C   UNL     1     -18.813  28.162  -1.206  1.00  0.00     0.000 C 
ENDROOT
BRANCH   1   2
ATOM      2  C   UNL     1     -17.618  28.064  -0.241  1.00  0.00     0.000 C 
BRANCH   2   3
ATOM      3  C   UNL     1     -16.940  26.685  -0.266  1.00  0.00     0.000 C 
BRANCH   3   4
ATOM      4  C   UNL     1     -17.740  25.659  -1.084  1.00  0.00     0.000 C 
BRANCH   4   5
ATOM      5  C   UNL     1     -18.010  24.365  -0.294  1.00  0.00     0.000 C 
BRANCH   5   6
ATOM      6  C   UNL     1     -19.274  24.449   0.580  1.00  0.00     0.000 C 
BRANCH   6   7
ATOM      7  C   UNL     1     -20.192  23.215   0.514  1.00  0.00     0.000 C 
BRANCH   7   8
ATOM      8  C   UNL     1     -21.535  23.501  -0.183  1.00  0.00     0.000 C 
BRANCH   8   9
ATOM      9  C   UNL     1     -22.431  22.248  -0.288  1.00  0.00     0.000 C 
BRANCH   9  10
ATOM     10  C   UNL     1     -23.776  22.381   0.453  1.00  0.00     0.000 C 
BRANCH  10  11
ATOM     11  C   UNL     1     -24.896  23.077  -0.342  1.00  0.00     0.000 C 
BRANCH  11  12
ATOM     12  C   UNL     1     -25.774  22.136  -1.190  1.00  0.00     0.000 C 
BRANCH  12  13
ATOM     13  C   UNL     1     -26.848  22.886  -1.996  1.00  0.00     0.006 C 
BRANCH  13  14
ATOM     14  C   UNL     1     -26.565  22.860  -3.503  1.00  0.00     0.053 C 
BRANCH  14  15
ATOM     15  C   UNL     1     -26.132  24.200  -4.013  1.00  0.00     0.041 C 
ATOM     16  O   UNL     1     -25.556  25.015  -3.245  1.00  0.00    -0.550 OA
ATOM     17  O   UNL     1     -26.380  24.556  -5.333  1.00  0.00    -0.550 OA
ENDBRANCH  14  15
ENDBRANCH  13  14
ENDBRANCH  12  13
ENDBRANCH  11  12
ENDBRANCH  10  11
ENDBRANCH   9  10
ENDBRANCH   8   9
ENDBRANCH   7   8
ENDBRANCH   6   7
ENDBRANCH   5   6
ENDBRANCH   4   5
ENDBRANCH   3   4
ENDBRANCH   2   3
ENDBRANCH   1   2
BRANCH   1  18
ATOM     18  C   UNL     1     -19.200  29.595  -1.628  1.00  0.00     0.000 C 
BRANCH  18  19
ATOM     19  C   UNL     1     -18.050  30.620  -1.630  1.00  0.00     0.000 C 
BRANCH  19  20
ATOM     20  C   UNL     1     -18.506  32.036  -2.022  1.00  0.00     0.000 C 
BRANCH  20  21
ATOM     21  C   UNL     1     -18.135  33.089  -0.961  1.00  0.00     0.000 C 
BRANCH  21  22
ATOM     22  C   UNL     1     -16.625  33.221  -0.671  1.00  0.00     0.000 C 
BRANCH  22  23
ATOM     23  C   UNL     1     -16.269  33.609   0.775  1.00  0.00     0.000 C 
BRANCH  23  24
ATOM     24  C   UNL     1     -16.581  32.536   1.837  1.00  0.00    -0.000 C 
BRANCH  24  25
ATOM     25  C   UNL     1     -16.559  31.089   1.294  1.00  0.00    -0.000 C 
BRANCH  25  26
ATOM     26  C   UNL     1     -15.246  30.321   1.548  1.00  0.00    -0.000 C 
BRANCH  26  27
ATOM     27  C   UNL     1     -15.017  29.869   3.003  1.00  0.00    -0.000 C 
BRANCH  27  28
ATOM     28  C   UNL     1     -16.277  29.291   3.681  1.00  0.00    -0.000 C 
BRANCH  28  29
ATOM     29  C   UNL     1     -16.077  29.089   5.192  1.00  0.00    -0.000 C 
BRANCH  29  30
ATOM     30  C   UNL     1     -15.647  30.378   5.911  1.00  0.00    -0.000 C 
BRANCH  30  31
ATOM     31  C   UNL     1     -16.757  31.442   5.928  1.00  0.00    -0.003 C 
ATOM     32  C   UNL     1     -16.171  32.846   5.814  1.00  0.00     0.004 C 
ENDBRANCH  30  31
ENDBRANCH  29  30
ENDBRANCH  28  29
ENDBRANCH  27  28
ENDBRANCH  26  27
ENDBRANCH  25  26
ENDBRANCH  24  25
ENDBRANCH  23  24
ENDBRANCH  22  23
ENDBRANCH  21  22
ENDBRANCH  20  21
ENDBRANCH  19  20
ENDBRANCH  18  19
ENDBRANCH   1  18
TORSDOF 28
ENDMDL
