MODEL 1
REMARK VINA RESULT:    -2.927      0.000      0.000
REMARK INTER + INTRA:          -3.305
REMARK INTER:                  -3.269
REMARK INTRA:                  -0.036
REMARK UNBOUND:                -0.036
REMARK SMILES CCCC(=O)[O-]
REMARK SMILES IDX 3 1 4 2 5 3 6 4 2 5 1 6
REMARK H PARENT
REMARK Flexibility Score: inf
ROOT
ATOM      1  C   UNL     1      -7.588  39.063  21.722  1.00  0.00     0.052 C 
ENDROOT
BRANCH   1   2
ATOM      2  C   UNL     1      -6.685  38.343  22.678  1.00  0.00     0.041 C 
ATOM      3  O   UNL     1      -6.000  38.990  23.513  1.00  0.00    -0.550 OA
ATOM      4  O   UNL     1      -6.576  36.960  22.622  1.00  0.00    -0.550 OA
ENDBRANCH   1   2
BRANCH   1   5
ATOM      5  C   UNL     1      -6.866  39.413  20.415  1.00  0.00     0.003 C 
ATOM      6  C   UNL     1      -6.943  38.285  19.388  1.00  0.00     0.004 C 
ENDBRANCH   1   5
TORSDOF 2
ENDMDL
MODEL 2
REMARK VINA RESULT:    -2.916     17.741     18.535
REMARK INTER + INTRA:          -3.292
REMARK INTER:                  -3.229
REMARK INTRA:                  -0.064
REMARK UNBOUND:                -0.036
REMARK SMILES CCCC(=O)[O-]
REMARK SMILES IDX 3 1 4 2 5 3 6 4 2 5 1 6
REMARK H PARENT
REMARK Flexibility Score: inf
ROOT
ATOM      1  C   UNL     1      -6.571  21.722  31.248  1.00  0.00     0.052 C 
ENDROOT
BRANCH   1   2
ATOM      2  C   UNL     1      -6.037  22.784  30.336  1.00  0.00     0.041 C 
ATOM      3  O   UNL     1      -6.092  23.996  30.672  1.00  0.00    -0.550 OA
ATOM      4  O   UNL     1      -5.510  22.436  29.099  1.00  0.00    -0.550 OA
ENDBRANCH   1   2
BRANCH   1   5
ATOM      5  C   UNL     1      -7.804  21.031  30.653  1.00  0.00     0.003 C 
ATOM      6  C   UNL     1      -8.994  21.980  30.515  1.00  0.00     0.004 C 
ENDBRANCH   1   5
TORSDOF 2
ENDMDL
MODEL 3
REMARK VINA RESULT:    -2.899      0.122      1.324
REMARK INTER + INTRA:          -3.274
REMARK INTER:                  -3.241
REMARK INTRA:                  -0.033
REMARK UNBOUND:                -0.036
REMARK SMILES CCCC(=O)[O-]
REMARK SMILES IDX 3 1 4 2 5 3 6 4 2 5 1 6
REMARK H PARENT
REMARK Flexibility Score: inf
ROOT
ATOM      1  C   UNL     1      -7.509  39.013  21.692  1.00  0.00     0.052 C 
ENDROOT
BRANCH   1   2
ATOM      2  C   UNL     1      -6.621  38.241  22.620  1.00  0.00     0.041 C 
ATOM      3  O   UNL     1      -6.624  36.982  22.600  1.00  0.00    -0.550 OA
ATOM      4  O   UNL     1      -5.814  38.913  23.529  1.00  0.00    -0.550 OA
ENDBRANCH   1   2
BRANCH   1   5
ATOM      5  C   UNL     1      -6.799  39.343  20.372  1.00  0.00     0.003 C 
ATOM      6  C   UNL     1      -6.960  38.235  19.332  1.00  0.00     0.004 C 
ENDBRANCH   1   5
TORSDOF 2
ENDMDL
MODEL 4
REMARK VINA RESULT:    -2.817      2.141      2.831
REMARK INTER + INTRA:          -3.182
REMARK INTER:                  -3.112
REMARK INTRA:                  -0.071
REMARK UNBOUND:                -0.036
REMARK SMILES CCCC(=O)[O-]
REMARK SMILES IDX 3 1 4 2 5 3 6 4 2 5 1 6
REMARK H PARENT
REMARK Flexibility Score: inf
ROOT
ATOM      1  C   UNL     1      -7.652  39.268  21.690  1.00  0.00     0.052 C 
ENDROOT
BRANCH   1   2
ATOM      2  C   UNL     1      -6.767  39.411  20.489  1.00  0.00     0.041 C 
ATOM      3  O   UNL     1      -5.734  40.128  20.544  1.00  0.00    -0.550 OA
ATOM      4  O   UNL     1      -7.103  38.777  19.299  1.00  0.00    -0.550 OA
ENDBRANCH   1   2
BRANCH   1   5
ATOM      5  C   UNL     1      -6.940  38.532  22.834  1.00  0.00     0.003 C 
ATOM      6  C   UNL     1      -6.422  37.159  22.409  1.00  0.00     0.004 C 
ENDBRANCH   1   5
TORSDOF 2
ENDMDL
MODEL 5
REMARK VINA RESULT:    -2.794      2.498      2.931
REMARK INTER + INTRA:          -3.156
REMARK INTER:                  -3.138
REMARK INTRA:                  -0.019
REMARK UNBOUND:                -0.036
REMARK SMILES CCCC(=O)[O-]
REMARK SMILES IDX 3 1 4 2 5 3 6 4 2 5 1 6
REMARK H PARENT
REMARK Flexibility Score: inf
ROOT
ATOM      1  C   UNL     1      -5.716  37.318  21.391  1.00  0.00     0.052 C 
ENDROOT
BRANCH   1   2
ATOM      2  C   UNL     1      -4.414  36.576  21.393  1.00  0.00     0.041 C 
ATOM      3  O   UNL     1      -4.163  35.738  22.299  1.00  0.00    -0.550 OA
ATOM      4  O   UNL     1      -3.465  36.835  20.413  1.00  0.00    -0.550 OA
ENDBRANCH   1   2
BRANCH   1   5
ATOM      5  C   UNL     1      -6.342  37.360  19.991  1.00  0.00     0.003 C 
ATOM      6  C   UNL     1      -6.997  38.706  19.686  1.00  0.00     0.004 C 
ENDBRANCH   1   5
TORSDOF 2
ENDMDL
MODEL 6
REMARK VINA RESULT:    -2.791      2.117      3.080
REMARK INTER + INTRA:          -3.153
REMARK INTER:                  -3.081
REMARK INTRA:                  -0.072
REMARK UNBOUND:                -0.036
REMARK SMILES CCCC(=O)[O-]
REMARK SMILES IDX 3 1 4 2 5 3 6 4 2 5 1 6
REMARK H PARENT
REMARK Flexibility Score: inf
ROOT
ATOM      1  C   UNL     1      -7.600  39.132  21.629  1.00  0.00     0.052 C 
ENDROOT
BRANCH   1   2
ATOM      2  C   UNL     1      -6.728  39.302  20.422  1.00  0.00     0.041 C 
ATOM      3  O   UNL     1      -7.058  38.782  19.324  1.00  0.00    -0.550 OA
ATOM      4  O   UNL     1      -5.536  40.006  20.520  1.00  0.00    -0.550 OA
ENDBRANCH   1   2
BRANCH   1   5
ATOM      5  C   UNL     1      -6.850  38.444  22.778  1.00  0.00     0.003 C 
ATOM      6  C   UNL     1      -6.336  37.058  22.390  1.00  0.00     0.004 C 
ENDBRANCH   1   5
TORSDOF 2
ENDMDL
MODEL 7
REMARK VINA RESULT:    -2.786      1.954      2.811
REMARK INTER + INTRA:          -3.147
REMARK INTER:                  -3.109
REMARK INTRA:                  -0.038
REMARK UNBOUND:                -0.036
REMARK SMILES CCCC(=O)[O-]
REMARK SMILES IDX 3 1 4 2 5 3 6 4 2 5 1 6
REMARK H PARENT
REMARK Flexibility Score: inf
ROOT
ATOM      1  C   UNL     1      -6.375  37.078  22.301  1.00  0.00     0.052 C 
ENDROOT
BRANCH   1   2
ATOM      2  C   UNL     1      -4.878  37.030  22.249  1.00  0.00     0.041 C 
ATOM      3  O   UNL     1      -4.278  35.924  22.281  1.00  0.00    -0.550 OA
ATOM      4  O   UNL     1      -4.147  38.210  22.200  1.00  0.00    -0.550 OA
ENDBRANCH   1   2
BRANCH   1   5
ATOM      5  C   UNL     1      -6.879  38.394  22.908  1.00  0.00     0.003 C 
ATOM      6  C   UNL     1      -7.639  39.249  21.895  1.00  0.00     0.004 C 
ENDBRANCH   1   5
TORSDOF 2
ENDMDL
MODEL 8
REMARK VINA RESULT:    -2.750      1.710      2.309
REMARK INTER + INTRA:          -3.107
REMARK INTER:                  -3.077
REMARK INTRA:                  -0.030
REMARK UNBOUND:                -0.036
REMARK SMILES CCCC(=O)[O-]
REMARK SMILES IDX 3 1 4 2 5 3 6 4 2 5 1 6
REMARK H PARENT
REMARK Flexibility Score: inf
ROOT
ATOM      1  C   UNL     1      -5.159  37.381  20.470  1.00  0.00     0.052 C 
ENDROOT
BRANCH   1   2
ATOM      2  C   UNL     1      -5.260  36.830  21.860  1.00  0.00     0.041 C 
ATOM      3  O   UNL     1      -4.279  36.236  22.380  1.00  0.00    -0.550 OA
ATOM      4  O   UNL     1      -6.449  36.944  22.568  1.00  0.00    -0.550 OA
ENDBRANCH   1   2
BRANCH   1   5
ATOM      5  C   UNL     1      -6.530  37.443  19.784  1.00  0.00     0.003 C 
ATOM      6  C   UNL     1      -7.077  38.867  19.705  1.00  0.00     0.004 C 
ENDBRANCH   1   5
TORSDOF 2
ENDMDL
MODEL 9
REMARK VINA RESULT:    -2.731     15.199     16.056
REMARK INTER + INTRA:          -3.086
REMARK INTER:                  -3.054
REMARK INTRA:                  -0.032
REMARK UNBOUND:                -0.036
REMARK SMILES CCCC(=O)[O-]
REMARK SMILES IDX 3 1 4 2 5 3 6 4 2 5 1 6
REMARK H PARENT
REMARK Flexibility Score: inf
ROOT
ATOM      1  C   UNL     1      -6.004  29.373  33.883  1.00  0.00     0.052 C 
ENDROOT
BRANCH   1   2
ATOM      2  C   UNL     1      -5.573  30.269  35.004  1.00  0.00     0.041 C 
ATOM      3  O   UNL     1      -5.152  29.776  36.084  1.00  0.00    -0.550 OA
ATOM      4  O   UNL     1      -5.668  31.648  34.867  1.00  0.00    -0.550 OA
ENDBRANCH   1   2
BRANCH   1   5
ATOM      5  C   UNL     1      -6.402  27.982  34.390  1.00  0.00     0.003 C 
ATOM      6  C   UNL     1      -5.678  26.861  33.645  1.00  0.00     0.004 C 
ENDBRANCH   1   5
TORSDOF 2
ENDMDL
