MODEL 1
REMARK VINA RESULT:    -3.323      0.000      0.000
REMARK INTER + INTRA:          -4.788
REMARK INTER:                  -5.071
REMARK INTRA:                   0.283
REMARK UNBOUND:                 0.283
REMARK SMILES CC1=CCC[C@H](C)C(=O)C[C@@H](C(C)C)C(=O)C1
REMARK SMILES IDX 8 1 9 2 6 3 7 4 5 5 4 6 3 7 2 8 1 9 10 11 11 12 15 13 16 14
REMARK SMILES IDX 17 15 12 17 13 18 14 19
REMARK H PARENT
REMARK Flexibility Score: 70.00
ROOT
ATOM      1  C   UNL     1     -12.164 -15.931  28.428  1.00  0.00     0.136 C 
ATOM      2  O   UNL     1     -11.081 -15.377  28.531  1.00  0.00    -0.299 OA
ENDROOT
BRANCH   1   3
ATOM      3  C   UNL     1     -12.336 -17.011  27.370  1.00  0.00     0.053 C 
ATOM      4  C   UNL     1     -11.757 -16.540  26.032  1.00  0.00     0.016 C 
BRANCH   3   5
ATOM      5  C   UNL     1     -11.712 -18.359  27.794  1.00  0.00     0.015 C 
BRANCH   5   6
ATOM      6  C   UNL     1     -12.773 -19.337  28.326  1.00  0.00     0.028 C 
BRANCH   6   7
ATOM      7  C   UNL     1     -12.333 -20.083  29.563  1.00  0.00    -0.028 C 
ATOM      8  C   UNL     1     -12.573 -19.723  30.851  1.00  0.00    -0.070 CG0
ATOM      9  C   UNL     1     -12.146 -20.695  31.925  1.00  0.00     0.039 C 
ATOM     10  G   UNL     1     -13.164 -18.385  31.286  1.00  0.00     0.000 G0
ENDBRANCH   6   7
ENDBRANCH   5   6
ENDBRANCH   3   5
ENDBRANCH   1   3
BRANCH   1  11
ATOM     11  C   UNL     1     -13.270 -15.583  29.401  1.00  0.00     0.087 C 
BRANCH  11  12
ATOM     12  C   UNL     1     -12.909 -15.801  30.899  1.00  0.00     0.066 C 
BRANCH  12  13
ATOM     13  C   UNL     1     -12.284 -17.179  31.116  1.00  0.00     0.140 C 
ATOM     14  O   UNL     1     -11.071 -17.324  31.067  1.00  0.00    -0.299 OA
BRANCH  13  15
ATOM     15  C   UNL     1     -13.165 -18.389  31.306  1.00  0.00     0.106 CG0
ATOM     16  G   UNL     1     -12.556 -19.709  30.841  1.00  0.00     0.000 G0
ENDBRANCH  13  15
ENDBRANCH  12  13
BRANCH  12  17
ATOM     17  C   UNL     1     -14.076 -15.506  31.906  1.00  0.00    -0.006 C 
ATOM     18  C   UNL     1     -14.958 -14.320  31.476  1.00  0.00     0.008 C 
ATOM     19  C   UNL     1     -13.522 -15.214  33.314  1.00  0.00     0.008 C 
ENDBRANCH  12  17
ENDBRANCH  11  12
ENDBRANCH   1  11
TORSDOF 1
ENDMDL
MODEL 2
REMARK VINA RESULT:    -2.842      2.124      4.786
REMARK INTER + INTRA:          -4.054
REMARK INTER:                  -4.223
REMARK INTRA:                   0.169
REMARK UNBOUND:                 0.283
REMARK SMILES CC1=CCC[C@H](C)C(=O)C[C@@H](C(C)C)C(=O)C1
REMARK SMILES IDX 8 1 9 2 6 3 7 4 5 5 4 6 3 7 2 8 1 9 10 11 11 12 15 13 16 14
REMARK SMILES IDX 17 15 12 17 13 18 14 19
REMARK H PARENT
REMARK Flexibility Score: 70.00
ROOT
ATOM      1  C   UNL     1     -13.625 -17.127  31.613  1.00  0.00     0.136 C 
ATOM      2  O   UNL     1     -14.010 -16.970  32.761  1.00  0.00    -0.299 OA
ENDROOT
BRANCH   1   3
ATOM      3  C   UNL     1     -13.244 -15.902  30.795  1.00  0.00     0.053 C 
ATOM      4  C   UNL     1     -14.017 -14.674  31.288  1.00  0.00     0.016 C 
BRANCH   3   5
ATOM      5  C   UNL     1     -11.723 -15.633  30.805  1.00  0.00     0.015 C 
BRANCH   5   6
ATOM      6  C   UNL     1     -11.107 -15.786  29.404  1.00  0.00     0.028 C 
BRANCH   6   7
ATOM      7  C   UNL     1     -12.107 -15.606  28.287  1.00  0.00    -0.028 C 
ATOM      8  C   UNL     1     -12.656 -16.589  27.528  1.00  0.00    -0.070 CG0
ATOM      9  C   UNL     1     -13.733 -16.181  26.552  1.00  0.00     0.039 C 
ATOM     10  G   UNL     1     -12.208 -18.049  27.536  1.00  0.00     0.000 G0
ENDBRANCH   6   7
ENDBRANCH   5   6
ENDBRANCH   3   5
ENDBRANCH   1   3
BRANCH   1  11
ATOM     11  C   UNL     1     -13.465 -18.531  31.070  1.00  0.00     0.087 C 
BRANCH  11  12
ATOM     12  C   UNL     1     -12.278 -18.713  30.080  1.00  0.00     0.066 C 
BRANCH  12  13
ATOM     13  C   UNL     1     -12.784 -18.904  28.650  1.00  0.00     0.140 C 
ATOM     14  O   UNL     1     -13.596 -19.782  28.393  1.00  0.00    -0.299 OA
BRANCH  13  15
ATOM     15  C   UNL     1     -12.220 -18.067  27.528  1.00  0.00     0.106 CG0
ATOM     16  G   UNL     1     -12.651 -16.603  27.537  1.00  0.00     0.000 G0
ENDBRANCH  13  15
ENDBRANCH  12  13
BRANCH  12  17
ATOM     17  C   UNL     1     -11.235 -19.808  30.498  1.00  0.00    -0.006 C 
ATOM     18  C   UNL     1     -11.709 -20.670  31.684  1.00  0.00     0.008 C 
ATOM     19  C   UNL     1      -9.887 -19.163  30.875  1.00  0.00     0.008 C 
ENDBRANCH  12  17
ENDBRANCH  11  12
ENDBRANCH   1  11
TORSDOF 1
ENDMDL
MODEL 3
REMARK VINA RESULT:    -2.838      2.114      4.395
REMARK INTER + INTRA:          -4.048
REMARK INTER:                  -4.709
REMARK INTRA:                   0.661
REMARK UNBOUND:                 0.283
REMARK SMILES CC1=CCC[C@H](C)C(=O)C[C@@H](C(C)C)C(=O)C1
REMARK SMILES IDX 8 1 9 2 6 3 7 4 5 5 4 6 3 7 2 8 1 9 10 11 11 12 15 13 16 14
REMARK SMILES IDX 17 15 12 17 13 18 14 19
REMARK H PARENT
REMARK Flexibility Score: 70.00
ROOT
ATOM      1  C   UNL     1     -13.245 -15.786  30.885  1.00  0.00     0.136 C 
ATOM      2  O   UNL     1     -13.826 -15.870  31.956  1.00  0.00    -0.299 OA
ENDROOT
BRANCH   1   3
ATOM      3  C   UNL     1     -13.999 -15.234  29.684  1.00  0.00     0.053 C 
ATOM      4  C   UNL     1     -14.672 -13.906  30.046  1.00  0.00     0.016 C 
BRANCH   3   5
ATOM      5  C   UNL     1     -13.096 -15.072  28.442  1.00  0.00     0.015 C 
BRANCH   5   6
ATOM      6  C   UNL     1     -13.688 -15.777  27.210  1.00  0.00     0.028 C 
BRANCH   6   7
ATOM      7  C   UNL     1     -12.649 -16.459  26.353  1.00  0.00    -0.028 C 
ATOM      8  C   UNL     1     -11.426 -16.892  26.758  1.00  0.00    -0.070 CG0
ATOM      9  C   UNL     1     -10.605 -17.664  25.753  1.00  0.00     0.039 C 
ATOM     10  G   UNL     1     -10.799 -16.586  28.116  1.00  0.00     0.000 G0
ENDBRANCH   6   7
ENDBRANCH   5   6
ENDBRANCH   3   5
ENDBRANCH   1   3
BRANCH   1  11
ATOM     11  C   UNL     1     -11.779 -16.157  30.806  1.00  0.00     0.087 C 
BRANCH  11  12
ATOM     12  C   UNL     1     -11.505 -17.644  30.438  1.00  0.00     0.066 C 
BRANCH  12  13
ATOM     13  C   UNL     1     -10.760 -17.749  29.107  1.00  0.00     0.140 C 
ATOM     14  O   UNL     1     -10.091 -18.740  28.848  1.00  0.00    -0.299 OA
BRANCH  13  15
ATOM     15  C   UNL     1     -10.775 -16.593  28.136  1.00  0.00     0.106 CG0
ATOM     16  G   UNL     1     -11.424 -16.893  26.787  1.00  0.00     0.000 G0
ENDBRANCH  13  15
ENDBRANCH  12  13
BRANCH  12  17
ATOM     17  C   UNL     1     -12.765 -18.578  30.495  1.00  0.00    -0.006 C 
ATOM     18  C   UNL     1     -12.514 -19.881  31.276  1.00  0.00     0.008 C 
ATOM     19  C   UNL     1     -13.236 -18.947  29.075  1.00  0.00     0.008 C 
ENDBRANCH  12  17
ENDBRANCH  11  12
ENDBRANCH   1  11
TORSDOF 1
ENDMDL
MODEL 4
REMARK VINA RESULT:    -2.825      1.927      3.751
REMARK INTER + INTRA:          -4.029
REMARK INTER:                  -5.016
REMARK INTRA:                   0.987
REMARK UNBOUND:                 0.283
REMARK SMILES CC1=CCC[C@H](C)C(=O)C[C@@H](C(C)C)C(=O)C1
REMARK SMILES IDX 8 1 9 2 6 3 7 4 5 5 4 6 3 7 2 8 1 9 10 11 11 12 15 13 16 14
REMARK SMILES IDX 17 15 12 17 13 18 14 19
REMARK H PARENT
REMARK Flexibility Score: 70.00
ROOT
ATOM      1  C   UNL     1     -11.832 -18.893  30.234  1.00  0.00     0.136 C 
ATOM      2  O   UNL     1     -10.650 -18.884  30.543  1.00  0.00    -0.299 OA
ENDROOT
BRANCH   1   3
ATOM      3  C   UNL     1     -12.262 -19.684  29.008  1.00  0.00     0.053 C 
ATOM      4  C   UNL     1     -12.784 -21.064  29.423  1.00  0.00     0.016 C 
BRANCH   3   5
ATOM      5  C   UNL     1     -13.310 -18.933  28.157  1.00  0.00     0.015 C 
BRANCH   5   6
ATOM      6  C   UNL     1     -12.677 -17.786  27.353  1.00  0.00     0.028 C 
BRANCH   6   7
ATOM      7  C   UNL     1     -13.347 -16.453  27.582  1.00  0.00    -0.028 C 
ATOM      8  C   UNL     1     -12.820 -15.385  28.237  1.00  0.00    -0.070 CG0
ATOM      9  C   UNL     1     -13.627 -14.109  28.230  1.00  0.00     0.039 C 
ATOM     10  G   UNL     1     -11.521 -15.411  29.038  1.00  0.00     0.000 G0
ENDBRANCH   6   7
ENDBRANCH   5   6
ENDBRANCH   3   5
ENDBRANCH   1   3
BRANCH   1  11
ATOM     11  C   UNL     1     -12.835 -18.188  31.122  1.00  0.00     0.087 C 
BRANCH  11  12
ATOM     12  C   UNL     1     -12.940 -16.653  30.890  1.00  0.00     0.066 C 
BRANCH  12  13
ATOM     13  C   UNL     1     -11.608 -16.080  30.404  1.00  0.00     0.140 C 
ATOM     14  O   UNL     1     -10.631 -16.077  31.140  1.00  0.00    -0.299 OA
BRANCH  13  15
ATOM     15  C   UNL     1     -11.510 -15.436  29.043  1.00  0.00     0.106 CG0
ATOM     16  G   UNL     1     -12.817 -15.393  28.256  1.00  0.00     0.000 G0
ENDBRANCH  13  15
ENDBRANCH  12  13
BRANCH  12  17
ATOM     17  C   UNL     1     -13.536 -15.845  32.096  1.00  0.00    -0.006 C 
ATOM     18  C   UNL     1     -14.356 -16.721  33.061  1.00  0.00     0.008 C 
ATOM     19  C   UNL     1     -14.437 -14.699  31.595  1.00  0.00     0.008 C 
ENDBRANCH  12  17
ENDBRANCH  11  12
ENDBRANCH   1  11
TORSDOF 1
ENDMDL
MODEL 5
REMARK VINA RESULT:    -2.764      1.753      4.139
REMARK INTER + INTRA:          -3.935
REMARK INTER:                  -4.268
REMARK INTRA:                   0.332
REMARK UNBOUND:                 0.283
REMARK SMILES CC1=CCC[C@H](C)C(=O)C[C@@H](C(C)C)C(=O)C1
REMARK SMILES IDX 8 1 9 2 6 3 7 4 5 5 4 6 3 7 2 8 1 9 10 11 11 12 15 13 16 14
REMARK SMILES IDX 17 15 12 17 13 18 14 19
REMARK H PARENT
REMARK Flexibility Score: 70.00
ROOT
ATOM      1  C   UNL     1     -10.759 -17.561  28.437  1.00  0.00     0.136 C 
ATOM      2  O   UNL     1      -9.950 -18.301  27.898  1.00  0.00    -0.299 OA
ENDROOT
BRANCH   1   3
ATOM      3  C   UNL     1     -11.469 -16.513  27.594  1.00  0.00     0.053 C 
ATOM      4  C   UNL     1     -11.480 -16.936  26.121  1.00  0.00     0.016 C 
BRANCH   3   5
ATOM      5  C   UNL     1     -12.901 -16.223  28.092  1.00  0.00     0.015 C 
BRANCH   5   6
ATOM      6  C   UNL     1     -13.057 -14.769  28.567  1.00  0.00     0.028 C 
BRANCH   6   7
ATOM      7  C   UNL     1     -14.094 -14.600  29.652  1.00  0.00    -0.028 C 
ATOM      8  C   UNL     1     -13.987 -15.012  30.942  1.00  0.00    -0.070 CG0
ATOM      9  C   UNL     1     -15.102 -14.619  31.882  1.00  0.00     0.039 C 
ATOM     10  G   UNL     1     -12.871 -15.903  31.482  1.00  0.00     0.000 G0
ENDBRANCH   6   7
ENDBRANCH   5   6
ENDBRANCH   3   5
ENDBRANCH   1   3
BRANCH   1  11
ATOM     11  C   UNL     1     -11.086 -17.763  29.902  1.00  0.00     0.087 C 
BRANCH  11  12
ATOM     12  C   UNL     1     -12.563 -18.160  30.189  1.00  0.00     0.066 C 
BRANCH  12  13
ATOM     13  C   UNL     1     -13.114 -17.386  31.387  1.00  0.00     0.140 C 
ATOM     14  O   UNL     1     -13.812 -17.949  32.219  1.00  0.00    -0.299 OA
BRANCH  13  15
ATOM     15  C   UNL     1     -12.872 -15.902  31.507  1.00  0.00     0.106 CG0
ATOM     16  G   UNL     1     -13.990 -15.020  30.955  1.00  0.00     0.000 G0
ENDBRANCH  13  15
ENDBRANCH  12  13
BRANCH  12  17
ATOM     17  C   UNL     1     -12.818 -19.704  30.303  1.00  0.00    -0.006 C 
ATOM     18  C   UNL     1     -11.588 -20.482  30.805  1.00  0.00     0.008 C 
ATOM     19  C   UNL     1     -13.242 -20.290  28.942  1.00  0.00     0.008 C 
ENDBRANCH  12  17
ENDBRANCH  11  12
ENDBRANCH   1  11
TORSDOF 1
ENDMDL
MODEL 6
REMARK VINA RESULT:    -2.671      2.015      4.443
REMARK INTER + INTRA:          -3.794
REMARK INTER:                  -3.757
REMARK INTRA:                  -0.037
REMARK UNBOUND:                 0.283
REMARK SMILES CC1=CCC[C@H](C)C(=O)C[C@@H](C(C)C)C(=O)C1
REMARK SMILES IDX 8 1 9 2 6 3 7 4 5 5 4 6 3 7 2 8 1 9 10 11 11 12 15 13 16 14
REMARK SMILES IDX 17 15 12 17 13 18 14 19
REMARK H PARENT
REMARK Flexibility Score: 70.00
ROOT
ATOM      1  C   UNL     1     -13.620 -14.602  28.203  1.00  0.00     0.136 C 
ATOM      2  O   UNL     1     -14.009 -14.932  27.093  1.00  0.00    -0.299 OA
ENDROOT
BRANCH   1   3
ATOM      3  C   UNL     1     -14.384 -13.522  28.955  1.00  0.00     0.053 C 
ATOM      4  C   UNL     1     -15.070 -12.572  27.967  1.00  0.00     0.016 C 
BRANCH   3   5
ATOM      5  C   UNL     1     -15.405 -14.107  29.955  1.00  0.00     0.015 C 
BRANCH   5   6
ATOM      6  C   UNL     1     -14.951 -13.918  31.412  1.00  0.00     0.028 C 
BRANCH   6   7
ATOM      7  C   UNL     1     -15.044 -15.179  32.236  1.00  0.00    -0.028 C 
ATOM      8  C   UNL     1     -14.088 -16.137  32.357  1.00  0.00    -0.070 CG0
ATOM      9  C   UNL     1     -14.354 -17.251  33.342  1.00  0.00     0.039 C 
ATOM     10  G   UNL     1     -12.815 -16.209  31.517  1.00  0.00     0.000 G0
ENDBRANCH   6   7
ENDBRANCH   5   6
ENDBRANCH   3   5
ENDBRANCH   1   3
BRANCH   1  11
ATOM     11  C   UNL     1     -12.446 -15.329  28.823  1.00  0.00     0.087 C 
BRANCH  11  12
ATOM     12  C   UNL     1     -12.636 -16.867  28.964  1.00  0.00     0.066 C 
BRANCH  12  13
ATOM     13  C   UNL     1     -12.784 -17.268  30.432  1.00  0.00     0.140 C 
ATOM     14  O   UNL     1     -12.964 -18.438  30.739  1.00  0.00    -0.299 OA
BRANCH  13  15
ATOM     15  C   UNL     1     -12.794 -16.211  31.509  1.00  0.00     0.106 CG0
ATOM     16  G   UNL     1     -14.078 -16.142  32.332  1.00  0.00     0.000 G0
ENDBRANCH  13  15
ENDBRANCH  12  13
BRANCH  12  17
ATOM     17  C   UNL     1     -11.566 -17.733  28.211  1.00  0.00    -0.006 C 
ATOM     18  C   UNL     1     -10.191 -17.727  28.903  1.00  0.00     0.008 C 
ATOM     19  C   UNL     1     -11.383 -17.237  26.763  1.00  0.00     0.008 C 
ENDBRANCH  12  17
ENDBRANCH  11  12
ENDBRANCH   1  11
TORSDOF 1
ENDMDL
MODEL 7
REMARK VINA RESULT:    -2.398      1.549      3.966
REMARK INTER + INTRA:          -3.377
REMARK INTER:                  -4.169
REMARK INTRA:                   0.792
REMARK UNBOUND:                 0.283
REMARK SMILES CC1=CCC[C@H](C)C(=O)C[C@@H](C(C)C)C(=O)C1
REMARK SMILES IDX 8 1 9 2 6 3 7 4 5 5 4 6 3 7 2 8 1 9 10 11 11 12 15 13 16 14
REMARK SMILES IDX 17 15 12 17 13 18 14 19
REMARK H PARENT
REMARK Flexibility Score: 70.00
ROOT
ATOM      1  C   UNL     1     -13.611 -15.277  30.629  1.00  0.00     0.136 C 
ATOM      2  O   UNL     1     -14.641 -14.625  30.574  1.00  0.00    -0.299 OA
ENDROOT
BRANCH   1   3
ATOM      3  C   UNL     1     -13.285 -16.026  31.913  1.00  0.00     0.053 C 
ATOM      4  C   UNL     1     -13.661 -15.177  33.132  1.00  0.00     0.016 C 
BRANCH   3   5
ATOM      5  C   UNL     1     -13.964 -17.412  31.978  1.00  0.00     0.015 C 
BRANCH   5   6
ATOM      6  C   UNL     1     -12.946 -18.554  31.821  1.00  0.00     0.028 C 
BRANCH   6   7
ATOM      7  C   UNL     1     -13.244 -19.466  30.656  1.00  0.00    -0.028 C 
ATOM      8  C   UNL     1     -12.424 -19.727  29.604  1.00  0.00    -0.070 CG0
ATOM      9  C   UNL     1     -12.884 -20.776  28.620  1.00  0.00     0.039 C 
ATOM     10  G   UNL     1     -11.123 -18.985  29.309  1.00  0.00     0.000 G0
ENDBRANCH   6   7
ENDBRANCH   5   6
ENDBRANCH   3   5
ENDBRANCH   1   3
BRANCH   1  11
ATOM     11  C   UNL     1     -12.735 -15.383  29.398  1.00  0.00     0.087 C 
BRANCH  11  12
ATOM     12  C   UNL     1     -12.589 -16.824  28.828  1.00  0.00     0.066 C 
BRANCH  12  13
ATOM     13  C   UNL     1     -11.268 -17.454  29.267  1.00  0.00     0.140 C 
ATOM     14  O   UNL     1     -10.300 -16.751  29.523  1.00  0.00    -0.299 OA
BRANCH  13  15
ATOM     15  C   UNL     1     -11.120 -18.956  29.306  1.00  0.00     0.106 CG0
ATOM     16  G   UNL     1     -12.406 -19.722  29.603  1.00  0.00     0.000 G0
ENDBRANCH  13  15
ENDBRANCH  12  13
BRANCH  12  17
ATOM     17  C   UNL     1     -12.826 -16.945  27.281  1.00  0.00    -0.006 C 
ATOM     18  C   UNL     1     -11.519 -16.907  26.467  1.00  0.00     0.008 C 
ATOM     19  C   UNL     1     -13.744 -15.813  26.779  1.00  0.00     0.008 C 
ENDBRANCH  12  17
ENDBRANCH  11  12
ENDBRANCH   1  11
TORSDOF 1
ENDMDL
MODEL 8
REMARK VINA RESULT:    -2.014      1.540      3.807
REMARK INTER + INTRA:          -2.790
REMARK INTER:                  -3.566
REMARK INTRA:                   0.775
REMARK UNBOUND:                 0.283
REMARK SMILES CC1=CCC[C@H](C)C(=O)C[C@@H](C(C)C)C(=O)C1
REMARK SMILES IDX 8 1 9 2 6 3 7 4 5 5 4 6 3 7 2 8 1 9 10 11 11 12 15 13 16 14
REMARK SMILES IDX 17 15 12 17 13 18 14 19
REMARK H PARENT
REMARK Flexibility Score: 70.00
ROOT
ATOM      1  C   UNL     1     -10.759 -15.799  29.388  1.00  0.00     0.136 C 
ATOM      2  O   UNL     1      -9.875 -14.967  29.253  1.00  0.00    -0.299 OA
ENDROOT
BRANCH   1   3
ATOM      3  C   UNL     1     -11.905 -15.502  30.343  1.00  0.00     0.053 C 
ATOM      4  C   UNL     1     -13.217 -15.350  29.566  1.00  0.00     0.016 C 
BRANCH   3   5
ATOM      5  C   UNL     1     -12.043 -16.568  31.452  1.00  0.00     0.015 C 
BRANCH   5   6
ATOM      6  C   UNL     1     -13.286 -17.450  31.244  1.00  0.00     0.028 C 
BRANCH   6   7
ATOM      7  C   UNL     1     -13.069 -18.892  31.634  1.00  0.00    -0.028 C 
ATOM      8  C   UNL     1     -12.259 -19.785  31.008  1.00  0.00    -0.070 CG0
ATOM      9  C   UNL     1     -12.103 -21.140  31.656  1.00  0.00     0.039 C 
ATOM     10  G   UNL     1     -11.570 -19.545  29.668  1.00  0.00     0.000 G0
ENDBRANCH   6   7
ENDBRANCH   5   6
ENDBRANCH   3   5
ENDBRANCH   1   3
BRANCH   1  11
ATOM     11  C   UNL     1     -10.727 -17.057  28.546  1.00  0.00     0.087 C 
BRANCH  11  12
ATOM     12  C   UNL     1     -12.120 -17.546  28.056  1.00  0.00     0.066 C 
BRANCH  12  13
ATOM     13  C   UNL     1     -12.424 -18.948  28.583  1.00  0.00     0.140 C 
ATOM     14  O   UNL     1     -13.412 -19.555  28.194  1.00  0.00    -0.299 OA
BRANCH  13  15
ATOM     15  C   UNL     1     -11.554 -19.561  29.653  1.00  0.00     0.106 CG0
ATOM     16  G   UNL     1     -12.247 -19.789  30.994  1.00  0.00     0.000 G0
ENDBRANCH  13  15
ENDBRANCH  12  13
BRANCH  12  17
ATOM     17  C   UNL     1     -12.353 -17.424  26.509  1.00  0.00    -0.006 C 
ATOM     18  C   UNL     1     -11.047 -17.219  25.718  1.00  0.00     0.008 C 
ATOM     19  C   UNL     1     -13.302 -16.253  26.190  1.00  0.00     0.008 C 
ENDBRANCH  12  17
ENDBRANCH  11  12
ENDBRANCH   1  11
TORSDOF 1
ENDMDL
MODEL 9
REMARK VINA RESULT:    -1.739      1.635      3.593
REMARK INTER + INTRA:          -2.371
REMARK INTER:                  -4.366
REMARK INTRA:                   1.995
REMARK UNBOUND:                 0.283
REMARK SMILES CC1=CCC[C@H](C)C(=O)C[C@@H](C(C)C)C(=O)C1
REMARK SMILES IDX 8 1 9 2 6 3 7 4 5 5 4 6 3 7 2 8 1 9 10 11 11 12 15 13 16 14
REMARK SMILES IDX 17 15 12 17 13 18 14 19
REMARK H PARENT
REMARK Flexibility Score: 70.00
ROOT
ATOM      1  C   UNL     1     -11.199 -16.159  30.702  1.00  0.00     0.136 C 
ATOM      2  O   UNL     1     -10.115 -16.143  31.265  1.00  0.00    -0.299 OA
ENDROOT
BRANCH   1   3
ATOM      3  C   UNL     1     -12.447 -16.446  31.525  1.00  0.00     0.053 C 
ATOM      4  C   UNL     1     -13.617 -15.591  31.028  1.00  0.00     0.016 C 
BRANCH   3   5
ATOM      5  C   UNL     1     -12.822 -17.944  31.526  1.00  0.00     0.015 C 
BRANCH   5   6
ATOM      6  C   UNL     1     -11.813 -18.787  30.729  1.00  0.00     0.028 C 
BRANCH   6   7
ATOM      7  C   UNL     1     -12.445 -19.948  30.001  1.00  0.00    -0.028 C 
ATOM      8  C   UNL     1     -13.152 -19.887  28.842  1.00  0.00    -0.070 CG0
ATOM      9  C   UNL     1     -13.580 -21.199  28.230  1.00  0.00     0.039 C 
ATOM     10  G   UNL     1     -13.607 -18.595  28.167  1.00  0.00     0.000 G0
ENDBRANCH   6   7
ENDBRANCH   5   6
ENDBRANCH   3   5
ENDBRANCH   1   3
BRANCH   1  11
ATOM     11  C   UNL     1     -11.275 -15.815  29.230  1.00  0.00     0.087 C 
BRANCH  11  12
ATOM     12  C   UNL     1     -12.618 -16.198  28.542  1.00  0.00     0.066 C 
BRANCH  12  13
ATOM     13  C   UNL     1     -12.530 -17.585  27.906  1.00  0.00     0.140 C 
ATOM     14  O   UNL     1     -11.620 -17.857  27.136  1.00  0.00    -0.299 OA
BRANCH  13  15
ATOM     15  C   UNL     1     -13.615 -18.604  28.157  1.00  0.00     0.106 CG0
ATOM     16  G   UNL     1     -13.145 -19.895  28.823  1.00  0.00     0.000 G0
ENDBRANCH  13  15
ENDBRANCH  12  13
BRANCH  12  17
ATOM     17  C   UNL     1     -13.179 -15.119  27.551  1.00  0.00    -0.006 C 
ATOM     18  C   UNL     1     -14.078 -14.076  28.241  1.00  0.00     0.008 C 
ATOM     19  C   UNL     1     -13.987 -15.784  26.420  1.00  0.00     0.008 C 
ENDBRANCH  12  17
ENDBRANCH  11  12
ENDBRANCH   1  11
TORSDOF 1
ENDMDL
