MODEL 1
REMARK VINA RESULT:    -6.627      0.000      0.000
REMARK INTER + INTRA:         -17.683
REMARK INTER:                 -14.376
REMARK INTRA:                  -3.307
REMARK UNBOUND:                -3.307
REMARK SMILES CCCCCCCCCCCCCCCCCCCCCC(=O)[O-]
REMARK SMILES IDX 12 1 11 2 10 3 9 4 8 5 7 6 6 7 5 8 4 9 3 10 2 11 1 12 13 13
REMARK SMILES IDX 14 14 15 15 16 16 17 17 18 18 19 19 20 20 21 21 22 22 23 23
REMARK SMILES IDX 24 24
REMARK H PARENT
REMARK Flexibility Score: inf
ROOT
ATOM      1  C   UNL     1     -17.966 -10.836  -0.801  1.00  0.00     0.000 C 
ENDROOT
BRANCH   1   2
ATOM      2  C   UNL     1     -18.533  -9.438  -1.103  1.00  0.00     0.000 C 
BRANCH   2   3
ATOM      3  C   UNL     1     -19.204  -8.727   0.091  1.00  0.00     0.000 C 
BRANCH   3   4
ATOM      4  C   UNL     1     -18.259  -8.335   1.241  1.00  0.00    -0.000 C 
BRANCH   4   5
ATOM      5  C   UNL     1     -16.985  -7.626   0.750  1.00  0.00    -0.000 C 
BRANCH   5   6
ATOM      6  C   UNL     1     -15.696  -8.387   1.111  1.00  0.00    -0.000 C 
BRANCH   6   7
ATOM      7  C   UNL     1     -14.942  -9.008  -0.083  1.00  0.00    -0.000 C 
BRANCH   7   8
ATOM      8  C   UNL     1     -14.911  -8.144  -1.359  1.00  0.00    -0.000 C 
BRANCH   8   9
ATOM      9  C   UNL     1     -14.175  -8.779  -2.555  1.00  0.00    -0.000 C 
BRANCH   9  10
ATOM     10  C   UNL     1     -15.089  -9.285  -3.690  1.00  0.00    -0.000 C 
BRANCH  10  11
ATOM     11  C   UNL     1     -16.460  -8.592  -3.775  1.00  0.00    -0.003 C 
ATOM     12  C   UNL     1     -16.689  -7.883  -5.110  1.00  0.00     0.004 C 
ENDBRANCH  10  11
ENDBRANCH   9  10
ENDBRANCH   8   9
ENDBRANCH   7   8
ENDBRANCH   6   7
ENDBRANCH   5   6
ENDBRANCH   4   5
ENDBRANCH   3   4
ENDBRANCH   2   3
ENDBRANCH   1   2
BRANCH   1  13
ATOM     13  C   UNL     1     -19.005 -11.776  -0.167  1.00  0.00     0.000 C 
BRANCH  13  14
ATOM     14  C   UNL     1     -19.347 -12.985  -1.060  1.00  0.00     0.000 C 
BRANCH  14  15
ATOM     15  C   UNL     1     -18.818 -12.904  -2.505  1.00  0.00     0.000 C 
BRANCH  15  16
ATOM     16  C   UNL     1     -18.324 -14.237  -3.100  1.00  0.00     0.000 C 
BRANCH  16  17
ATOM     17  C   UNL     1     -16.789 -14.325  -3.246  1.00  0.00     0.000 C 
BRANCH  17  18
ATOM     18  C   UNL     1     -16.107 -12.949  -3.155  1.00  0.00     0.000 C 
BRANCH  18  19
ATOM     19  C   UNL     1     -15.161 -12.840  -1.949  1.00  0.00     0.000 C 
BRANCH  19  20
ATOM     20  C   UNL     1     -15.126 -14.126  -1.109  1.00  0.00     0.006 C 
BRANCH  20  21
ATOM     21  C   UNL     1     -16.051 -14.012   0.108  1.00  0.00     0.053 C 
BRANCH  21  22
ATOM     22  C   UNL     1     -15.258 -13.732   1.344  1.00  0.00     0.041 C 
ATOM     23  O   UNL     1     -15.566 -14.283   2.433  1.00  0.00    -0.550 OA
ATOM     24  O   UNL     1     -14.145 -12.903   1.283  1.00  0.00    -0.550 OA
ENDBRANCH  21  22
ENDBRANCH  20  21
ENDBRANCH  19  20
ENDBRANCH  18  19
ENDBRANCH  17  18
ENDBRANCH  16  17
ENDBRANCH  15  16
ENDBRANCH  14  15
ENDBRANCH  13  14
ENDBRANCH   1  13
TORSDOF 20
ENDMDL
MODEL 2
REMARK VINA RESULT:    -6.510      2.378      6.348
REMARK INTER + INTRA:         -17.429
REMARK INTER:                 -13.988
REMARK INTRA:                  -3.441
REMARK UNBOUND:                -3.307
REMARK SMILES CCCCCCCCCCCCCCCCCCCCCC(=O)[O-]
REMARK SMILES IDX 12 1 11 2 10 3 9 4 8 5 7 6 6 7 5 8 4 9 3 10 2 11 1 12 13 13
REMARK SMILES IDX 14 14 15 15 16 16 17 17 18 18 19 19 20 20 21 21 22 22 23 23
REMARK SMILES IDX 24 24
REMARK H PARENT
REMARK Flexibility Score: inf
ROOT
ATOM      1  C   UNL     1     -19.145 -11.772  -0.240  1.00  0.00     0.000 C 
ENDROOT
BRANCH   1   2
ATOM      2  C   UNL     1     -18.909 -13.108  -0.966  1.00  0.00     0.000 C 
BRANCH   2   3
ATOM      3  C   UNL     1     -19.093 -13.068  -2.497  1.00  0.00     0.000 C 
BRANCH   3   4
ATOM      4  C   UNL     1     -18.756 -14.376  -3.236  1.00  0.00    -0.000 C 
BRANCH   4   5
ATOM      5  C   UNL     1     -17.260 -14.732  -3.164  1.00  0.00    -0.000 C 
BRANCH   5   6
ATOM      6  C   UNL     1     -16.347 -13.593  -3.654  1.00  0.00    -0.000 C 
BRANCH   6   7
ATOM      7  C   UNL     1     -15.237 -13.170  -2.670  1.00  0.00    -0.000 C 
BRANCH   7   8
ATOM      8  C   UNL     1     -15.535 -11.896  -1.855  1.00  0.00    -0.000 C 
BRANCH   8   9
ATOM      9  C   UNL     1     -15.239 -12.007  -0.346  1.00  0.00    -0.000 C 
BRANCH   9  10
ATOM     10  C   UNL     1     -15.091 -13.447   0.186  1.00  0.00    -0.000 C 
BRANCH  10  11
ATOM     11  C   UNL     1     -16.153 -13.870   1.215  1.00  0.00    -0.003 C 
ATOM     12  C   UNL     1     -15.548 -14.444   2.495  1.00  0.00     0.004 C 
ENDBRANCH  10  11
ENDBRANCH   9  10
ENDBRANCH   8   9
ENDBRANCH   7   8
ENDBRANCH   6   7
ENDBRANCH   5   6
ENDBRANCH   4   5
ENDBRANCH   3   4
ENDBRANCH   2   3
ENDBRANCH   1   2
BRANCH   1  13
ATOM     13  C   UNL     1     -18.931 -10.553  -1.154  1.00  0.00     0.000 C 
BRANCH  13  14
ATOM     14  C   UNL     1     -19.061  -9.211  -0.407  1.00  0.00     0.000 C 
BRANCH  14  15
ATOM     15  C   UNL     1     -18.241  -9.102   0.893  1.00  0.00     0.000 C 
BRANCH  15  16
ATOM     16  C   UNL     1     -17.802  -7.674   1.275  1.00  0.00     0.000 C 
BRANCH  16  17
ATOM     17  C   UNL     1     -16.406  -7.286   0.742  1.00  0.00     0.000 C 
BRANCH  17  18
ATOM     18  C   UNL     1     -15.523  -8.512   0.450  1.00  0.00     0.000 C 
BRANCH  18  19
ATOM     19  C   UNL     1     -14.912  -8.475  -0.959  1.00  0.00     0.000 C 
BRANCH  19  20
ATOM     20  C   UNL     1     -15.716  -7.593  -1.927  1.00  0.00     0.006 C 
BRANCH  20  21
ATOM     21  C   UNL     1     -16.677  -8.438  -2.770  1.00  0.00     0.053 C 
BRANCH  21  22
ATOM     22  C   UNL     1     -16.161  -8.581  -4.167  1.00  0.00     0.041 C 
ATOM     23  O   UNL     1     -16.704  -7.951  -5.111  1.00  0.00    -0.550 OA
ATOM     24  O   UNL     1     -15.047  -9.373  -4.418  1.00  0.00    -0.550 OA
ENDBRANCH  21  22
ENDBRANCH  20  21
ENDBRANCH  19  20
ENDBRANCH  18  19
ENDBRANCH  17  18
ENDBRANCH  16  17
ENDBRANCH  15  16
ENDBRANCH  14  15
ENDBRANCH  13  14
ENDBRANCH   1  13
TORSDOF 20
ENDMDL
MODEL 3
REMARK VINA RESULT:    -6.235      2.466      6.225
REMARK INTER + INTRA:         -16.832
REMARK INTER:                 -13.607
REMARK INTRA:                  -3.225
REMARK UNBOUND:                -3.307
REMARK SMILES CCCCCCCCCCCCCCCCCCCCCC(=O)[O-]
REMARK SMILES IDX 12 1 11 2 10 3 9 4 8 5 7 6 6 7 5 8 4 9 3 10 2 11 1 12 13 13
REMARK SMILES IDX 14 14 15 15 16 16 17 17 18 18 19 19 20 20 21 21 22 22 23 23
REMARK SMILES IDX 24 24
REMARK H PARENT
REMARK Flexibility Score: inf
ROOT
ATOM      1  C   UNL     1     -19.321 -10.075  -0.904  1.00  0.00     0.000 C 
ENDROOT
BRANCH   1   2
ATOM      2  C   UNL     1     -18.909 -11.238   0.015  1.00  0.00     0.000 C 
BRANCH   2   3
ATOM      3  C   UNL     1     -18.860 -12.625  -0.658  1.00  0.00     0.000 C 
BRANCH   3   4
ATOM      4  C   UNL     1     -18.567 -12.615  -2.169  1.00  0.00    -0.000 C 
BRANCH   4   5
ATOM      5  C   UNL     1     -18.793 -13.986  -2.829  1.00  0.00    -0.000 C 
BRANCH   5   6
ATOM      6  C   UNL     1     -17.483 -14.752  -3.089  1.00  0.00    -0.000 C 
BRANCH   6   7
ATOM      7  C   UNL     1     -16.191 -13.974  -2.764  1.00  0.00    -0.000 C 
BRANCH   7   8
ATOM      8  C   UNL     1     -15.337 -14.568  -1.627  1.00  0.00    -0.000 C 
BRANCH   8   9
ATOM      9  C   UNL     1     -14.316 -13.596  -1.006  1.00  0.00    -0.000 C 
BRANCH   9  10
ATOM     10  C   UNL     1     -14.379 -13.476   0.530  1.00  0.00    -0.000 C 
BRANCH  10  11
ATOM     11  C   UNL     1     -15.771 -13.710   1.142  1.00  0.00    -0.003 C 
ATOM     12  C   UNL     1     -15.716 -14.407   2.501  1.00  0.00     0.004 C 
ENDBRANCH  10  11
ENDBRANCH   9  10
ENDBRANCH   8   9
ENDBRANCH   7   8
ENDBRANCH   6   7
ENDBRANCH   5   6
ENDBRANCH   4   5
ENDBRANCH   3   4
ENDBRANCH   2   3
ENDBRANCH   1   2
BRANCH   1  13
ATOM     13  C   UNL     1     -18.691  -8.735  -0.488  1.00  0.00     0.000 C 
BRANCH  13  14
ATOM     14  C   UNL     1     -18.455  -8.627   1.031  1.00  0.00     0.000 C 
BRANCH  14  15
ATOM     15  C   UNL     1     -17.055  -8.131   1.443  1.00  0.00     0.000 C 
BRANCH  15  16
ATOM     16  C   UNL     1     -16.112  -7.780   0.276  1.00  0.00     0.000 C 
BRANCH  16  17
ATOM     17  C   UNL     1     -14.956  -8.785   0.082  1.00  0.00     0.000 C 
BRANCH  17  18
ATOM     18  C   UNL     1     -15.456 -10.211  -0.210  1.00  0.00     0.000 C 
BRANCH  18  19
ATOM     19  C   UNL     1     -15.598 -10.489  -1.715  1.00  0.00     0.000 C 
BRANCH  19  20
ATOM     20  C   UNL     1     -14.691  -9.588  -2.568  1.00  0.00     0.006 C 
BRANCH  20  21
ATOM     21  C   UNL     1     -15.249  -9.433  -3.987  1.00  0.00     0.053 C 
BRANCH  21  22
ATOM     22  C   UNL     1     -16.233  -8.308  -4.043  1.00  0.00     0.041 C 
ATOM     23  O   UNL     1     -16.432  -7.588  -3.030  1.00  0.00    -0.550 OA
ATOM     24  O   UNL     1     -16.893  -8.021  -5.232  1.00  0.00    -0.550 OA
ENDBRANCH  21  22
ENDBRANCH  20  21
ENDBRANCH  19  20
ENDBRANCH  18  19
ENDBRANCH  17  18
ENDBRANCH  16  17
ENDBRANCH  15  16
ENDBRANCH  14  15
ENDBRANCH  13  14
ENDBRANCH   1  13
TORSDOF 20
ENDMDL
MODEL 4
REMARK VINA RESULT:    -6.077      2.520      5.714
REMARK INTER + INTRA:         -16.489
REMARK INTER:                 -13.086
REMARK INTRA:                  -3.403
REMARK UNBOUND:                -3.307
REMARK SMILES CCCCCCCCCCCCCCCCCCCCCC(=O)[O-]
REMARK SMILES IDX 12 1 11 2 10 3 9 4 8 5 7 6 6 7 5 8 4 9 3 10 2 11 1 12 13 13
REMARK SMILES IDX 14 14 15 15 16 16 17 17 18 18 19 19 20 20 21 21 22 22 23 23
REMARK SMILES IDX 24 24
REMARK H PARENT
REMARK Flexibility Score: inf
ROOT
ATOM      1  C   UNL     1     -19.002 -10.620  -1.252  1.00  0.00     0.000 C 
ENDROOT
BRANCH   1   2
ATOM      2  C   UNL     1     -19.237 -11.703  -0.184  1.00  0.00     0.000 C 
BRANCH   2   3
ATOM      3  C   UNL     1     -18.155 -12.800  -0.108  1.00  0.00     0.000 C 
BRANCH   3   4
ATOM      4  C   UNL     1     -16.812 -12.360   0.503  1.00  0.00    -0.000 C 
BRANCH   4   5
ATOM      5  C   UNL     1     -15.912 -13.548   0.883  1.00  0.00    -0.000 C 
BRANCH   5   6
ATOM      6  C   UNL     1     -14.442 -13.343   0.473  1.00  0.00    -0.000 C 
BRANCH   6   7
ATOM      7  C   UNL     1     -14.075 -13.850  -0.937  1.00  0.00    -0.000 C 
BRANCH   7   8
ATOM      8  C   UNL     1     -15.177 -14.657  -1.650  1.00  0.00    -0.000 C 
BRANCH   8   9
ATOM      9  C   UNL     1     -15.868 -13.923  -2.816  1.00  0.00    -0.000 C 
BRANCH   9  10
ATOM     10  C   UNL     1     -17.198 -14.548  -3.284  1.00  0.00    -0.000 C 
BRANCH  10  11
ATOM     11  C   UNL     1     -18.397 -13.585  -3.298  1.00  0.00    -0.003 C 
ATOM     12  C   UNL     1     -19.732 -14.292  -3.065  1.00  0.00     0.004 C 
ENDBRANCH  10  11
ENDBRANCH   9  10
ENDBRANCH   8   9
ENDBRANCH   7   8
ENDBRANCH   6   7
ENDBRANCH   5   6
ENDBRANCH   4   5
ENDBRANCH   3   4
ENDBRANCH   2   3
ENDBRANCH   1   2
BRANCH   1  13
ATOM     13  C   UNL     1     -18.892  -9.208  -0.652  1.00  0.00     0.000 C 
BRANCH  13  14
ATOM     14  C   UNL     1     -18.284  -9.201   0.763  1.00  0.00     0.000 C 
BRANCH  14  15
ATOM     15  C   UNL     1     -17.635  -7.870   1.192  1.00  0.00     0.000 C 
BRANCH  15  16
ATOM     16  C   UNL     1     -16.182  -7.666   0.721  1.00  0.00     0.000 C 
BRANCH  16  17
ATOM     17  C   UNL     1     -15.399  -8.981   0.519  1.00  0.00     0.000 C 
BRANCH  17  18
ATOM     18  C   UNL     1     -14.680  -9.038  -0.840  1.00  0.00     0.000 C 
BRANCH  18  19
ATOM     19  C   UNL     1     -14.840 -10.400  -1.534  1.00  0.00     0.000 C 
BRANCH  19  20
ATOM     20  C   UNL     1     -15.872 -10.364  -2.672  1.00  0.00     0.006 C 
BRANCH  20  21
ATOM     21  C   UNL     1     -15.398  -9.459  -3.814  1.00  0.00     0.053 C 
BRANCH  21  22
ATOM     22  C   UNL     1     -16.332  -8.304  -3.990  1.00  0.00     0.041 C 
ATOM     23  O   UNL     1     -16.718  -7.642  -2.991  1.00  0.00    -0.550 OA
ATOM     24  O   UNL     1     -16.736  -7.925  -5.265  1.00  0.00    -0.550 OA
ENDBRANCH  21  22
ENDBRANCH  20  21
ENDBRANCH  19  20
ENDBRANCH  18  19
ENDBRANCH  17  18
ENDBRANCH  16  17
ENDBRANCH  15  16
ENDBRANCH  14  15
ENDBRANCH  13  14
ENDBRANCH   1  13
TORSDOF 20
ENDMDL
MODEL 5
REMARK VINA RESULT:    -6.072      2.098      5.641
REMARK INTER + INTRA:         -16.479
REMARK INTER:                 -13.229
REMARK INTRA:                  -3.250
REMARK UNBOUND:                -3.307
REMARK SMILES CCCCCCCCCCCCCCCCCCCCCC(=O)[O-]
REMARK SMILES IDX 12 1 11 2 10 3 9 4 8 5 7 6 6 7 5 8 4 9 3 10 2 11 1 12 13 13
REMARK SMILES IDX 14 14 15 15 16 16 17 17 18 18 19 19 20 20 21 21 22 22 23 23
REMARK SMILES IDX 24 24
REMARK H PARENT
REMARK Flexibility Score: inf
ROOT
ATOM      1  C   UNL     1     -15.157  -8.062  -1.290  1.00  0.00     0.000 C 
ENDROOT
BRANCH   1   2
ATOM      2  C   UNL     1     -16.346  -7.563  -2.130  1.00  0.00     0.000 C 
BRANCH   2   3
ATOM      3  C   UNL     1     -16.732  -8.460  -3.324  1.00  0.00     0.000 C 
BRANCH   3   4
ATOM      4  C   UNL     1     -15.556  -8.950  -4.188  1.00  0.00    -0.000 C 
BRANCH   4   5
ATOM      5  C   UNL     1     -15.283 -10.455  -4.024  1.00  0.00    -0.000 C 
BRANCH   5   6
ATOM      6  C   UNL     1     -16.143 -11.107  -2.925  1.00  0.00    -0.000 C 
BRANCH   6   7
ATOM      7  C   UNL     1     -15.354 -11.711  -1.745  1.00  0.00    -0.000 C 
BRANCH   7   8
ATOM      8  C   UNL     1     -14.472 -12.924  -2.099  1.00  0.00    -0.000 C 
BRANCH   8   9
ATOM      9  C   UNL     1     -14.366 -13.994  -0.995  1.00  0.00    -0.000 C 
BRANCH   9  10
ATOM     10  C   UNL     1     -14.613 -13.480   0.438  1.00  0.00    -0.000 C 
BRANCH  10  11
ATOM     11  C   UNL     1     -15.818 -14.114   1.155  1.00  0.00    -0.003 C 
ATOM     12  C   UNL     1     -15.606 -14.262   2.661  1.00  0.00     0.004 C 
ENDBRANCH  10  11
ENDBRANCH   9  10
ENDBRANCH   8   9
ENDBRANCH   7   8
ENDBRANCH   6   7
ENDBRANCH   5   6
ENDBRANCH   4   5
ENDBRANCH   3   4
ENDBRANCH   2   3
ENDBRANCH   1   2
BRANCH   1  13
ATOM     13  C   UNL     1     -15.553  -8.406   0.156  1.00  0.00     0.000 C 
BRANCH  13  14
ATOM     14  C   UNL     1     -16.410  -7.313   0.822  1.00  0.00     0.000 C 
BRANCH  14  15
ATOM     15  C   UNL     1     -17.709  -7.810   1.485  1.00  0.00     0.000 C 
BRANCH  15  16
ATOM     16  C   UNL     1     -18.242  -9.157   0.957  1.00  0.00     0.000 C 
BRANCH  16  17
ATOM     17  C   UNL     1     -19.119  -9.029  -0.307  1.00  0.00     0.000 C 
BRANCH  17  18
ATOM     18  C   UNL     1     -19.163 -10.330  -1.129  1.00  0.00     0.000 C 
BRANCH  18  19
ATOM     19  C   UNL     1     -18.913 -11.579  -0.269  1.00  0.00     0.000 C 
BRANCH  19  20
ATOM     20  C   UNL     1     -19.333 -12.876  -0.979  1.00  0.00     0.006 C 
BRANCH  20  21
ATOM     21  C   UNL     1     -18.107 -13.695  -1.395  1.00  0.00     0.053 C 
BRANCH  21  22
ATOM     22  C   UNL     1     -18.276 -14.222  -2.784  1.00  0.00     0.041 C 
ATOM     23  O   UNL     1     -19.352 -14.031  -3.409  1.00  0.00    -0.550 OA
ATOM     24  O   UNL     1     -17.224 -14.880  -3.410  1.00  0.00    -0.550 OA
ENDBRANCH  21  22
ENDBRANCH  20  21
ENDBRANCH  19  20
ENDBRANCH  18  19
ENDBRANCH  17  18
ENDBRANCH  16  17
ENDBRANCH  15  16
ENDBRANCH  14  15
ENDBRANCH  13  14
ENDBRANCH   1  13
TORSDOF 20
ENDMDL
MODEL 6
REMARK VINA RESULT:    -6.063      0.855      4.190
REMARK INTER + INTRA:         -16.459
REMARK INTER:                 -13.226
REMARK INTRA:                  -3.234
REMARK UNBOUND:                -3.307
REMARK SMILES CCCCCCCCCCCCCCCCCCCCCC(=O)[O-]
REMARK SMILES IDX 12 1 11 2 10 3 9 4 8 5 7 6 6 7 5 8 4 9 3 10 2 11 1 12 13 13
REMARK SMILES IDX 14 14 15 15 16 16 17 17 18 18 19 19 20 20 21 21 22 22 23 23
REMARK SMILES IDX 24 24
REMARK H PARENT
REMARK Flexibility Score: inf
ROOT
ATOM      1  C   UNL     1     -14.700  -8.722  -0.892  1.00  0.00     0.000 C 
ENDROOT
BRANCH   1   2
ATOM      2  C   UNL     1     -15.386  -9.127   0.425  1.00  0.00     0.000 C 
BRANCH   2   3
ATOM      3  C   UNL     1     -16.001  -7.965   1.232  1.00  0.00     0.000 C 
BRANCH   3   4
ATOM      4  C   UNL     1     -17.538  -7.904   1.234  1.00  0.00    -0.000 C 
BRANCH   4   5
ATOM      5  C   UNL     1     -18.188  -9.243   0.844  1.00  0.00    -0.000 C 
BRANCH   5   6
ATOM      6  C   UNL     1     -19.030  -9.151  -0.442  1.00  0.00    -0.000 C 
BRANCH   6   7
ATOM      7  C   UNL     1     -19.228 -10.483  -1.196  1.00  0.00    -0.000 C 
BRANCH   7   8
ATOM      8  C   UNL     1     -19.239 -11.742  -0.308  1.00  0.00    -0.000 C 
BRANCH   8   9
ATOM      9  C   UNL     1     -19.334 -13.076  -1.074  1.00  0.00    -0.000 C 
BRANCH   9  10
ATOM     10  C   UNL     1     -19.080 -12.976  -2.592  1.00  0.00    -0.000 C 
BRANCH  10  11
ATOM     11  C   UNL     1     -18.954 -14.326  -3.318  1.00  0.00    -0.003 C 
ATOM     12  C   UNL     1     -17.744 -15.140  -2.860  1.00  0.00     0.004 C 
ENDBRANCH  10  11
ENDBRANCH   9  10
ENDBRANCH   8   9
ENDBRANCH   7   8
ENDBRANCH   6   7
ENDBRANCH   5   6
ENDBRANCH   4   5
ENDBRANCH   3   4
ENDBRANCH   2   3
ENDBRANCH   1   2
BRANCH   1  13
ATOM     13  C   UNL     1     -15.475  -7.636  -1.658  1.00  0.00     0.000 C 
BRANCH  13  14
ATOM     14  C   UNL     1     -16.646  -8.202  -2.483  1.00  0.00     0.000 C 
BRANCH  14  15
ATOM     15  C   UNL     1     -16.267  -8.744  -3.875  1.00  0.00     0.000 C 
BRANCH  15  16
ATOM     16  C   UNL     1     -15.359  -9.990  -3.870  1.00  0.00     0.000 C 
BRANCH  16  17
ATOM     17  C   UNL     1     -15.965 -11.202  -3.129  1.00  0.00     0.000 C 
BRANCH  17  18
ATOM     18  C   UNL     1     -15.119 -12.477  -3.293  1.00  0.00     0.000 C 
BRANCH  18  19
ATOM     19  C   UNL     1     -15.111 -13.346  -2.025  1.00  0.00     0.000 C 
BRANCH  19  20
ATOM     20  C   UNL     1     -15.658 -12.600  -0.798  1.00  0.00     0.006 C 
BRANCH  20  21
ATOM     21  C   UNL     1     -16.166 -13.585   0.260  1.00  0.00     0.053 C 
BRANCH  21  22
ATOM     22  C   UNL     1     -15.272 -13.574   1.459  1.00  0.00     0.041 C 
ATOM     23  O   UNL     1     -15.559 -14.265   2.471  1.00  0.00    -0.550 OA
ATOM     24  O   UNL     1     -14.093 -12.838   1.440  1.00  0.00    -0.550 OA
ENDBRANCH  21  22
ENDBRANCH  20  21
ENDBRANCH  19  20
ENDBRANCH  18  19
ENDBRANCH  17  18
ENDBRANCH  16  17
ENDBRANCH  15  16
ENDBRANCH  14  15
ENDBRANCH  13  14
ENDBRANCH   1  13
TORSDOF 20
ENDMDL
MODEL 7
REMARK VINA RESULT:    -5.971      1.062      2.039
REMARK INTER + INTRA:         -16.261
REMARK INTER:                 -12.975
REMARK INTRA:                  -3.286
REMARK UNBOUND:                -3.307
REMARK SMILES CCCCCCCCCCCCCCCCCCCCCC(=O)[O-]
REMARK SMILES IDX 12 1 11 2 10 3 9 4 8 5 7 6 6 7 5 8 4 9 3 10 2 11 1 12 13 13
REMARK SMILES IDX 14 14 15 15 16 16 17 17 18 18 19 19 20 20 21 21 22 22 23 23
REMARK SMILES IDX 24 24
REMARK H PARENT
REMARK Flexibility Score: inf
ROOT
ATOM      1  C   UNL     1     -18.796 -13.146  -0.883  1.00  0.00     0.000 C 
ENDROOT
BRANCH   1   2
ATOM      2  C   UNL     1     -19.068 -11.777  -0.235  1.00  0.00     0.000 C 
BRANCH   2   3
ATOM      3  C   UNL     1     -19.027 -10.572  -1.197  1.00  0.00     0.000 C 
BRANCH   3   4
ATOM      4  C   UNL     1     -18.883  -9.196  -0.524  1.00  0.00    -0.000 C 
BRANCH   4   5
ATOM      5  C   UNL     1     -18.162  -9.268   0.833  1.00  0.00    -0.000 C 
BRANCH   5   6
ATOM      6  C   UNL     1     -17.566  -7.917   1.270  1.00  0.00    -0.000 C 
BRANCH   6   7
ATOM      7  C   UNL     1     -16.478  -7.345   0.337  1.00  0.00    -0.000 C 
BRANCH   7   8
ATOM      8  C   UNL     1     -15.470  -8.378  -0.203  1.00  0.00    -0.000 C 
BRANCH   8   9
ATOM      9  C   UNL     1     -15.140  -8.240  -1.702  1.00  0.00    -0.000 C 
BRANCH   9  10
ATOM     10  C   UNL     1     -16.346  -7.926  -2.610  1.00  0.00    -0.000 C 
BRANCH  10  11
ATOM     11  C   UNL     1     -16.189  -8.372  -4.074  1.00  0.00    -0.003 C 
ATOM     12  C   UNL     1     -14.992  -9.296  -4.291  1.00  0.00     0.004 C 
ENDBRANCH  10  11
ENDBRANCH   9  10
ENDBRANCH   8   9
ENDBRANCH   7   8
ENDBRANCH   6   7
ENDBRANCH   5   6
ENDBRANCH   4   5
ENDBRANCH   3   4
ENDBRANCH   2   3
ENDBRANCH   1   2
BRANCH   1  13
ATOM     13  C   UNL     1     -19.452 -13.291  -2.266  1.00  0.00     0.000 C 
BRANCH  13  14
ATOM     14  C   UNL     1     -18.581 -14.076  -3.266  1.00  0.00     0.000 C 
BRANCH  14  15
ATOM     15  C   UNL     1     -17.418 -14.870  -2.641  1.00  0.00     0.000 C 
BRANCH  15  16
ATOM     16  C   UNL     1     -16.034 -14.200  -2.746  1.00  0.00     0.000 C 
BRANCH  16  17
ATOM     17  C   UNL     1     -16.074 -12.768  -3.323  1.00  0.00     0.000 C 
BRANCH  17  18
ATOM     18  C   UNL     1     -15.666 -11.703  -2.290  1.00  0.00     0.000 C 
BRANCH  18  19
ATOM     19  C   UNL     1     -14.796 -12.279  -1.162  1.00  0.00     0.000 C 
BRANCH  19  20
ATOM     20  C   UNL     1     -15.375 -11.993   0.233  1.00  0.00     0.006 C 
BRANCH  20  21
ATOM     21  C   UNL     1     -14.680 -12.844   1.300  1.00  0.00     0.053 C 
BRANCH  21  22
ATOM     22  C   UNL     1     -15.528 -14.021   1.666  1.00  0.00     0.041 C 
ATOM     23  O   UNL     1     -15.606 -14.398   2.864  1.00  0.00    -0.550 OA
ATOM     24  O   UNL     1     -16.274 -14.670   0.690  1.00  0.00    -0.550 OA
ENDBRANCH  21  22
ENDBRANCH  20  21
ENDBRANCH  19  20
ENDBRANCH  18  19
ENDBRANCH  17  18
ENDBRANCH  16  17
ENDBRANCH  15  16
ENDBRANCH  14  15
ENDBRANCH  13  14
ENDBRANCH   1  13
TORSDOF 20
ENDMDL
MODEL 8
REMARK VINA RESULT:    -5.855      0.994      3.725
REMARK INTER + INTRA:         -16.008
REMARK INTER:                 -12.492
REMARK INTRA:                  -3.516
REMARK UNBOUND:                -3.307
REMARK SMILES CCCCCCCCCCCCCCCCCCCCCC(=O)[O-]
REMARK SMILES IDX 12 1 11 2 10 3 9 4 8 5 7 6 6 7 5 8 4 9 3 10 2 11 1 12 13 13
REMARK SMILES IDX 14 14 15 15 16 16 17 17 18 18 19 19 20 20 21 21 22 22 23 23
REMARK SMILES IDX 24 24
REMARK H PARENT
REMARK Flexibility Score: inf
ROOT
ATOM      1  C   UNL     1     -16.462  -8.795  -3.341  1.00  0.00     0.000 C 
ENDROOT
BRANCH   1   2
ATOM      2  C   UNL     1     -16.132  -7.675  -2.338  1.00  0.00     0.000 C 
BRANCH   2   3
ATOM      3  C   UNL     1     -14.954  -7.969  -1.386  1.00  0.00     0.000 C 
BRANCH   3   4
ATOM      4  C   UNL     1     -15.011  -9.327  -0.666  1.00  0.00    -0.000 C 
BRANCH   4   5
ATOM      5  C   UNL     1     -15.498  -9.210   0.789  1.00  0.00    -0.000 C 
BRANCH   5   6
ATOM      6  C   UNL     1     -16.002  -7.798   1.143  1.00  0.00    -0.000 C 
BRANCH   6   7
ATOM      7  C   UNL     1     -17.535  -7.647   1.220  1.00  0.00    -0.000 C 
BRANCH   7   8
ATOM      8  C   UNL     1     -18.334  -8.944   0.987  1.00  0.00    -0.000 C 
BRANCH   8   9
ATOM      9  C   UNL     1     -19.218  -8.945  -0.275  1.00  0.00    -0.000 C 
BRANCH   9  10
ATOM     10  C   UNL     1     -18.949 -10.102  -1.259  1.00  0.00    -0.000 C 
BRANCH  10  11
ATOM     11  C   UNL     1     -18.288 -11.343  -0.636  1.00  0.00    -0.003 C 
ATOM     12  C   UNL     1     -19.196 -12.572  -0.648  1.00  0.00     0.004 C 
ENDBRANCH  10  11
ENDBRANCH   9  10
ENDBRANCH   8   9
ENDBRANCH   7   8
ENDBRANCH   6   7
ENDBRANCH   5   6
ENDBRANCH   4   5
ENDBRANCH   3   4
ENDBRANCH   2   3
ENDBRANCH   1   2
BRANCH   1  13
ATOM     13  C   UNL     1     -15.274  -9.145  -4.253  1.00  0.00     0.000 C 
BRANCH  13  14
ATOM     14  C   UNL     1     -14.906 -10.640  -4.214  1.00  0.00     0.000 C 
BRANCH  14  15
ATOM     15  C   UNL     1     -15.742 -11.497  -3.244  1.00  0.00     0.000 C 
BRANCH  15  16
ATOM     16  C   UNL     1     -15.804 -13.000  -3.581  1.00  0.00     0.000 C 
BRANCH  16  17
ATOM     17  C   UNL     1     -17.233 -13.585  -3.564  1.00  0.00     0.000 C 
BRANCH  17  18
ATOM     18  C   UNL     1     -17.333 -14.876  -2.732  1.00  0.00     0.000 C 
BRANCH  18  19
ATOM     19  C   UNL     1     -16.081 -15.123  -1.876  1.00  0.00     0.000 C 
BRANCH  19  20
ATOM     20  C   UNL     1     -16.154 -14.423  -0.510  1.00  0.00     0.006 C 
BRANCH  20  21
ATOM     21  C   UNL     1     -14.868 -13.640  -0.226  1.00  0.00     0.053 C 
BRANCH  21  22
ATOM     22  C   UNL     1     -14.777 -13.290   1.225  1.00  0.00     0.041 C 
ATOM     23  O   UNL     1     -14.063 -12.324   1.601  1.00  0.00    -0.550 OA
ATOM     24  O   UNL     1     -15.521 -14.000   2.159  1.00  0.00    -0.550 OA
ENDBRANCH  21  22
ENDBRANCH  20  21
ENDBRANCH  19  20
ENDBRANCH  18  19
ENDBRANCH  17  18
ENDBRANCH  16  17
ENDBRANCH  15  16
ENDBRANCH  14  15
ENDBRANCH  13  14
ENDBRANCH   1  13
TORSDOF 20
ENDMDL
MODEL 9
REMARK VINA RESULT:    -5.823      0.925      3.432
REMARK INTER + INTRA:         -15.938
REMARK INTER:                 -12.238
REMARK INTRA:                  -3.700
REMARK UNBOUND:                -3.307
REMARK SMILES CCCCCCCCCCCCCCCCCCCCCC(=O)[O-]
REMARK SMILES IDX 12 1 11 2 10 3 9 4 8 5 7 6 6 7 5 8 4 9 3 10 2 11 1 12 13 13
REMARK SMILES IDX 14 14 15 15 16 16 17 17 18 18 19 19 20 20 21 21 22 22 23 23
REMARK SMILES IDX 24 24
REMARK H PARENT
REMARK Flexibility Score: inf
ROOT
ATOM      1  C   UNL     1     -16.358 -11.002  -0.514  1.00  0.00     0.000 C 
ENDROOT
BRANCH   1   2
ATOM      2  C   UNL     1     -15.279 -11.168  -1.599  1.00  0.00     0.000 C 
BRANCH   2   3
ATOM      3  C   UNL     1     -15.800 -11.181  -3.051  1.00  0.00     0.000 C 
BRANCH   3   4
ATOM      4  C   UNL     1     -14.997 -10.325  -4.047  1.00  0.00    -0.000 C 
BRANCH   4   5
ATOM      5  C   UNL     1     -14.909  -8.847  -3.626  1.00  0.00    -0.000 C 
BRANCH   5   6
ATOM      6  C   UNL     1     -16.289  -8.204  -3.398  1.00  0.00    -0.000 C 
BRANCH   6   7
ATOM      7  C   UNL     1     -16.508  -7.598  -1.996  1.00  0.00    -0.000 C 
BRANCH   7   8
ATOM      8  C   UNL     1     -15.290  -7.667  -1.055  1.00  0.00    -0.000 C 
BRANCH   8   9
ATOM      9  C   UNL     1     -15.627  -7.622   0.448  1.00  0.00    -0.000 C 
BRANCH   9  10
ATOM     10  C   UNL     1     -17.059  -7.156   0.782  1.00  0.00    -0.000 C 
BRANCH  10  11
ATOM     11  C   UNL     1     -18.006  -8.269   1.264  1.00  0.00    -0.003 C 
ATOM     12  C   UNL     1     -19.341  -8.279   0.521  1.00  0.00     0.004 C 
ENDBRANCH  10  11
ENDBRANCH   9  10
ENDBRANCH   8   9
ENDBRANCH   7   8
ENDBRANCH   6   7
ENDBRANCH   5   6
ENDBRANCH   4   5
ENDBRANCH   3   4
ENDBRANCH   2   3
ENDBRANCH   1   2
BRANCH   1  13
ATOM     13  C   UNL     1     -17.783 -10.971  -1.093  1.00  0.00     0.000 C 
BRANCH  13  14
ATOM     14  C   UNL     1     -18.765 -11.873  -0.321  1.00  0.00     0.000 C 
BRANCH  14  15
ATOM     15  C   UNL     1     -19.396 -13.012  -1.144  1.00  0.00     0.000 C 
BRANCH  15  16
ATOM     16  C   UNL     1     -18.991 -13.050  -2.631  1.00  0.00     0.000 C 
BRANCH  16  17
ATOM     17  C   UNL     1     -18.459 -14.421  -3.100  1.00  0.00     0.000 C 
BRANCH  17  18
ATOM     18  C   UNL     1     -16.922 -14.504  -3.058  1.00  0.00     0.000 C 
BRANCH  18  19
ATOM     19  C   UNL     1     -16.409 -15.323  -1.863  1.00  0.00     0.000 C 
BRANCH  19  20
ATOM     20  C   UNL     1     -15.551 -14.487  -0.901  1.00  0.00     0.006 C 
BRANCH  20  21
ATOM     21  C   UNL     1     -16.300 -14.215   0.407  1.00  0.00     0.053 C 
BRANCH  21  22
ATOM     22  C   UNL     1     -15.338 -13.881   1.503  1.00  0.00     0.041 C 
ATOM     23  O   UNL     1     -14.351 -13.135   1.274  1.00  0.00    -0.550 OA
ATOM     24  O   UNL     1     -15.561 -14.354   2.791  1.00  0.00    -0.550 OA
ENDBRANCH  21  22
ENDBRANCH  20  21
ENDBRANCH  19  20
ENDBRANCH  18  19
ENDBRANCH  17  18
ENDBRANCH  16  17
ENDBRANCH  15  16
ENDBRANCH  14  15
ENDBRANCH  13  14
ENDBRANCH   1  13
TORSDOF 20
ENDMDL
