MODEL 1
REMARK VINA RESULT:    -5.545      0.000      0.000
REMARK INTER + INTRA:         -12.160
REMARK INTER:                 -10.083
REMARK INTRA:                  -2.077
REMARK UNBOUND:                -2.077
REMARK SMILES CCCCCC=CCC=CCCCCCCCC(=O)[O-]
REMARK SMILES IDX 11 1 12 2 13 3 14 4 15 5 16 6 17 7 18 8 19 9 20 10 10 11
REMARK SMILES IDX 9 12 8 13 7 14 6 15 5 16 4 17 3 18 2 19 1 20
REMARK H PARENT
REMARK Flexibility Score: inf
ROOT
ATOM      1  C   UNL     1      23.322  11.390  34.745  1.00  0.00     0.027 C 
ENDROOT
BRANCH   1   2
ATOM      2  C   UNL     1      24.521  11.283  35.699  1.00  0.00     0.004 C 
BRANCH   2   3
ATOM      3  C   UNL     1      25.087  12.664  36.073  1.00  0.00     0.000 C 
BRANCH   3   4
ATOM      4  C   UNL     1      26.498  12.896  35.509  1.00  0.00     0.000 C 
BRANCH   4   5
ATOM      5  C   UNL     1      27.112  11.622  34.906  1.00  0.00     0.000 C 
BRANCH   5   6
ATOM      6  C   UNL     1      28.210  11.915  33.867  1.00  0.00     0.006 C 
BRANCH   6   7
ATOM      7  C   UNL     1      27.713  12.700  32.640  1.00  0.00     0.053 C 
BRANCH   7   8
ATOM      8  C   UNL     1      28.204  12.126  31.346  1.00  0.00     0.041 C 
ATOM      9  O   UNL     1      29.074  12.736  30.669  1.00  0.00    -0.550 OA
ATOM     10  O   UNL     1      27.723  10.901  30.903  1.00  0.00    -0.550 OA
ENDBRANCH   7   8
ENDBRANCH   6   7
ENDBRANCH   5   6
ENDBRANCH   4   5
ENDBRANCH   3   4
ENDBRANCH   2   3
ENDBRANCH   1   2
BRANCH   1  11
ATOM     11  C   UNL     1      23.693  12.055  33.443  1.00  0.00    -0.031 C 
ATOM     12  C   UNL     1      22.840  12.283  32.427  1.00  0.00    -0.027 C 
BRANCH  12  13
ATOM     13  C   UNL     1      21.362  11.978  32.461  1.00  0.00     0.054 C 
BRANCH  13  14
ATOM     14  C   UNL     1      20.541  13.197  32.127  1.00  0.00    -0.027 C 
ATOM     15  C   UNL     1      20.193  14.156  33.006  1.00  0.00    -0.031 C 
BRANCH  15  16
ATOM     16  C   UNL     1      20.603  14.192  34.459  1.00  0.00     0.027 C 
BRANCH  16  17
ATOM     17  C   UNL     1      19.561  13.507  35.352  1.00  0.00     0.004 C 
BRANCH  17  18
ATOM     18  C   UNL     1      20.103  12.217  35.989  1.00  0.00     0.000 C 
BRANCH  18  19
ATOM     19  C   UNL     1      19.386  10.959  35.474  1.00  0.00    -0.003 C 
ATOM     20  C   UNL     1      20.241   9.698  35.595  1.00  0.00     0.004 C 
ENDBRANCH  18  19
ENDBRANCH  17  18
ENDBRANCH  16  17
ENDBRANCH  15  16
ENDBRANCH  13  14
ENDBRANCH  12  13
ENDBRANCH   1  11
TORSDOF 14
ENDMDL
MODEL 2
REMARK VINA RESULT:    -5.512      1.064      2.650
REMARK INTER + INTRA:         -12.101
REMARK INTER:                  -9.988
REMARK INTRA:                  -2.112
REMARK UNBOUND:                -2.077
REMARK SMILES CCCCCC=CCC=CCCCCCCCC(=O)[O-]
REMARK SMILES IDX 11 1 12 2 13 3 14 4 15 5 16 6 17 7 18 8 19 9 20 10 10 11
REMARK SMILES IDX 9 12 8 13 7 14 6 15 5 16 4 17 3 18 2 19 1 20
REMARK H PARENT
REMARK Flexibility Score: inf
ROOT
ATOM      1  C   UNL     1      23.258  11.818  35.466  1.00  0.00     0.027 C 
ENDROOT
BRANCH   1   2
ATOM      2  C   UNL     1      24.318  11.594  34.377  1.00  0.00     0.004 C 
BRANCH   2   3
ATOM      3  C   UNL     1      25.732  11.457  34.966  1.00  0.00     0.000 C 
BRANCH   3   4
ATOM      4  C   UNL     1      26.314  12.803  35.424  1.00  0.00     0.000 C 
BRANCH   4   5
ATOM      5  C   UNL     1      27.644  13.141  34.731  1.00  0.00     0.000 C 
BRANCH   5   6
ATOM      6  C   UNL     1      28.162  12.005  33.832  1.00  0.00     0.006 C 
BRANCH   6   7
ATOM      7  C   UNL     1      28.302  12.397  32.350  1.00  0.00     0.053 C 
BRANCH   7   8
ATOM      8  C   UNL     1      27.298  11.714  31.472  1.00  0.00     0.041 C 
ATOM      9  O   UNL     1      26.123  12.160  31.384  1.00  0.00    -0.550 OA
ATOM     10  O   UNL     1      27.669  10.603  30.726  1.00  0.00    -0.550 OA
ENDBRANCH   7   8
ENDBRANCH   6   7
ENDBRANCH   5   6
ENDBRANCH   4   5
ENDBRANCH   3   4
ENDBRANCH   2   3
ENDBRANCH   1   2
BRANCH   1  11
ATOM     11  C   UNL     1      22.623  10.524  35.911  1.00  0.00    -0.031 C 
ATOM     12  C   UNL     1      21.333  10.194  35.712  1.00  0.00    -0.027 C 
BRANCH  12  13
ATOM     13  C   UNL     1      20.340  11.034  34.947  1.00  0.00     0.054 C 
BRANCH  13  14
ATOM     14  C   UNL     1      19.816  12.170  35.790  1.00  0.00    -0.027 C 
ATOM     15  C   UNL     1      20.008  13.476  35.527  1.00  0.00    -0.031 C 
BRANCH  15  16
ATOM     16  C   UNL     1      20.741  14.021  34.324  1.00  0.00     0.027 C 
BRANCH  16  17
ATOM     17  C   UNL     1      19.795  14.213  33.132  1.00  0.00     0.004 C 
BRANCH  17  18
ATOM     18  C   UNL     1      20.131  13.266  31.969  1.00  0.00     0.000 C 
BRANCH  18  19
ATOM     19  C   UNL     1      21.598  12.811  31.983  1.00  0.00    -0.003 C 
ATOM     20  C   UNL     1      21.764  11.330  31.645  1.00  0.00     0.004 C 
ENDBRANCH  18  19
ENDBRANCH  17  18
ENDBRANCH  16  17
ENDBRANCH  15  16
ENDBRANCH  13  14
ENDBRANCH  12  13
ENDBRANCH   1  11
TORSDOF 14
ENDMDL
MODEL 3
REMARK VINA RESULT:    -5.479      1.125      2.686
REMARK INTER + INTRA:         -12.039
REMARK INTER:                  -9.968
REMARK INTRA:                  -2.071
REMARK UNBOUND:                -2.077
REMARK SMILES CCCCCC=CCC=CCCCCCCCC(=O)[O-]
REMARK SMILES IDX 11 1 12 2 13 3 14 4 15 5 16 6 17 7 18 8 19 9 20 10 10 11
REMARK SMILES IDX 9 12 8 13 7 14 6 15 5 16 4 17 3 18 2 19 1 20
REMARK H PARENT
REMARK Flexibility Score: inf
ROOT
ATOM      1  C   UNL     1      23.839  12.606  35.836  1.00  0.00     0.027 C 
ENDROOT
BRANCH   1   2
ATOM      2  C   UNL     1      25.349  12.377  36.000  1.00  0.00     0.004 C 
BRANCH   2   3
ATOM      3  C   UNL     1      25.830  11.129  35.241  1.00  0.00     0.000 C 
BRANCH   3   4
ATOM      4  C   UNL     1      27.285  11.253  34.763  1.00  0.00     0.000 C 
BRANCH   4   5
ATOM      5  C   UNL     1      27.695  12.708  34.481  1.00  0.00     0.000 C 
BRANCH   5   6
ATOM      6  C   UNL     1      27.837  13.014  32.979  1.00  0.00     0.006 C 
BRANCH   6   7
ATOM      7  C   UNL     1      26.537  12.823  32.178  1.00  0.00     0.053 C 
BRANCH   7   8
ATOM      8  C   UNL     1      26.698  11.874  31.029  1.00  0.00     0.041 C 
ATOM      9  O   UNL     1      25.837  11.836  30.111  1.00  0.00    -0.550 OA
ATOM     10  O   UNL     1      27.817  11.054  30.956  1.00  0.00    -0.550 OA
ENDBRANCH   7   8
ENDBRANCH   6   7
ENDBRANCH   5   6
ENDBRANCH   4   5
ENDBRANCH   3   4
ENDBRANCH   2   3
ENDBRANCH   1   2
BRANCH   1  11
ATOM     11  C   UNL     1      23.317  12.033  34.542  1.00  0.00    -0.031 C 
ATOM     12  C   UNL     1      22.436  11.019  34.452  1.00  0.00    -0.027 C 
BRANCH  12  13
ATOM     13  C   UNL     1      21.775  10.348  35.631  1.00  0.00     0.054 C 
BRANCH  13  14
ATOM     14  C   UNL     1      20.303  10.134  35.387  1.00  0.00    -0.027 C 
ATOM     15  C   UNL     1      19.336  11.021  35.685  1.00  0.00    -0.031 C 
BRANCH  15  16
ATOM     16  C   UNL     1      19.569  12.394  36.271  1.00  0.00     0.027 C 
BRANCH  16  17
ATOM     17  C   UNL     1      18.632  13.436  35.646  1.00  0.00     0.004 C 
BRANCH  17  18
ATOM     18  C   UNL     1      18.807  13.529  34.121  1.00  0.00     0.000 C 
BRANCH  18  19
ATOM     19  C   UNL     1      20.193  14.055  33.718  1.00  0.00    -0.003 C 
ATOM     20  C   UNL     1      20.631  13.573  32.335  1.00  0.00     0.004 C 
ENDBRANCH  18  19
ENDBRANCH  17  18
ENDBRANCH  16  17
ENDBRANCH  15  16
ENDBRANCH  13  14
ENDBRANCH  12  13
ENDBRANCH   1  11
TORSDOF 14
ENDMDL
MODEL 4
REMARK VINA RESULT:    -5.383      1.076      1.731
REMARK INTER + INTRA:         -11.865
REMARK INTER:                  -9.505
REMARK INTRA:                  -2.360
REMARK UNBOUND:                -2.077
REMARK SMILES CCCCCC=CCC=CCCCCCCCC(=O)[O-]
REMARK SMILES IDX 11 1 12 2 13 3 14 4 15 5 16 6 17 7 18 8 19 9 20 10 10 11
REMARK SMILES IDX 9 12 8 13 7 14 6 15 5 16 4 17 3 18 2 19 1 20
REMARK H PARENT
REMARK Flexibility Score: inf
ROOT
ATOM      1  C   UNL     1      23.486  11.122  35.505  1.00  0.00     0.027 C 
ENDROOT
BRANCH   1   2
ATOM      2  C   UNL     1      24.954  11.341  35.901  1.00  0.00     0.004 C 
BRANCH   2   3
ATOM      3  C   UNL     1      25.307  12.835  36.008  1.00  0.00     0.000 C 
BRANCH   3   4
ATOM      4  C   UNL     1      26.376  13.262  34.991  1.00  0.00     0.000 C 
BRANCH   4   5
ATOM      5  C   UNL     1      27.702  12.505  35.169  1.00  0.00     0.000 C 
BRANCH   5   6
ATOM      6  C   UNL     1      28.204  11.851  33.869  1.00  0.00     0.006 C 
BRANCH   6   7
ATOM      7  C   UNL     1      27.093  11.583  32.837  1.00  0.00     0.053 C 
BRANCH   7   8
ATOM      8  C   UNL     1      27.464  12.030  31.456  1.00  0.00     0.041 C 
ATOM      9  O   UNL     1      26.666  11.860  30.497  1.00  0.00    -0.550 OA
ATOM     10  O   UNL     1      28.680  12.664  31.234  1.00  0.00    -0.550 OA
ENDBRANCH   7   8
ENDBRANCH   6   7
ENDBRANCH   5   6
ENDBRANCH   4   5
ENDBRANCH   3   4
ENDBRANCH   2   3
ENDBRANCH   1   2
BRANCH   1  11
ATOM     11  C   UNL     1      23.221  11.521  34.075  1.00  0.00    -0.031 C 
ATOM     12  C   UNL     1      22.367  12.489  33.693  1.00  0.00    -0.027 C 
BRANCH  12  13
ATOM     13  C   UNL     1      21.598  13.377  34.640  1.00  0.00     0.054 C 
BRANCH  13  14
ATOM     14  C   UNL     1      20.334  13.897  34.002  1.00  0.00    -0.027 C 
ATOM     15  C   UNL     1      19.087  13.537  34.357  1.00  0.00    -0.031 C 
BRANCH  15  16
ATOM     16  C   UNL     1      18.745  12.587  35.482  1.00  0.00     0.027 C 
BRANCH  16  17
ATOM     17  C   UNL     1      18.692  11.135  34.991  1.00  0.00     0.004 C 
BRANCH  17  18
ATOM     18  C   UNL     1      19.690  10.235  35.739  1.00  0.00     0.000 C 
BRANCH  18  19
ATOM     19  C   UNL     1      20.423   9.262  34.803  1.00  0.00    -0.003 C 
ATOM     20  C   UNL     1      20.123   9.520  33.326  1.00  0.00     0.004 C 
ENDBRANCH  18  19
ENDBRANCH  17  18
ENDBRANCH  16  17
ENDBRANCH  15  16
ENDBRANCH  13  14
ENDBRANCH  12  13
ENDBRANCH   1  11
TORSDOF 14
ENDMDL
MODEL 5
REMARK VINA RESULT:    -5.302      1.117      2.757
REMARK INTER + INTRA:         -11.719
REMARK INTER:                  -9.578
REMARK INTRA:                  -2.140
REMARK UNBOUND:                -2.077
REMARK SMILES CCCCCC=CCC=CCCCCCCCC(=O)[O-]
REMARK SMILES IDX 11 1 12 2 13 3 14 4 15 5 16 6 17 7 18 8 19 9 20 10 10 11
REMARK SMILES IDX 9 12 8 13 7 14 6 15 5 16 4 17 3 18 2 19 1 20
REMARK H PARENT
REMARK Flexibility Score: inf
ROOT
ATOM      1  C   UNL     1      22.467  11.862  35.860  1.00  0.00     0.027 C 
ENDROOT
BRANCH   1   2
ATOM      2  C   UNL     1      23.854  12.250  35.326  1.00  0.00     0.004 C 
BRANCH   2   3
ATOM      3  C   UNL     1      24.910  11.171  35.622  1.00  0.00     0.000 C 
BRANCH   3   4
ATOM      4  C   UNL     1      26.248  11.446  34.917  1.00  0.00     0.000 C 
BRANCH   4   5
ATOM      5  C   UNL     1      26.780  12.864  35.185  1.00  0.00     0.000 C 
BRANCH   5   6
ATOM      6  C   UNL     1      27.645  13.411  34.036  1.00  0.00     0.006 C 
BRANCH   6   7
ATOM      7  C   UNL     1      28.311  12.318  33.181  1.00  0.00     0.053 C 
BRANCH   7   8
ATOM      8  C   UNL     1      28.002  12.454  31.721  1.00  0.00     0.041 C 
ATOM      9  O   UNL     1      26.815  12.357  31.311  1.00  0.00    -0.550 OA
ATOM     10  O   UNL     1      29.022  12.719  30.817  1.00  0.00    -0.550 OA
ENDBRANCH   7   8
ENDBRANCH   6   7
ENDBRANCH   5   6
ENDBRANCH   4   5
ENDBRANCH   3   4
ENDBRANCH   2   3
ENDBRANCH   1   2
BRANCH   1  11
ATOM     11  C   UNL     1      22.256  10.369  35.851  1.00  0.00    -0.031 C 
ATOM     12  C   UNL     1      21.274   9.737  35.181  1.00  0.00    -0.027 C 
BRANCH  12  13
ATOM     13  C   UNL     1      20.278  10.417  34.274  1.00  0.00     0.054 C 
BRANCH  13  14
ATOM     14  C   UNL     1      20.550  10.103  32.824  1.00  0.00    -0.027 C 
ATOM     15  C   UNL     1      21.166  10.930  31.959  1.00  0.00    -0.031 C 
BRANCH  15  16
ATOM     16  C   UNL     1      21.725  12.290  32.307  1.00  0.00     0.027 C 
BRANCH  16  17
ATOM     17  C   UNL     1      20.905  13.414  31.661  1.00  0.00     0.004 C 
BRANCH  17  18
ATOM     18  C   UNL     1      19.921  14.055  32.653  1.00  0.00     0.000 C 
BRANCH  18  19
ATOM     19  C   UNL     1      20.511  14.192  34.065  1.00  0.00    -0.003 C 
ATOM     20  C   UNL     1      19.526  13.786  35.161  1.00  0.00     0.004 C 
ENDBRANCH  18  19
ENDBRANCH  17  18
ENDBRANCH  16  17
ENDBRANCH  15  16
ENDBRANCH  13  14
ENDBRANCH  12  13
ENDBRANCH   1  11
TORSDOF 14
ENDMDL
MODEL 6
REMARK VINA RESULT:    -5.265      2.405      6.546
REMARK INTER + INTRA:         -11.650
REMARK INTER:                  -9.288
REMARK INTRA:                  -2.362
REMARK UNBOUND:                -2.077
REMARK SMILES CCCCCC=CCC=CCCCCCCCC(=O)[O-]
REMARK SMILES IDX 11 1 12 2 13 3 14 4 15 5 16 6 17 7 18 8 19 9 20 10 10 11
REMARK SMILES IDX 9 12 8 13 7 14 6 15 5 16 4 17 3 18 2 19 1 20
REMARK H PARENT
REMARK Flexibility Score: inf
ROOT
ATOM      1  C   UNL     1      22.189  10.960  35.675  1.00  0.00     0.027 C 
ENDROOT
BRANCH   1   2
ATOM      2  C   UNL     1      20.696  11.229  35.433  1.00  0.00     0.004 C 
BRANCH   2   3
ATOM      3  C   UNL     1      20.285  12.645  35.872  1.00  0.00     0.000 C 
BRANCH   3   4
ATOM      4  C   UNL     1      19.595  13.434  34.748  1.00  0.00     0.000 C 
BRANCH   4   5
ATOM      5  C   UNL     1      20.594  14.170  33.840  1.00  0.00     0.000 C 
BRANCH   5   6
ATOM      6  C   UNL     1      20.699  13.553  32.434  1.00  0.00     0.006 C 
BRANCH   6   7
ATOM      7  C   UNL     1      21.843  12.534  32.284  1.00  0.00     0.053 C 
BRANCH   7   8
ATOM      8  C   UNL     1      21.453  11.339  31.469  1.00  0.00     0.041 C 
ATOM      9  O   UNL     1      21.680  11.313  30.230  1.00  0.00    -0.550 OA
ATOM     10  O   UNL     1      20.866  10.240  32.083  1.00  0.00    -0.550 OA
ENDBRANCH   7   8
ENDBRANCH   6   7
ENDBRANCH   5   6
ENDBRANCH   4   5
ENDBRANCH   3   4
ENDBRANCH   2   3
ENDBRANCH   1   2
BRANCH   1  11
ATOM     11  C   UNL     1      22.974  12.237  35.836  1.00  0.00    -0.031 C 
ATOM     12  C   UNL     1      24.172  12.478  35.272  1.00  0.00    -0.027 C 
BRANCH  12  13
ATOM     13  C   UNL     1      24.882  11.537  34.328  1.00  0.00     0.054 C 
BRANCH  13  14
ATOM     14  C   UNL     1      26.179  11.042  34.918  1.00  0.00    -0.027 C 
ATOM     15  C   UNL     1      27.382  11.609  34.716  1.00  0.00    -0.031 C 
BRANCH  15  16
ATOM     16  C   UNL     1      27.628  12.858  33.903  1.00  0.00     0.027 C 
BRANCH  16  17
ATOM     17  C   UNL     1      28.255  12.527  32.543  1.00  0.00     0.004 C 
BRANCH  17  18
ATOM     18  C   UNL     1      27.196  12.152  31.494  1.00  0.00     0.000 C 
BRANCH  18  19
ATOM     19  C   UNL     1      26.175  13.276  31.260  1.00  0.00    -0.003 C 
ATOM     20  C   UNL     1      24.923  12.796  30.525  1.00  0.00     0.004 C 
ENDBRANCH  18  19
ENDBRANCH  17  18
ENDBRANCH  16  17
ENDBRANCH  15  16
ENDBRANCH  13  14
ENDBRANCH  12  13
ENDBRANCH   1  11
TORSDOF 14
ENDMDL
MODEL 7
REMARK VINA RESULT:    -5.224      1.783      4.066
REMARK INTER + INTRA:         -11.576
REMARK INTER:                  -9.277
REMARK INTRA:                  -2.299
REMARK UNBOUND:                -2.077
REMARK SMILES CCCCCC=CCC=CCCCCCCCC(=O)[O-]
REMARK SMILES IDX 11 1 12 2 13 3 14 4 15 5 16 6 17 7 18 8 19 9 20 10 10 11
REMARK SMILES IDX 9 12 8 13 7 14 6 15 5 16 4 17 3 18 2 19 1 20
REMARK H PARENT
REMARK Flexibility Score: inf
ROOT
ATOM      1  C   UNL     1      21.433  12.415  32.053  1.00  0.00     0.027 C 
ENDROOT
BRANCH   1   2
ATOM      2  C   UNL     1      22.412  12.684  30.901  1.00  0.00     0.004 C 
BRANCH   2   3
ATOM      3  C   UNL     1      23.876  12.482  31.327  1.00  0.00     0.000 C 
BRANCH   3   4
ATOM      4  C   UNL     1      24.872  12.890  30.230  1.00  0.00     0.000 C 
BRANCH   4   5
ATOM      5  C   UNL     1      26.321  12.960  30.740  1.00  0.00     0.000 C 
BRANCH   5   6
ATOM      6  C   UNL     1      26.422  12.928  32.276  1.00  0.00     0.006 C 
BRANCH   6   7
ATOM      7  C   UNL     1      27.082  11.653  32.831  1.00  0.00     0.053 C 
BRANCH   7   8
ATOM      8  C   UNL     1      27.729  11.868  34.165  1.00  0.00     0.041 C 
ATOM      9  O   UNL     1      28.069  10.882  34.872  1.00  0.00    -0.550 OA
ATOM     10  O   UNL     1      27.987  13.157  34.613  1.00  0.00    -0.550 OA
ENDBRANCH   7   8
ENDBRANCH   6   7
ENDBRANCH   5   6
ENDBRANCH   4   5
ENDBRANCH   3   4
ENDBRANCH   2   3
ENDBRANCH   1   2
BRANCH   1  11
ATOM     11  C   UNL     1      20.415  13.519  32.200  1.00  0.00    -0.031 C 
ATOM     12  C   UNL     1      20.131  14.152  33.353  1.00  0.00    -0.027 C 
BRANCH  12  13
ATOM     13  C   UNL     1      20.839  13.909  34.664  1.00  0.00     0.054 C 
BRANCH  13  14
ATOM     14  C   UNL     1      19.962  13.152  35.630  1.00  0.00    -0.027 C 
ATOM     15  C   UNL     1      20.005  11.822  35.830  1.00  0.00    -0.031 C 
BRANCH  15  16
ATOM     16  C   UNL     1      20.966  10.874  35.154  1.00  0.00     0.027 C 
BRANCH  16  17
ATOM     17  C   UNL     1      22.334  10.873  35.848  1.00  0.00     0.004 C 
BRANCH  17  18
ATOM     18  C   UNL     1      23.481  11.167  34.867  1.00  0.00     0.000 C 
BRANCH  18  19
ATOM     19  C   UNL     1      24.073  12.572  35.058  1.00  0.00    -0.003 C 
ATOM     20  C   UNL     1      24.934  12.687  36.316  1.00  0.00     0.004 C 
ENDBRANCH  18  19
ENDBRANCH  17  18
ENDBRANCH  16  17
ENDBRANCH  15  16
ENDBRANCH  13  14
ENDBRANCH  12  13
ENDBRANCH   1  11
TORSDOF 14
ENDMDL
MODEL 8
REMARK VINA RESULT:    -5.211      3.113      5.965
REMARK INTER + INTRA:         -11.553
REMARK INTER:                  -9.300
REMARK INTRA:                  -2.253
REMARK UNBOUND:                -2.077
REMARK SMILES CCCCCC=CCC=CCCCCCCCC(=O)[O-]
REMARK SMILES IDX 11 1 12 2 13 3 14 4 15 5 16 6 17 7 18 8 19 9 20 10 10 11
REMARK SMILES IDX 9 12 8 13 7 14 6 15 5 16 4 17 3 18 2 19 1 20
REMARK H PARENT
REMARK Flexibility Score: inf
ROOT
ATOM      1  C   UNL     1      26.670  13.129  32.087  1.00  0.00     0.027 C 
ENDROOT
BRANCH   1   2
ATOM      2  C   UNL     1      25.863  12.265  31.106  1.00  0.00     0.004 C 
BRANCH   2   3
ATOM      3  C   UNL     1      24.920  13.109  30.232  1.00  0.00     0.000 C 
BRANCH   3   4
ATOM      4  C   UNL     1      23.441  12.752  30.444  1.00  0.00     0.000 C 
BRANCH   4   5
ATOM      5  C   UNL     1      23.151  12.244  31.867  1.00  0.00     0.000 C 
BRANCH   5   6
ATOM      6  C   UNL     1      21.649  12.062  32.148  1.00  0.00     0.006 C 
BRANCH   6   7
ATOM      7  C   UNL     1      20.871  13.384  32.268  1.00  0.00     0.053 C 
BRANCH   7   8
ATOM      8  C   UNL     1      20.210  13.549  33.603  1.00  0.00     0.041 C 
ATOM      9  O   UNL     1      20.542  14.495  34.364  1.00  0.00    -0.550 OA
ATOM     10  O   UNL     1      19.202  12.675  33.991  1.00  0.00    -0.550 OA
ENDBRANCH   7   8
ENDBRANCH   6   7
ENDBRANCH   5   6
ENDBRANCH   4   5
ENDBRANCH   3   4
ENDBRANCH   2   3
ENDBRANCH   1   2
BRANCH   1  11
ATOM     11  C   UNL     1      28.000  12.505  32.427  1.00  0.00    -0.031 C 
ATOM     12  C   UNL     1      28.395  12.170  33.670  1.00  0.00    -0.027 C 
BRANCH  12  13
ATOM     13  C   UNL     1      27.539  12.295  34.906  1.00  0.00     0.054 C 
BRANCH  13  14
ATOM     14  C   UNL     1      26.618  11.112  35.060  1.00  0.00    -0.027 C 
ATOM     15  C   UNL     1      25.288  11.190  35.250  1.00  0.00    -0.031 C 
BRANCH  15  16
ATOM     16  C   UNL     1      24.493  12.473  35.299  1.00  0.00     0.027 C 
BRANCH  16  17
ATOM     17  C   UNL     1      23.020  12.207  35.636  1.00  0.00     0.004 C 
BRANCH  17  18
ATOM     18  C   UNL     1      22.692  10.705  35.646  1.00  0.00     0.000 C 
BRANCH  18  19
ATOM     19  C   UNL     1      21.184  10.431  35.743  1.00  0.00    -0.003 C 
ATOM     20  C   UNL     1      20.680   9.492  34.647  1.00  0.00     0.004 C 
ENDBRANCH  18  19
ENDBRANCH  17  18
ENDBRANCH  16  17
ENDBRANCH  15  16
ENDBRANCH  13  14
ENDBRANCH  12  13
ENDBRANCH   1  11
TORSDOF 14
ENDMDL
MODEL 9
REMARK VINA RESULT:    -5.119      1.151      2.412
REMARK INTER + INTRA:         -11.386
REMARK INTER:                  -8.975
REMARK INTRA:                  -2.410
REMARK UNBOUND:                -2.077
REMARK SMILES CCCCCC=CCC=CCCCCCCCC(=O)[O-]
REMARK SMILES IDX 11 1 12 2 13 3 14 4 15 5 16 6 17 7 18 8 19 9 20 10 10 11
REMARK SMILES IDX 9 12 8 13 7 14 6 15 5 16 4 17 3 18 2 19 1 20
REMARK H PARENT
REMARK Flexibility Score: inf
ROOT
ATOM      1  C   UNL     1      22.972  12.580  35.320  1.00  0.00     0.027 C 
ENDROOT
BRANCH   1   2
ATOM      2  C   UNL     1      23.702  11.263  35.018  1.00  0.00     0.004 C 
BRANCH   2   3
ATOM      3  C   UNL     1      25.130  11.500  34.498  1.00  0.00     0.000 C 
BRANCH   3   4
ATOM      4  C   UNL     1      25.880  12.574  35.302  1.00  0.00     0.000 C 
BRANCH   4   5
ATOM      5  C   UNL     1      27.407  12.465  35.158  1.00  0.00     0.000 C 
BRANCH   5   6
ATOM      6  C   UNL     1      27.840  11.558  33.992  1.00  0.00     0.006 C 
BRANCH   6   7
ATOM      7  C   UNL     1      28.352  12.327  32.761  1.00  0.00     0.053 C 
BRANCH   7   8
ATOM      8  C   UNL     1      27.636  11.946  31.500  1.00  0.00     0.041 C 
ATOM      9  O   UNL     1      27.565  10.738  31.150  1.00  0.00    -0.550 OA
ATOM     10  O   UNL     1      27.020  12.923  30.729  1.00  0.00    -0.550 OA
ENDBRANCH   7   8
ENDBRANCH   6   7
ENDBRANCH   5   6
ENDBRANCH   4   5
ENDBRANCH   3   4
ENDBRANCH   2   3
ENDBRANCH   1   2
BRANCH   1  11
ATOM     11  C   UNL     1      21.566  12.346  35.816  1.00  0.00    -0.031 C 
ATOM     12  C   UNL     1      20.494  13.075  35.453  1.00  0.00    -0.027 C 
BRANCH  12  13
ATOM     13  C   UNL     1      20.517  14.191  34.437  1.00  0.00     0.054 C 
BRANCH  13  14
ATOM     14  C   UNL     1      19.684  13.850  33.227  1.00  0.00    -0.027 C 
ATOM     15  C   UNL     1      20.156  13.282  32.102  1.00  0.00    -0.031 C 
BRANCH  15  16
ATOM     16  C   UNL     1      21.587  12.852  31.881  1.00  0.00     0.027 C 
BRANCH  16  17
ATOM     17  C   UNL     1      21.717  11.324  31.871  1.00  0.00     0.004 C 
BRANCH  17  18
ATOM     18  C   UNL     1      20.402  10.629  32.262  1.00  0.00     0.000 C 
BRANCH  18  19
ATOM     19  C   UNL     1      20.571   9.677  33.456  1.00  0.00    -0.003 C 
ATOM     20  C   UNL     1      19.364   9.683  34.394  1.00  0.00     0.004 C 
ENDBRANCH  18  19
ENDBRANCH  17  18
ENDBRANCH  16  17
ENDBRANCH  15  16
ENDBRANCH  13  14
ENDBRANCH  12  13
ENDBRANCH   1  11
TORSDOF 14
ENDMDL
