MODEL 1
REMARK VINA RESULT:    -5.940      0.000      0.000
REMARK INTER + INTRA:          -5.940
REMARK INTER:                  -5.940
REMARK INTRA:                   0.000
REMARK UNBOUND:                 0.000
REMARK SMILES CC1=CC(=O)[C@@H]2C[C@H]1C2(C)C
REMARK SMILES IDX 1 1 2 2 3 3 4 4 5 5 6 6 7 7 8 8 9 9 10 10 11 11
REMARK H PARENT
REMARK Flexibility Score: inf
ROOT
ATOM      1  C   UNL     1       3.750  17.417  -5.750  1.00  0.00     0.040 C 
ATOM      2  C   UNL     1       4.100  16.106  -6.378  1.00  0.00    -0.066 C 
ATOM      3  C   UNL     1       4.888  15.186  -5.752  1.00  0.00     0.047 C 
ATOM      4  C   UNL     1       5.151  13.917  -6.505  1.00  0.00     0.159 C 
ATOM      5  O   UNL     1       5.827  12.975  -6.017  1.00  0.00    -0.295 OA
ATOM      6  C   UNL     1       4.541  13.849  -7.906  1.00  0.00     0.067 C 
ATOM      7  C   UNL     1       4.876  15.221  -8.531  1.00  0.00     0.021 C 
ATOM      8  C   UNL     1       3.623  15.760  -7.804  1.00  0.00     0.022 C 
ATOM      9  C   UNL     1       3.058  14.309  -7.822  1.00  0.00    -0.019 C 
ATOM     10  C   UNL     1       2.204  13.838  -6.611  1.00  0.00     0.012 C 
ATOM     11  C   UNL     1       2.271  14.001  -9.121  1.00  0.00     0.012 C 
ENDROOT
TORSDOF 0
ENDMDL
MODEL 2
REMARK VINA RESULT:    -5.876      1.546      3.115
REMARK INTER + INTRA:          -5.876
REMARK INTER:                  -5.876
REMARK INTRA:                   0.000
REMARK UNBOUND:                 0.000
REMARK SMILES CC1=CC(=O)[C@@H]2C[C@H]1C2(C)C
REMARK SMILES IDX 1 1 2 2 3 3 4 4 5 5 6 6 7 7 8 8 9 9 10 10 11 11
REMARK H PARENT
REMARK Flexibility Score: inf
ROOT
ATOM      1  C   UNL     1       5.946  11.740  -7.631  1.00  0.00     0.040 C 
ATOM      2  C   UNL     1       4.962  12.770  -7.172  1.00  0.00    -0.066 C 
ATOM      3  C   UNL     1       5.267  13.691  -6.215  1.00  0.00     0.047 C 
ATOM      4  C   UNL     1       4.180  14.660  -5.858  1.00  0.00     0.159 C 
ATOM      5  O   UNL     1       4.351  15.584  -5.021  1.00  0.00    -0.295 OA
ATOM      6  C   UNL     1       2.850  14.447  -6.583  1.00  0.00     0.067 C 
ATOM      7  C   UNL     1       2.611  12.924  -6.492  1.00  0.00     0.021 C 
ATOM      8  C   UNL     1       3.525  12.794  -7.730  1.00  0.00     0.022 C 
ATOM      9  C   UNL     1       3.138  14.256  -8.099  1.00  0.00    -0.019 C 
ATOM     10  C   UNL     1       4.216  15.156  -8.766  1.00  0.00     0.012 C 
ATOM     11  C   UNL     1       1.849  14.324  -8.957  1.00  0.00     0.012 C 
ENDROOT
TORSDOF 0
ENDMDL
MODEL 3
REMARK VINA RESULT:    -5.809      1.634      2.237
REMARK INTER + INTRA:          -5.809
REMARK INTER:                  -5.809
REMARK INTRA:                   0.000
REMARK UNBOUND:                 0.000
REMARK SMILES CC1=CC(=O)[C@@H]2C[C@H]1C2(C)C
REMARK SMILES IDX 1 1 2 2 3 3 4 4 5 5 6 6 7 7 8 8 9 9 10 10 11 11
REMARK H PARENT
REMARK Flexibility Score: inf
ROOT
ATOM      1  C   UNL     1       4.056  15.942  -7.995  1.00  0.00     0.040 C 
ATOM      2  C   UNL     1       4.656  14.608  -7.684  1.00  0.00    -0.066 C 
ATOM      3  C   UNL     1       5.256  14.340  -6.489  1.00  0.00     0.047 C 
ATOM      4  C   UNL     1       5.811  12.958  -6.322  1.00  0.00     0.159 C 
ATOM      5  O   UNL     1       6.349  12.575  -5.251  1.00  0.00    -0.295 OA
ATOM      6  C   UNL     1       5.676  12.046  -7.543  1.00  0.00     0.067 C 
ATOM      7  C   UNL     1       6.115  12.934  -8.728  1.00  0.00     0.021 C 
ATOM      8  C   UNL     1       4.671  13.483  -8.739  1.00  0.00     0.022 C 
ATOM      9  C   UNL     1       4.219  12.148  -8.078  1.00  0.00    -0.019 C 
ATOM     10  C   UNL     1       3.055  12.195  -7.048  1.00  0.00     0.012 C 
ATOM     11  C   UNL     1       3.898  11.052  -9.125  1.00  0.00     0.012 C 
ENDROOT
TORSDOF 0
ENDMDL
MODEL 4
REMARK VINA RESULT:    -5.644      1.566      3.517
REMARK INTER + INTRA:          -5.644
REMARK INTER:                  -5.644
REMARK INTRA:                   0.000
REMARK UNBOUND:                 0.000
REMARK SMILES CC1=CC(=O)[C@@H]2C[C@H]1C2(C)C
REMARK SMILES IDX 1 1 2 2 3 3 4 4 5 5 6 6 7 7 8 8 9 9 10 10 11 11
REMARK H PARENT
REMARK Flexibility Score: inf
ROOT
ATOM      1  C   UNL     1       3.751  11.006  -9.125  1.00  0.00     0.040 C 
ATOM      2  C   UNL     1       4.242  12.007  -8.128  1.00  0.00    -0.066 C 
ATOM      3  C   UNL     1       5.245  11.727  -7.248  1.00  0.00     0.047 C 
ATOM      4  C   UNL     1       5.630  12.830  -6.310  1.00  0.00     0.159 C 
ATOM      5  O   UNL     1       6.569  12.710  -5.480  1.00  0.00    -0.295 OA
ATOM      6  C   UNL     1       4.803  14.111  -6.431  1.00  0.00     0.067 C 
ATOM      7  C   UNL     1       3.344  13.612  -6.505  1.00  0.00     0.021 C 
ATOM      8  C   UNL     1       3.585  13.398  -8.016  1.00  0.00     0.022 C 
ATOM      9  C   UNL     1       4.694  14.489  -7.936  1.00  0.00    -0.019 C 
ATOM     10  C   UNL     1       5.953  14.324  -8.833  1.00  0.00     0.012 C 
ATOM     11  C   UNL     1       4.130  15.917  -8.145  1.00  0.00     0.012 C 
ENDROOT
TORSDOF 0
ENDMDL
MODEL 5
REMARK VINA RESULT:    -5.529      1.698      2.594
REMARK INTER + INTRA:          -5.529
REMARK INTER:                  -5.529
REMARK INTRA:                   0.000
REMARK UNBOUND:                 0.000
REMARK SMILES CC1=CC(=O)[C@@H]2C[C@H]1C2(C)C
REMARK SMILES IDX 1 1 2 2 3 3 4 4 5 5 6 6 7 7 8 8 9 9 10 10 11 11
REMARK H PARENT
REMARK Flexibility Score: inf
ROOT
ATOM      1  C   UNL     1       2.325  15.501  -5.326  1.00  0.00     0.040 C 
ATOM      2  C   UNL     1       2.998  14.456  -6.159  1.00  0.00    -0.066 C 
ATOM      3  C   UNL     1       2.452  13.222  -6.359  1.00  0.00     0.047 C 
ATOM      4  C   UNL     1       3.241  12.281  -7.218  1.00  0.00     0.159 C 
ATOM      5  O   UNL     1       2.825  11.130  -7.511  1.00  0.00    -0.295 OA
ATOM      6  C   UNL     1       4.586  12.817  -7.713  1.00  0.00     0.067 C 
ATOM      7  C   UNL     1       5.219  13.460  -6.460  1.00  0.00     0.021 C 
ATOM      8  C   UNL     1       4.382  14.716  -6.788  1.00  0.00     0.022 C 
ATOM      9  C   UNL     1       4.370  14.251  -8.274  1.00  0.00    -0.019 C 
ATOM     10  C   UNL     1       3.097  14.530  -9.122  1.00  0.00     0.012 C 
ATOM     11  C   UNL     1       5.601  14.767  -9.061  1.00  0.00     0.012 C 
ENDROOT
TORSDOF 0
ENDMDL
MODEL 6
REMARK VINA RESULT:    -5.527      1.732      3.076
REMARK INTER + INTRA:          -5.527
REMARK INTER:                  -5.527
REMARK INTRA:                   0.000
REMARK UNBOUND:                 0.000
REMARK SMILES CC1=CC(=O)[C@@H]2C[C@H]1C2(C)C
REMARK SMILES IDX 1 1 2 2 3 3 4 4 5 5 6 6 7 7 8 8 9 9 10 10 11 11
REMARK H PARENT
REMARK Flexibility Score: inf
ROOT
ATOM      1  C   UNL     1       5.994  14.498  -9.125  1.00  0.00     0.040 C 
ATOM      2  C   UNL     1       4.722  13.982  -8.531  1.00  0.00    -0.066 C 
ATOM      3  C   UNL     1       4.458  12.649  -8.421  1.00  0.00     0.047 C 
ATOM      4  C   UNL     1       3.142  12.283  -7.804  1.00  0.00     0.159 C 
ATOM      5  O   UNL     1       2.800  11.088  -7.609  1.00  0.00    -0.295 OA
ATOM      6  C   UNL     1       2.244  13.464  -7.428  1.00  0.00     0.067 C 
ATOM      7  C   UNL     1       2.307  14.392  -8.661  1.00  0.00     0.021 C 
ATOM      8  C   UNL     1       3.617  14.952  -8.064  1.00  0.00     0.022 C 
ATOM      9  C   UNL     1       3.101  14.512  -6.663  1.00  0.00    -0.019 C 
ATOM     10  C   UNL     1       4.139  14.002  -5.624  1.00  0.00     0.012 C 
ATOM     11  C   UNL     1       2.232  15.603  -5.987  1.00  0.00     0.012 C 
ENDROOT
TORSDOF 0
ENDMDL
MODEL 7
REMARK VINA RESULT:    -5.515      1.853      3.492
REMARK INTER + INTRA:          -5.515
REMARK INTER:                  -5.515
REMARK INTRA:                   0.000
REMARK UNBOUND:                 0.000
REMARK SMILES CC1=CC(=O)[C@@H]2C[C@H]1C2(C)C
REMARK SMILES IDX 1 1 2 2 3 3 4 4 5 5 6 6 7 7 8 8 9 9 10 10 11 11
REMARK H PARENT
REMARK Flexibility Score: inf
ROOT
ATOM      1  C   UNL     1       3.008  10.823  -8.189  1.00  0.00     0.040 C 
ATOM      2  C   UNL     1       3.731  12.119  -7.994  1.00  0.00    -0.066 C 
ATOM      3  C   UNL     1       4.792  12.484  -8.768  1.00  0.00     0.047 C 
ATOM      4  C   UNL     1       5.414  13.811  -8.456  1.00  0.00     0.159 C 
ATOM      5  O   UNL     1       6.371  14.279  -9.125  1.00  0.00    -0.295 OA
ATOM      6  C   UNL     1       4.803  14.557  -7.267  1.00  0.00     0.067 C 
ATOM      7  C   UNL     1       4.664  13.474  -6.175  1.00  0.00     0.021 C 
ATOM      8  C   UNL     1       3.334  13.082  -6.856  1.00  0.00     0.022 C 
ATOM      9  C   UNL     1       3.255  14.534  -7.412  1.00  0.00    -0.019 C 
ATOM     10  C   UNL     1       2.641  14.749  -8.824  1.00  0.00     0.012 C 
ATOM     11  C   UNL     1       2.557  15.504  -6.425  1.00  0.00     0.012 C 
ENDROOT
TORSDOF 0
ENDMDL
MODEL 8
REMARK VINA RESULT:    -5.420      1.943      3.540
REMARK INTER + INTRA:          -5.420
REMARK INTER:                  -5.420
REMARK INTRA:                   0.000
REMARK UNBOUND:                 0.000
REMARK SMILES CC1=CC(=O)[C@@H]2C[C@H]1C2(C)C
REMARK SMILES IDX 1 1 2 2 3 3 4 4 5 5 6 6 7 7 8 8 9 9 10 10 11 11
REMARK H PARENT
REMARK Flexibility Score: inf
ROOT
ATOM      1  C   UNL     1       5.664  11.909  -7.635  1.00  0.00     0.040 C 
ATOM      2  C   UNL     1       4.729  13.076  -7.674  1.00  0.00    -0.066 C 
ATOM      3  C   UNL     1       3.507  13.010  -8.274  1.00  0.00     0.047 C 
ATOM      4  C   UNL     1       2.681  14.260  -8.233  1.00  0.00     0.159 C 
ATOM      5  O   UNL     1       1.519  14.314  -8.713  1.00  0.00    -0.295 OA
ATOM      6  C   UNL     1       3.348  15.464  -7.565  1.00  0.00     0.067 C 
ATOM      7  C   UNL     1       4.774  15.481  -8.157  1.00  0.00     0.021 C 
ATOM      8  C   UNL     1       5.141  14.438  -7.078  1.00  0.00     0.022 C 
ATOM      9  C   UNL     1       3.971  15.000  -6.218  1.00  0.00    -0.019 C 
ATOM     10  C   UNL     1       3.165  14.008  -5.334  1.00  0.00     0.012 C 
ATOM     11  C   UNL     1       4.413  16.193  -5.332  1.00  0.00     0.012 C 
ENDROOT
TORSDOF 0
ENDMDL
