MODEL 1
REMARK VINA RESULT:    -5.083      0.000      0.000
REMARK INTER + INTRA:         -10.401
REMARK INTER:                  -8.649
REMARK INTRA:                  -1.751
REMARK UNBOUND:                -1.751
REMARK SMILES CCCCCCCCCCCCCC(=O)[O-]
REMARK SMILES IDX 8 1 9 2 10 3 11 4 12 5 13 6 14 7 15 8 16 9 7 10 6 11 5 12
REMARK SMILES IDX 4 13 3 14 2 15 1 16
REMARK H PARENT
REMARK Flexibility Score: inf
ROOT
ATOM      1  C   UNL     1      13.077  14.904 160.493  1.00  0.00     0.000 C 
ENDROOT
BRANCH   1   2
ATOM      2  C   UNL     1      11.998  15.974 160.255  1.00  0.00     0.000 C 
BRANCH   2   3
ATOM      3  C   UNL     1      11.082  16.184 161.474  1.00  0.00     0.000 C 
BRANCH   3   4
ATOM      4  C   UNL     1      11.155  17.583 162.111  1.00  0.00     0.000 C 
BRANCH   4   5
ATOM      5  C   UNL     1      10.917  17.564 163.628  1.00  0.00     0.006 C 
BRANCH   5   6
ATOM      6  C   UNL     1      10.382  16.203 164.081  1.00  0.00     0.053 C 
BRANCH   6   7
ATOM      7  C   UNL     1      11.044  15.777 165.354  1.00  0.00     0.041 C 
ATOM      8  O   UNL     1      12.273  15.503 165.368  1.00  0.00    -0.550 OA
ATOM      9  O   UNL     1      10.314  15.728 166.534  1.00  0.00    -0.550 OA
ENDBRANCH   6   7
ENDBRANCH   5   6
ENDBRANCH   4   5
ENDBRANCH   3   4
ENDBRANCH   2   3
ENDBRANCH   1   2
BRANCH   1  10
ATOM     10  C   UNL     1      13.805  15.101 161.832  1.00  0.00     0.000 C 
BRANCH  10  11
ATOM     11  C   UNL     1      13.729  13.855 162.732  1.00  0.00    -0.000 C 
BRANCH  11  12
ATOM     12  C   UNL     1      12.700  12.827 162.215  1.00  0.00    -0.000 C 
BRANCH  12  13
ATOM     13  C   UNL     1      11.392  12.808 163.024  1.00  0.00    -0.000 C 
BRANCH  13  14
ATOM     14  C   UNL     1      10.139  12.859 162.137  1.00  0.00    -0.000 C 
BRANCH  14  15
ATOM     15  C   UNL     1      10.173  11.756 161.074  1.00  0.00    -0.003 C 
ATOM     16  C   UNL     1       9.735  10.416 161.657  1.00  0.00     0.004 C 
ENDBRANCH  14  15
ENDBRANCH  13  14
ENDBRANCH  12  13
ENDBRANCH  11  12
ENDBRANCH  10  11
ENDBRANCH   1  10
TORSDOF 12
ENDMDL
MODEL 2
REMARK VINA RESULT:    -4.864      2.514      3.338
REMARK INTER + INTRA:         -10.027
REMARK INTER:                  -8.575
REMARK INTRA:                  -1.452
REMARK UNBOUND:                -1.751
REMARK SMILES CCCCCCCCCCCCCC(=O)[O-]
REMARK SMILES IDX 8 1 9 2 10 3 11 4 12 5 13 6 14 7 15 8 16 9 7 10 6 11 5 12
REMARK SMILES IDX 4 13 3 14 2 15 1 16
REMARK H PARENT
REMARK Flexibility Score: inf
ROOT
ATOM      1  C   UNL     1      14.207  15.421 163.259  1.00  0.00     0.000 C 
ENDROOT
BRANCH   1   2
ATOM      2  C   UNL     1      13.463  16.727 163.587  1.00  0.00     0.000 C 
BRANCH   2   3
ATOM      3  C   UNL     1      12.147  16.491 164.350  1.00  0.00     0.000 C 
BRANCH   3   4
ATOM      4  C   UNL     1      10.890  17.072 163.678  1.00  0.00     0.000 C 
BRANCH   4   5
ATOM      5  C   UNL     1      11.150  17.570 162.248  1.00  0.00     0.006 C 
BRANCH   5   6
ATOM      6  C   UNL     1      10.801  16.490 161.220  1.00  0.00     0.053 C 
BRANCH   6   7
ATOM      7  C   UNL     1      11.621  16.660 159.981  1.00  0.00     0.041 C 
ATOM      8  O   UNL     1      11.460  17.672 159.249  1.00  0.00    -0.550 OA
ATOM      9  O   UNL     1      12.596  15.725 159.658  1.00  0.00    -0.550 OA
ENDBRANCH   6   7
ENDBRANCH   5   6
ENDBRANCH   4   5
ENDBRANCH   3   4
ENDBRANCH   2   3
ENDBRANCH   1   2
BRANCH   1  10
ATOM     10  C   UNL     1      13.383  14.175 163.622  1.00  0.00     0.000 C 
BRANCH  10  11
ATOM     11  C   UNL     1      13.535  13.047 162.586  1.00  0.00    -0.000 C 
BRANCH  11  12
ATOM     12  C   UNL     1      12.260  12.863 161.737  1.00  0.00    -0.000 C 
BRANCH  12  13
ATOM     13  C   UNL     1      10.967  13.232 162.484  1.00  0.00    -0.000 C 
BRANCH  13  14
ATOM     14  C   UNL     1       9.778  12.339 162.099  1.00  0.00    -0.000 C 
BRANCH  14  15
ATOM     15  C   UNL     1      10.244  11.121 161.294  1.00  0.00    -0.003 C 
ATOM     16  C   UNL     1       9.373   9.903 161.587  1.00  0.00     0.004 C 
ENDBRANCH  14  15
ENDBRANCH  13  14
ENDBRANCH  12  13
ENDBRANCH  11  12
ENDBRANCH  10  11
ENDBRANCH   1  10
TORSDOF 12
ENDMDL
MODEL 3
REMARK VINA RESULT:    -4.822      2.687      4.734
REMARK INTER + INTRA:          -9.956
REMARK INTER:                  -7.820
REMARK INTRA:                  -2.136
REMARK UNBOUND:                -1.751
REMARK SMILES CCCCCCCCCCCCCC(=O)[O-]
REMARK SMILES IDX 8 1 9 2 10 3 11 4 12 5 13 6 14 7 15 8 16 9 7 10 6 11 5 12
REMARK SMILES IDX 4 13 3 14 2 15 1 16
REMARK H PARENT
REMARK Flexibility Score: inf
ROOT
ATOM      1  C   UNL     1      13.623  13.753 163.623  1.00  0.00     0.000 C 
ENDROOT
BRANCH   1   2
ATOM      2  C   UNL     1      12.727  12.918 162.692  1.00  0.00     0.000 C 
BRANCH   2   3
ATOM      3  C   UNL     1      11.246  12.938 163.110  1.00  0.00     0.000 C 
BRANCH   3   4
ATOM      4  C   UNL     1      10.323  13.769 162.200  1.00  0.00     0.000 C 
BRANCH   4   5
ATOM      5  C   UNL     1      11.072  14.437 161.036  1.00  0.00     0.006 C 
BRANCH   5   6
ATOM      6  C   UNL     1      10.409  15.760 160.645  1.00  0.00     0.053 C 
BRANCH   6   7
ATOM      7  C   UNL     1      11.390  16.655 159.955  1.00  0.00     0.041 C 
ATOM      8  O   UNL     1      11.230  17.904 159.974  1.00  0.00    -0.550 OA
ATOM      9  O   UNL     1      12.506  16.113 159.333  1.00  0.00    -0.550 OA
ENDBRANCH   6   7
ENDBRANCH   5   6
ENDBRANCH   4   5
ENDBRANCH   3   4
ENDBRANCH   2   3
ENDBRANCH   1   2
BRANCH   1  10
ATOM     10  C   UNL     1      14.565  14.683 162.842  1.00  0.00     0.000 C 
BRANCH  10  11
ATOM     11  C   UNL     1      14.102  16.151 162.874  1.00  0.00    -0.000 C 
BRANCH  11  12
ATOM     12  C   UNL     1      13.120  16.424 164.033  1.00  0.00    -0.000 C 
BRANCH  12  13
ATOM     13  C   UNL     1      11.842  17.159 163.594  1.00  0.00    -0.000 C 
BRANCH  13  14
ATOM     14  C   UNL     1      10.609  16.760 164.418  1.00  0.00    -0.000 C 
BRANCH  14  15
ATOM     15  C   UNL     1      10.956  15.658 165.426  1.00  0.00    -0.003 C 
ATOM     16  C   UNL     1      10.034  15.714 166.640  1.00  0.00     0.004 C 
ENDBRANCH  14  15
ENDBRANCH  13  14
ENDBRANCH  12  13
ENDBRANCH  11  12
ENDBRANCH  10  11
ENDBRANCH   1  10
TORSDOF 12
ENDMDL
MODEL 4
REMARK VINA RESULT:    -4.809      2.010      4.685
REMARK INTER + INTRA:          -9.934
REMARK INTER:                  -8.075
REMARK INTRA:                  -1.859
REMARK UNBOUND:                -1.751
REMARK SMILES CCCCCCCCCCCCCC(=O)[O-]
REMARK SMILES IDX 8 1 9 2 10 3 11 4 12 5 13 6 14 7 15 8 16 9 7 10 6 11 5 12
REMARK SMILES IDX 4 13 3 14 2 15 1 16
REMARK H PARENT
REMARK Flexibility Score: inf
ROOT
ATOM      1  C   UNL     1      10.262  15.432 160.547  1.00  0.00     0.000 C 
ENDROOT
BRANCH   1   2
ATOM      2  C   UNL     1       9.875  14.604 161.785  1.00  0.00     0.000 C 
BRANCH   2   3
ATOM      3  C   UNL     1      10.360  13.145 161.705  1.00  0.00     0.000 C 
BRANCH   3   4
ATOM      4  C   UNL     1      11.516  12.789 162.657  1.00  0.00     0.000 C 
BRANCH   4   5
ATOM      5  C   UNL     1      12.879  13.291 162.159  1.00  0.00     0.006 C 
BRANCH   5   6
ATOM      6  C   UNL     1      13.844  13.505 163.329  1.00  0.00     0.053 C 
BRANCH   6   7
ATOM      7  C   UNL     1      14.847  14.564 162.994  1.00  0.00     0.041 C 
ATOM      8  O   UNL     1      16.058  14.260 162.827  1.00  0.00    -0.550 OA
ATOM      9  O   UNL     1      14.438  15.879 162.818  1.00  0.00    -0.550 OA
ENDBRANCH   6   7
ENDBRANCH   5   6
ENDBRANCH   4   5
ENDBRANCH   3   4
ENDBRANCH   2   3
ENDBRANCH   1   2
BRANCH   1  10
ATOM     10  C   UNL     1      11.531  16.267 160.780  1.00  0.00     0.000 C 
BRANCH  10  11
ATOM     11  C   UNL     1      11.215  17.700 161.244  1.00  0.00    -0.000 C 
BRANCH  11  12
ATOM     12  C   UNL     1      11.609  17.933 162.718  1.00  0.00    -0.000 C 
BRANCH  12  13
ATOM     13  C   UNL     1      10.403  18.108 163.656  1.00  0.00    -0.000 C 
BRANCH  13  14
ATOM     14  C   UNL     1      10.193  16.908 164.591  1.00  0.00    -0.000 C 
BRANCH  14  15
ATOM     15  C   UNL     1      11.465  16.059 164.690  1.00  0.00    -0.003 C 
ATOM     16  C   UNL     1      11.281  14.904 165.670  1.00  0.00     0.004 C 
ENDBRANCH  14  15
ENDBRANCH  13  14
ENDBRANCH  12  13
ENDBRANCH  11  12
ENDBRANCH  10  11
ENDBRANCH   1  10
TORSDOF 12
ENDMDL
MODEL 5
REMARK VINA RESULT:    -4.806      1.436      3.519
REMARK INTER + INTRA:          -9.929
REMARK INTER:                  -8.176
REMARK INTRA:                  -1.753
REMARK UNBOUND:                -1.751
REMARK SMILES CCCCCCCCCCCCCC(=O)[O-]
REMARK SMILES IDX 8 1 9 2 10 3 11 4 12 5 13 6 14 7 15 8 16 9 7 10 6 11 5 12
REMARK SMILES IDX 4 13 3 14 2 15 1 16
REMARK H PARENT
REMARK Flexibility Score: inf
ROOT
ATOM      1  C   UNL     1      10.416  13.467 161.470  1.00  0.00     0.000 C 
ENDROOT
BRANCH   1   2
ATOM      2  C   UNL     1       9.774  14.863 161.412  1.00  0.00     0.000 C 
BRANCH   2   3
ATOM      3  C   UNL     1      10.603  15.871 160.596  1.00  0.00     0.000 C 
BRANCH   3   4
ATOM      4  C   UNL     1      11.246  17.003 161.417  1.00  0.00     0.000 C 
BRANCH   4   5
ATOM      5  C   UNL     1      10.604  17.178 162.802  1.00  0.00     0.006 C 
BRANCH   5   6
ATOM      6  C   UNL     1      11.562  16.735 163.910  1.00  0.00     0.053 C 
BRANCH   6   7
ATOM      7  C   UNL     1      10.799  16.223 165.091  1.00  0.00     0.041 C 
ATOM      8  O   UNL     1       9.679  16.719 165.384  1.00  0.00    -0.550 OA
ATOM      9  O   UNL     1      11.301  15.167 165.839  1.00  0.00    -0.550 OA
ENDBRANCH   6   7
ENDBRANCH   5   6
ENDBRANCH   4   5
ENDBRANCH   3   4
ENDBRANCH   2   3
ENDBRANCH   1   2
BRANCH   1  10
ATOM     10  C   UNL     1      10.784  13.054 162.904  1.00  0.00     0.000 C 
BRANCH  10  11
ATOM     11  C   UNL     1      12.284  13.232 163.200  1.00  0.00    -0.000 C 
BRANCH  11  12
ATOM     12  C   UNL     1      13.124  13.318 161.909  1.00  0.00    -0.000 C 
BRANCH  12  13
ATOM     13  C   UNL     1      13.883  14.647 161.758  1.00  0.00    -0.000 C 
BRANCH  13  14
ATOM     14  C   UNL     1      14.728  14.998 162.992  1.00  0.00    -0.000 C 
BRANCH  14  15
ATOM     15  C   UNL     1      15.796  13.928 163.248  1.00  0.00    -0.003 C 
ATOM     16  C   UNL     1      17.082  14.243 162.491  1.00  0.00     0.004 C 
ENDBRANCH  14  15
ENDBRANCH  13  14
ENDBRANCH  12  13
ENDBRANCH  11  12
ENDBRANCH  10  11
ENDBRANCH   1  10
TORSDOF 12
ENDMDL
MODEL 6
REMARK VINA RESULT:    -4.736      2.716      4.482
REMARK INTER + INTRA:          -9.810
REMARK INTER:                  -7.887
REMARK INTRA:                  -1.923
REMARK UNBOUND:                -1.751
REMARK SMILES CCCCCCCCCCCCCC(=O)[O-]
REMARK SMILES IDX 8 1 9 2 10 3 11 4 12 5 13 6 14 7 15 8 16 9 7 10 6 11 5 12
REMARK SMILES IDX 4 13 3 14 2 15 1 16
REMARK H PARENT
REMARK Flexibility Score: inf
ROOT
ATOM      1  C   UNL     1      11.521  14.355 165.279  1.00  0.00     0.000 C 
ENDROOT
BRANCH   1   2
ATOM      2  C   UNL     1      11.181  15.611 164.460  1.00  0.00     0.000 C 
BRANCH   2   3
ATOM      3  C   UNL     1      12.371  16.577 164.321  1.00  0.00     0.000 C 
BRANCH   3   4
ATOM      4  C   UNL     1      12.419  17.368 163.001  1.00  0.00     0.000 C 
BRANCH   4   5
ATOM      5  C   UNL     1      11.033  17.560 162.367  1.00  0.00     0.006 C 
BRANCH   5   6
ATOM      6  C   UNL     1      10.782  16.519 161.273  1.00  0.00     0.053 C 
BRANCH   6   7
ATOM      7  C   UNL     1      11.460  16.920 160.001  1.00  0.00     0.041 C 
ATOM      8  O   UNL     1      11.255  18.060 159.506  1.00  0.00    -0.550 OA
ATOM      9  O   UNL     1      12.355  16.054 159.388  1.00  0.00    -0.550 OA
ENDBRANCH   6   7
ENDBRANCH   5   6
ENDBRANCH   4   5
ENDBRANCH   3   4
ENDBRANCH   2   3
ENDBRANCH   1   2
BRANCH   1  10
ATOM     10  C   UNL     1      11.560  13.087 164.412  1.00  0.00     0.000 C 
BRANCH  10  11
ATOM     11  C   UNL     1      10.829  13.270 163.070  1.00  0.00    -0.000 C 
BRANCH  11  12
ATOM     12  C   UNL     1      11.737  12.948 161.865  1.00  0.00    -0.000 C 
BRANCH  12  13
ATOM     13  C   UNL     1      13.238  13.065 162.179  1.00  0.00    -0.000 C 
BRANCH  13  14
ATOM     14  C   UNL     1      13.826  14.430 161.792  1.00  0.00    -0.000 C 
BRANCH  14  15
ATOM     15  C   UNL     1      15.112  14.716 162.576  1.00  0.00    -0.003 C 
ATOM     16  C   UNL     1      15.208  13.833 163.816  1.00  0.00     0.004 C 
ENDBRANCH  14  15
ENDBRANCH  13  14
ENDBRANCH  12  13
ENDBRANCH  11  12
ENDBRANCH  10  11
ENDBRANCH   1  10
TORSDOF 12
ENDMDL
MODEL 7
REMARK VINA RESULT:    -4.697      2.358      4.076
REMARK INTER + INTRA:          -9.743
REMARK INTER:                  -7.837
REMARK INTRA:                  -1.906
REMARK UNBOUND:                -1.751
REMARK SMILES CCCCCCCCCCCCCC(=O)[O-]
REMARK SMILES IDX 8 1 9 2 10 3 11 4 12 5 13 6 14 7 15 8 16 9 7 10 6 11 5 12
REMARK SMILES IDX 4 13 3 14 2 15 1 16
REMARK H PARENT
REMARK Flexibility Score: inf
ROOT
ATOM      1  C   UNL     1      10.507  17.977 163.685  1.00  0.00     0.000 C 
ENDROOT
BRANCH   1   2
ATOM      2  C   UNL     1      10.293  16.672 164.470  1.00  0.00     0.000 C 
BRANCH   2   3
ATOM      3  C   UNL     1      11.611  16.048 164.966  1.00  0.00     0.000 C 
BRANCH   3   4
ATOM      4  C   UNL     1      11.681  14.513 164.872  1.00  0.00     0.000 C 
BRANCH   4   5
ATOM      5  C   UNL     1      12.869  14.018 164.032  1.00  0.00     0.006 C 
BRANCH   5   6
ATOM      6  C   UNL     1      13.727  15.191 163.552  1.00  0.00     0.053 C 
BRANCH   6   7
ATOM      7  C   UNL     1      14.643  14.755 162.452  1.00  0.00     0.041 C 
ATOM      8  O   UNL     1      14.266  14.817 161.252  1.00  0.00    -0.550 OA
ATOM      9  O   UNL     1      15.930  14.327 162.748  1.00  0.00    -0.550 OA
ENDBRANCH   6   7
ENDBRANCH   5   6
ENDBRANCH   4   5
ENDBRANCH   3   4
ENDBRANCH   2   3
ENDBRANCH   1   2
BRANCH   1  10
ATOM     10  C   UNL     1      11.610  17.844 162.624  1.00  0.00     0.000 C 
BRANCH  10  11
ATOM     11  C   UNL     1      11.049  17.499 161.233  1.00  0.00    -0.000 C 
BRANCH  11  12
ATOM     12  C   UNL     1      11.088  15.983 160.951  1.00  0.00    -0.000 C 
BRANCH  12  13
ATOM     13  C   UNL     1       9.718  15.297 161.086  1.00  0.00    -0.000 C 
BRANCH  13  14
ATOM     14  C   UNL     1       9.786  13.970 161.855  1.00  0.00    -0.000 C 
BRANCH  14  15
ATOM     15  C   UNL     1      10.803  13.017 161.218  1.00  0.00    -0.003 C 
ATOM     16  C   UNL     1      10.308  11.574 161.263  1.00  0.00     0.004 C 
ENDBRANCH  14  15
ENDBRANCH  13  14
ENDBRANCH  12  13
ENDBRANCH  11  12
ENDBRANCH  10  11
ENDBRANCH   1  10
TORSDOF 12
ENDMDL
MODEL 8
REMARK VINA RESULT:    -4.656      2.175      4.798
REMARK INTER + INTRA:          -9.674
REMARK INTER:                  -7.986
REMARK INTRA:                  -1.688
REMARK UNBOUND:                -1.751
REMARK SMILES CCCCCCCCCCCCCC(=O)[O-]
REMARK SMILES IDX 8 1 9 2 10 3 11 4 12 5 13 6 14 7 15 8 16 9 7 10 6 11 5 12
REMARK SMILES IDX 4 13 3 14 2 15 1 16
REMARK H PARENT
REMARK Flexibility Score: inf
ROOT
ATOM      1  C   UNL     1      13.486  16.554 164.038  1.00  0.00     0.000 C 
ENDROOT
BRANCH   1   2
ATOM      2  C   UNL     1      13.942  15.718 162.830  1.00  0.00     0.000 C 
BRANCH   2   3
ATOM      3  C   UNL     1      14.665  14.422 163.237  1.00  0.00     0.000 C 
BRANCH   3   4
ATOM      4  C   UNL     1      13.888  13.124 162.949  1.00  0.00     0.000 C 
BRANCH   4   5
ATOM      5  C   UNL     1      12.593  13.364 162.158  1.00  0.00     0.006 C 
BRANCH   5   6
ATOM      6  C   UNL     1      11.384  12.788 162.900  1.00  0.00     0.053 C 
BRANCH   6   7
ATOM      7  C   UNL     1      10.191  12.738 161.999  1.00  0.00     0.041 C 
ATOM      8  O   UNL     1       9.921  11.684 161.363  1.00  0.00    -0.550 OA
ATOM      9  O   UNL     1       9.350  13.838 161.897  1.00  0.00    -0.550 OA
ENDBRANCH   6   7
ENDBRANCH   5   6
ENDBRANCH   4   5
ENDBRANCH   3   4
ENDBRANCH   2   3
ENDBRANCH   1   2
BRANCH   1  10
ATOM     10  C   UNL     1      12.220  15.982 164.696  1.00  0.00     0.000 C 
BRANCH  10  11
ATOM     11  C   UNL     1      10.930  16.472 164.015  1.00  0.00    -0.000 C 
BRANCH  11  12
ATOM     12  C   UNL     1      11.036  17.944 163.564  1.00  0.00    -0.000 C 
BRANCH  12  13
ATOM     13  C   UNL     1      11.051  18.118 162.036  1.00  0.00    -0.000 C 
BRANCH  13  14
ATOM     14  C   UNL     1      10.818  16.802 161.281  1.00  0.00    -0.000 C 
BRANCH  14  15
ATOM     15  C   UNL     1      11.337  16.894 159.842  1.00  0.00    -0.003 C 
ATOM     16  C   UNL     1      12.443  15.874 159.590  1.00  0.00     0.004 C 
ENDBRANCH  14  15
ENDBRANCH  13  14
ENDBRANCH  12  13
ENDBRANCH  11  12
ENDBRANCH  10  11
ENDBRANCH   1  10
TORSDOF 12
ENDMDL
MODEL 9
REMARK VINA RESULT:    -4.656      1.350      3.874
REMARK INTER + INTRA:          -9.674
REMARK INTER:                  -7.918
REMARK INTRA:                  -1.756
REMARK UNBOUND:                -1.751
REMARK SMILES CCCCCCCCCCCCCC(=O)[O-]
REMARK SMILES IDX 8 1 9 2 10 3 11 4 12 5 13 6 14 7 15 8 16 9 7 10 6 11 5 12
REMARK SMILES IDX 4 13 3 14 2 15 1 16
REMARK H PARENT
REMARK Flexibility Score: inf
ROOT
ATOM      1  C   UNL     1      12.753  13.384 161.790  1.00  0.00     0.000 C 
ENDROOT
BRANCH   1   2
ATOM      2  C   UNL     1      13.834  13.225 162.872  1.00  0.00     0.000 C 
BRANCH   2   3
ATOM      3  C   UNL     1      14.549  14.548 163.205  1.00  0.00     0.000 C 
BRANCH   3   4
ATOM      4  C   UNL     1      13.726  15.820 162.931  1.00  0.00     0.000 C 
BRANCH   4   5
ATOM      5  C   UNL     1      13.144  16.444 164.208  1.00  0.00     0.006 C 
BRANCH   5   6
ATOM      6  C   UNL     1      11.623  16.270 164.258  1.00  0.00     0.053 C 
BRANCH   6   7
ATOM      7  C   UNL     1      11.241  15.307 165.338  1.00  0.00     0.041 C 
ATOM      8  O   UNL     1      11.653  14.117 165.300  1.00  0.00    -0.550 OA
ATOM      9  O   UNL     1      10.470  15.735 166.410  1.00  0.00    -0.550 OA
ENDBRANCH   6   7
ENDBRANCH   5   6
ENDBRANCH   4   5
ENDBRANCH   3   4
ENDBRANCH   2   3
ENDBRANCH   1   2
BRANCH   1  10
ATOM     10  C   UNL     1      11.443  12.676 162.167  1.00  0.00     0.000 C 
BRANCH  10  11
ATOM     11  C   UNL     1      10.223  13.269 161.440  1.00  0.00    -0.000 C 
BRANCH  11  12
ATOM     12  C   UNL     1      10.059  14.778 161.718  1.00  0.00    -0.000 C 
BRANCH  12  13
ATOM     13  C   UNL     1      10.080  15.642 160.446  1.00  0.00    -0.000 C 
BRANCH  13  14
ATOM     14  C   UNL     1      11.404  16.397 160.256  1.00  0.00    -0.000 C 
BRANCH  14  15
ATOM     15  C   UNL     1      11.162  17.904 160.121  1.00  0.00    -0.003 C 
ATOM     16  C   UNL     1      11.157  18.585 161.487  1.00  0.00     0.004 C 
ENDBRANCH  14  15
ENDBRANCH  13  14
ENDBRANCH  12  13
ENDBRANCH  11  12
ENDBRANCH  10  11
ENDBRANCH   1  10
TORSDOF 12
ENDMDL
