MODEL 1
REMARK VINA RESULT:    -5.422      0.000      0.000
REMARK INTER + INTRA:         -16.195
REMARK INTER:                 -12.396
REMARK INTRA:                  -3.799
REMARK UNBOUND:                -3.799
REMARK SMILES CCCCCCCCCCCCCCCCCCCCCCCC(=O)[O-]
REMARK SMILES IDX 13 1 14 2 15 3 16 4 17 5 18 6 19 7 20 8 21 9 22 10 23 11
REMARK SMILES IDX 24 12 25 13 26 14 12 15 11 16 10 17 9 18 8 19 7 20 6 21 5 22
REMARK SMILES IDX 4 23 3 24 2 25 1 26
REMARK H PARENT
REMARK Flexibility Score: inf
ROOT
ATOM      1  C   UNL     1     135.311 131.462 132.985  1.00  0.00     0.000 C 
ENDROOT
BRANCH   1   2
ATOM      2  C   UNL     1     135.514 132.887 132.448  1.00  0.00     0.000 C 
BRANCH   2   3
ATOM      3  C   UNL     1     135.889 133.854 133.582  1.00  0.00     0.000 C 
BRANCH   3   4
ATOM      4  C   UNL     1     135.836 135.331 133.151  1.00  0.00     0.000 C 
BRANCH   4   5
ATOM      5  C   UNL     1     137.209 136.022 133.041  1.00  0.00     0.000 C 
BRANCH   5   6
ATOM      6  C   UNL     1     137.836 135.876 131.644  1.00  0.00     0.000 C 
BRANCH   6   7
ATOM      7  C   UNL     1     136.787 135.912 130.519  1.00  0.00     0.000 C 
BRANCH   7   8
ATOM      8  C   UNL     1     136.852 134.676 129.604  1.00  0.00     0.000 C 
BRANCH   8   9
ATOM      9  C   UNL     1     136.355 134.978 128.173  1.00  0.00     0.000 C 
BRANCH   9  10
ATOM     10  C   UNL     1     137.325 134.509 127.071  1.00  0.00     0.006 C 
BRANCH  10  11
ATOM     11  C   UNL     1     138.780 134.352 127.537  1.00  0.00     0.053 C 
BRANCH  11  12
ATOM     12  C   UNL     1     139.548 135.634 127.420  1.00  0.00     0.041 C 
ATOM     13  O   UNL     1     139.020 136.642 126.879  1.00  0.00    -0.550 OA
ATOM     14  O   UNL     1     140.847 135.718 127.906  1.00  0.00    -0.550 OA
ENDBRANCH  11  12
ENDBRANCH  10  11
ENDBRANCH   9  10
ENDBRANCH   8   9
ENDBRANCH   7   8
ENDBRANCH   6   7
ENDBRANCH   5   6
ENDBRANCH   4   5
ENDBRANCH   3   4
ENDBRANCH   2   3
ENDBRANCH   1   2
BRANCH   1  15
ATOM     15  C   UNL     1     133.885 131.220 133.516  1.00  0.00     0.000 C 
BRANCH  15  16
ATOM     16  C   UNL     1     132.763 131.771 132.614  1.00  0.00     0.000 C 
BRANCH  16  17
ATOM     17  C   UNL     1     131.481 132.103 133.397  1.00  0.00     0.000 C 
BRANCH  17  18
ATOM     18  C   UNL     1     131.085 133.588 133.298  1.00  0.00    -0.000 C 
BRANCH  18  19
ATOM     19  C   UNL     1     132.250 134.588 133.403  1.00  0.00    -0.000 C 
BRANCH  19  20
ATOM     20  C   UNL     1     131.802 136.050 133.235  1.00  0.00    -0.000 C 
BRANCH  20  21
ATOM     21  C   UNL     1     131.955 136.558 131.791  1.00  0.00    -0.000 C 
BRANCH  21  22
ATOM     22  C   UNL     1     133.085 135.858 131.004  1.00  0.00    -0.000 C 
BRANCH  22  23
ATOM     23  C   UNL     1     132.603 135.335 129.641  1.00  0.00    -0.000 C 
BRANCH  23  24
ATOM     24  C   UNL     1     132.242 133.844 129.721  1.00  0.00    -0.000 C 
BRANCH  24  25
ATOM     25  C   UNL     1     130.740 133.588 129.519  1.00  0.00    -0.003 C 
ATOM     26  C   UNL     1     130.333 132.156 129.860  1.00  0.00     0.004 C 
ENDBRANCH  24  25
ENDBRANCH  23  24
ENDBRANCH  22  23
ENDBRANCH  21  22
ENDBRANCH  20  21
ENDBRANCH  19  20
ENDBRANCH  18  19
ENDBRANCH  17  18
ENDBRANCH  16  17
ENDBRANCH  15  16
ENDBRANCH   1  15
TORSDOF 22
ENDMDL
MODEL 2
REMARK VINA RESULT:    -5.406      2.540      4.374
REMARK INTER + INTRA:         -16.157
REMARK INTER:                 -12.364
REMARK INTRA:                  -3.793
REMARK UNBOUND:                -3.799
REMARK SMILES CCCCCCCCCCCCCCCCCCCCCCCC(=O)[O-]
REMARK SMILES IDX 13 1 14 2 15 3 16 4 17 5 18 6 19 7 20 8 21 9 22 10 23 11
REMARK SMILES IDX 24 12 25 13 26 14 12 15 11 16 10 17 9 18 8 19 7 20 6 21 5 22
REMARK SMILES IDX 4 23 3 24 2 25 1 26
REMARK H PARENT
REMARK Flexibility Score: inf
ROOT
ATOM      1  C   UNL     1     135.330 134.218 133.742  1.00  0.00     0.000 C 
ENDROOT
BRANCH   1   2
ATOM      2  C   UNL     1     136.029 132.899 133.374  1.00  0.00     0.000 C 
BRANCH   2   3
ATOM      3  C   UNL     1     135.032 131.730 133.376  1.00  0.00     0.000 C 
BRANCH   3   4
ATOM      4  C   UNL     1     135.708 130.367 133.137  1.00  0.00     0.000 C 
BRANCH   4   5
ATOM      5  C   UNL     1     135.800 129.940 131.660  1.00  0.00     0.000 C 
BRANCH   5   6
ATOM      6  C   UNL     1     134.792 130.680 130.765  1.00  0.00     0.000 C 
BRANCH   6   7
ATOM      7  C   UNL     1     135.476 131.508 129.664  1.00  0.00     0.000 C 
BRANCH   7   8
ATOM      8  C   UNL     1     135.320 133.025 129.876  1.00  0.00     0.000 C 
BRANCH   8   9
ATOM      9  C   UNL     1     133.895 133.410 130.331  1.00  0.00     0.000 C 
BRANCH   9  10
ATOM     10  C   UNL     1     133.443 134.798 129.836  1.00  0.00     0.006 C 
BRANCH  10  11
ATOM     11  C   UNL     1     134.432 135.931 130.148  1.00  0.00     0.053 C 
BRANCH  11  12
ATOM     12  C   UNL     1     134.663 136.817 128.961  1.00  0.00     0.041 C 
ATOM     13  O   UNL     1     133.733 137.026 128.137  1.00  0.00    -0.550 OA
ATOM     14  O   UNL     1     135.904 137.410 128.762  1.00  0.00    -0.550 OA
ENDBRANCH  11  12
ENDBRANCH  10  11
ENDBRANCH   9  10
ENDBRANCH   8   9
ENDBRANCH   7   8
ENDBRANCH   6   7
ENDBRANCH   5   6
ENDBRANCH   4   5
ENDBRANCH   3   4
ENDBRANCH   2   3
ENDBRANCH   1   2
BRANCH   1  15
ATOM     15  C   UNL     1     133.882 134.012 134.229  1.00  0.00     0.000 C 
BRANCH  15  16
ATOM     16  C   UNL     1     132.873 135.044 133.691  1.00  0.00     0.000 C 
BRANCH  16  17
ATOM     17  C   UNL     1     131.613 134.390 133.098  1.00  0.00     0.000 C 
BRANCH  17  18
ATOM     18  C   UNL     1     131.317 133.004 133.699  1.00  0.00    -0.000 C 
BRANCH  18  19
ATOM     19  C   UNL     1     131.404 131.825 132.713  1.00  0.00    -0.000 C 
BRANCH  19  20
ATOM     20  C   UNL     1     130.178 131.722 131.791  1.00  0.00    -0.000 C 
BRANCH  20  21
ATOM     21  C   UNL     1     130.451 132.254 130.374  1.00  0.00    -0.000 C 
BRANCH  21  22
ATOM     22  C   UNL     1     130.603 131.142 129.314  1.00  0.00    -0.000 C 
BRANCH  22  23
ATOM     23  C   UNL     1     129.264 130.452 129.004  1.00  0.00    -0.000 C 
BRANCH  23  24
ATOM     24  C   UNL     1     128.587 131.087 127.780  1.00  0.00    -0.000 C 
BRANCH  24  25
ATOM     25  C   UNL     1     127.137 131.512 128.062  1.00  0.00    -0.003 C 
ATOM     26  C   UNL     1     127.045 132.690 129.031  1.00  0.00     0.004 C 
ENDBRANCH  24  25
ENDBRANCH  23  24
ENDBRANCH  22  23
ENDBRANCH  21  22
ENDBRANCH  20  21
ENDBRANCH  19  20
ENDBRANCH  18  19
ENDBRANCH  17  18
ENDBRANCH  16  17
ENDBRANCH  15  16
ENDBRANCH   1  15
TORSDOF 22
ENDMDL
MODEL 3
REMARK VINA RESULT:    -5.382      3.033      4.444
REMARK INTER + INTRA:         -16.102
REMARK INTER:                 -12.015
REMARK INTRA:                  -4.087
REMARK UNBOUND:                -3.799
REMARK SMILES CCCCCCCCCCCCCCCCCCCCCCCC(=O)[O-]
REMARK SMILES IDX 13 1 14 2 15 3 16 4 17 5 18 6 19 7 20 8 21 9 22 10 23 11
REMARK SMILES IDX 24 12 25 13 26 14 12 15 11 16 10 17 9 18 8 19 7 20 6 21 5 22
REMARK SMILES IDX 4 23 3 24 2 25 1 26
REMARK H PARENT
REMARK Flexibility Score: inf
ROOT
ATOM      1  C   UNL     1     136.230 134.415 133.725  1.00  0.00     0.000 C 
ENDROOT
BRANCH   1   2
ATOM      2  C   UNL     1     136.343 135.765 133.000  1.00  0.00     0.000 C 
BRANCH   2   3
ATOM      3  C   UNL     1     137.653 135.852 132.202  1.00  0.00     0.000 C 
BRANCH   3   4
ATOM      4  C   UNL     1     137.441 135.703 130.684  1.00  0.00     0.000 C 
BRANCH   4   5
ATOM      5  C   UNL     1     135.980 135.841 130.218  1.00  0.00     0.000 C 
BRANCH   5   6
ATOM      6  C   UNL     1     135.547 134.705 129.277  1.00  0.00     0.000 C 
BRANCH   6   7
ATOM      7  C   UNL     1     136.634 133.628 129.112  1.00  0.00     0.000 C 
BRANCH   7   8
ATOM      8  C   UNL     1     136.213 132.264 129.690  1.00  0.00     0.000 C 
BRANCH   8   9
ATOM      9  C   UNL     1     135.232 131.512 128.763  1.00  0.00     0.000 C 
BRANCH   9  10
ATOM     10  C   UNL     1     134.488 130.357 129.459  1.00  0.00     0.006 C 
BRANCH  10  11
ATOM     11  C   UNL     1     135.335 129.092 129.660  1.00  0.00     0.053 C 
BRANCH  11  12
ATOM     12  C   UNL     1     136.048 128.688 128.404  1.00  0.00     0.041 C 
ATOM     13  O   UNL     1     135.397 128.247 127.420  1.00  0.00    -0.550 OA
ATOM     14  O   UNL     1     137.431 128.796 128.320  1.00  0.00    -0.550 OA
ENDBRANCH  11  12
ENDBRANCH  10  11
ENDBRANCH   9  10
ENDBRANCH   8   9
ENDBRANCH   7   8
ENDBRANCH   6   7
ENDBRANCH   5   6
ENDBRANCH   4   5
ENDBRANCH   3   4
ENDBRANCH   2   3
ENDBRANCH   1   2
BRANCH   1  15
ATOM     15  C   UNL     1     135.375 133.391 132.953  1.00  0.00     0.000 C 
BRANCH  15  16
ATOM     16  C   UNL     1     135.731 131.918 133.232  1.00  0.00     0.000 C 
BRANCH  16  17
ATOM     17  C   UNL     1     134.489 131.041 133.472  1.00  0.00     0.000 C 
BRANCH  17  18
ATOM     18  C   UNL     1     133.293 131.441 132.590  1.00  0.00    -0.000 C 
BRANCH  18  19
ATOM     19  C   UNL     1     132.013 131.830 133.351  1.00  0.00    -0.000 C 
BRANCH  19  20
ATOM     20  C   UNL     1     131.170 132.880 132.610  1.00  0.00    -0.000 C 
BRANCH  20  21
ATOM     21  C   UNL     1     131.195 132.696 131.083  1.00  0.00    -0.000 C 
BRANCH  21  22
ATOM     22  C   UNL     1     131.781 133.906 130.323  1.00  0.00    -0.000 C 
BRANCH  22  23
ATOM     23  C   UNL     1     132.510 134.881 131.261  1.00  0.00    -0.000 C 
BRANCH  23  24
ATOM     24  C   UNL     1     131.817 136.251 131.279  1.00  0.00    -0.000 C 
BRANCH  24  25
ATOM     25  C   UNL     1     131.807 136.890 132.677  1.00  0.00    -0.003 C 
ATOM     26  C   UNL     1     132.803 136.235 133.633  1.00  0.00     0.004 C 
ENDBRANCH  24  25
ENDBRANCH  23  24
ENDBRANCH  22  23
ENDBRANCH  21  22
ENDBRANCH  20  21
ENDBRANCH  19  20
ENDBRANCH  18  19
ENDBRANCH  17  18
ENDBRANCH  16  17
ENDBRANCH  15  16
ENDBRANCH   1  15
TORSDOF 22
ENDMDL
MODEL 4
REMARK VINA RESULT:    -5.366      2.406      3.748
REMARK INTER + INTRA:         -16.068
REMARK INTER:                 -13.098
REMARK INTRA:                  -2.970
REMARK UNBOUND:                -3.799
REMARK SMILES CCCCCCCCCCCCCCCCCCCCCCCC(=O)[O-]
REMARK SMILES IDX 13 1 14 2 15 3 16 4 17 5 18 6 19 7 20 8 21 9 22 10 23 11
REMARK SMILES IDX 24 12 25 13 26 14 12 15 11 16 10 17 9 18 8 19 7 20 6 21 5 22
REMARK SMILES IDX 4 23 3 24 2 25 1 26
REMARK H PARENT
REMARK Flexibility Score: inf
ROOT
ATOM      1  C   UNL     1     136.283 134.177 133.724  1.00  0.00     0.000 C 
ENDROOT
BRANCH   1   2
ATOM      2  C   UNL     1     136.325 135.634 133.237  1.00  0.00     0.000 C 
BRANCH   2   3
ATOM      3  C   UNL     1     137.627 135.920 132.472  1.00  0.00     0.000 C 
BRANCH   3   4
ATOM      4  C   UNL     1     137.452 135.842 130.944  1.00  0.00     0.000 C 
BRANCH   4   5
ATOM      5  C   UNL     1     136.000 135.984 130.451  1.00  0.00     0.000 C 
BRANCH   5   6
ATOM      6  C   UNL     1     135.751 135.252 129.121  1.00  0.00     0.000 C 
BRANCH   6   7
ATOM      7  C   UNL     1     135.276 136.198 128.005  1.00  0.00     0.000 C 
BRANCH   7   8
ATOM      8  C   UNL     1     135.538 137.680 128.330  1.00  0.00     0.000 C 
BRANCH   8   9
ATOM      9  C   UNL     1     136.763 138.239 127.572  1.00  0.00     0.000 C 
BRANCH   9  10
ATOM     10  C   UNL     1     137.946 138.600 128.491  1.00  0.00     0.006 C 
BRANCH  10  11
ATOM     11  C   UNL     1     138.135 140.108 128.711  1.00  0.00     0.053 C 
BRANCH  11  12
ATOM     12  C   UNL     1     138.467 140.824 127.436  1.00  0.00     0.041 C 
ATOM     13  O   UNL     1     137.729 141.757 127.023  1.00  0.00    -0.550 OA
ATOM     14  O   UNL     1     139.589 140.459 126.701  1.00  0.00    -0.550 OA
ENDBRANCH  11  12
ENDBRANCH  10  11
ENDBRANCH   9  10
ENDBRANCH   8   9
ENDBRANCH   7   8
ENDBRANCH   6   7
ENDBRANCH   5   6
ENDBRANCH   4   5
ENDBRANCH   3   4
ENDBRANCH   2   3
ENDBRANCH   1   2
BRANCH   1  15
ATOM     15  C   UNL     1     135.418 133.270 132.826  1.00  0.00     0.000 C 
BRANCH  15  16
ATOM     16  C   UNL     1     135.563 131.763 133.109  1.00  0.00     0.000 C 
BRANCH  16  17
ATOM     17  C   UNL     1     134.218 131.086 133.429  1.00  0.00     0.000 C 
BRANCH  17  18
ATOM     18  C   UNL     1     133.055 131.631 132.580  1.00  0.00    -0.000 C 
BRANCH  18  19
ATOM     19  C   UNL     1     131.731 131.842 133.335  1.00  0.00    -0.000 C 
BRANCH  19  20
ATOM     20  C   UNL     1     131.207 133.284 133.237  1.00  0.00    -0.000 C 
BRANCH  20  21
ATOM     21  C   UNL     1     132.252 134.328 133.666  1.00  0.00    -0.000 C 
BRANCH  21  22
ATOM     22  C   UNL     1     131.921 135.763 133.202  1.00  0.00    -0.000 C 
BRANCH  22  23
ATOM     23  C   UNL     1     132.472 136.059 131.797  1.00  0.00    -0.000 C 
BRANCH  23  24
ATOM     24  C   UNL     1     131.720 137.229 131.146  1.00  0.00    -0.000 C 
BRANCH  24  25
ATOM     25  C   UNL     1     131.962 137.317 129.631  1.00  0.00    -0.003 C 
ATOM     26  C   UNL     1     132.152 138.753 129.145  1.00  0.00     0.004 C 
ENDBRANCH  24  25
ENDBRANCH  23  24
ENDBRANCH  22  23
ENDBRANCH  21  22
ENDBRANCH  20  21
ENDBRANCH  19  20
ENDBRANCH  18  19
ENDBRANCH  17  18
ENDBRANCH  16  17
ENDBRANCH  15  16
ENDBRANCH   1  15
TORSDOF 22
ENDMDL
MODEL 5
REMARK VINA RESULT:    -5.360      1.426      3.462
REMARK INTER + INTRA:         -16.054
REMARK INTER:                 -11.904
REMARK INTRA:                  -4.150
REMARK UNBOUND:                -3.799
REMARK SMILES CCCCCCCCCCCCCCCCCCCCCCCC(=O)[O-]
REMARK SMILES IDX 13 1 14 2 15 3 16 4 17 5 18 6 19 7 20 8 21 9 22 10 23 11
REMARK SMILES IDX 24 12 25 13 26 14 12 15 11 16 10 17 9 18 8 19 7 20 6 21 5 22
REMARK SMILES IDX 4 23 3 24 2 25 1 26
REMARK H PARENT
REMARK Flexibility Score: inf
ROOT
ATOM      1  C   UNL     1     131.718 132.260 133.158  1.00  0.00     0.000 C 
ENDROOT
BRANCH   1   2
ATOM      2  C   UNL     1     131.967 133.609 133.848  1.00  0.00     0.000 C 
BRANCH   2   3
ATOM      3  C   UNL     1     131.497 134.775 132.963  1.00  0.00     0.000 C 
BRANCH   3   4
ATOM      4  C   UNL     1     132.472 135.966 132.976  1.00  0.00     0.000 C 
BRANCH   4   5
ATOM      5  C   UNL     1     133.826 135.687 133.655  1.00  0.00     0.000 C 
BRANCH   5   6
ATOM      6  C   UNL     1     134.962 135.463 132.643  1.00  0.00     0.000 C 
BRANCH   6   7
ATOM      7  C   UNL     1     136.331 135.912 133.182  1.00  0.00     0.000 C 
BRANCH   7   8
ATOM      8  C   UNL     1     137.456 135.773 132.141  1.00  0.00     0.000 C 
BRANCH   8   9
ATOM      9  C   UNL     1     136.920 135.790 130.692  1.00  0.00     0.000 C 
BRANCH   9  10
ATOM     10  C   UNL     1     138.021 135.637 129.624  1.00  0.00     0.006 C 
BRANCH  10  11
ATOM     11  C   UNL     1     138.238 136.888 128.760  1.00  0.00     0.053 C 
BRANCH  11  12
ATOM     12  C   UNL     1     138.455 136.542 127.317  1.00  0.00     0.041 C 
ATOM     13  O   UNL     1     138.722 135.357 126.983  1.00  0.00    -0.550 OA
ATOM     14  O   UNL     1     138.365 137.527 126.341  1.00  0.00    -0.550 OA
ENDBRANCH  11  12
ENDBRANCH  10  11
ENDBRANCH   9  10
ENDBRANCH   8   9
ENDBRANCH   7   8
ENDBRANCH   6   7
ENDBRANCH   5   6
ENDBRANCH   4   5
ENDBRANCH   3   4
ENDBRANCH   2   3
ENDBRANCH   1   2
BRANCH   1  15
ATOM     15  C   UNL     1     132.994 131.404 133.038  1.00  0.00     0.000 C 
BRANCH  15  16
ATOM     16  C   UNL     1     134.214 131.964 133.794  1.00  0.00     0.000 C 
BRANCH  16  17
ATOM     17  C   UNL     1     135.539 131.716 133.051  1.00  0.00     0.000 C 
BRANCH  17  18
ATOM     18  C   UNL     1     135.495 130.473 132.144  1.00  0.00    -0.000 C 
BRANCH  18  19
ATOM     19  C   UNL     1     135.497 130.760 130.632  1.00  0.00    -0.000 C 
BRANCH  19  20
ATOM     20  C   UNL     1     135.770 132.237 130.302  1.00  0.00    -0.000 C 
BRANCH  20  21
ATOM     21  C   UNL     1     134.726 132.837 129.345  1.00  0.00    -0.000 C 
BRANCH  21  22
ATOM     22  C   UNL     1     133.650 133.686 130.056  1.00  0.00    -0.000 C 
BRANCH  22  23
ATOM     23  C   UNL     1     132.226 133.208 129.728  1.00  0.00    -0.000 C 
BRANCH  23  24
ATOM     24  C   UNL     1     132.257 131.938 128.864  1.00  0.00    -0.000 C 
BRANCH  24  25
ATOM     25  C   UNL     1     131.300 130.851 129.378  1.00  0.00    -0.003 C 
ATOM     26  C   UNL     1     130.054 131.429 130.047  1.00  0.00     0.004 C 
ENDBRANCH  24  25
ENDBRANCH  23  24
ENDBRANCH  22  23
ENDBRANCH  21  22
ENDBRANCH  20  21
ENDBRANCH  19  20
ENDBRANCH  18  19
ENDBRANCH  17  18
ENDBRANCH  16  17
ENDBRANCH  15  16
ENDBRANCH   1  15
TORSDOF 22
ENDMDL
MODEL 6
REMARK VINA RESULT:    -5.337      1.827      3.647
REMARK INTER + INTRA:         -16.000
REMARK INTER:                 -12.291
REMARK INTRA:                  -3.709
REMARK UNBOUND:                -3.799
REMARK SMILES CCCCCCCCCCCCCCCCCCCCCCCC(=O)[O-]
REMARK SMILES IDX 13 1 14 2 15 3 16 4 17 5 18 6 19 7 20 8 21 9 22 10 23 11
REMARK SMILES IDX 24 12 25 13 26 14 12 15 11 16 10 17 9 18 8 19 7 20 6 21 5 22
REMARK SMILES IDX 4 23 3 24 2 25 1 26
REMARK H PARENT
REMARK Flexibility Score: inf
ROOT
ATOM      1  C   UNL     1     135.941 133.490 133.503  1.00  0.00     0.000 C 
ENDROOT
BRANCH   1   2
ATOM      2  C   UNL     1     135.545 132.386 132.510  1.00  0.00     0.000 C 
BRANCH   2   3
ATOM      3  C   UNL     1     135.627 130.999 133.168  1.00  0.00     0.000 C 
BRANCH   3   4
ATOM      4  C   UNL     1     135.853 129.866 132.150  1.00  0.00     0.000 C 
BRANCH   4   5
ATOM      5  C   UNL     1     135.470 130.214 130.699  1.00  0.00     0.000 C 
BRANCH   5   6
ATOM      6  C   UNL     1     136.558 129.816 129.687  1.00  0.00     0.000 C 
BRANCH   6   7
ATOM      7  C   UNL     1     136.688 130.823 128.532  1.00  0.00     0.000 C 
BRANCH   7   8
ATOM      8  C   UNL     1     136.879 132.269 129.022  1.00  0.00     0.000 C 
BRANCH   8   9
ATOM      9  C   UNL     1     137.296 133.225 127.882  1.00  0.00     0.000 C 
BRANCH   9  10
ATOM     10  C   UNL     1     138.813 133.486 127.818  1.00  0.00     0.006 C 
BRANCH  10  11
ATOM     11  C   UNL     1     139.341 134.410 128.926  1.00  0.00     0.053 C 
BRANCH  11  12
ATOM     12  C   UNL     1     138.565 135.690 129.006  1.00  0.00     0.041 C 
ATOM     13  O   UNL     1     137.874 135.950 130.026  1.00  0.00    -0.550 OA
ATOM     14  O   UNL     1     138.602 136.596 127.952  1.00  0.00    -0.550 OA
ENDBRANCH  11  12
ENDBRANCH  10  11
ENDBRANCH   9  10
ENDBRANCH   8   9
ENDBRANCH   7   8
ENDBRANCH   6   7
ENDBRANCH   5   6
ENDBRANCH   4   5
ENDBRANCH   3   4
ENDBRANCH   2   3
ENDBRANCH   1   2
BRANCH   1  15
ATOM     15  C   UNL     1     136.074 134.874 132.838  1.00  0.00     0.000 C 
BRANCH  15  16
ATOM     16  C   UNL     1     134.734 135.539 132.470  1.00  0.00     0.000 C 
BRANCH  16  17
ATOM     17  C   UNL     1     133.704 135.474 133.612  1.00  0.00     0.000 C 
BRANCH  17  18
ATOM     18  C   UNL     1     132.251 135.593 133.117  1.00  0.00    -0.000 C 
BRANCH  18  19
ATOM     19  C   UNL     1     131.372 134.351 133.348  1.00  0.00    -0.000 C 
BRANCH  19  20
ATOM     20  C   UNL     1     132.161 133.152 133.899  1.00  0.00    -0.000 C 
BRANCH  20  21
ATOM     21  C   UNL     1     131.853 131.843 133.153  1.00  0.00    -0.000 C 
BRANCH  21  22
ATOM     22  C   UNL     1     130.517 131.870 132.378  1.00  0.00    -0.000 C 
BRANCH  22  23
ATOM     23  C   UNL     1     130.719 132.192 130.889  1.00  0.00    -0.000 C 
BRANCH  23  24
ATOM     24  C   UNL     1     132.100 131.724 130.406  1.00  0.00    -0.000 C 
BRANCH  24  25
ATOM     25  C   UNL     1     132.977 132.884 129.910  1.00  0.00    -0.003 C 
ATOM     26  C   UNL     1     132.195 134.186 129.741  1.00  0.00     0.004 C 
ENDBRANCH  24  25
ENDBRANCH  23  24
ENDBRANCH  22  23
ENDBRANCH  21  22
ENDBRANCH  20  21
ENDBRANCH  19  20
ENDBRANCH  18  19
ENDBRANCH  17  18
ENDBRANCH  16  17
ENDBRANCH  15  16
ENDBRANCH   1  15
TORSDOF 22
ENDMDL
MODEL 7
REMARK VINA RESULT:    -5.302      1.355      4.202
REMARK INTER + INTRA:         -15.920
REMARK INTER:                 -12.497
REMARK INTRA:                  -3.423
REMARK UNBOUND:                -3.799
REMARK SMILES CCCCCCCCCCCCCCCCCCCCCCCC(=O)[O-]
REMARK SMILES IDX 13 1 14 2 15 3 16 4 17 5 18 6 19 7 20 8 21 9 22 10 23 11
REMARK SMILES IDX 24 12 25 13 26 14 12 15 11 16 10 17 9 18 8 19 7 20 6 21 5 22
REMARK SMILES IDX 4 23 3 24 2 25 1 26
REMARK H PARENT
REMARK Flexibility Score: inf
ROOT
ATOM      1  C   UNL     1     131.385 134.946 130.142  1.00  0.00     0.000 C 
ENDROOT
BRANCH   1   2
ATOM      2  C   UNL     1     132.283 136.159 130.430  1.00  0.00     0.000 C 
BRANCH   2   3
ATOM      3  C   UNL     1     131.933 136.791 131.787  1.00  0.00     0.000 C 
BRANCH   3   4
ATOM      4  C   UNL     1     131.741 135.747 132.902  1.00  0.00     0.000 C 
BRANCH   4   5
ATOM      5  C   UNL     1     132.992 135.477 133.758  1.00  0.00     0.000 C 
BRANCH   5   6
ATOM      6  C   UNL     1     134.190 136.351 133.350  1.00  0.00     0.000 C 
BRANCH   6   7
ATOM      7  C   UNL     1     135.452 135.522 133.053  1.00  0.00     0.000 C 
BRANCH   7   8
ATOM      8  C   UNL     1     135.729 135.379 131.545  1.00  0.00     0.000 C 
BRANCH   8   9
ATOM      9  C   UNL     1     137.239 135.397 131.222  1.00  0.00     0.000 C 
BRANCH   9  10
ATOM     10  C   UNL     1     137.561 135.915 129.807  1.00  0.00     0.006 C 
BRANCH  10  11
ATOM     11  C   UNL     1     137.799 134.808 128.769  1.00  0.00     0.053 C 
BRANCH  11  12
ATOM     12  C   UNL     1     139.245 134.422 128.680  1.00  0.00     0.041 C 
ATOM     13  O   UNL     1     140.143 135.276 128.907  1.00  0.00    -0.550 OA
ATOM     14  O   UNL     1     139.602 133.122 128.344  1.00  0.00    -0.550 OA
ENDBRANCH  11  12
ENDBRANCH  10  11
ENDBRANCH   9  10
ENDBRANCH   8   9
ENDBRANCH   7   8
ENDBRANCH   6   7
ENDBRANCH   5   6
ENDBRANCH   4   5
ENDBRANCH   3   4
ENDBRANCH   2   3
ENDBRANCH   1   2
BRANCH   1  15
ATOM     15  C   UNL     1     132.179 133.631 130.011  1.00  0.00     0.000 C 
BRANCH  15  16
ATOM     16  C   UNL     1     131.499 132.556 129.142  1.00  0.00     0.000 C 
BRANCH  16  17
ATOM     17  C   UNL     1     130.934 131.390 129.973  1.00  0.00     0.000 C 
BRANCH  17  18
ATOM     18  C   UNL     1     129.642 131.760 130.723  1.00  0.00    -0.000 C 
BRANCH  18  19
ATOM     19  C   UNL     1     129.617 131.387 132.216  1.00  0.00    -0.000 C 
BRANCH  19  20
ATOM     20  C   UNL     1     130.638 132.178 133.050  1.00  0.00    -0.000 C 
BRANCH  20  21
ATOM     21  C   UNL     1     131.904 131.366 133.371  1.00  0.00    -0.000 C 
BRANCH  21  22
ATOM     22  C   UNL     1     133.216 132.141 133.126  1.00  0.00    -0.000 C 
BRANCH  22  23
ATOM     23  C   UNL     1     134.444 131.383 133.657  1.00  0.00    -0.000 C 
BRANCH  23  24
ATOM     24  C   UNL     1     135.700 131.732 132.846  1.00  0.00    -0.000 C 
BRANCH  24  25
ATOM     25  C   UNL     1     135.449 131.713 131.330  1.00  0.00    -0.003 C 
ATOM     26  C   UNL     1     135.477 130.303 130.744  1.00  0.00     0.004 C 
ENDBRANCH  24  25
ENDBRANCH  23  24
ENDBRANCH  22  23
ENDBRANCH  21  22
ENDBRANCH  20  21
ENDBRANCH  19  20
ENDBRANCH  18  19
ENDBRANCH  17  18
ENDBRANCH  16  17
ENDBRANCH  15  16
ENDBRANCH   1  15
TORSDOF 22
ENDMDL
MODEL 8
REMARK VINA RESULT:    -5.290      3.967      6.924
REMARK INTER + INTRA:         -15.894
REMARK INTER:                 -12.162
REMARK INTRA:                  -3.731
REMARK UNBOUND:                -3.799
REMARK SMILES CCCCCCCCCCCCCCCCCCCCCCCC(=O)[O-]
REMARK SMILES IDX 13 1 14 2 15 3 16 4 17 5 18 6 19 7 20 8 21 9 22 10 23 11
REMARK SMILES IDX 24 12 25 13 26 14 12 15 11 16 10 17 9 18 8 19 7 20 6 21 5 22
REMARK SMILES IDX 4 23 3 24 2 25 1 26
REMARK H PARENT
REMARK Flexibility Score: inf
ROOT
ATOM      1  C   UNL     1     133.361 133.244 134.249  1.00  0.00     0.000 C 
ENDROOT
BRANCH   1   2
ATOM      2  C   UNL     1     131.896 133.154 133.794  1.00  0.00     0.000 C 
BRANCH   2   3
ATOM      3  C   UNL     1     131.655 131.882 132.966  1.00  0.00     0.000 C 
BRANCH   3   4
ATOM      4  C   UNL     1     130.279 131.870 132.275  1.00  0.00     0.000 C 
BRANCH   4   5
ATOM      5  C   UNL     1     130.318 131.590 130.761  1.00  0.00     0.000 C 
BRANCH   5   6
ATOM      6  C   UNL     1     131.742 131.651 130.183  1.00  0.00     0.000 C 
BRANCH   6   7
ATOM      7  C   UNL     1     131.753 131.720 128.647  1.00  0.00     0.000 C 
BRANCH   7   8
ATOM      8  C   UNL     1     131.257 133.074 128.108  1.00  0.00     0.000 C 
BRANCH   8   9
ATOM      9  C   UNL     1     130.272 132.910 126.929  1.00  0.00     0.000 C 
BRANCH   9  10
ATOM     10  C   UNL     1     129.286 131.739 127.106  1.00  0.00     0.006 C 
BRANCH  10  11
ATOM     11  C   UNL     1     127.806 132.148 127.055  1.00  0.00     0.053 C 
BRANCH  11  12
ATOM     12  C   UNL     1     127.423 133.015 128.216  1.00  0.00     0.041 C 
ATOM     13  O   UNL     1     126.907 132.504 129.245  1.00  0.00    -0.550 OA
ATOM     14  O   UNL     1     127.631 134.388 128.161  1.00  0.00    -0.550 OA
ENDBRANCH  11  12
ENDBRANCH  10  11
ENDBRANCH   9  10
ENDBRANCH   8   9
ENDBRANCH   7   8
ENDBRANCH   6   7
ENDBRANCH   5   6
ENDBRANCH   4   5
ENDBRANCH   3   4
ENDBRANCH   2   3
ENDBRANCH   1   2
BRANCH   1  15
ATOM     15  C   UNL     1     134.310 132.391 133.385  1.00  0.00     0.000 C 
BRANCH  15  16
ATOM     16  C   UNL     1     135.630 133.088 133.004  1.00  0.00     0.000 C 
BRANCH  16  17
ATOM     17  C   UNL     1     135.797 134.458 133.684  1.00  0.00     0.000 C 
BRANCH  17  18
ATOM     18  C   UNL     1     136.356 135.534 132.736  1.00  0.00    -0.000 C 
BRANCH  18  19
ATOM     19  C   UNL     1     136.443 135.126 131.255  1.00  0.00    -0.000 C 
BRANCH  19  20
ATOM     20  C   UNL     1     135.413 135.849 130.372  1.00  0.00    -0.000 C 
BRANCH  20  21
ATOM     21  C   UNL     1     134.220 134.955 129.994  1.00  0.00    -0.000 C 
BRANCH  21  22
ATOM     22  C   UNL     1     133.063 135.000 131.016  1.00  0.00    -0.000 C 
BRANCH  22  23
ATOM     23  C   UNL     1     131.899 135.882 130.535  1.00  0.00    -0.000 C 
BRANCH  23  24
ATOM     24  C   UNL     1     131.747 137.125 131.425  1.00  0.00    -0.000 C 
BRANCH  24  25
ATOM     25  C   UNL     1     131.510 136.769 132.901  1.00  0.00    -0.003 C 
ATOM     26  C   UNL     1     132.778 136.876 133.745  1.00  0.00     0.004 C 
ENDBRANCH  24  25
ENDBRANCH  23  24
ENDBRANCH  22  23
ENDBRANCH  21  22
ENDBRANCH  20  21
ENDBRANCH  19  20
ENDBRANCH  18  19
ENDBRANCH  17  18
ENDBRANCH  16  17
ENDBRANCH  15  16
ENDBRANCH   1  15
TORSDOF 22
ENDMDL
MODEL 9
REMARK VINA RESULT:    -5.275      3.732      5.739
REMARK INTER + INTRA:         -15.858
REMARK INTER:                 -11.877
REMARK INTRA:                  -3.981
REMARK UNBOUND:                -3.799
REMARK SMILES CCCCCCCCCCCCCCCCCCCCCCCC(=O)[O-]
REMARK SMILES IDX 13 1 14 2 15 3 16 4 17 5 18 6 19 7 20 8 21 9 22 10 23 11
REMARK SMILES IDX 24 12 25 13 26 14 12 15 11 16 10 17 9 18 8 19 7 20 6 21 5 22
REMARK SMILES IDX 4 23 3 24 2 25 1 26
REMARK H PARENT
REMARK Flexibility Score: inf
ROOT
ATOM      1  C   UNL     1     131.564 135.266 133.365  1.00  0.00     0.000 C 
ENDROOT
BRANCH   1   2
ATOM      2  C   UNL     1     132.797 136.179 133.285  1.00  0.00     0.000 C 
BRANCH   2   3
ATOM      3  C   UNL     1     134.053 135.452 133.792  1.00  0.00     0.000 C 
BRANCH   3   4
ATOM      4  C   UNL     1     135.338 135.910 133.077  1.00  0.00     0.000 C 
BRANCH   4   5
ATOM      5  C   UNL     1     136.197 134.770 132.498  1.00  0.00     0.000 C 
BRANCH   5   6
ATOM      6  C   UNL     1     136.201 134.754 130.960  1.00  0.00     0.000 C 
BRANCH   6   7
ATOM      7  C   UNL     1     135.196 135.749 130.356  1.00  0.00     0.000 C 
BRANCH   7   8
ATOM      8  C   UNL     1     134.181 135.074 129.416  1.00  0.00     0.000 C 
BRANCH   8   9
ATOM      9  C   UNL     1     133.829 133.638 129.867  1.00  0.00     0.000 C 
BRANCH   9  10
ATOM     10  C   UNL     1     132.989 132.857 128.838  1.00  0.00     0.006 C 
BRANCH  10  11
ATOM     11  C   UNL     1     132.191 131.688 129.434  1.00  0.00     0.053 C 
BRANCH  11  12
ATOM     12  C   UNL     1     130.739 132.025 129.596  1.00  0.00     0.041 C 
ATOM     13  O   UNL     1     130.325 133.186 129.338  1.00  0.00    -0.550 OA
ATOM     14  O   UNL     1     129.842 131.058 130.033  1.00  0.00    -0.550 OA
ENDBRANCH  11  12
ENDBRANCH  10  11
ENDBRANCH   9  10
ENDBRANCH   8   9
ENDBRANCH   7   8
ENDBRANCH   6   7
ENDBRANCH   5   6
ENDBRANCH   4   5
ENDBRANCH   3   4
ENDBRANCH   2   3
ENDBRANCH   1   2
BRANCH   1  15
ATOM     15  C   UNL     1     131.727 133.967 132.552  1.00  0.00     0.000 C 
BRANCH  15  16
ATOM     16  C   UNL     1     131.681 132.676 133.391  1.00  0.00     0.000 C 
BRANCH  16  17
ATOM     17  C   UNL     1     132.808 131.692 133.031  1.00  0.00     0.000 C 
BRANCH  17  18
ATOM     18  C   UNL     1     134.093 131.928 133.845  1.00  0.00    -0.000 C 
BRANCH  18  19
ATOM     19  C   UNL     1     135.403 131.535 133.139  1.00  0.00    -0.000 C 
BRANCH  19  20
ATOM     20  C   UNL     1     135.607 130.014 133.056  1.00  0.00    -0.000 C 
BRANCH  20  21
ATOM     21  C   UNL     1     135.924 129.531 131.631  1.00  0.00    -0.000 C 
BRANCH  21  22
ATOM     22  C   UNL     1     135.502 130.529 130.530  1.00  0.00    -0.000 C 
BRANCH  22  23
ATOM     23  C   UNL     1     135.349 129.849 129.160  1.00  0.00    -0.000 C 
BRANCH  23  24
ATOM     24  C   UNL     1     135.608 128.338 129.263  1.00  0.00    -0.000 C 
BRANCH  24  25
ATOM     25  C   UNL     1     134.372 127.501 128.901  1.00  0.00    -0.003 C 
ATOM     26  C   UNL     1     133.428 128.225 127.942  1.00  0.00     0.004 C 
ENDBRANCH  24  25
ENDBRANCH  23  24
ENDBRANCH  22  23
ENDBRANCH  21  22
ENDBRANCH  20  21
ENDBRANCH  19  20
ENDBRANCH  18  19
ENDBRANCH  17  18
ENDBRANCH  16  17
ENDBRANCH  15  16
ENDBRANCH   1  15
TORSDOF 22
ENDMDL
