MODEL 1
REMARK VINA RESULT:    -4.542      0.000      0.000
REMARK INTER + INTRA:          -5.064
REMARK INTER:                  -5.472
REMARK INTRA:                   0.407
REMARK UNBOUND:                 0.407
REMARK SMILES Oc1cc(O)c2c(c1)O[C@@H](c1ccc(O)c(O)c1)[C@H](O)C2
REMARK SMILES IDX 21 1 19 2 10 3 9 4 7 5 8 6 2 7 3 8 4 9 6 10 20 11 11 13
REMARK SMILES IDX 18 14 12 15 16 16 13 17 14 18 17 19 15 21 5 23 1 25
REMARK H PARENT 20 12 17 20 15 22 5 24 1 26
REMARK Flexibility Score: inf
ROOT
ATOM      1  C   UNL     1       5.387 -16.174  21.889  1.00  0.00     0.079 C 
ATOM      2  C   UNL     1       5.542 -14.752  22.458  1.00  0.00     0.164 C 
ATOM      3  C   UNL     1       4.551 -14.541  23.616  1.00  0.00     0.232 C 
ATOM      4  O   UNL     1       4.756 -15.538  24.615  1.00  0.00    -0.482 OA
ATOM      5  C   UNL     1       5.055 -16.866  24.297  1.00  0.00     0.131 A 
ATOM      6  C   UNL     1       5.057 -17.825  25.314  1.00  0.00     0.093 A 
ATOM      7  C   UNL     1       5.336 -19.164  25.021  1.00  0.00     0.122 A 
ATOM      8  C   UNL     1       5.606 -19.544  23.704  1.00  0.00     0.092 A 
ATOM      9  C   UNL     1       5.608 -18.598  22.673  1.00  0.00     0.126 A 
ATOM     10  C   UNL     1       5.369 -17.235  22.970  1.00  0.00     0.039 A 
ENDROOT
BRANCH   2  11
ATOM     11  O   UNL     1       5.299 -13.807  21.448  1.00  0.00    -0.389 OA
ATOM     12  H   UNL     1       4.317 -13.658  21.427  1.00  0.00     0.211 HD
ENDBRANCH   2  11
BRANCH   3  13
ATOM     13  C   UNL     1       4.709 -13.169  24.227  1.00  0.00    -0.001 A 
ATOM     14  C   UNL     1       5.352 -12.140  23.516  1.00  0.00     0.057 A 
ATOM     15  C   UNL     1       4.171 -12.893  25.495  1.00  0.00     0.012 A 
ATOM     16  C   UNL     1       5.475 -10.860  24.071  1.00  0.00     0.157 A 
ATOM     17  C   UNL     1       4.292 -11.617  26.051  1.00  0.00     0.050 A 
ATOM     18  C   UNL     1       4.945 -10.597  25.345  1.00  0.00     0.157 A 
BRANCH  16  19
ATOM     19  O   UNL     1       6.124  -9.866  23.340  1.00  0.00    -0.504 OA
ATOM     20  H   UNL     1       6.736 -10.084  22.562  1.00  0.00     0.293 HD
ENDBRANCH  16  19
BRANCH  18  21
ATOM     21  O   UNL     1       5.064  -9.325  25.903  1.00  0.00    -0.504 OA
ATOM     22  H   UNL     1       4.250  -8.780  26.161  1.00  0.00     0.293 HD
ENDBRANCH  18  21
ENDBRANCH   3  13
BRANCH   9  23
ATOM     23  O   UNL     1       5.840 -19.047  21.371  1.00  0.00    -0.507 OA
ATOM     24  H   UNL     1       5.222 -19.682  20.884  1.00  0.00     0.293 HD
ENDBRANCH   9  23
BRANCH   7  25
ATOM     25  O   UNL     1       5.341 -20.125  26.029  1.00  0.00    -0.508 OA
ATOM     26  H   UNL     1       5.607 -21.085  25.845  1.00  0.00     0.293 HD
ENDBRANCH   7  25
TORSDOF 6
ENDMDL
MODEL 2
REMARK VINA RESULT:    -4.044      2.214      7.384
REMARK INTER + INTRA:          -4.464
REMARK INTER:                  -4.459
REMARK INTRA:                  -0.005
REMARK UNBOUND:                 0.407
REMARK SMILES Oc1cc(O)c2c(c1)O[C@@H](c1ccc(O)c(O)c1)[C@H](O)C2
REMARK SMILES IDX 21 1 19 2 10 3 9 4 7 5 8 6 2 7 3 8 4 9 6 10 20 11 11 13
REMARK SMILES IDX 18 14 12 15 16 16 13 17 14 18 17 19 15 21 5 23 1 25
REMARK H PARENT 20 12 17 20 15 22 5 24 1 26
REMARK Flexibility Score: inf
ROOT
ATOM      1  C   UNL     1       5.081 -10.530  22.500  1.00  0.00     0.079 C 
ATOM      2  C   UNL     1       5.017 -12.038  22.804  1.00  0.00     0.164 C 
ATOM      3  C   UNL     1       5.239 -12.279  24.308  1.00  0.00     0.232 C 
ATOM      4  O   UNL     1       4.275 -11.544  25.061  1.00  0.00    -0.482 OA
ATOM      5  C   UNL     1       3.864 -10.258  24.699  1.00  0.00     0.131 A 
ATOM      6  C   UNL     1       3.064  -9.527  25.581  1.00  0.00     0.093 A 
ATOM      7  C   UNL     1       2.652  -8.232  25.251  1.00  0.00     0.122 A 
ATOM      8  C   UNL     1       3.050  -7.665  24.038  1.00  0.00     0.092 A 
ATOM      9  C   UNL     1       3.851  -8.383  23.143  1.00  0.00     0.126 A 
ATOM     10  C   UNL     1       4.235  -9.709  23.452  1.00  0.00     0.039 A 
ENDROOT
BRANCH   2  11
ATOM     11  O   UNL     1       6.004 -12.714  22.066  1.00  0.00    -0.389 OA
ATOM     12  H   UNL     1       6.860 -12.592  22.555  1.00  0.00     0.211 HD
ENDBRANCH   2  11
BRANCH   3  13
ATOM     13  C   UNL     1       5.138 -13.747  24.647  1.00  0.00    -0.001 A 
ATOM     14  C   UNL     1       4.497 -14.640  23.770  1.00  0.00     0.057 A 
ATOM     15  C   UNL     1       5.726 -14.244  25.821  1.00  0.00     0.012 A 
ATOM     16  C   UNL     1       4.426 -16.006  24.070  1.00  0.00     0.157 A 
ATOM     17  C   UNL     1       5.657 -15.607  26.124  1.00  0.00     0.050 A 
ATOM     18  C   UNL     1       5.007 -16.492  25.253  1.00  0.00     0.157 A 
BRANCH  16  19
ATOM     19  O   UNL     1       3.777 -16.861  23.180  1.00  0.00    -0.504 OA
ATOM     20  H   UNL     1       3.510 -16.565  22.249  1.00  0.00     0.293 HD
ENDBRANCH  16  19
BRANCH  18  21
ATOM     21  O   UNL     1       4.939 -17.851  25.558  1.00  0.00    -0.504 OA
ATOM     22  H   UNL     1       5.174 -18.561  24.874  1.00  0.00     0.293 HD
ENDBRANCH  18  21
ENDBRANCH   3  13
BRANCH   9  23
ATOM     23  O   UNL     1       4.255  -7.745  21.967  1.00  0.00    -0.507 OA
ATOM     24  H   UNL     1       4.882  -8.165  21.294  1.00  0.00     0.293 HD
ENDBRANCH   9  23
BRANCH   7  25
ATOM     25  O   UNL     1       1.853  -7.497  26.124  1.00  0.00    -0.508 OA
ATOM     26  H   UNL     1       2.181  -6.635  26.543  1.00  0.00     0.293 HD
ENDBRANCH   7  25
TORSDOF 6
ENDMDL
MODEL 3
REMARK VINA RESULT:    -2.955      1.650      7.556
REMARK INTER + INTRA:          -3.152
REMARK INTER:                  -2.941
REMARK INTRA:                  -0.211
REMARK UNBOUND:                 0.407
REMARK SMILES Oc1cc(O)c2c(c1)O[C@@H](c1ccc(O)c(O)c1)[C@H](O)C2
REMARK SMILES IDX 21 1 19 2 10 3 9 4 7 5 8 6 2 7 3 8 4 9 6 10 20 11 11 13
REMARK SMILES IDX 18 14 12 15 16 16 13 17 14 18 17 19 15 21 5 23 1 25
REMARK H PARENT 20 12 17 20 15 22 5 24 1 26
REMARK Flexibility Score: inf
ROOT
ATOM      1  C   UNL     1       5.636 -11.795  25.696  1.00  0.00     0.079 C 
ATOM      2  C   UNL     1       5.914 -13.184  25.093  1.00  0.00     0.164 C 
ATOM      3  C   UNL     1       4.740 -13.609  24.194  1.00  0.00     0.232 C 
ATOM      4  O   UNL     1       4.525 -12.624  23.183  1.00  0.00    -0.482 OA
ATOM      5  C   UNL     1       4.641 -11.254  23.437  1.00  0.00     0.131 A 
ATOM      6  C   UNL     1       4.234 -10.345  22.456  1.00  0.00     0.093 A 
ATOM      7  C   UNL     1       4.323  -8.970  22.690  1.00  0.00     0.122 A 
ATOM      8  C   UNL     1       4.812  -8.503  23.912  1.00  0.00     0.092 A 
ATOM      9  C   UNL     1       5.224  -9.399  24.905  1.00  0.00     0.126 A 
ATOM     10  C   UNL     1       5.177 -10.791  24.659  1.00  0.00     0.039 A 
ENDROOT
BRANCH   2  11
ATOM     11  O   UNL     1       6.086 -14.123  26.123  1.00  0.00    -0.389 OA
ATOM     12  H   UNL     1       5.469 -13.861  26.855  1.00  0.00     0.211 HD
ENDBRANCH   2  11
BRANCH   3  13
ATOM     13  C   UNL     1       5.003 -14.949  23.550  1.00  0.00    -0.001 A 
ATOM     14  C   UNL     1       4.578 -16.137  24.172  1.00  0.00     0.057 A 
ATOM     15  C   UNL     1       5.632 -15.021  22.296  1.00  0.00     0.012 A 
ATOM     16  C   UNL     1       4.797 -17.378  23.563  1.00  0.00     0.157 A 
ATOM     17  C   UNL     1       5.852 -16.258  21.685  1.00  0.00     0.050 A 
ATOM     18  C   UNL     1       5.438 -17.440  22.314  1.00  0.00     0.157 A 
BRANCH  16  19
ATOM     19  O   UNL     1       4.367 -18.535  24.211  1.00  0.00    -0.504 OA
ATOM     20  H   UNL     1       4.223 -19.407  23.716  1.00  0.00     0.293 HD
ENDBRANCH  16  19
BRANCH  18  21
ATOM     21  O   UNL     1       5.659 -18.673  21.702  1.00  0.00    -0.504 OA
ATOM     22  H   UNL     1       6.140 -19.425  22.183  1.00  0.00     0.293 HD
ENDBRANCH  18  21
ENDBRANCH   3  13
BRANCH   9  23
ATOM     23  O   UNL     1       5.661  -8.872  26.123  1.00  0.00    -0.507 OA
ATOM     24  H   UNL     1       5.086  -8.843  26.954  1.00  0.00     0.293 HD
ENDBRANCH   9  23
BRANCH   7  25
ATOM     25  O   UNL     1       3.920  -8.057  21.716  1.00  0.00    -0.508 OA
ATOM     26  H   UNL     1       3.705  -8.352  20.771  1.00  0.00     0.293 HD
ENDBRANCH   7  25
TORSDOF 6
ENDMDL
MODEL 4
REMARK VINA RESULT:    -1.976      2.069      7.674
REMARK INTER + INTRA:          -1.973
REMARK INTER:                  -1.793
REMARK INTRA:                  -0.179
REMARK UNBOUND:                 0.407
REMARK SMILES Oc1cc(O)c2c(c1)O[C@@H](c1ccc(O)c(O)c1)[C@H](O)C2
REMARK SMILES IDX 21 1 19 2 10 3 9 4 7 5 8 6 2 7 3 8 4 9 6 10 20 11 11 13
REMARK SMILES IDX 18 14 12 15 16 16 13 17 14 18 17 19 15 21 5 23 1 25
REMARK H PARENT 20 12 17 20 15 22 5 24 1 26
REMARK Flexibility Score: inf
ROOT
ATOM      1  C   UNL     1       5.546 -10.793  25.731  1.00  0.00     0.079 C 
ATOM      2  C   UNL     1       5.774 -12.186  25.116  1.00  0.00     0.164 C 
ATOM      3  C   UNL     1       4.493 -12.662  24.409  1.00  0.00     0.232 C 
ATOM      4  O   UNL     1       4.101 -11.705  23.425  1.00  0.00    -0.482 OA
ATOM      5  C   UNL     1       4.211 -10.327  23.635  1.00  0.00     0.131 A 
ATOM      6  C   UNL     1       3.636  -9.451  22.711  1.00  0.00     0.093 A 
ATOM      7  C   UNL     1       3.717  -8.068  22.906  1.00  0.00     0.122 A 
ATOM      8  C   UNL     1       4.368  -7.563  24.034  1.00  0.00     0.092 A 
ATOM      9  C   UNL     1       4.949  -8.426  24.970  1.00  0.00     0.126 A 
ATOM     10  C   UNL     1       4.908  -9.824  24.757  1.00  0.00     0.039 A 
ENDROOT
BRANCH   2  11
ATOM     11  O   UNL     1       6.125 -13.099  26.124  1.00  0.00    -0.389 OA
ATOM     12  H   UNL     1       5.361 -13.726  26.220  1.00  0.00     0.211 HD
ENDBRANCH   2  11
BRANCH   3  13
ATOM     13  C   UNL     1       4.698 -14.008  23.755  1.00  0.00    -0.001 A 
ATOM     14  C   UNL     1       5.162 -14.095  22.430  1.00  0.00     0.057 A 
ATOM     15  C   UNL     1       4.473 -15.189  24.481  1.00  0.00     0.012 A 
ATOM     16  C   UNL     1       5.378 -15.343  21.832  1.00  0.00     0.157 A 
ATOM     17  C   UNL     1       4.688 -16.435  23.887  1.00  0.00     0.050 A 
ATOM     18  C   UNL     1       5.138 -16.519  22.562  1.00  0.00     0.157 A 
BRANCH  16  19
ATOM     19  O   UNL     1       5.832 -15.391  20.515  1.00  0.00    -0.504 OA
ATOM     20  H   UNL     1       6.727 -15.799  20.270  1.00  0.00     0.293 HD
ENDBRANCH  16  19
BRANCH  18  21
ATOM     21  O   UNL     1       5.351 -17.763  21.972  1.00  0.00    -0.504 OA
ATOM     22  H   UNL     1       6.277 -18.173  21.917  1.00  0.00     0.293 HD
ENDBRANCH  18  21
ENDBRANCH   3  13
BRANCH   9  23
ATOM     23  O   UNL     1       5.546  -7.862  26.101  1.00  0.00    -0.507 OA
ATOM     24  H   UNL     1       5.477  -6.881  26.334  1.00  0.00     0.293 HD
ENDBRANCH   9  23
BRANCH   7  25
ATOM     25  O   UNL     1       3.148  -7.188  21.989  1.00  0.00    -0.508 OA
ATOM     26  H   UNL     1       3.078  -7.420  21.005  1.00  0.00     0.293 HD
ENDBRANCH   7  25
TORSDOF 6
ENDMDL
MODEL 5
REMARK VINA RESULT:    -1.716      2.314      4.292
REMARK INTER + INTRA:          -1.660
REMARK INTER:                  -1.435
REMARK INTRA:                  -0.225
REMARK UNBOUND:                 0.407
REMARK SMILES Oc1cc(O)c2c(c1)O[C@@H](c1ccc(O)c(O)c1)[C@H](O)C2
REMARK SMILES IDX 21 1 19 2 10 3 9 4 7 5 8 6 2 7 3 8 4 9 6 10 20 11 11 13
REMARK SMILES IDX 18 14 12 15 16 16 13 17 14 18 17 19 15 21 5 23 1 25
REMARK H PARENT 20 12 17 20 15 22 5 24 1 26
REMARK Flexibility Score: inf
ROOT
ATOM      1  C   UNL     1       5.502 -13.731  24.765  1.00  0.00     0.079 C 
ATOM      2  C   UNL     1       4.967 -12.291  24.869  1.00  0.00     0.164 C 
ATOM      3  C   UNL     1       5.581 -11.423  23.756  1.00  0.00     0.232 C 
ATOM      4  O   UNL     1       5.301 -12.003  22.483  1.00  0.00    -0.482 OA
ATOM      5  C   UNL     1       5.322 -13.384  22.268  1.00  0.00     0.131 A 
ATOM      6  C   UNL     1       5.226 -13.869  20.961  1.00  0.00     0.093 A 
ATOM      7  C   UNL     1       5.261 -15.246  20.716  1.00  0.00     0.122 A 
ATOM      8  C   UNL     1       5.404 -16.137  21.782  1.00  0.00     0.092 A 
ATOM      9  C   UNL     1       5.503 -15.668  23.096  1.00  0.00     0.126 A 
ATOM     10  C   UNL     1       5.424 -14.280  23.355  1.00  0.00     0.039 A 
ENDROOT
BRANCH   2  11
ATOM     11  O   UNL     1       5.295 -11.752  26.124  1.00  0.00    -0.389 OA
ATOM     12  H   UNL     1       6.264 -11.536  26.098  1.00  0.00     0.211 HD
ENDBRANCH   2  11
BRANCH   3  13
ATOM     13  C   UNL     1       5.042 -10.013  23.803  1.00  0.00    -0.001 A 
ATOM     14  C   UNL     1       5.723  -9.011  24.517  1.00  0.00     0.057 A 
ATOM     15  C   UNL     1       3.879  -9.676  23.091  1.00  0.00     0.012 A 
ATOM     16  C   UNL     1       5.239  -7.697  24.538  1.00  0.00     0.157 A 
ATOM     17  C   UNL     1       3.394  -8.367  23.110  1.00  0.00     0.050 A 
ATOM     18  C   UNL     1       4.068  -7.373  23.834  1.00  0.00     0.157 A 
BRANCH  16  19
ATOM     19  O   UNL     1       5.937  -6.732  25.262  1.00  0.00    -0.504 OA
ATOM     20  H   UNL     1       5.640  -6.432  26.183  1.00  0.00     0.293 HD
ENDBRANCH  16  19
BRANCH  18  21
ATOM     21  O   UNL     1       3.581  -6.067  23.851  1.00  0.00    -0.504 OA
ATOM     22  H   UNL     1       3.623  -5.496  24.688  1.00  0.00     0.293 HD
ENDBRANCH  18  21
ENDBRANCH   3  13
BRANCH   9  23
ATOM     23  O   UNL     1       5.690 -16.606  24.115  1.00  0.00    -0.507 OA
ATOM     24  H   UNL     1       4.935 -16.967  24.684  1.00  0.00     0.293 HD
ENDBRANCH   9  23
BRANCH   7  25
ATOM     25  O   UNL     1       5.164 -15.738  19.416  1.00  0.00    -0.508 OA
ATOM     26  H   UNL     1       5.796 -16.449  19.070  1.00  0.00     0.293 HD
ENDBRANCH   7  25
TORSDOF 6
ENDMDL
