MODEL 1
REMARK VINA RESULT:    -4.247      0.000      0.000
REMARK INTER + INTRA:          -5.933
REMARK INTER:                  -5.736
REMARK INTRA:                  -0.197
REMARK UNBOUND:                -0.197
REMARK SMILES CCCCCCCC(=O)[O-]
REMARK SMILES IDX 5 1 6 2 7 3 8 4 9 5 10 6 4 7 3 8 2 9 1 10
REMARK H PARENT
REMARK Flexibility Score: inf
ROOT
ATOM      1  C   UNL     1      -9.309  24.208 -26.374  1.00  0.00     0.000 C 
ENDROOT
BRANCH   1   2
ATOM      2  C   UNL     1      -9.603  25.293 -27.424  1.00  0.00     0.006 C 
BRANCH   2   3
ATOM      3  C   UNL     1      -8.327  25.790 -28.116  1.00  0.00     0.053 C 
BRANCH   3   4
ATOM      4  C   UNL     1      -7.817  27.058 -27.505  1.00  0.00     0.041 C 
ATOM      5  O   UNL     1      -8.422  27.580 -26.531  1.00  0.00    -0.550 OA
ATOM      6  O   UNL     1      -6.691  27.681 -28.030  1.00  0.00    -0.550 OA
ENDBRANCH   3   4
ENDBRANCH   2   3
ENDBRANCH   1   2
BRANCH   1   7
ATOM      7  C   UNL     1     -10.524  23.306 -26.091  1.00  0.00     0.000 C 
BRANCH   7   8
ATOM      8  C   UNL     1     -10.459  22.515 -24.768  1.00  0.00    -0.000 C 
BRANCH   8   9
ATOM      9  C   UNL     1      -9.303  22.908 -23.832  1.00  0.00    -0.003 C 
ATOM     10  C   UNL     1      -9.707  22.919 -22.359  1.00  0.00     0.004 C 
ENDBRANCH   8   9
ENDBRANCH   7   8
ENDBRANCH   1   7
TORSDOF 6
ENDMDL
MODEL 2
REMARK VINA RESULT:    -4.171      3.762      5.995
REMARK INTER + INTRA:          -5.830
REMARK INTER:                  -5.633
REMARK INTRA:                  -0.197
REMARK UNBOUND:                -0.197
REMARK SMILES CCCCCCCC(=O)[O-]
REMARK SMILES IDX 5 1 6 2 7 3 8 4 9 5 10 6 4 7 3 8 2 9 1 10
REMARK H PARENT
REMARK Flexibility Score: inf
ROOT
ATOM      1  C   UNL     1     -10.098  22.151 -24.585  1.00  0.00     0.000 C 
ENDROOT
BRANCH   1   2
ATOM      2  C   UNL     1      -9.229  22.806 -23.498  1.00  0.00     0.006 C 
BRANCH   2   3
ATOM      3  C   UNL     1     -10.065  23.303 -22.310  1.00  0.00     0.053 C 
BRANCH   3   4
ATOM      4  C   UNL     1      -9.534  22.800 -21.004  1.00  0.00     0.041 C 
ATOM      5  O   UNL     1      -8.406  23.178 -20.590  1.00  0.00    -0.550 OA
ATOM      6  O   UNL     1     -10.271  21.889 -20.257  1.00  0.00    -0.550 OA
ENDBRANCH   3   4
ENDBRANCH   2   3
ENDBRANCH   1   2
BRANCH   1   7
ATOM      7  C   UNL     1      -9.853  22.746 -25.984  1.00  0.00     0.000 C 
BRANCH   7   8
ATOM      8  C   UNL     1      -9.600  24.267 -26.014  1.00  0.00    -0.000 C 
BRANCH   8   9
ATOM      9  C   UNL     1      -8.826  24.773 -27.243  1.00  0.00    -0.003 C 
ATOM     10  C   UNL     1      -9.529  25.927 -27.956  1.00  0.00     0.004 C 
ENDBRANCH   8   9
ENDBRANCH   7   8
ENDBRANCH   1   7
TORSDOF 6
ENDMDL
MODEL 3
REMARK VINA RESULT:    -4.166      8.407      9.362
REMARK INTER + INTRA:          -5.825
REMARK INTER:                  -5.391
REMARK INTRA:                  -0.433
REMARK UNBOUND:                -0.197
REMARK SMILES CCCCCCCC(=O)[O-]
REMARK SMILES IDX 5 1 6 2 7 3 8 4 9 5 10 6 4 7 3 8 2 9 1 10
REMARK H PARENT
REMARK Flexibility Score: inf
ROOT
ATOM      1  C   UNL     1      -5.903  27.564 -20.425  1.00  0.00     0.000 C 
ENDROOT
BRANCH   1   2
ATOM      2  C   UNL     1      -4.474  26.995 -20.401  1.00  0.00     0.006 C 
BRANCH   2   3
ATOM      3  C   UNL     1      -3.420  28.061 -20.732  1.00  0.00     0.053 C 
BRANCH   3   4
ATOM      4  C   UNL     1      -2.767  28.602 -19.498  1.00  0.00     0.041 C 
ATOM      5  O   UNL     1      -2.783  27.936 -18.429  1.00  0.00    -0.550 OA
ATOM      6  O   UNL     1      -2.166  29.855 -19.520  1.00  0.00    -0.550 OA
ENDBRANCH   3   4
ENDBRANCH   2   3
ENDBRANCH   1   2
BRANCH   1   7
ATOM      7  C   UNL     1      -6.383  28.032 -19.040  1.00  0.00     0.000 C 
BRANCH   7   8
ATOM      8  C   UNL     1      -6.263  29.549 -18.784  1.00  0.00    -0.000 C 
BRANCH   8   9
ATOM      9  C   UNL     1      -6.612  30.441 -19.987  1.00  0.00    -0.003 C 
ATOM     10  C   UNL     1      -6.649  31.928 -19.636  1.00  0.00     0.004 C 
ENDBRANCH   8   9
ENDBRANCH   7   8
ENDBRANCH   1   7
TORSDOF 6
ENDMDL
MODEL 4
REMARK VINA RESULT:    -4.123      0.960      1.776
REMARK INTER + INTRA:          -5.766
REMARK INTER:                  -5.572
REMARK INTRA:                  -0.194
REMARK UNBOUND:                -0.197
REMARK SMILES CCCCCCCC(=O)[O-]
REMARK SMILES IDX 5 1 6 2 7 3 8 4 9 5 10 6 4 7 3 8 2 9 1 10
REMARK H PARENT
REMARK Flexibility Score: inf
ROOT
ATOM      1  C   UNL     1      -9.717  22.799 -26.008  1.00  0.00     0.000 C 
ENDROOT
BRANCH   1   2
ATOM      2  C   UNL     1      -9.357  24.294 -25.939  1.00  0.00     0.006 C 
BRANCH   2   3
ATOM      3  C   UNL     1      -9.376  24.958 -27.322  1.00  0.00     0.053 C 
BRANCH   3   4
ATOM      4  C   UNL     1      -8.352  26.045 -27.434  1.00  0.00     0.041 C 
ATOM      5  O   UNL     1      -7.303  25.861 -28.107  1.00  0.00    -0.550 OA
ATOM      6  O   UNL     1      -8.539  27.251 -26.769  1.00  0.00    -0.550 OA
ENDBRANCH   3   4
ENDBRANCH   2   3
ENDBRANCH   1   2
BRANCH   1   7
ATOM      7  C   UNL     1     -10.127  22.220 -24.643  1.00  0.00     0.000 C 
BRANCH   7   8
ATOM      8  C   UNL     1     -10.168  23.239 -23.484  1.00  0.00    -0.000 C 
BRANCH   8   9
ATOM      9  C   UNL     1      -9.336  22.853 -22.250  1.00  0.00    -0.003 C 
ATOM     10  C   UNL     1     -10.130  22.935 -20.947  1.00  0.00     0.004 C 
ENDBRANCH   8   9
ENDBRANCH   7   8
ENDBRANCH   1   7
TORSDOF 6
ENDMDL
MODEL 5
REMARK VINA RESULT:    -4.098      8.163      9.572
REMARK INTER + INTRA:          -5.732
REMARK INTER:                  -5.223
REMARK INTRA:                  -0.510
REMARK UNBOUND:                -0.197
REMARK SMILES CCCCCCCC(=O)[O-]
REMARK SMILES IDX 5 1 6 2 7 3 8 4 9 5 10 6 4 7 3 8 2 9 1 10
REMARK H PARENT
REMARK Flexibility Score: inf
ROOT
ATOM      1  C   UNL     1      -3.758  26.621 -20.000  1.00  0.00     0.000 C 
ENDROOT
BRANCH   1   2
ATOM      2  C   UNL     1      -5.290  26.508 -20.071  1.00  0.00     0.006 C 
BRANCH   2   3
ATOM      3  C   UNL     1      -5.964  27.874 -20.254  1.00  0.00     0.053 C 
BRANCH   3   4
ATOM      4  C   UNL     1      -6.342  28.490 -18.942  1.00  0.00     0.041 C 
ATOM      5  O   UNL     1      -6.950  27.809 -18.074  1.00  0.00    -0.550 OA
ATOM      6  O   UNL     1      -6.050  29.825 -18.689  1.00  0.00    -0.550 OA
ENDBRANCH   3   4
ENDBRANCH   2   3
ENDBRANCH   1   2
BRANCH   1   7
ATOM      7  C   UNL     1      -3.229  27.946 -20.578  1.00  0.00     0.000 C 
BRANCH   7   8
ATOM      8  C   UNL     1      -2.582  28.898 -19.550  1.00  0.00    -0.000 C 
BRANCH   8   9
ATOM      9  C   UNL     1      -2.693  30.394 -19.890  1.00  0.00    -0.003 C 
ATOM     10  C   UNL     1      -3.581  30.664 -21.104  1.00  0.00     0.004 C 
ENDBRANCH   8   9
ENDBRANCH   7   8
ENDBRANCH   1   7
TORSDOF 6
ENDMDL
MODEL 6
REMARK VINA RESULT:    -3.939      8.594      9.671
REMARK INTER + INTRA:          -5.518
REMARK INTER:                  -4.866
REMARK INTRA:                  -0.652
REMARK UNBOUND:                -0.197
REMARK SMILES CCCCCCCC(=O)[O-]
REMARK SMILES IDX 5 1 6 2 7 3 8 4 9 5 10 6 4 7 3 8 2 9 1 10
REMARK H PARENT
REMARK Flexibility Score: inf
ROOT
ATOM      1  C   UNL     1      -5.171  31.112 -20.746  1.00  0.00     0.000 C 
ENDROOT
BRANCH   1   2
ATOM      2  C   UNL     1      -6.289  30.148 -20.314  1.00  0.00     0.006 C 
BRANCH   2   3
ATOM      3  C   UNL     1      -6.410  30.049 -18.787  1.00  0.00     0.053 C 
BRANCH   3   4
ATOM      4  C   UNL     1      -6.533  28.630 -18.328  1.00  0.00     0.041 C 
ATOM      5  O   UNL     1      -6.414  27.684 -19.152  1.00  0.00    -0.550 OA
ATOM      6  O   UNL     1      -6.810  28.350 -16.995  1.00  0.00    -0.550 OA
ENDBRANCH   3   4
ENDBRANCH   2   3
ENDBRANCH   1   2
BRANCH   1   7
ATOM      7  C   UNL     1      -3.842  30.391 -21.039  1.00  0.00     0.000 C 
BRANCH   7   8
ATOM      8  C   UNL     1      -3.977  28.914 -21.464  1.00  0.00    -0.000 C 
BRANCH   8   9
ATOM      9  C   UNL     1      -3.229  27.910 -20.570  1.00  0.00    -0.003 C 
ATOM     10  C   UNL     1      -2.786  28.514 -19.239  1.00  0.00     0.004 C 
ENDBRANCH   8   9
ENDBRANCH   7   8
ENDBRANCH   1   7
TORSDOF 6
ENDMDL
MODEL 7
REMARK VINA RESULT:    -3.936      8.217      9.165
REMARK INTER + INTRA:          -5.513
REMARK INTER:                  -5.058
REMARK INTRA:                  -0.455
REMARK UNBOUND:                -0.197
REMARK SMILES CCCCCCCC(=O)[O-]
REMARK SMILES IDX 5 1 6 2 7 3 8 4 9 5 10 6 4 7 3 8 2 9 1 10
REMARK H PARENT
REMARK Flexibility Score: inf
ROOT
ATOM      1  C   UNL     1      -6.243  28.470 -21.012  1.00  0.00     0.000 C 
ENDROOT
BRANCH   1   2
ATOM      2  C   UNL     1      -6.140  29.977 -20.723  1.00  0.00     0.006 C 
BRANCH   2   3
ATOM      3  C   UNL     1      -5.642  30.261 -19.299  1.00  0.00     0.053 C 
BRANCH   3   4
ATOM      4  C   UNL     1      -6.706  30.881 -18.448  1.00  0.00     0.041 C 
ATOM      5  O   UNL     1      -6.968  32.109 -18.554  1.00  0.00    -0.550 OA
ATOM      6  O   UNL     1      -7.390  30.110 -17.516  1.00  0.00    -0.550 OA
ENDBRANCH   3   4
ENDBRANCH   2   3
ENDBRANCH   1   2
BRANCH   1   7
ATOM      7  C   UNL     1      -5.829  27.601 -19.811  1.00  0.00     0.000 C 
BRANCH   7   8
ATOM      8  C   UNL     1      -4.764  26.527 -20.114  1.00  0.00    -0.000 C 
BRANCH   8   9
ATOM      9  C   UNL     1      -3.310  27.032 -20.103  1.00  0.00    -0.003 C 
ATOM     10  C   UNL     1      -2.977  27.861 -18.863  1.00  0.00     0.004 C 
ENDBRANCH   8   9
ENDBRANCH   7   8
ENDBRANCH   1   7
TORSDOF 6
ENDMDL
MODEL 8
REMARK VINA RESULT:    -3.922      8.145      9.389
REMARK INTER + INTRA:          -5.494
REMARK INTER:                  -5.093
REMARK INTRA:                  -0.401
REMARK UNBOUND:                -0.197
REMARK SMILES CCCCCCCC(=O)[O-]
REMARK SMILES IDX 5 1 6 2 7 3 8 4 9 5 10 6 4 7 3 8 2 9 1 10
REMARK H PARENT
REMARK Flexibility Score: inf
ROOT
ATOM      1  C   UNL     1      -6.145  28.469 -19.338  1.00  0.00     0.000 C 
ENDROOT
BRANCH   1   2
ATOM      2  C   UNL     1      -5.515  29.871 -19.266  1.00  0.00     0.006 C 
BRANCH   2   3
ATOM      3  C   UNL     1      -6.559  30.983 -19.435  1.00  0.00     0.053 C 
BRANCH   3   4
ATOM      4  C   UNL     1      -6.927  31.607 -18.125  1.00  0.00     0.041 C 
ATOM      5  O   UNL     1      -6.874  32.858 -17.982  1.00  0.00    -0.550 OA
ATOM      6  O   UNL     1      -7.300  30.807 -17.052  1.00  0.00    -0.550 OA
ENDBRANCH   3   4
ENDBRANCH   2   3
ENDBRANCH   1   2
BRANCH   1   7
ATOM      7  C   UNL     1      -5.747  27.700 -20.611  1.00  0.00     0.000 C 
BRANCH   7   8
ATOM      8  C   UNL     1      -4.673  28.385 -21.481  1.00  0.00    -0.000 C 
BRANCH   8   9
ATOM      9  C   UNL     1      -5.211  29.108 -22.728  1.00  0.00    -0.003 C 
ATOM     10  C   UNL     1      -6.648  28.718 -23.068  1.00  0.00     0.004 C 
ENDBRANCH   8   9
ENDBRANCH   7   8
ENDBRANCH   1   7
TORSDOF 6
ENDMDL
MODEL 9
REMARK VINA RESULT:    -3.920      8.115      9.507
REMARK INTER + INTRA:          -5.492
REMARK INTER:                  -4.908
REMARK INTRA:                  -0.584
REMARK UNBOUND:                -0.197
REMARK SMILES CCCCCCCC(=O)[O-]
REMARK SMILES IDX 5 1 6 2 7 3 8 4 9 5 10 6 4 7 3 8 2 9 1 10
REMARK H PARENT
REMARK Flexibility Score: inf
ROOT
ATOM      1  C   UNL     1      -3.125  28.580 -19.273  1.00  0.00     0.000 C 
ENDROOT
BRANCH   1   2
ATOM      2  C   UNL     1      -3.233  27.498 -20.362  1.00  0.00     0.006 C 
BRANCH   2   3
ATOM      3  C   UNL     1      -4.415  26.549 -20.121  1.00  0.00     0.053 C 
BRANCH   3   4
ATOM      4  C   UNL     1      -5.727  27.269 -20.163  1.00  0.00     0.041 C 
ATOM      5  O   UNL     1      -6.155  27.742 -21.249  1.00  0.00    -0.550 OA
ATOM      6  O   UNL     1      -6.464  27.444 -18.998  1.00  0.00    -0.550 OA
ENDBRANCH   3   4
ENDBRANCH   2   3
ENDBRANCH   1   2
BRANCH   1   7
ATOM      7  C   UNL     1      -2.838  29.978 -19.848  1.00  0.00     0.000 C 
BRANCH   7   8
ATOM      8  C   UNL     1      -4.074  30.737 -20.374  1.00  0.00    -0.000 C 
BRANCH   8   9
ATOM      9  C   UNL     1      -5.283  30.750 -19.423  1.00  0.00    -0.003 C 
ATOM     10  C   UNL     1      -6.601  31.044 -20.138  1.00  0.00     0.004 C 
ENDBRANCH   8   9
ENDBRANCH   7   8
ENDBRANCH   1   7
TORSDOF 6
ENDMDL
