MODEL 1
REMARK VINA RESULT:    -4.133      0.000      0.000
REMARK INTER + INTRA:          -5.554
REMARK INTER:                  -5.220
REMARK INTRA:                  -0.334
REMARK UNBOUND:                -0.334
REMARK SMILES CC(C)=CCCC(C)=CCO
REMARK SMILES IDX 7 1 9 2 8 3 6 4 5 5 4 6 1 7 2 8 3 9 10 10 11 11
REMARK H PARENT 11 12
REMARK Flexibility Score: inf
ROOT
ATOM      1  C   UNL     1     407.030 -85.800 115.036  1.00  0.00    -0.075 C 
ATOM      2  C   UNL     1     406.376 -86.147 113.905  1.00  0.00    -0.000 C 
ATOM      3  C   UNL     1     406.290 -85.279 116.244  1.00  0.00     0.039 C 
ENDROOT
BRANCH   1   4
ATOM      4  C   UNL     1     408.536 -85.933 115.089  1.00  0.00     0.034 C 
BRANCH   4   5
ATOM      5  C   UNL     1     409.208 -84.558 115.019  1.00  0.00     0.032 C 
BRANCH   5   6
ATOM      6  C   UNL     1     409.736 -84.289 113.632  1.00  0.00    -0.028 C 
ATOM      7  C   UNL     1     411.412 -84.121 111.843  1.00  0.00     0.039 C 
ATOM      8  C   UNL     1     411.020 -84.473 113.255  1.00  0.00    -0.080 C 
ATOM      9  C   UNL     1     412.060 -85.031 114.198  1.00  0.00     0.039 C 
ENDBRANCH   5   6
ENDBRANCH   4   5
ENDBRANCH   1   4
BRANCH   2  10
ATOM     10  C   UNL     1     404.879 -86.051 113.755  1.00  0.00     0.183 C 
BRANCH  10  11
ATOM     11  O   UNL     1     404.368 -87.235 113.208  1.00  0.00    -0.392 OA
ATOM     12  H   UNL     1     403.394 -87.241 113.403  1.00  0.00     0.210 HD
ENDBRANCH  10  11
ENDBRANCH   2  10
TORSDOF 5
ENDMDL
MODEL 2
REMARK VINA RESULT:    -4.042      2.871      5.494
REMARK INTER + INTRA:          -5.440
REMARK INTER:                  -5.028
REMARK INTRA:                  -0.411
REMARK UNBOUND:                -0.334
REMARK SMILES CC(C)=CCCC(C)=CCO
REMARK SMILES IDX 7 1 9 2 8 3 6 4 5 5 4 6 1 7 2 8 3 9 10 10 11 11
REMARK H PARENT 11 12
REMARK Flexibility Score: inf
ROOT
ATOM      1  C   UNL     1     409.227 -85.367 114.505  1.00  0.00    -0.075 C 
ATOM      2  C   UNL     1     410.480 -85.806 114.758  1.00  0.00    -0.000 C 
ATOM      3  C   UNL     1     408.980 -84.123 113.685  1.00  0.00     0.039 C 
ENDROOT
BRANCH   1   4
ATOM      4  C   UNL     1     408.048 -86.136 115.060  1.00  0.00     0.034 C 
BRANCH   4   5
ATOM      5  C   UNL     1     406.741 -85.370 114.830  1.00  0.00     0.032 C 
BRANCH   5   6
ATOM      6  C   UNL     1     405.818 -86.146 113.924  1.00  0.00    -0.028 C 
ATOM      7  C   UNL     1     404.189 -86.495 112.118  1.00  0.00     0.039 C 
ATOM      8  C   UNL     1     405.104 -85.601 112.914  1.00  0.00    -0.080 C 
ATOM      9  C   UNL     1     405.210 -84.137 112.556  1.00  0.00     0.039 C 
ENDBRANCH   5   6
ENDBRANCH   4   5
ENDBRANCH   1   4
BRANCH   2  10
ATOM     10  C   UNL     1     411.717 -85.111 114.250  1.00  0.00     0.183 C 
BRANCH  10  11
ATOM     11  O   UNL     1     412.850 -85.900 114.486  1.00  0.00    -0.392 OA
ATOM     12  H   UNL     1     412.571 -86.845 114.354  1.00  0.00     0.210 HD
ENDBRANCH  10  11
ENDBRANCH   2  10
TORSDOF 5
ENDMDL
MODEL 3
REMARK VINA RESULT:    -3.877      3.105      5.888
REMARK INTER + INTRA:          -5.231
REMARK INTER:                  -4.924
REMARK INTRA:                  -0.307
REMARK UNBOUND:                -0.334
REMARK SMILES CC(C)=CCCC(C)=CCO
REMARK SMILES IDX 7 1 9 2 8 3 6 4 5 5 4 6 1 7 2 8 3 9 10 10 11 11
REMARK H PARENT 11 12
REMARK Flexibility Score: inf
ROOT
ATOM      1  C   UNL     1     411.063 -84.932 114.574  1.00  0.00    -0.075 C 
ATOM      2  C   UNL     1     411.366 -85.272 115.846  1.00  0.00    -0.000 C 
ATOM      3  C   UNL     1     412.123 -84.445 113.616  1.00  0.00     0.039 C 
ENDROOT
BRANCH   1   4
ATOM      4  C   UNL     1     409.629 -85.038 114.102  1.00  0.00     0.034 C 
BRANCH   4   5
ATOM      5  C   UNL     1     408.849 -86.047 114.950  1.00  0.00     0.032 C 
BRANCH   5   6
ATOM      6  C   UNL     1     407.671 -85.385 115.621  1.00  0.00    -0.028 C 
ATOM      7  C   UNL     1     405.340 -84.656 115.895  1.00  0.00     0.039 C 
ATOM      8  C   UNL     1     406.410 -85.397 115.135  1.00  0.00    -0.080 C 
ATOM      9  C   UNL     1     406.045 -86.141 113.872  1.00  0.00     0.039 C 
ENDBRANCH   5   6
ENDBRANCH   4   5
ENDBRANCH   1   4
BRANCH   2  10
ATOM     10  C   UNL     1     412.762 -85.202 116.409  1.00  0.00     0.183 C 
BRANCH  10  11
ATOM     11  O   UNL     1     413.046 -86.356 117.152  1.00  0.00    -0.392 OA
ATOM     12  H   UNL     1     412.614 -87.114 116.676  1.00  0.00     0.210 HD
ENDBRANCH  10  11
ENDBRANCH   2  10
TORSDOF 5
ENDMDL
MODEL 4
REMARK VINA RESULT:    -3.793      2.598      5.420
REMARK INTER + INTRA:          -5.125
REMARK INTER:                  -4.872
REMARK INTRA:                  -0.252
REMARK UNBOUND:                -0.334
REMARK SMILES CC(C)=CCCC(C)=CCO
REMARK SMILES IDX 7 1 9 2 8 3 6 4 5 5 4 6 1 7 2 8 3 9 10 10 11 11
REMARK H PARENT 11 12
REMARK Flexibility Score: inf
ROOT
ATOM      1  C   UNL     1     410.905 -85.259 114.219  1.00  0.00    -0.075 C 
ATOM      2  C   UNL     1     410.603 -84.525 113.124  1.00  0.00    -0.000 C 
ATOM      3  C   UNL     1     412.336 -85.498 114.636  1.00  0.00     0.039 C 
ENDROOT
BRANCH   1   4
ATOM      4  C   UNL     1     409.783 -85.856 115.041  1.00  0.00     0.034 C 
BRANCH   4   5
ATOM      5  C   UNL     1     408.529 -84.980 114.969  1.00  0.00     0.032 C 
BRANCH   5   6
ATOM      6  C   UNL     1     407.412 -85.700 114.257  1.00  0.00    -0.028 C 
ATOM      7  C   UNL     1     405.091 -86.287 113.701  1.00  0.00     0.039 C 
ATOM      8  C   UNL     1     406.097 -85.457 114.455  1.00  0.00    -0.080 C 
ATOM      9  C   UNL     1     405.615 -84.375 115.393  1.00  0.00     0.039 C 
ENDBRANCH   5   6
ENDBRANCH   4   5
ENDBRANCH   1   4
BRANCH   2  10
ATOM     10  C   UNL     1     411.647 -83.890 112.243  1.00  0.00     0.183 C 
BRANCH  10  11
ATOM     11  O   UNL     1     411.714 -84.554 111.011  1.00  0.00    -0.392 OA
ATOM     12  H   UNL     1     410.843 -84.401 110.558  1.00  0.00     0.210 HD
ENDBRANCH  10  11
ENDBRANCH   2  10
TORSDOF 5
ENDMDL
MODEL 5
REMARK VINA RESULT:    -3.778      1.689      2.132
REMARK INTER + INTRA:          -5.106
REMARK INTER:                  -4.795
REMARK INTRA:                  -0.311
REMARK UNBOUND:                -0.334
REMARK SMILES CC(C)=CCCC(C)=CCO
REMARK SMILES IDX 7 1 9 2 8 3 6 4 5 5 4 6 1 7 2 8 3 9 10 10 11 11
REMARK H PARENT 11 12
REMARK Flexibility Score: inf
ROOT
ATOM      1  C   UNL     1     406.933 -85.784 115.018  1.00  0.00    -0.075 C 
ATOM      2  C   UNL     1     406.539 -85.035 116.072  1.00  0.00    -0.000 C 
ATOM      3  C   UNL     1     405.982 -86.125 113.896  1.00  0.00     0.039 C 
ENDROOT
BRANCH   1   4
ATOM      4  C   UNL     1     408.357 -86.293 114.965  1.00  0.00     0.034 C 
BRANCH   4   5
ATOM      5  C   UNL     1     409.352 -85.156 115.215  1.00  0.00     0.032 C 
BRANCH   5   6
ATOM      6  C   UNL     1     409.935 -84.658 113.915  1.00  0.00    -0.028 C 
ATOM      7  C   UNL     1     411.688 -84.151 112.270  1.00  0.00     0.039 C 
ATOM      8  C   UNL     1     411.244 -84.729 113.589  1.00  0.00    -0.080 C 
ATOM      9  C   UNL     1     412.262 -85.379 114.496  1.00  0.00     0.039 C 
ENDBRANCH   5   6
ENDBRANCH   4   5
ENDBRANCH   1   4
BRANCH   2  10
ATOM     10  C   UNL     1     405.144 -84.481 116.216  1.00  0.00     0.183 C 
BRANCH  10  11
ATOM     11  O   UNL     1     404.809 -84.355 117.570  1.00  0.00    -0.392 OA
ATOM     12  H   UNL     1     404.413 -85.223 117.847  1.00  0.00     0.210 HD
ENDBRANCH  10  11
ENDBRANCH   2  10
TORSDOF 5
ENDMDL
MODEL 6
REMARK VINA RESULT:    -3.661     10.936     12.742
REMARK INTER + INTRA:          -4.958
REMARK INTER:                  -4.797
REMARK INTRA:                  -0.161
REMARK UNBOUND:                -0.334
REMARK SMILES CC(C)=CCCC(C)=CCO
REMARK SMILES IDX 7 1 9 2 8 3 6 4 5 5 4 6 1 7 2 8 3 9 10 10 11 11
REMARK H PARENT 11 12
REMARK Flexibility Score: inf
ROOT
ATOM      1  C   UNL     1     404.845 -92.280 106.062  1.00  0.00    -0.075 C 
ATOM      2  C   UNL     1     405.476 -91.085 106.080  1.00  0.00    -0.000 C 
ATOM      3  C   UNL     1     403.879 -92.643 104.960  1.00  0.00     0.039 C 
ENDROOT
BRANCH   1   4
ATOM      4  C   UNL     1     405.110 -93.273 107.172  1.00  0.00     0.034 C 
BRANCH   4   5
ATOM      5  C   UNL     1     406.020 -94.405 106.685  1.00  0.00     0.032 C 
BRANCH   5   6
ATOM      6  C   UNL     1     405.208 -95.525 106.084  1.00  0.00    -0.028 C 
ATOM      7  C   UNL     1     403.878 -97.591 106.053  1.00  0.00     0.039 C 
ATOM      8  C   UNL     1     404.626 -96.515 106.796  1.00  0.00    -0.080 C 
ATOM      9  C   UNL     1     404.692 -96.561 108.305  1.00  0.00     0.039 C 
ENDBRANCH   5   6
ENDBRANCH   4   5
ENDBRANCH   1   4
BRANCH   2  10
ATOM     10  C   UNL     1     405.279 -90.032 105.021  1.00  0.00     0.183 C 
BRANCH  10  11
ATOM     11  O   UNL     1     404.452 -89.008 105.501  1.00  0.00    -0.392 OA
ATOM     12  H   UNL     1     403.707 -89.449 105.989  1.00  0.00     0.210 HD
ENDBRANCH  10  11
ENDBRANCH   2  10
TORSDOF 5
ENDMDL
MODEL 7
REMARK VINA RESULT:    -3.582     14.633     16.025
REMARK INTER + INTRA:          -4.858
REMARK INTER:                  -4.604
REMARK INTRA:                  -0.254
REMARK UNBOUND:                -0.334
REMARK SMILES CC(C)=CCCC(C)=CCO
REMARK SMILES IDX 7 1 9 2 8 3 6 4 5 5 4 6 1 7 2 8 3 9 10 10 11 11
REMARK H PARENT 11 12
REMARK Flexibility Score: inf
ROOT
ATOM      1  C   UNL     1     422.454 -89.207 120.552  1.00  0.00    -0.075 C 
ATOM      2  C   UNL     1     421.772 -90.321 120.899  1.00  0.00    -0.000 C 
ATOM      3  C   UNL     1     423.801 -89.289 119.874  1.00  0.00     0.039 C 
ENDROOT
BRANCH   1   4
ATOM      4  C   UNL     1     421.857 -87.850 120.854  1.00  0.00     0.034 C 
BRANCH   4   5
ATOM      5  C   UNL     1     420.397 -87.983 121.297  1.00  0.00     0.032 C 
BRANCH   5   6
ATOM      6  C   UNL     1     420.271 -87.798 122.789  1.00  0.00    -0.028 C 
ATOM      7  C   UNL     1     419.925 -86.583 124.896  1.00  0.00     0.039 C 
ATOM      8  C   UNL     1     419.977 -86.625 123.391  1.00  0.00    -0.080 C 
ATOM      9  C   UNL     1     419.685 -85.370 122.601  1.00  0.00     0.039 C 
ENDBRANCH   5   6
ENDBRANCH   4   5
ENDBRANCH   1   4
BRANCH   2  10
ATOM     10  C   UNL     1     422.281 -91.715 120.640  1.00  0.00     0.183 C 
BRANCH  10  11
ATOM     11  O   UNL     1     421.371 -92.426 119.847  1.00  0.00    -0.392 OA
ATOM     12  H   UNL     1     420.673 -92.777 120.460  1.00  0.00     0.210 HD
ENDBRANCH  10  11
ENDBRANCH   2  10
TORSDOF 5
ENDMDL
MODEL 8
REMARK VINA RESULT:    -3.441     13.088     15.448
REMARK INTER + INTRA:          -4.680
REMARK INTER:                  -4.294
REMARK INTRA:                  -0.386
REMARK UNBOUND:                -0.334
REMARK SMILES CC(C)=CCCC(C)=CCO
REMARK SMILES IDX 7 1 9 2 8 3 6 4 5 5 4 6 1 7 2 8 3 9 10 10 11 11
REMARK H PARENT 11 12
REMARK Flexibility Score: inf
ROOT
ATOM      1  C   UNL     1     422.596 -89.273 120.868  1.00  0.00    -0.075 C 
ATOM      2  C   UNL     1     422.033 -90.488 121.044  1.00  0.00    -0.000 C 
ATOM      3  C   UNL     1     423.721 -89.062 119.884  1.00  0.00     0.039 C 
ENDROOT
BRANCH   1   4
ATOM      4  C   UNL     1     422.091 -88.099 121.679  1.00  0.00     0.034 C 
BRANCH   4   5
ATOM      5  C   UNL     1     420.585 -87.906 121.478  1.00  0.00     0.032 C 
BRANCH   5   6
ATOM      6  C   UNL     1     420.310 -87.092 120.238  1.00  0.00    -0.028 C 
ATOM      7  C   UNL     1     419.738 -85.097 118.922  1.00  0.00     0.039 C 
ATOM      8  C   UNL     1     420.033 -85.770 120.238  1.00  0.00    -0.080 C 
ATOM      9  C   UNL     1     420.028 -84.952 121.508  1.00  0.00     0.039 C 
ENDBRANCH   5   6
ENDBRANCH   4   5
ENDBRANCH   1   4
BRANCH   2  10
ATOM     10  C   UNL     1     422.465 -91.716 120.284  1.00  0.00     0.183 C 
BRANCH  10  11
ATOM     11  O   UNL     1     421.346 -92.452 119.872  1.00  0.00    -0.392 OA
ATOM     12  H   UNL     1     420.967 -91.976 119.086  1.00  0.00     0.210 HD
ENDBRANCH  10  11
ENDBRANCH   2  10
TORSDOF 5
ENDMDL
MODEL 9
REMARK VINA RESULT:    -3.196      2.686      4.141
REMARK INTER + INTRA:          -4.370
REMARK INTER:                  -4.084
REMARK INTRA:                  -0.286
REMARK UNBOUND:                -0.334
REMARK SMILES CC(C)=CCCC(C)=CCO
REMARK SMILES IDX 7 1 9 2 8 3 6 4 5 5 4 6 1 7 2 8 3 9 10 10 11 11
REMARK H PARENT 11 12
REMARK Flexibility Score: inf
ROOT
ATOM      1  C   UNL     1     409.799 -84.915 114.978  1.00  0.00    -0.075 C 
ATOM      2  C   UNL     1     408.485 -85.004 115.282  1.00  0.00    -0.000 C 
ATOM      3  C   UNL     1     410.266 -84.718 113.555  1.00  0.00     0.039 C 
ENDROOT
BRANCH   1   4
ATOM      4  C   UNL     1     410.823 -85.021 116.086  1.00  0.00     0.034 C 
BRANCH   4   5
ATOM      5  C   UNL     1     412.238 -84.798 115.544  1.00  0.00     0.032 C 
BRANCH   5   6
ATOM      6  C   UNL     1     413.152 -84.281 116.627  1.00  0.00    -0.028 C 
ATOM      7  C   UNL     1     414.783 -84.406 118.461  1.00  0.00     0.039 C 
ATOM      8  C   UNL     1     413.954 -85.060 117.386  1.00  0.00    -0.080 C 
ATOM      9  C   UNL     1     414.052 -86.552 117.176  1.00  0.00     0.039 C 
ENDBRANCH   5   6
ENDBRANCH   4   5
ENDBRANCH   1   4
BRANCH   2  10
ATOM     10  C   UNL     1     407.391 -84.910 114.250  1.00  0.00     0.183 C 
BRANCH  10  11
ATOM     11  O   UNL     1     406.747 -86.147 114.110  1.00  0.00    -0.392 OA
ATOM     12  H   UNL     1     406.816 -86.397 113.152  1.00  0.00     0.210 HD
ENDBRANCH  10  11
ENDBRANCH   2  10
TORSDOF 5
ENDMDL
