MODEL 1
REMARK VINA RESULT:    -5.005      0.000      0.000
REMARK INTER + INTRA:         -11.497
REMARK INTER:                  -9.102
REMARK INTRA:                  -2.395
REMARK UNBOUND:                -2.395
REMARK SMILES CCCCCC=CCC=CCCCCCCCC(=O)[O-]
REMARK SMILES IDX 11 1 12 2 13 3 14 4 15 5 16 6 17 7 18 8 19 9 20 10 10 11
REMARK SMILES IDX 9 12 8 13 7 14 6 15 5 16 4 17 3 18 2 19 1 20
REMARK H PARENT
REMARK Flexibility Score: inf
ROOT
ATOM      1  C   UNL     1       5.988  -2.640   2.814  1.00  0.00     0.027 C 
ENDROOT
BRANCH   1   2
ATOM      2  C   UNL     1       5.730  -1.847   1.523  1.00  0.00     0.004 C 
BRANCH   2   3
ATOM      3  C   UNL     1       5.440  -0.357   1.779  1.00  0.00     0.000 C 
BRANCH   3   4
ATOM      4  C   UNL     1       6.263   0.625   0.923  1.00  0.00     0.000 C 
BRANCH   4   5
ATOM      5  C   UNL     1       7.556   1.090   1.616  1.00  0.00     0.000 C 
BRANCH   5   6
ATOM      6  C   UNL     1       7.542   2.592   1.952  1.00  0.00     0.006 C 
BRANCH   6   7
ATOM      7  C   UNL     1       8.188   3.480   0.875  1.00  0.00     0.053 C 
BRANCH   7   8
ATOM      8  C   UNL     1       7.164   4.177   0.031  1.00  0.00     0.041 C 
ATOM      9  O   UNL     1       6.837   5.367   0.282  1.00  0.00    -0.550 OA
ATOM     10  O   UNL     1       6.596   3.522  -1.055  1.00  0.00    -0.550 OA
ENDBRANCH   7   8
ENDBRANCH   6   7
ENDBRANCH   5   6
ENDBRANCH   4   5
ENDBRANCH   3   4
ENDBRANCH   2   3
ENDBRANCH   1   2
BRANCH   1  11
ATOM     11  C   UNL     1       7.361  -2.359   3.360  1.00  0.00    -0.031 C 
ATOM     12  C   UNL     1       8.073  -3.317   3.972  1.00  0.00    -0.027 C 
BRANCH  12  13
ATOM     13  C   UNL     1       9.472  -3.073   4.462  1.00  0.00     0.054 C 
BRANCH  13  14
ATOM     14  C   UNL     1       9.922  -1.666   4.156  1.00  0.00    -0.027 C 
ATOM     15  C   UNL     1       9.842  -0.632   5.015  1.00  0.00    -0.031 C 
BRANCH  15  16
ATOM     16  C   UNL     1       9.241  -0.708   6.395  1.00  0.00     0.027 C 
BRANCH  16  17
ATOM     17  C   UNL     1       8.232   0.424   6.618  1.00  0.00     0.004 C 
BRANCH  17  18
ATOM     18  C   UNL     1       7.628   0.890   5.285  1.00  0.00     0.000 C 
BRANCH  18  19
ATOM     19  C   UNL     1       6.111   0.658   5.211  1.00  0.00    -0.003 C 
ATOM     20  C   UNL     1       5.648  -0.507   6.085  1.00  0.00     0.004 C 
ENDBRANCH  18  19
ENDBRANCH  17  18
ENDBRANCH  16  17
ENDBRANCH  15  16
ENDBRANCH  13  14
ENDBRANCH  12  13
ENDBRANCH   1  11
TORSDOF 14
ENDMDL
MODEL 2
REMARK VINA RESULT:    -4.958      3.405      6.161
REMARK INTER + INTRA:         -11.411
REMARK INTER:                  -9.102
REMARK INTRA:                  -2.309
REMARK UNBOUND:                -2.395
REMARK SMILES CCCCCC=CCC=CCCCCCCCC(=O)[O-]
REMARK SMILES IDX 11 1 12 2 13 3 14 4 15 5 16 6 17 7 18 8 19 9 20 10 10 11
REMARK SMILES IDX 9 12 8 13 7 14 6 15 5 16 4 17 3 18 2 19 1 20
REMARK H PARENT
REMARK Flexibility Score: inf
ROOT
ATOM      1  C   UNL     1       9.639  -1.675   4.177  1.00  0.00     0.027 C 
ENDROOT
BRANCH   1   2
ATOM      2  C   UNL     1       9.741  -0.753   5.403  1.00  0.00     0.004 C 
BRANCH   2   3
ATOM      3  C   UNL     1       9.032   0.598   5.200  1.00  0.00     0.000 C 
BRANCH   3   4
ATOM      4  C   UNL     1       8.013   0.972   6.295  1.00  0.00     0.000 C 
BRANCH   4   5
ATOM      5  C   UNL     1       6.554   0.861   5.821  1.00  0.00     0.000 C 
BRANCH   5   6
ATOM      6  C   UNL     1       5.745  -0.173   6.627  1.00  0.00     0.006 C 
BRANCH   6   7
ATOM      7  C   UNL     1       4.449  -0.630   5.936  1.00  0.00     0.053 C 
BRANCH   7   8
ATOM      8  C   UNL     1       3.298  -0.705   6.893  1.00  0.00     0.041 C 
ATOM      9  O   UNL     1       2.168  -1.096   6.498  1.00  0.00    -0.550 OA
ATOM     10  O   UNL     1       3.483  -0.376   8.230  1.00  0.00    -0.550 OA
ENDBRANCH   7   8
ENDBRANCH   6   7
ENDBRANCH   5   6
ENDBRANCH   4   5
ENDBRANCH   3   4
ENDBRANCH   2   3
ENDBRANCH   1   2
BRANCH   1  11
ATOM     11  C   UNL     1       8.249  -1.663   3.602  1.00  0.00    -0.031 C 
ATOM     12  C   UNL     1       7.399  -2.677   3.823  1.00  0.00    -0.027 C 
BRANCH  12  13
ATOM     13  C   UNL     1       5.985  -2.649   3.316  1.00  0.00     0.054 C 
BRANCH  13  14
ATOM     14  C   UNL     1       5.938  -2.342   1.840  1.00  0.00    -0.027 C 
ATOM     15  C   UNL     1       5.672  -1.130   1.317  1.00  0.00    -0.031 C 
BRANCH  15  16
ATOM     16  C   UNL     1       5.325   0.095   2.125  1.00  0.00     0.027 C 
BRANCH  16  17
ATOM     17  C   UNL     1       6.496   1.084   2.152  1.00  0.00     0.004 C 
BRANCH  17  18
ATOM     18  C   UNL     1       7.075   1.286   0.744  1.00  0.00     0.000 C 
BRANCH  18  19
ATOM     19  C   UNL     1       6.321   2.360  -0.056  1.00  0.00    -0.003 C 
ATOM     20  C   UNL     1       6.796   2.460  -1.506  1.00  0.00     0.004 C 
ENDBRANCH  18  19
ENDBRANCH  17  18
ENDBRANCH  16  17
ENDBRANCH  15  16
ENDBRANCH  13  14
ENDBRANCH  12  13
ENDBRANCH   1  11
TORSDOF 14
ENDMDL
MODEL 3
REMARK VINA RESULT:    -4.830      5.213      7.566
REMARK INTER + INTRA:         -11.178
REMARK INTER:                 -10.065
REMARK INTRA:                  -1.113
REMARK UNBOUND:                -2.395
REMARK SMILES CCCCCC=CCC=CCCCCCCCC(=O)[O-]
REMARK SMILES IDX 11 1 12 2 13 3 14 4 15 5 16 6 17 7 18 8 19 9 20 10 10 11
REMARK SMILES IDX 9 12 8 13 7 14 6 15 5 16 4 17 3 18 2 19 1 20
REMARK H PARENT
REMARK Flexibility Score: inf
ROOT
ATOM      1  C   UNL     1       5.876  -3.598   7.584  1.00  0.00     0.027 C 
ENDROOT
BRANCH   1   2
ATOM      2  C   UNL     1       4.355  -3.482   7.397  1.00  0.00     0.004 C 
BRANCH   2   3
ATOM      3  C   UNL     1       3.622  -3.053   8.681  1.00  0.00     0.000 C 
BRANCH   3   4
ATOM      4  C   UNL     1       2.107  -3.341   8.696  1.00  0.00     0.000 C 
BRANCH   4   5
ATOM      5  C   UNL     1       1.316  -2.354   9.573  1.00  0.00     0.000 C 
BRANCH   5   6
ATOM      6  C   UNL     1       1.666  -0.885   9.275  1.00  0.00     0.006 C 
BRANCH   6   7
ATOM      7  C   UNL     1       0.868  -0.275   8.111  1.00  0.00     0.053 C 
BRANCH   7   8
ATOM      8  C   UNL     1      -0.504   0.156   8.534  1.00  0.00     0.041 C 
ATOM      9  O   UNL     1      -1.448  -0.676   8.569  1.00  0.00    -0.550 OA
ATOM     10  O   UNL     1      -0.731   1.471   8.922  1.00  0.00    -0.550 OA
ENDBRANCH   7   8
ENDBRANCH   6   7
ENDBRANCH   5   6
ENDBRANCH   4   5
ENDBRANCH   3   4
ENDBRANCH   2   3
ENDBRANCH   1   2
BRANCH   1  11
ATOM     11  C   UNL     1       6.592  -3.546   6.262  1.00  0.00    -0.031 C 
ATOM     12  C   UNL     1       6.130  -2.793   5.253  1.00  0.00    -0.027 C 
BRANCH  12  13
ATOM     13  C   UNL     1       6.869  -2.675   3.950  1.00  0.00     0.054 C 
BRANCH  13  14
ATOM     14  C   UNL     1       8.234  -3.312   4.035  1.00  0.00    -0.027 C 
ATOM     15  C   UNL     1       9.392  -2.633   4.133  1.00  0.00    -0.031 C 
BRANCH  15  16
ATOM     16  C   UNL     1       9.509  -1.130   4.120  1.00  0.00     0.027 C 
BRANCH  16  17
ATOM     17  C   UNL     1       9.780  -0.613   2.703  1.00  0.00     0.004 C 
BRANCH  17  18
ATOM     18  C   UNL     1       8.845   0.557   2.359  1.00  0.00     0.000 C 
BRANCH  18  19
ATOM     19  C   UNL     1       7.641   0.120   1.511  1.00  0.00    -0.003 C 
ATOM     20  C   UNL     1       6.962   1.291   0.800  1.00  0.00     0.004 C 
ENDBRANCH  18  19
ENDBRANCH  17  18
ENDBRANCH  16  17
ENDBRANCH  15  16
ENDBRANCH  13  14
ENDBRANCH  12  13
ENDBRANCH   1  11
TORSDOF 14
ENDMDL
MODEL 4
REMARK VINA RESULT:    -4.826      4.481      7.370
REMARK INTER + INTRA:         -11.171
REMARK INTER:                  -8.482
REMARK INTRA:                  -2.689
REMARK UNBOUND:                -2.395
REMARK SMILES CCCCCC=CCC=CCCCCCCCC(=O)[O-]
REMARK SMILES IDX 11 1 12 2 13 3 14 4 15 5 16 6 17 7 18 8 19 9 20 10 10 11
REMARK SMILES IDX 9 12 8 13 7 14 6 15 5 16 4 17 3 18 2 19 1 20
REMARK H PARENT
REMARK Flexibility Score: inf
ROOT
ATOM      1  C   UNL     1       7.611  -3.237   4.556  1.00  0.00     0.027 C 
ENDROOT
BRANCH   1   2
ATOM      2  C   UNL     1       9.134  -3.353   4.731  1.00  0.00     0.004 C 
BRANCH   2   3
ATOM      3  C   UNL     1       9.632  -2.775   6.068  1.00  0.00     0.000 C 
BRANCH   3   4
ATOM      4  C   UNL     1       8.523  -2.303   7.029  1.00  0.00     0.000 C 
BRANCH   4   5
ATOM      5  C   UNL     1       8.429  -3.158   8.305  1.00  0.00     0.000 C 
BRANCH   5   6
ATOM      6  C   UNL     1       8.964  -4.588   8.100  1.00  0.00     0.006 C 
BRANCH   6   7
ATOM      7  C   UNL     1       7.967  -5.691   8.492  1.00  0.00     0.053 C 
BRANCH   7   8
ATOM      8  C   UNL     1       6.905  -5.885   7.452  1.00  0.00     0.041 C 
ATOM      9  O   UNL     1       7.217  -6.235   6.284  1.00  0.00    -0.550 OA
ATOM     10  O   UNL     1       5.567  -5.713   7.784  1.00  0.00    -0.550 OA
ENDBRANCH   7   8
ENDBRANCH   6   7
ENDBRANCH   5   6
ENDBRANCH   4   5
ENDBRANCH   3   4
ENDBRANCH   2   3
ENDBRANCH   1   2
BRANCH   1  11
ATOM     11  C   UNL     1       7.256  -2.790   3.165  1.00  0.00    -0.031 C 
ATOM     12  C   UNL     1       6.088  -2.180   2.910  1.00  0.00    -0.027 C 
BRANCH  12  13
ATOM     13  C   UNL     1       5.746  -1.665   1.541  1.00  0.00     0.054 C 
BRANCH  13  14
ATOM     14  C   UNL     1       5.205  -0.258   1.605  1.00  0.00    -0.027 C 
ATOM     15  C   UNL     1       5.916   0.850   1.321  1.00  0.00    -0.031 C 
BRANCH  15  16
ATOM     16  C   UNL     1       7.377   0.859   0.948  1.00  0.00     0.027 C 
BRANCH  16  17
ATOM     17  C   UNL     1       8.228   1.450   2.078  1.00  0.00     0.004 C 
BRANCH  17  18
ATOM     18  C   UNL     1       9.085   0.362   2.743  1.00  0.00     0.000 C 
BRANCH  18  19
ATOM     19  C   UNL     1       8.932   0.342   4.271  1.00  0.00    -0.003 C 
ATOM     20  C   UNL     1       7.510   0.670   4.727  1.00  0.00     0.004 C 
ENDBRANCH  18  19
ENDBRANCH  17  18
ENDBRANCH  16  17
ENDBRANCH  15  16
ENDBRANCH  13  14
ENDBRANCH  12  13
ENDBRANCH   1  11
TORSDOF 14
ENDMDL
MODEL 5
REMARK VINA RESULT:    -4.810      3.753      6.504
REMARK INTER + INTRA:         -11.141
REMARK INTER:                  -8.498
REMARK INTRA:                  -2.644
REMARK UNBOUND:                -2.395
REMARK SMILES CCCCCC=CCC=CCCCCCCCC(=O)[O-]
REMARK SMILES IDX 11 1 12 2 13 3 14 4 15 5 16 6 17 7 18 8 19 9 20 10 10 11
REMARK SMILES IDX 9 12 8 13 7 14 6 15 5 16 4 17 3 18 2 19 1 20
REMARK H PARENT
REMARK Flexibility Score: inf
ROOT
ATOM      1  C   UNL     1       9.663  -2.996   4.412  1.00  0.00     0.027 C 
ENDROOT
BRANCH   1   2
ATOM      2  C   UNL     1       9.651  -2.711   5.922  1.00  0.00     0.004 C 
BRANCH   2   3
ATOM      3  C   UNL     1       9.860  -1.222   6.256  1.00  0.00     0.000 C 
BRANCH   3   4
ATOM      4  C   UNL     1       8.622  -0.500   6.822  1.00  0.00     0.000 C 
BRANCH   4   5
ATOM      5  C   UNL     1       7.633  -1.455   7.514  1.00  0.00     0.000 C 
BRANCH   5   6
ATOM      6  C   UNL     1       6.179  -1.234   7.059  1.00  0.00     0.006 C 
BRANCH   6   7
ATOM      7  C   UNL     1       5.182  -2.256   7.632  1.00  0.00     0.053 C 
BRANCH   7   8
ATOM      8  C   UNL     1       4.998  -3.434   6.723  1.00  0.00     0.041 C 
ATOM      9  O   UNL     1       3.917  -3.588   6.095  1.00  0.00    -0.550 OA
ATOM     10  O   UNL     1       6.034  -4.341   6.542  1.00  0.00    -0.550 OA
ENDBRANCH   7   8
ENDBRANCH   6   7
ENDBRANCH   5   6
ENDBRANCH   4   5
ENDBRANCH   3   4
ENDBRANCH   2   3
ENDBRANCH   1   2
BRANCH   1  11
ATOM     11  C   UNL     1       8.287  -3.340   3.913  1.00  0.00    -0.031 C 
ATOM     12  C   UNL     1       7.324  -2.409   3.838  1.00  0.00    -0.027 C 
BRANCH  12  13
ATOM     13  C   UNL     1       5.965  -2.718   3.277  1.00  0.00     0.054 C 
BRANCH  13  14
ATOM     14  C   UNL     1       5.916  -2.469   1.790  1.00  0.00    -0.027 C 
ATOM     15  C   UNL     1       5.616  -1.286   1.220  1.00  0.00    -0.031 C 
BRANCH  15  16
ATOM     16  C   UNL     1       5.231  -0.042   1.979  1.00  0.00     0.027 C 
BRANCH  16  17
ATOM     17  C   UNL     1       6.411   0.932   2.073  1.00  0.00     0.004 C 
BRANCH  17  18
ATOM     18  C   UNL     1       7.522   0.542   1.087  1.00  0.00     0.000 C 
BRANCH  18  19
ATOM     19  C   UNL     1       8.834   0.169   1.795  1.00  0.00    -0.003 C 
ATOM     20  C   UNL     1       8.980   0.837   3.161  1.00  0.00     0.004 C 
ENDBRANCH  18  19
ENDBRANCH  17  18
ENDBRANCH  16  17
ENDBRANCH  15  16
ENDBRANCH  13  14
ENDBRANCH  12  13
ENDBRANCH   1  11
TORSDOF 14
ENDMDL
MODEL 6
REMARK VINA RESULT:    -4.787      5.219      7.522
REMARK INTER + INTRA:         -11.100
REMARK INTER:                  -9.411
REMARK INTRA:                  -1.689
REMARK UNBOUND:                -2.395
REMARK SMILES CCCCCC=CCC=CCCCCCCCC(=O)[O-]
REMARK SMILES IDX 11 1 12 2 13 3 14 4 15 5 16 6 17 7 18 8 19 9 20 10 10 11
REMARK SMILES IDX 9 12 8 13 7 14 6 15 5 16 4 17 3 18 2 19 1 20
REMARK H PARENT
REMARK Flexibility Score: inf
ROOT
ATOM      1  C   UNL     1       4.433  -2.266   6.699  1.00  0.00     0.027 C 
ENDROOT
BRANCH   1   2
ATOM      2  C   UNL     1       3.723  -3.615   6.898  1.00  0.00     0.004 C 
BRANCH   2   3
ATOM      3  C   UNL     1       2.644  -3.571   7.996  1.00  0.00     0.000 C 
BRANCH   3   4
ATOM      4  C   UNL     1       3.152  -3.169   9.395  1.00  0.00     0.000 C 
BRANCH   4   5
ATOM      5  C   UNL     1       2.533  -1.855   9.904  1.00  0.00     0.000 C 
BRANCH   5   6
ATOM      6  C   UNL     1       1.108  -1.624   9.368  1.00  0.00     0.006 C 
BRANCH   6   7
ATOM      7  C   UNL     1       0.923  -0.281   8.641  1.00  0.00     0.053 C 
BRANCH   7   8
ATOM      8  C   UNL     1      -0.507   0.168   8.644  1.00  0.00     0.041 C 
ATOM      9  O   UNL     1      -0.787   1.394   8.710  1.00  0.00    -0.550 OA
ATOM     10  O   UNL     1      -1.529  -0.767   8.540  1.00  0.00    -0.550 OA
ENDBRANCH   7   8
ENDBRANCH   6   7
ENDBRANCH   5   6
ENDBRANCH   4   5
ENDBRANCH   3   4
ENDBRANCH   2   3
ENDBRANCH   1   2
BRANCH   1  11
ATOM     11  C   UNL     1       5.922  -2.445   6.601  1.00  0.00    -0.031 C 
ATOM     12  C   UNL     1       6.454  -3.564   6.087  1.00  0.00    -0.027 C 
BRANCH  12  13
ATOM     13  C   UNL     1       7.938  -3.731   5.918  1.00  0.00     0.054 C 
BRANCH  13  14
ATOM     14  C   UNL     1       8.317  -3.817   4.461  1.00  0.00    -0.027 C 
ATOM     15  C   UNL     1       8.630  -2.761   3.686  1.00  0.00    -0.031 C 
BRANCH  15  16
ATOM     16  C   UNL     1       8.597  -1.325   4.141  1.00  0.00     0.027 C 
BRANCH  16  17
ATOM     17  C   UNL     1       7.855  -0.445   3.129  1.00  0.00     0.004 C 
BRANCH  17  18
ATOM     18  C   UNL     1       6.369  -0.828   3.057  1.00  0.00     0.000 C 
BRANCH  18  19
ATOM     19  C   UNL     1       5.909  -1.143   1.626  1.00  0.00    -0.003 C 
ATOM     20  C   UNL     1       5.639  -2.631   1.405  1.00  0.00     0.004 C 
ENDBRANCH  18  19
ENDBRANCH  17  18
ENDBRANCH  16  17
ENDBRANCH  15  16
ENDBRANCH  13  14
ENDBRANCH  12  13
ENDBRANCH   1  11
TORSDOF 14
ENDMDL
MODEL 7
REMARK VINA RESULT:    -4.767      3.599      6.836
REMARK INTER + INTRA:         -11.064
REMARK INTER:                  -9.111
REMARK INTRA:                  -1.953
REMARK UNBOUND:                -2.395
REMARK SMILES CCCCCC=CCC=CCCCCCCCC(=O)[O-]
REMARK SMILES IDX 11 1 12 2 13 3 14 4 15 5 16 6 17 7 18 8 19 9 20 10 10 11
REMARK SMILES IDX 9 12 8 13 7 14 6 15 5 16 4 17 3 18 2 19 1 20
REMARK H PARENT
REMARK Flexibility Score: inf
ROOT
ATOM      1  C   UNL     1       6.443   0.346   6.285  1.00  0.00     0.027 C 
ENDROOT
BRANCH   1   2
ATOM      2  C   UNL     1       7.939   0.696   6.259  1.00  0.00     0.004 C 
BRANCH   2   3
ATOM      3  C   UNL     1       8.605   0.393   4.904  1.00  0.00     0.000 C 
BRANCH   3   4
ATOM      4  C   UNL     1       9.483  -0.874   4.877  1.00  0.00     0.000 C 
BRANCH   4   5
ATOM      5  C   UNL     1       9.120  -1.833   3.730  1.00  0.00     0.000 C 
BRANCH   5   6
ATOM      6  C   UNL     1       8.604  -3.194   4.235  1.00  0.00     0.006 C 
BRANCH   6   7
ATOM      7  C   UNL     1       8.141  -3.181   5.702  1.00  0.00     0.053 C 
BRANCH   7   8
ATOM      8  C   UNL     1       6.952  -4.067   5.924  1.00  0.00     0.041 C 
ATOM      9  O   UNL     1       5.787  -3.612   5.785  1.00  0.00    -0.550 OA
ATOM     10  O   UNL     1       7.134  -5.405   6.251  1.00  0.00    -0.550 OA
ENDBRANCH   7   8
ENDBRANCH   6   7
ENDBRANCH   5   6
ENDBRANCH   4   5
ENDBRANCH   3   4
ENDBRANCH   2   3
ENDBRANCH   1   2
BRANCH   1  11
ATOM     11  C   UNL     1       5.960  -0.078   4.926  1.00  0.00    -0.031 C 
ATOM     12  C   UNL     1       5.394   0.801   4.085  1.00  0.00    -0.027 C 
BRANCH  12  13
ATOM     13  C   UNL     1       4.970   0.410   2.698  1.00  0.00     0.054 C 
BRANCH  13  14
ATOM     14  C   UNL     1       6.054  -0.364   1.990  1.00  0.00    -0.027 C 
ATOM     15  C   UNL     1       7.044   0.191   1.267  1.00  0.00    -0.031 C 
BRANCH  15  16
ATOM     16  C   UNL     1       7.192   1.669   1.007  1.00  0.00     0.027 C 
BRANCH  16  17
ATOM     17  C   UNL     1       6.650   2.040  -0.377  1.00  0.00     0.004 C 
BRANCH  17  18
ATOM     18  C   UNL     1       6.932   3.515  -0.699  1.00  0.00     0.000 C 
BRANCH  18  19
ATOM     19  C   UNL     1       7.233   4.346   0.558  1.00  0.00    -0.003 C 
ATOM     20  C   UNL     1       6.901   5.828   0.381  1.00  0.00     0.004 C 
ENDBRANCH  18  19
ENDBRANCH  17  18
ENDBRANCH  16  17
ENDBRANCH  15  16
ENDBRANCH  13  14
ENDBRANCH  12  13
ENDBRANCH   1  11
TORSDOF 14
ENDMDL
MODEL 8
REMARK VINA RESULT:    -4.760      4.823      7.517
REMARK INTER + INTRA:         -11.051
REMARK INTER:                  -9.416
REMARK INTRA:                  -1.635
REMARK UNBOUND:                -2.395
REMARK SMILES CCCCCC=CCC=CCCCCCCCC(=O)[O-]
REMARK SMILES IDX 11 1 12 2 13 3 14 4 15 5 16 6 17 7 18 8 19 9 20 10 10 11
REMARK SMILES IDX 9 12 8 13 7 14 6 15 5 16 4 17 3 18 2 19 1 20
REMARK H PARENT
REMARK Flexibility Score: inf
ROOT
ATOM      1  C   UNL     1       4.867  -1.808   6.903  1.00  0.00     0.027 C 
ENDROOT
BRANCH   1   2
ATOM      2  C   UNL     1       4.126  -3.155   6.874  1.00  0.00     0.004 C 
BRANCH   2   3
ATOM      3  C   UNL     1       2.641  -3.033   7.262  1.00  0.00     0.000 C 
BRANCH   3   4
ATOM      4  C   UNL     1       2.291  -3.538   8.676  1.00  0.00     0.000 C 
BRANCH   4   5
ATOM      5  C   UNL     1       1.592  -2.473   9.539  1.00  0.00     0.000 C 
BRANCH   5   6
ATOM      6  C   UNL     1       2.322  -1.118   9.516  1.00  0.00     0.006 C 
BRANCH   6   7
ATOM      7  C   UNL     1       1.383   0.098   9.443  1.00  0.00     0.053 C 
BRANCH   7   8
ATOM      8  C   UNL     1       0.367  -0.041   8.349  1.00  0.00     0.041 C 
ATOM      9  O   UNL     1       0.727  -0.033   7.143  1.00  0.00    -0.550 OA
ATOM     10  O   UNL     1      -0.975  -0.213   8.665  1.00  0.00    -0.550 OA
ENDBRANCH   7   8
ENDBRANCH   6   7
ENDBRANCH   5   6
ENDBRANCH   4   5
ENDBRANCH   3   4
ENDBRANCH   2   3
ENDBRANCH   1   2
BRANCH   1  11
ATOM     11  C   UNL     1       5.825  -1.690   5.750  1.00  0.00    -0.031 C 
ATOM     12  C   UNL     1       5.996  -2.701   4.885  1.00  0.00    -0.027 C 
BRANCH  12  13
ATOM     13  C   UNL     1       6.896  -2.575   3.689  1.00  0.00     0.054 C 
BRANCH  13  14
ATOM     14  C   UNL     1       6.106  -2.591   2.404  1.00  0.00    -0.027 C 
ATOM     15  C   UNL     1       5.612  -1.496   1.795  1.00  0.00    -0.031 C 
BRANCH  15  16
ATOM     16  C   UNL     1       5.725  -0.092   2.330  1.00  0.00     0.027 C 
BRANCH  16  17
ATOM     17  C   UNL     1       6.092   0.893   1.214  1.00  0.00     0.004 C 
BRANCH  17  18
ATOM     18  C   UNL     1       7.470   1.522   1.470  1.00  0.00     0.000 C 
BRANCH  18  19
ATOM     19  C   UNL     1       8.200   0.881   2.660  1.00  0.00    -0.003 C 
ATOM     20  C   UNL     1       9.397   0.032   2.232  1.00  0.00     0.004 C 
ENDBRANCH  18  19
ENDBRANCH  17  18
ENDBRANCH  16  17
ENDBRANCH  15  16
ENDBRANCH  13  14
ENDBRANCH  12  13
ENDBRANCH   1  11
TORSDOF 14
ENDMDL
MODEL 9
REMARK VINA RESULT:    -4.740      4.007      7.058
REMARK INTER + INTRA:         -11.015
REMARK INTER:                  -9.338
REMARK INTRA:                  -1.677
REMARK UNBOUND:                -2.395
REMARK SMILES CCCCCC=CCC=CCCCCCCCC(=O)[O-]
REMARK SMILES IDX 11 1 12 2 13 3 14 4 15 5 16 6 17 7 18 8 19 9 20 10 10 11
REMARK SMILES IDX 9 12 8 13 7 14 6 15 5 16 4 17 3 18 2 19 1 20
REMARK H PARENT
REMARK Flexibility Score: inf
ROOT
ATOM      1  C   UNL     1      10.083  -1.656   3.779  1.00  0.00     0.027 C 
ENDROOT
BRANCH   1   2
ATOM      2  C   UNL     1       9.518  -2.581   4.868  1.00  0.00     0.004 C 
BRANCH   2   3
ATOM      3  C   UNL     1       8.391  -3.497   4.356  1.00  0.00     0.000 C 
BRANCH   3   4
ATOM      4  C   UNL     1       7.208  -3.683   5.327  1.00  0.00     0.000 C 
BRANCH   4   5
ATOM      5  C   UNL     1       5.966  -2.869   4.922  1.00  0.00     0.000 C 
BRANCH   5   6
ATOM      6  C   UNL     1       5.134  -2.416   6.136  1.00  0.00     0.006 C 
BRANCH   6   7
ATOM      7  C   UNL     1       4.555  -3.574   6.966  1.00  0.00     0.053 C 
BRANCH   7   8
ATOM      8  C   UNL     1       3.076  -3.722   6.771  1.00  0.00     0.041 C 
ATOM      9  O   UNL     1       2.274  -3.264   7.626  1.00  0.00    -0.550 OA
ATOM     10  O   UNL     1       2.583  -4.335   5.625  1.00  0.00    -0.550 OA
ENDBRANCH   7   8
ENDBRANCH   6   7
ENDBRANCH   5   6
ENDBRANCH   4   5
ENDBRANCH   3   4
ENDBRANCH   2   3
ENDBRANCH   1   2
BRANCH   1  11
ATOM     11  C   UNL     1       9.055  -0.657   3.327  1.00  0.00    -0.031 C 
ATOM     12  C   UNL     1       8.486   0.193   4.195  1.00  0.00    -0.027 C 
BRANCH  12  13
ATOM     13  C   UNL     1       7.510   1.244   3.750  1.00  0.00     0.054 C 
BRANCH  13  14
ATOM     14  C   UNL     1       6.173   0.639   3.402  1.00  0.00    -0.027 C 
ATOM     15  C   UNL     1       5.744   0.396   2.149  1.00  0.00    -0.031 C 
BRANCH  15  16
ATOM     16  C   UNL     1       6.511   0.741   0.898  1.00  0.00     0.027 C 
BRANCH  16  17
ATOM     17  C   UNL     1       5.888   1.948   0.187  1.00  0.00     0.004 C 
BRANCH  17  18
ATOM     18  C   UNL     1       6.975   2.852  -0.411  1.00  0.00     0.000 C 
BRANCH  18  19
ATOM     19  C   UNL     1       7.557   3.836   0.615  1.00  0.00    -0.003 C 
ATOM     20  C   UNL     1       7.049   5.265   0.419  1.00  0.00     0.004 C 
ENDBRANCH  18  19
ENDBRANCH  17  18
ENDBRANCH  16  17
ENDBRANCH  15  16
ENDBRANCH  13  14
ENDBRANCH  12  13
ENDBRANCH   1  11
TORSDOF 14
ENDMDL
