MODEL 1
REMARK VINA RESULT:    -5.013      0.000      0.000
REMARK INTER + INTRA:          -5.701
REMARK INTER:                  -5.452
REMARK INTRA:                  -0.248
REMARK UNBOUND:                -0.248
REMARK SMILES O=C([O-])c1ccccc1O
REMARK SMILES IDX 4 1 9 2 5 3 8 4 6 5 7 6 2 7 1 8 3 9 10 10
REMARK H PARENT 10 11
REMARK Flexibility Score: inf
ROOT
ATOM      1  C   UNL     1      16.236  -3.712  34.392  1.00  0.00     0.039 A 
ATOM      2  C   UNL     1      15.108  -3.430  35.198  1.00  0.00     0.124 A 
ATOM      3  C   UNL     1      16.592  -2.797  33.380  1.00  0.00     0.014 A 
ATOM      4  C   UNL     1      14.367  -2.258  34.980  1.00  0.00     0.047 A 
ATOM      5  C   UNL     1      15.845  -1.635  33.174  1.00  0.00     0.001 A 
ATOM      6  C   UNL     1      14.734  -1.366  33.974  1.00  0.00     0.004 A 
ENDROOT
BRANCH   1   7
ATOM      7  C   UNL     1      17.049  -4.940  34.588  1.00  0.00     0.075 C 
ATOM      8  O   UNL     1      17.274  -5.715  33.620  1.00  0.00    -0.545 OA
ATOM      9  O   UNL     1      17.577  -5.261  35.832  1.00  0.00    -0.545 OA
ENDBRANCH   1   7
BRANCH   2  10
ATOM     10  O   UNL     1      14.718  -4.306  36.212  1.00  0.00    -0.507 OA
ATOM     11  H   UNL     1      15.302  -5.083  36.499  1.00  0.00     0.293 HD
ENDBRANCH   2  10
TORSDOF 2
ENDMDL
MODEL 2
REMARK VINA RESULT:    -4.783      1.325      2.209
REMARK INTER + INTRA:          -5.451
REMARK INTER:                  -5.200
REMARK INTRA:                  -0.251
REMARK UNBOUND:                -0.248
REMARK SMILES O=C([O-])c1ccccc1O
REMARK SMILES IDX 4 1 9 2 5 3 8 4 6 5 7 6 2 7 1 8 3 9 10 10
REMARK H PARENT 10 11
REMARK Flexibility Score: inf
ROOT
ATOM      1  C   UNL     1      15.734  -3.704  34.886  1.00  0.00     0.039 A 
ATOM      2  C   UNL     1      15.802  -2.557  34.060  1.00  0.00     0.124 A 
ATOM      3  C   UNL     1      14.576  -3.914  35.662  1.00  0.00     0.014 A 
ATOM      4  C   UNL     1      14.728  -1.654  34.026  1.00  0.00     0.047 A 
ATOM      5  C   UNL     1      13.515  -3.007  35.618  1.00  0.00     0.001 A 
ATOM      6  C   UNL     1      13.590  -1.879  34.801  1.00  0.00     0.004 A 
ENDROOT
BRANCH   1   7
ATOM      7  C   UNL     1      16.847  -4.686  34.952  1.00  0.00     0.075 C 
ATOM      8  O   UNL     1      17.327  -5.176  33.895  1.00  0.00    -0.545 OA
ATOM      9  O   UNL     1      17.382  -5.084  36.171  1.00  0.00    -0.545 OA
ENDBRANCH   1   7
BRANCH   2  10
ATOM     10  O   UNL     1      16.927  -2.308  33.274  1.00  0.00    -0.507 OA
ATOM     11  H   UNL     1      17.863  -2.525  33.599  1.00  0.00     0.293 HD
ENDBRANCH   2  10
TORSDOF 2
ENDMDL
MODEL 3
REMARK VINA RESULT:    -4.775      1.642      3.567
REMARK INTER + INTRA:          -5.442
REMARK INTER:                  -5.206
REMARK INTRA:                  -0.236
REMARK UNBOUND:                -0.248
REMARK SMILES O=C([O-])c1ccccc1O
REMARK SMILES IDX 4 1 9 2 5 3 8 4 6 5 7 6 2 7 1 8 3 9 10 10
REMARK H PARENT 10 11
REMARK Flexibility Score: inf
ROOT
ATOM      1  C   UNL     1      16.484  -4.109  34.528  1.00  0.00     0.039 A 
ATOM      2  C   UNL     1      17.201  -5.133  35.192  1.00  0.00     0.124 A 
ATOM      3  C   UNL     1      16.620  -3.981  33.132  1.00  0.00     0.014 A 
ATOM      4  C   UNL     1      18.029  -5.996  34.457  1.00  0.00     0.047 A 
ATOM      5  C   UNL     1      17.448  -4.847  32.413  1.00  0.00     0.001 A 
ATOM      6  C   UNL     1      18.151  -5.853  33.075  1.00  0.00     0.004 A 
ENDROOT
BRANCH   1   7
ATOM      7  C   UNL     1      15.597  -3.173  35.266  1.00  0.00     0.075 C 
ATOM      8  O   UNL     1      14.602  -3.611  35.905  1.00  0.00    -0.545 OA
ATOM      9  O   UNL     1      15.838  -1.805  35.270  1.00  0.00    -0.545 OA
ENDBRANCH   1   7
BRANCH   2  10
ATOM     10  O   UNL     1      17.097  -5.299  36.573  1.00  0.00    -0.507 OA
ATOM     11  H   UNL     1      16.878  -6.197  36.988  1.00  0.00     0.293 HD
ENDBRANCH   2  10
TORSDOF 2
ENDMDL
MODEL 4
REMARK VINA RESULT:    -4.770     12.363     13.459
REMARK INTER + INTRA:          -5.436
REMARK INTER:                  -5.235
REMARK INTRA:                  -0.202
REMARK UNBOUND:                -0.248
REMARK SMILES O=C([O-])c1ccccc1O
REMARK SMILES IDX 4 1 9 2 5 3 8 4 6 5 7 6 2 7 1 8 3 9 10 10
REMARK H PARENT 10 11
REMARK Flexibility Score: inf
ROOT
ATOM      1  C   UNL     1      25.425   3.916  28.977  1.00  0.00     0.039 A 
ATOM      2  C   UNL     1      24.478   2.868  29.074  1.00  0.00     0.124 A 
ATOM      3  C   UNL     1      26.738   3.608  28.568  1.00  0.00     0.014 A 
ATOM      4  C   UNL     1      24.857   1.552  28.767  1.00  0.00     0.047 A 
ATOM      5  C   UNL     1      27.100   2.294  28.266  1.00  0.00     0.001 A 
ATOM      6  C   UNL     1      26.161   1.267  28.365  1.00  0.00     0.004 A 
ENDROOT
BRANCH   1   7
ATOM      7  C   UNL     1      25.067   5.323  29.292  1.00  0.00     0.075 C 
ATOM      8  O   UNL     1      25.598   5.910  30.273  1.00  0.00    -0.545 OA
ATOM      9  O   UNL     1      24.146   6.021  28.521  1.00  0.00    -0.545 OA
ENDBRANCH   1   7
BRANCH   2  10
ATOM     10  O   UNL     1      23.166   3.126  29.474  1.00  0.00    -0.507 OA
ATOM     11  H   UNL     1      22.377   2.942  28.865  1.00  0.00     0.293 HD
ENDBRANCH   2  10
TORSDOF 2
ENDMDL
MODEL 5
REMARK VINA RESULT:    -4.730     12.147     13.158
REMARK INTER + INTRA:          -5.393
REMARK INTER:                  -5.150
REMARK INTRA:                  -0.243
REMARK UNBOUND:                -0.248
REMARK SMILES O=C([O-])c1ccccc1O
REMARK SMILES IDX 4 1 9 2 5 3 8 4 6 5 7 6 2 7 1 8 3 9 10 10
REMARK H PARENT 10 11
REMARK Flexibility Score: inf
ROOT
ATOM      1  C   UNL     1      25.216   4.451  29.217  1.00  0.00     0.039 A 
ATOM      2  C   UNL     1      23.904   4.061  29.578  1.00  0.00     0.124 A 
ATOM      3  C   UNL     1      25.671   5.731  29.593  1.00  0.00     0.014 A 
ATOM      4  C   UNL     1      23.083   4.946  30.295  1.00  0.00     0.047 A 
ATOM      5  C   UNL     1      24.843   6.601  30.306  1.00  0.00     0.001 A 
ATOM      6  C   UNL     1      23.551   6.209  30.657  1.00  0.00     0.004 A 
ENDROOT
BRANCH   1   7
ATOM      7  C   UNL     1      26.119   3.547  28.459  1.00  0.00     0.075 C 
ATOM      8  O   UNL     1      26.916   4.016  27.603  1.00  0.00    -0.545 OA
ATOM      9  O   UNL     1      26.105   2.174  28.672  1.00  0.00    -0.545 OA
ENDBRANCH   1   7
BRANCH   2  10
ATOM     10  O   UNL     1      23.411   2.804  29.229  1.00  0.00    -0.507 OA
ATOM     11  H   UNL     1      23.606   1.981  29.788  1.00  0.00     0.293 HD
ENDBRANCH   2  10
TORSDOF 2
ENDMDL
MODEL 6
REMARK VINA RESULT:    -4.729     13.020     14.400
REMARK INTER + INTRA:          -5.392
REMARK INTER:                  -5.200
REMARK INTRA:                  -0.192
REMARK UNBOUND:                -0.248
REMARK SMILES O=C([O-])c1ccccc1O
REMARK SMILES IDX 4 1 9 2 5 3 8 4 6 5 7 6 2 7 1 8 3 9 10 10
REMARK H PARENT 10 11
REMARK Flexibility Score: inf
ROOT
ATOM      1  C   UNL     1      25.036  -0.863  24.235  1.00  0.00     0.039 A 
ATOM      2  C   UNL     1      26.083  -0.639  25.162  1.00  0.00     0.124 A 
ATOM      3  C   UNL     1      25.242  -0.522  22.884  1.00  0.00     0.014 A 
ATOM      4  C   UNL     1      27.296  -0.084  24.725  1.00  0.00     0.047 A 
ATOM      5  C   UNL     1      26.455   0.029  22.464  1.00  0.00     0.001 A 
ATOM      6  C   UNL     1      27.481   0.247  23.384  1.00  0.00     0.004 A 
ENDROOT
BRANCH   1   7
ATOM      7  C   UNL     1      23.736  -1.448  24.653  1.00  0.00     0.075 C 
ATOM      8  O   UNL     1      23.661  -2.663  24.980  1.00  0.00    -0.545 OA
ATOM      9  O   UNL     1      22.581  -0.677  24.693  1.00  0.00    -0.545 OA
ENDBRANCH   1   7
BRANCH   2  10
ATOM     10  O   UNL     1      25.925  -0.961  26.510  1.00  0.00    -0.507 OA
ATOM     11  H   UNL     1      25.061  -1.354  26.866  1.00  0.00     0.293 HD
ENDBRANCH   2  10
TORSDOF 2
ENDMDL
MODEL 7
REMARK VINA RESULT:    -4.673     12.320     13.513
REMARK INTER + INTRA:          -5.332
REMARK INTER:                  -5.094
REMARK INTRA:                  -0.238
REMARK UNBOUND:                -0.248
REMARK SMILES O=C([O-])c1ccccc1O
REMARK SMILES IDX 4 1 9 2 5 3 8 4 6 5 7 6 2 7 1 8 3 9 10 10
REMARK H PARENT 10 11
REMARK Flexibility Score: inf
ROOT
ATOM      1  C   UNL     1      24.747   3.896  29.125  1.00  0.00     0.039 A 
ATOM      2  C   UNL     1      26.108   3.986  28.748  1.00  0.00     0.124 A 
ATOM      3  C   UNL     1      24.125   2.631  29.128  1.00  0.00     0.014 A 
ATOM      4  C   UNL     1      26.811   2.827  28.385  1.00  0.00     0.047 A 
ATOM      5  C   UNL     1      24.837   1.486  28.764  1.00  0.00     0.001 A 
ATOM      6  C   UNL     1      26.179   1.584  28.394  1.00  0.00     0.004 A 
ENDROOT
BRANCH   1   7
ATOM      7  C   UNL     1      23.964   5.097  29.517  1.00  0.00     0.075 C 
ATOM      8  O   UNL     1      24.138   6.192  28.918  1.00  0.00    -0.545 OA
ATOM      9  O   UNL     1      23.031   5.043  30.545  1.00  0.00    -0.545 OA
ENDBRANCH   1   7
BRANCH   2  10
ATOM     10  O   UNL     1      26.765   5.216  28.732  1.00  0.00    -0.507 OA
ATOM     11  H   UNL     1      27.750   5.298  28.957  1.00  0.00     0.293 HD
ENDBRANCH   2  10
TORSDOF 2
ENDMDL
MODEL 8
REMARK VINA RESULT:    -4.642     12.505     13.572
REMARK INTER + INTRA:          -5.297
REMARK INTER:                  -5.043
REMARK INTRA:                  -0.254
REMARK UNBOUND:                -0.248
REMARK SMILES O=C([O-])c1ccccc1O
REMARK SMILES IDX 4 1 9 2 5 3 8 4 6 5 7 6 2 7 1 8 3 9 10 10
REMARK H PARENT 10 11
REMARK Flexibility Score: inf
ROOT
ATOM      1  C   UNL     1      25.476   3.872  29.100  1.00  0.00     0.039 A 
ATOM      2  C   UNL     1      26.057   5.015  29.701  1.00  0.00     0.124 A 
ATOM      3  C   UNL     1      24.083   3.688  29.200  1.00  0.00     0.014 A 
ATOM      4  C   UNL     1      25.246   5.936  30.381  1.00  0.00     0.047 A 
ATOM      5  C   UNL     1      23.288   4.613  29.880  1.00  0.00     0.001 A 
ATOM      6  C   UNL     1      23.869   5.736  30.469  1.00  0.00     0.004 A 
ENDROOT
BRANCH   1   7
ATOM      7  C   UNL     1      26.297   2.871  28.371  1.00  0.00     0.075 C 
ATOM      8  O   UNL     1      26.162   1.641  28.612  1.00  0.00    -0.545 OA
ATOM      9  O   UNL     1      27.225   3.263  27.415  1.00  0.00    -0.545 OA
ENDBRANCH   1   7
BRANCH   2  10
ATOM     10  O   UNL     1      27.432   5.239  29.628  1.00  0.00    -0.507 OA
ATOM     11  H   UNL     1      27.868   6.032  30.084  1.00  0.00     0.293 HD
ENDBRANCH   2  10
TORSDOF 2
ENDMDL
MODEL 9
REMARK VINA RESULT:    -4.634     13.134     14.496
REMARK INTER + INTRA:          -5.289
REMARK INTER:                  -5.039
REMARK INTRA:                  -0.250
REMARK UNBOUND:                -0.248
REMARK SMILES O=C([O-])c1ccccc1O
REMARK SMILES IDX 4 1 9 2 5 3 8 4 6 5 7 6 2 7 1 8 3 9 10 10
REMARK H PARENT 10 11
REMARK Flexibility Score: inf
ROOT
ATOM      1  C   UNL     1      26.027  -0.487  25.547  1.00  0.00     0.039 A 
ATOM      2  C   UNL     1      27.114   0.085  24.844  1.00  0.00     0.124 A 
ATOM      3  C   UNL     1      24.912  -0.944  24.817  1.00  0.00     0.014 A 
ATOM      4  C   UNL     1      27.066   0.188  23.445  1.00  0.00     0.047 A 
ATOM      5  C   UNL     1      24.877  -0.835  23.425  1.00  0.00     0.001 A 
ATOM      6  C   UNL     1      25.953  -0.270  22.740  1.00  0.00     0.004 A 
ENDROOT
BRANCH   1   7
ATOM      7  C   UNL     1      26.037  -0.616  27.027  1.00  0.00     0.075 C 
ATOM      8  O   UNL     1      26.255   0.392  27.752  1.00  0.00    -0.545 OA
ATOM      9  O   UNL     1      25.808  -1.840  27.643  1.00  0.00    -0.545 OA
ENDBRANCH   1   7
BRANCH   2  10
ATOM     10  O   UNL     1      28.240   0.551  25.524  1.00  0.00    -0.507 OA
ATOM     11  H   UNL     1      28.352   0.419  26.523  1.00  0.00     0.293 HD
ENDBRANCH   2  10
TORSDOF 2
ENDMDL
