MODEL 1
REMARK VINA RESULT:    -3.207      0.000      0.000
REMARK INTER + INTRA:          -3.564
REMARK INTER:                  -3.395
REMARK INTRA:                  -0.170
REMARK UNBOUND:                -0.170
REMARK SMILES CC(C)[C@H]1CC[C@H](C)CC1=O
REMARK SMILES IDX 8 1 7 2 6 3 5 4 4 5 10 6 11 7 9 8 2 9 1 10 3 11
REMARK H PARENT
REMARK Flexibility Score: inf
ROOT
ATOM      1  C   UNL     1     141.405 144.721 143.984  1.00  0.00     0.008 C 
ATOM      2  C   UNL     1     142.253 143.588 143.397  1.00  0.00    -0.007 C 
ATOM      3  C   UNL     1     142.424 143.771 141.876  1.00  0.00     0.004 C 
ATOM      4  C   UNL     1     143.235 142.613 141.276  1.00  0.00     0.012 C 
ATOM      5  C   UNL     1     144.640 142.514 141.917  1.00  0.00     0.058 C 
ATOM      6  C   UNL     1     144.512 142.506 143.431  1.00  0.00     0.136 C 
ATOM      7  O   UNL     1     145.200 141.767 144.122  1.00  0.00    -0.299 OA
ATOM      8  C   UNL     1     143.624 143.523 144.095  1.00  0.00     0.079 C 
ENDROOT
BRANCH   5   9
ATOM      9  C   UNL     1     145.489 141.325 141.365  1.00  0.00    -0.007 C 
ATOM     10  C   UNL     1     144.730 140.438 140.362  1.00  0.00     0.008 C 
ATOM     11  C   UNL     1     146.811 141.806 140.748  1.00  0.00     0.008 C 
ENDBRANCH   5   9
TORSDOF 1
ENDMDL
MODEL 2
REMARK VINA RESULT:    -3.203      7.135      8.298
REMARK INTER + INTRA:          -3.560
REMARK INTER:                  -3.391
REMARK INTRA:                  -0.169
REMARK UNBOUND:                -0.170
REMARK SMILES CC(C)[C@H]1CC[C@H](C)CC1=O
REMARK SMILES IDX 8 1 7 2 6 3 5 4 4 5 10 6 11 7 9 8 2 9 1 10 3 11
REMARK H PARENT
REMARK Flexibility Score: inf
ROOT
ATOM      1  C   UNL     1     140.197 136.690 144.030  1.00  0.00     0.008 C 
ATOM      2  C   UNL     1     139.403 137.853 143.426  1.00  0.00    -0.007 C 
ATOM      3  C   UNL     1     139.222 137.655 141.908  1.00  0.00     0.004 C 
ATOM      4  C   UNL     1     138.466 138.841 141.290  1.00  0.00     0.012 C 
ATOM      5  C   UNL     1     137.068 139.017 141.931  1.00  0.00     0.058 C 
ATOM      6  C   UNL     1     137.199 139.043 143.445  1.00  0.00     0.136 C 
ATOM      7  O   UNL     1     136.549 139.824 144.125  1.00  0.00    -0.299 OA
ATOM      8  C   UNL     1     138.038 137.995 144.124  1.00  0.00     0.079 C 
ENDROOT
BRANCH   5   9
ATOM      9  C   UNL     1     136.277 140.237 141.362  1.00  0.00    -0.007 C 
ATOM     10  C   UNL     1     137.067 141.057 140.328  1.00  0.00     0.008 C 
ATOM     11  C   UNL     1     134.922 139.813 140.774  1.00  0.00     0.008 C 
ENDBRANCH   5   9
TORSDOF 1
ENDMDL
MODEL 3
REMARK VINA RESULT:    -3.160      6.288      6.874
REMARK INTER + INTRA:          -3.515
REMARK INTER:                  -3.353
REMARK INTRA:                  -0.162
REMARK UNBOUND:                -0.170
REMARK SMILES CC(C)[C@H]1CC[C@H](C)CC1=O
REMARK SMILES IDX 8 1 7 2 6 3 5 4 4 5 10 6 11 7 9 8 2 9 1 10 3 11
REMARK H PARENT
REMARK Flexibility Score: inf
ROOT
ATOM      1  C   UNL     1     136.505 139.421 141.495  1.00  0.00     0.008 C 
ATOM      2  C   UNL     1     137.586 138.345 141.638  1.00  0.00    -0.007 C 
ATOM      3  C   UNL     1     138.582 138.419 140.463  1.00  0.00     0.004 C 
ATOM      4  C   UNL     1     139.641 137.313 140.577  1.00  0.00     0.012 C 
ATOM      5  C   UNL     1     140.437 137.425 141.900  1.00  0.00     0.058 C 
ATOM      6  C   UNL     1     139.472 137.529 143.070  1.00  0.00     0.136 C 
ATOM      7  O   UNL     1     139.678 136.931 144.117  1.00  0.00    -0.299 OA
ATOM      8  C   UNL     1     138.319 138.492 142.983  1.00  0.00     0.079 C 
ENDROOT
BRANCH   5   9
ATOM      9  C   UNL     1     141.501 136.296 142.079  1.00  0.00    -0.007 C 
ATOM     10  C   UNL     1     141.658 135.395 140.842  1.00  0.00     0.008 C 
ATOM     11  C   UNL     1     142.867 136.861 142.497  1.00  0.00     0.008 C 
ENDBRANCH   5   9
TORSDOF 1
ENDMDL
MODEL 4
REMARK VINA RESULT:    -3.140      4.547      5.963
REMARK INTER + INTRA:          -3.493
REMARK INTER:                  -3.332
REMARK INTRA:                  -0.162
REMARK UNBOUND:                -0.170
REMARK SMILES CC(C)[C@H]1CC[C@H](C)CC1=O
REMARK SMILES IDX 8 1 7 2 6 3 5 4 4 5 10 6 11 7 9 8 2 9 1 10 3 11
REMARK H PARENT
REMARK Flexibility Score: inf
ROOT
ATOM      1  C   UNL     1     136.554 140.998 143.638  1.00  0.00     0.008 C 
ATOM      2  C   UNL     1     137.754 141.853 143.220  1.00  0.00    -0.007 C 
ATOM      3  C   UNL     1     137.834 141.959 141.684  1.00  0.00     0.004 C 
ATOM      4  C   UNL     1     139.062 142.778 141.258  1.00  0.00     0.012 C 
ATOM      5  C   UNL     1     139.021 144.209 141.846  1.00  0.00     0.058 C 
ATOM      6  C   UNL     1     138.768 144.140 143.343  1.00  0.00     0.136 C 
ATOM      7  O   UNL     1     139.361 144.873 144.121  1.00  0.00    -0.299 OA
ATOM      8  C   UNL     1     137.669 143.251 143.859  1.00  0.00     0.079 C 
ENDROOT
BRANCH   5   9
ATOM      9  C   UNL     1     140.270 145.068 141.472  1.00  0.00    -0.007 C 
ATOM     10  C   UNL     1     141.214 144.380 140.470  1.00  0.00     0.008 C 
ATOM     11  C   UNL     1     139.872 146.458 140.953  1.00  0.00     0.008 C 
ENDBRANCH   5   9
TORSDOF 1
ENDMDL
MODEL 5
REMARK VINA RESULT:    -3.136      4.460      5.697
REMARK INTER + INTRA:          -3.490
REMARK INTER:                  -3.313
REMARK INTRA:                  -0.177
REMARK UNBOUND:                -0.170
REMARK SMILES CC(C)[C@H]1CC[C@H](C)CC1=O
REMARK SMILES IDX 8 1 7 2 6 3 5 4 4 5 10 6 11 7 9 8 2 9 1 10 3 11
REMARK H PARENT
REMARK Flexibility Score: inf
ROOT
ATOM      1  C   UNL     1     144.976 140.336 143.914  1.00  0.00     0.008 C 
ATOM      2  C   UNL     1     143.795 139.523 143.374  1.00  0.00    -0.007 C 
ATOM      3  C   UNL     1     143.880 139.401 141.839  1.00  0.00     0.004 C 
ATOM      4  C   UNL     1     142.674 138.626 141.287  1.00  0.00     0.012 C 
ATOM      5  C   UNL     1     142.593 137.202 141.888  1.00  0.00     0.058 C 
ATOM      6  C   UNL     1     142.683 137.279 143.403  1.00  0.00     0.136 C 
ATOM      7  O   UNL     1     141.979 136.579 144.117  1.00  0.00    -0.299 OA
ATOM      8  C   UNL     1     143.753 138.131 144.029  1.00  0.00     0.079 C 
ENDROOT
BRANCH   5   9
ATOM      9  C   UNL     1     141.359 136.388 141.386  1.00  0.00    -0.007 C 
ATOM     10  C   UNL     1     140.155 137.266 141.004  1.00  0.00     0.008 C 
ATOM     11  C   UNL     1     141.725 135.459 140.218  1.00  0.00     0.008 C 
ENDBRANCH   5   9
TORSDOF 1
ENDMDL
MODEL 6
REMARK VINA RESULT:    -3.118      2.293      5.075
REMARK INTER + INTRA:          -3.470
REMARK INTER:                  -3.324
REMARK INTRA:                  -0.146
REMARK UNBOUND:                -0.170
REMARK SMILES CC(C)[C@H]1CC[C@H](C)CC1=O
REMARK SMILES IDX 8 1 7 2 6 3 5 4 4 5 10 6 11 7 9 8 2 9 1 10 3 11
REMARK H PARENT
REMARK Flexibility Score: inf
ROOT
ATOM      1  C   UNL     1     145.473 142.493 142.284  1.00  0.00     0.008 C 
ATOM      2  C   UNL     1     143.961 142.733 142.341  1.00  0.00    -0.007 C 
ATOM      3  C   UNL     1     143.601 143.633 143.540  1.00  0.00     0.004 C 
ATOM      4  C   UNL     1     142.082 143.839 143.629  1.00  0.00     0.012 C 
ATOM      5  C   UNL     1     141.522 144.491 142.342  1.00  0.00     0.058 C 
ATOM      6  C   UNL     1     142.007 143.720 141.125  1.00  0.00     0.136 C 
ATOM      7  O   UNL     1     141.263 143.492 140.181  1.00  0.00    -0.299 OA
ATOM      8  C   UNL     1     143.462 143.354 141.025  1.00  0.00     0.079 C 
ENDROOT
BRANCH   5   9
ATOM      9  C   UNL     1     139.973 144.685 142.370  1.00  0.00    -0.007 C 
ATOM     10  C   UNL     1     139.348 144.463 143.759  1.00  0.00     0.008 C 
ATOM     11  C   UNL     1     139.560 146.059 141.820  1.00  0.00     0.008 C 
ENDBRANCH   5   9
TORSDOF 1
ENDMDL
MODEL 7
REMARK VINA RESULT:    -3.113      3.631      4.459
REMARK INTER + INTRA:          -3.465
REMARK INTER:                  -3.290
REMARK INTRA:                  -0.175
REMARK UNBOUND:                -0.170
REMARK SMILES CC(C)[C@H]1CC[C@H](C)CC1=O
REMARK SMILES IDX 8 1 7 2 6 3 5 4 4 5 10 6 11 7 9 8 2 9 1 10 3 11
REMARK H PARENT
REMARK Flexibility Score: inf
ROOT
ATOM      1  C   UNL     1     140.713 137.019 143.760  1.00  0.00     0.008 C 
ATOM      2  C   UNL     1     141.784 138.101 143.929  1.00  0.00    -0.007 C 
ATOM      3  C   UNL     1     143.045 137.747 143.115  1.00  0.00     0.004 C 
ATOM      4  C   UNL     1     144.139 138.805 143.317  1.00  0.00     0.012 C 
ATOM      5  C   UNL     1     143.655 140.210 142.883  1.00  0.00     0.058 C 
ATOM      6  C   UNL     1     142.319 140.517 143.540  1.00  0.00     0.136 C 
ATOM      7  O   UNL     1     142.074 141.627 143.990  1.00  0.00    -0.299 OA
ATOM      8  C   UNL     1     141.234 139.475 143.509  1.00  0.00     0.079 C 
ENDROOT
BRANCH   5   9
ATOM      9  C   UNL     1     144.721 141.328 143.107  1.00  0.00    -0.007 C 
ATOM     10  C   UNL     1     145.814 140.945 144.120  1.00  0.00     0.008 C 
ATOM     11  C   UNL     1     145.363 141.777 141.785  1.00  0.00     0.008 C 
ENDBRANCH   5   9
TORSDOF 1
ENDMDL
MODEL 8
REMARK VINA RESULT:    -3.096      3.082      4.909
REMARK INTER + INTRA:          -3.447
REMARK INTER:                  -3.293
REMARK INTRA:                  -0.153
REMARK UNBOUND:                -0.170
REMARK SMILES CC(C)[C@H]1CC[C@H](C)CC1=O
REMARK SMILES IDX 8 1 7 2 6 3 5 4 4 5 10 6 11 7 9 8 2 9 1 10 3 11
REMARK H PARENT
REMARK Flexibility Score: inf
ROOT
ATOM      1  C   UNL     1     142.504 136.135 142.239  1.00  0.00     0.008 C 
ATOM      2  C   UNL     1     142.745 137.647 142.239  1.00  0.00    -0.007 C 
ATOM      3  C   UNL     1     143.636 138.053 143.430  1.00  0.00     0.004 C 
ATOM      4  C   UNL     1     143.844 139.574 143.462  1.00  0.00     0.012 C 
ATOM      5  C   UNL     1     144.508 140.082 142.159  1.00  0.00     0.058 C 
ATOM      6  C   UNL     1     143.746 139.551 140.956  1.00  0.00     0.136 C 
ATOM      7  O   UNL     1     143.527 140.257 139.982  1.00  0.00    -0.299 OA
ATOM      8  C   UNL     1     143.378 138.093 140.909  1.00  0.00     0.079 C 
ENDROOT
BRANCH   5   9
ATOM      9  C   UNL     1     144.704 141.631 142.128  1.00  0.00    -0.007 C 
ATOM     10  C   UNL     1     144.429 142.315 143.479  1.00  0.00     0.008 C 
ATOM     11  C   UNL     1     146.099 142.019 141.615  1.00  0.00     0.008 C 
ENDBRANCH   5   9
TORSDOF 1
ENDMDL
MODEL 9
REMARK VINA RESULT:    -3.065      6.271      7.746
REMARK INTER + INTRA:          -3.414
REMARK INTER:                  -3.237
REMARK INTRA:                  -0.177
REMARK UNBOUND:                -0.170
REMARK SMILES CC(C)[C@H]1CC[C@H](C)CC1=O
REMARK SMILES IDX 8 1 7 2 6 3 5 4 4 5 10 6 11 7 9 8 2 9 1 10 3 11
REMARK H PARENT
REMARK Flexibility Score: inf
ROOT
ATOM      1  C   UNL     1     141.405 136.589 143.901  1.00  0.00     0.008 C 
ATOM      2  C   UNL     1     140.272 137.467 143.360  1.00  0.00    -0.007 C 
ATOM      3  C   UNL     1     138.943 137.132 144.066  1.00  0.00     0.004 C 
ATOM      4  C   UNL     1     137.795 137.977 143.495  1.00  0.00     0.012 C 
ATOM      5  C   UNL     1     138.070 139.491 143.662  1.00  0.00     0.058 C 
ATOM      6  C   UNL     1     139.454 139.822 143.127  1.00  0.00     0.136 C 
ATOM      7  O   UNL     1     139.656 140.836 142.474  1.00  0.00    -0.299 OA
ATOM      8  C   UNL     1     140.617 138.957 143.527  1.00  0.00     0.079 C 
ENDROOT
BRANCH   5   9
ATOM      9  C   UNL     1     136.946 140.394 143.060  1.00  0.00    -0.007 C 
ATOM     10  C   UNL     1     136.225 139.761 141.858  1.00  0.00     0.008 C 
ATOM     11  C   UNL     1     135.924 140.818 144.125  1.00  0.00     0.008 C 
ENDBRANCH   5   9
TORSDOF 1
ENDMDL
