MODEL 1
REMARK VINA RESULT:    -3.305      0.000      0.000
REMARK INTER + INTRA:          -4.823
REMARK INTER:                  -4.271
REMARK INTRA:                  -0.553
REMARK UNBOUND:                -0.553
REMARK SMILES CCO[C@@H]1O[C@H](CO)[C@@H](O)[C@H](O)[C@H]1O
REMARK SMILES IDX 4 1 13 2 11 3 9 4 6 5 5 6 3 7 2 8 1 9 14 10 12 12 7 14 8 15
REMARK SMILES IDX 10 17
REMARK H PARENT 14 11 12 13 8 16 10 18
REMARK Flexibility Score: inf
ROOT
ATOM      1  C   UNL     1      17.566  -7.145   6.619  1.00  0.00     0.281 C 
ATOM      2  C   UNL     1      18.603  -7.556   7.684  1.00  0.00     0.202 C 
ATOM      3  C   UNL     1      19.425  -8.767   7.214  1.00  0.00     0.179 C 
ATOM      4  C   UNL     1      19.956  -8.572   5.778  1.00  0.00     0.177 C 
ATOM      5  C   UNL     1      18.924  -7.918   4.809  1.00  0.00     0.178 C 
ATOM      6  O   UNL     1      18.179  -6.845   5.377  1.00  0.00    -0.341 OA
ENDROOT
BRANCH   1   7
ATOM      7  O   UNL     1      16.576  -8.149   6.453  1.00  0.00    -0.350 OA
BRANCH   7   8
ATOM      8  C   UNL     1      15.303  -7.584   6.216  1.00  0.00     0.160 C 
ATOM      9  C   UNL     1      14.266  -8.340   7.032  1.00  0.00     0.035 C 
ENDBRANCH   7   8
ENDBRANCH   1   7
BRANCH   2  10
ATOM     10  O   UNL     1      19.464  -6.479   7.957  1.00  0.00    -0.385 OA
ATOM     11  H   UNL     1      18.899  -5.734   8.291  1.00  0.00     0.211 HD
ENDBRANCH   2  10
BRANCH   3  12
ATOM     12  O   UNL     1      18.649  -9.936   7.282  1.00  0.00    -0.387 OA
ATOM     13  H   UNL     1      17.929  -9.769   7.946  1.00  0.00     0.211 HD
ENDBRANCH   3  12
BRANCH   5  14
ATOM     14  C   UNL     1      18.042  -8.911   4.016  1.00  0.00     0.191 C 
BRANCH  14  15
ATOM     15  O   UNL     1      17.871 -10.124   4.692  1.00  0.00    -0.394 OA
ATOM     16  H   UNL     1      17.040 -10.030   5.227  1.00  0.00     0.210 HD
ENDBRANCH  14  15
ENDBRANCH   5  14
BRANCH   4  17
ATOM     17  O   UNL     1      21.155  -7.835   5.802  1.00  0.00    -0.387 OA
ATOM     18  H   UNL     1      21.757  -8.201   5.103  1.00  0.00     0.211 HD
ENDBRANCH   4  17
TORSDOF 7
ENDMDL
MODEL 2
REMARK VINA RESULT:    -3.154      1.684      4.139
REMARK INTER + INTRA:          -4.629
REMARK INTER:                  -4.121
REMARK INTRA:                  -0.508
REMARK UNBOUND:                -0.553
REMARK SMILES CCO[C@@H]1O[C@H](CO)[C@@H](O)[C@H](O)[C@H]1O
REMARK SMILES IDX 4 1 13 2 11 3 9 4 6 5 5 6 3 7 2 8 1 9 14 10 12 12 7 14 8 15
REMARK SMILES IDX 10 17
REMARK H PARENT 14 11 12 13 8 16 10 18
REMARK Flexibility Score: inf
ROOT
ATOM      1  C   UNL     1      18.866  -7.154   4.946  1.00  0.00     0.281 C 
ATOM      2  C   UNL     1      19.364  -8.599   4.741  1.00  0.00     0.202 C 
ATOM      3  C   UNL     1      19.456  -9.345   6.082  1.00  0.00     0.179 C 
ATOM      4  C   UNL     1      18.169  -9.175   6.917  1.00  0.00     0.177 C 
ATOM      5  C   UNL     1      17.577  -7.733   6.876  1.00  0.00     0.178 C 
ATOM      6  O   UNL     1      17.603  -7.120   5.590  1.00  0.00    -0.341 OA
ENDROOT
BRANCH   1   7
ATOM      7  O   UNL     1      19.811  -6.381   5.670  1.00  0.00    -0.350 OA
BRANCH   7   8
ATOM      8  C   UNL     1      20.935  -6.065   4.875  1.00  0.00     0.160 C 
ATOM      9  C   UNL     1      20.862  -4.601   4.473  1.00  0.00     0.035 C 
ENDBRANCH   7   8
ENDBRANCH   1   7
BRANCH   2  10
ATOM     10  O   UNL     1      18.499  -9.288   3.875  1.00  0.00    -0.385 OA
ATOM     11  H   UNL     1      17.573  -9.071   4.157  1.00  0.00     0.211 HD
ENDBRANCH   2  10
BRANCH   3  12
ATOM     12  O   UNL     1      20.564  -8.891   6.816  1.00  0.00    -0.387 OA
ATOM     13  H   UNL     1      21.344  -8.901   6.201  1.00  0.00     0.211 HD
ENDBRANCH   3  12
BRANCH   5  14
ATOM     14  C   UNL     1      18.061  -6.789   8.002  1.00  0.00     0.191 C 
BRANCH  14  15
ATOM     15  O   UNL     1      19.103  -7.349   8.751  1.00  0.00    -0.394 OA
ATOM     16  H   UNL     1      18.681  -7.758   9.551  1.00  0.00     0.210 HD
ENDBRANCH  14  15
ENDBRANCH   5  14
BRANCH   4  17
ATOM     17  O   UNL     1      17.204 -10.121   6.516  1.00  0.00    -0.387 OA
ATOM     18  H   UNL     1      17.586 -11.027   6.652  1.00  0.00     0.211 HD
ENDBRANCH   4  17
TORSDOF 7
ENDMDL
MODEL 3
REMARK VINA RESULT:    -3.148      1.669      2.393
REMARK INTER + INTRA:          -4.622
REMARK INTER:                  -4.034
REMARK INTRA:                  -0.588
REMARK UNBOUND:                -0.553
REMARK SMILES CCO[C@@H]1O[C@H](CO)[C@@H](O)[C@H](O)[C@H]1O
REMARK SMILES IDX 4 1 13 2 11 3 9 4 6 5 5 6 3 7 2 8 1 9 14 10 12 12 7 14 8 15
REMARK SMILES IDX 10 17
REMARK H PARENT 14 11 12 13 8 16 10 18
REMARK Flexibility Score: inf
ROOT
ATOM      1  C   UNL     1      18.437  -7.140   4.840  1.00  0.00     0.281 C 
ATOM      2  C   UNL     1      19.328  -6.744   6.035  1.00  0.00     0.202 C 
ATOM      3  C   UNL     1      18.969  -7.562   7.286  1.00  0.00     0.179 C 
ATOM      4  C   UNL     1      18.873  -9.070   6.971  1.00  0.00     0.177 C 
ATOM      5  C   UNL     1      18.173  -9.387   5.614  1.00  0.00     0.178 C 
ATOM      6  O   UNL     1      18.540  -8.522   4.544  1.00  0.00    -0.341 OA
ENDROOT
BRANCH   1   7
ATOM      7  O   UNL     1      17.082  -6.782   5.069  1.00  0.00    -0.350 OA
BRANCH   7   8
ATOM      8  C   UNL     1      16.448  -6.375   3.875  1.00  0.00     0.160 C 
ATOM      9  C   UNL     1      15.016  -6.886   3.875  1.00  0.00     0.035 C 
ENDBRANCH   7   8
ENDBRANCH   1   7
BRANCH   2  10
ATOM     10  O   UNL     1      20.681  -6.943   5.714  1.00  0.00    -0.385 OA
ATOM     11  H   UNL     1      21.121  -7.308   6.525  1.00  0.00     0.211 HD
ENDBRANCH   2  10
BRANCH   3  12
ATOM     12  O   UNL     1      17.754  -7.110   7.829  1.00  0.00    -0.387 OA
ATOM     13  H   UNL     1      17.252  -6.670   7.094  1.00  0.00     0.211 HD
ENDBRANCH   3  12
BRANCH   5  14
ATOM     14  C   UNL     1      16.647  -9.626   5.700  1.00  0.00     0.191 C 
BRANCH  14  15
ATOM     15  O   UNL     1      16.044  -8.848   6.696  1.00  0.00    -0.394 OA
ATOM     16  H   UNL     1      15.157  -8.580   6.341  1.00  0.00     0.210 HD
ENDBRANCH  14  15
ENDBRANCH   5  14
BRANCH   4  17
ATOM     17  O   UNL     1      20.153  -9.656   7.021  1.00  0.00    -0.387 OA
ATOM     18  H   UNL     1      20.715  -9.229   6.323  1.00  0.00     0.211 HD
ENDBRANCH   4  17
TORSDOF 7
ENDMDL
MODEL 4
REMARK VINA RESULT:    -3.077      2.282      3.530
REMARK INTER + INTRA:          -4.529
REMARK INTER:                  -4.025
REMARK INTRA:                  -0.504
REMARK UNBOUND:                -0.553
REMARK SMILES CCO[C@@H]1O[C@H](CO)[C@@H](O)[C@H](O)[C@H]1O
REMARK SMILES IDX 4 1 13 2 11 3 9 4 6 5 5 6 3 7 2 8 1 9 14 10 12 12 7 14 8 15
REMARK SMILES IDX 10 17
REMARK H PARENT 14 11 12 13 8 16 10 18
REMARK Flexibility Score: inf
ROOT
ATOM      1  C   UNL     1      15.020  -7.450   4.413  1.00  0.00     0.281 C 
ATOM      2  C   UNL     1      16.139  -6.521   4.926  1.00  0.00     0.202 C 
ATOM      3  C   UNL     1      16.791  -7.092   6.196  1.00  0.00     0.179 C 
ATOM      4  C   UNL     1      17.158  -8.581   6.027  1.00  0.00     0.177 C 
ATOM      5  C   UNL     1      16.077  -9.415   5.273  1.00  0.00     0.178 C 
ATOM      6  O   UNL     1      15.502  -8.757   4.149  1.00  0.00    -0.341 OA
ENDROOT
BRANCH   1   7
ATOM      7  O   UNL     1      13.934  -7.498   5.326  1.00  0.00    -0.350 OA
BRANCH   7   8
ATOM      8  C   UNL     1      12.694  -7.533   4.651  1.00  0.00     0.160 C 
ATOM      9  C   UNL     1      11.595  -7.856   5.651  1.00  0.00     0.035 C 
ENDBRANCH   7   8
ENDBRANCH   1   7
BRANCH   2  10
ATOM     10  O   UNL     1      17.116  -6.350   3.931  1.00  0.00    -0.385 OA
ATOM     11  H   UNL     1      17.611  -7.208   3.860  1.00  0.00     0.211 HD
ENDBRANCH   2  10
BRANCH   3  12
ATOM     12  O   UNL     1      15.930  -6.935   7.295  1.00  0.00    -0.387 OA
ATOM     13  H   UNL     1      15.764  -7.840   7.668  1.00  0.00     0.211 HD
ENDBRANCH   3  12
BRANCH   5  14
ATOM     14  C   UNL     1      15.023 -10.099   6.175  1.00  0.00     0.191 C 
BRANCH  14  15
ATOM     15  O   UNL     1      14.620  -9.277   7.234  1.00  0.00    -0.394 OA
ATOM     16  H   UNL     1      14.402  -8.396   6.834  1.00  0.00     0.210 HD
ENDBRANCH  14  15
ENDBRANCH   5  14
BRANCH   4  17
ATOM     17  O   UNL     1      18.411  -8.701   5.395  1.00  0.00    -0.387 OA
ATOM     18  H   UNL     1      19.115  -8.635   6.090  1.00  0.00     0.211 HD
ENDBRANCH   4  17
TORSDOF 7
ENDMDL
MODEL 5
REMARK VINA RESULT:    -3.010      1.770      3.850
REMARK INTER + INTRA:          -4.443
REMARK INTER:                  -3.818
REMARK INTRA:                  -0.625
REMARK UNBOUND:                -0.553
REMARK SMILES CCO[C@@H]1O[C@H](CO)[C@@H](O)[C@H](O)[C@H]1O
REMARK SMILES IDX 4 1 13 2 11 3 9 4 6 5 5 6 3 7 2 8 1 9 14 10 12 12 7 14 8 15
REMARK SMILES IDX 10 17
REMARK H PARENT 14 11 12 13 8 16 10 18
REMARK Flexibility Score: inf
ROOT
ATOM      1  C   UNL     1      18.876  -9.529   5.709  1.00  0.00     0.281 C 
ATOM      2  C   UNL     1      17.400  -9.253   6.059  1.00  0.00     0.202 C 
ATOM      3  C   UNL     1      17.135  -7.743   6.180  1.00  0.00     0.179 C 
ATOM      4  C   UNL     1      17.711  -6.967   4.977  1.00  0.00     0.177 C 
ATOM      5  C   UNL     1      19.114  -7.470   4.517  1.00  0.00     0.178 C 
ATOM      6  O   UNL     1      19.258  -8.886   4.505  1.00  0.00    -0.341 OA
ENDROOT
BRANCH   1   7
ATOM      7  O   UNL     1      19.736  -9.145   6.770  1.00  0.00    -0.350 OA
BRANCH   7   8
ATOM      8  C   UNL     1      19.771 -10.124   7.787  1.00  0.00     0.160 C 
ATOM      9  C   UNL     1      19.893  -9.434   9.136  1.00  0.00     0.035 C 
ENDBRANCH   7   8
ENDBRANCH   1   7
BRANCH   2  10
ATOM     10  O   UNL     1      16.560  -9.802   5.075  1.00  0.00    -0.385 OA
ATOM     11  H   UNL     1      17.141 -10.071   4.316  1.00  0.00     0.211 HD
ENDBRANCH   2  10
BRANCH   3  12
ATOM     12  O   UNL     1      17.683  -7.248   7.375  1.00  0.00    -0.387 OA
ATOM     13  H   UNL     1      18.563  -6.848   7.148  1.00  0.00     0.211 HD
ENDBRANCH   3  12
BRANCH   5  14
ATOM     14  C   UNL     1      20.319  -6.747   5.163  1.00  0.00     0.191 C 
BRANCH  14  15
ATOM     15  O   UNL     1      20.024  -6.269   6.445  1.00  0.00    -0.394 OA
ATOM     16  H   UNL     1      19.672  -5.348   6.325  1.00  0.00     0.210 HD
ENDBRANCH  14  15
ENDBRANCH   5  14
BRANCH   4  17
ATOM     17  O   UNL     1      16.798  -6.988   3.905  1.00  0.00    -0.387 OA
ATOM     18  H   UNL     1      16.065  -6.352   4.112  1.00  0.00     0.211 HD
ENDBRANCH   4  17
TORSDOF 7
ENDMDL
MODEL 6
REMARK VINA RESULT:    -2.983      1.096      3.206
REMARK INTER + INTRA:          -4.407
REMARK INTER:                  -4.250
REMARK INTRA:                  -0.157
REMARK UNBOUND:                -0.553
REMARK SMILES CCO[C@@H]1O[C@H](CO)[C@@H](O)[C@H](O)[C@H]1O
REMARK SMILES IDX 4 1 13 2 11 3 9 4 6 5 5 6 3 7 2 8 1 9 14 10 12 12 7 14 8 15
REMARK SMILES IDX 10 17
REMARK H PARENT 14 11 12 13 8 16 10 18
REMARK Flexibility Score: inf
ROOT
ATOM      1  C   UNL     1      17.598  -9.259   5.847  1.00  0.00     0.281 C 
ATOM      2  C   UNL     1      18.208  -8.890   4.479  1.00  0.00     0.202 C 
ATOM      3  C   UNL     1      18.733  -7.445   4.482  1.00  0.00     0.179 C 
ATOM      4  C   UNL     1      19.605  -7.159   5.722  1.00  0.00     0.177 C 
ATOM      5  C   UNL     1      19.050  -7.780   7.041  1.00  0.00     0.178 C 
ATOM      6  O   UNL     1      18.535  -9.100   6.899  1.00  0.00    -0.341 OA
ENDROOT
BRANCH   1   7
ATOM      7  O   UNL     1      16.427  -8.502   6.108  1.00  0.00    -0.350 OA
BRANCH   7   8
ATOM      8  C   UNL     1      15.287  -9.331   6.199  1.00  0.00     0.160 C 
ATOM      9  C   UNL     1      14.199  -8.595   6.966  1.00  0.00     0.035 C 
ENDBRANCH   7   8
ENDBRANCH   1   7
BRANCH   2  10
ATOM     10  O   UNL     1      19.256  -9.771   4.166  1.00  0.00    -0.385 OA
ATOM     11  H   UNL     1      19.142 -10.573   4.739  1.00  0.00     0.211 HD
ENDBRANCH   2  10
BRANCH   3  12
ATOM     12  O   UNL     1      17.660  -6.539   4.434  1.00  0.00    -0.387 OA
ATOM     13  H   UNL     1      17.916  -5.754   4.986  1.00  0.00     0.211 HD
ENDBRANCH   3  12
BRANCH   5  14
ATOM     14  C   UNL     1      18.122  -6.857   7.866  1.00  0.00     0.191 C 
BRANCH  14  15
ATOM     15  O   UNL     1      18.770  -6.317   8.983  1.00  0.00    -0.394 OA
ATOM     16  H   UNL     1      18.821  -7.046   9.654  1.00  0.00     0.210 HD
ENDBRANCH  14  15
ENDBRANCH   5  14
BRANCH   4  17
ATOM     17  O   UNL     1      20.929  -7.582   5.491  1.00  0.00    -0.387 OA
ATOM     18  H   UNL     1      20.930  -8.573   5.438  1.00  0.00     0.211 HD
ENDBRANCH   4  17
TORSDOF 7
ENDMDL
MODEL 7
REMARK VINA RESULT:    -2.933      1.525      2.816
REMARK INTER + INTRA:          -4.343
REMARK INTER:                  -3.863
REMARK INTRA:                  -0.480
REMARK UNBOUND:                -0.553
REMARK SMILES CCO[C@@H]1O[C@H](CO)[C@@H](O)[C@H](O)[C@H]1O
REMARK SMILES IDX 4 1 13 2 11 3 9 4 6 5 5 6 3 7 2 8 1 9 14 10 12 12 7 14 8 15
REMARK SMILES IDX 10 17
REMARK H PARENT 14 11 12 13 8 16 10 18
REMARK Flexibility Score: inf
ROOT
ATOM      1  C   UNL     1      17.749  -8.887   5.136  1.00  0.00     0.281 C 
ATOM      2  C   UNL     1      17.375  -7.395   5.240  1.00  0.00     0.202 C 
ATOM      3  C   UNL     1      17.893  -6.787   6.554  1.00  0.00     0.179 C 
ATOM      4  C   UNL     1      19.375  -7.142   6.800  1.00  0.00     0.177 C 
ATOM      5  C   UNL     1      19.739  -8.614   6.434  1.00  0.00     0.178 C 
ATOM      6  O   UNL     1      19.150  -9.085   5.226  1.00  0.00    -0.341 OA
ENDROOT
BRANCH   1   7
ATOM      7  O   UNL     1      17.076  -9.655   6.122  1.00  0.00    -0.350 OA
BRANCH   7   8
ATOM      8  C   UNL     1      15.831 -10.125   5.649  1.00  0.00     0.160 C 
ATOM      9  C   UNL     1      14.721  -9.532   6.503  1.00  0.00     0.035 C 
ENDBRANCH   7   8
ENDBRANCH   1   7
BRANCH   2  10
ATOM     10  O   UNL     1      17.910  -6.688   4.150  1.00  0.00    -0.385 OA
ATOM     11  H   UNL     1      18.653  -7.236   3.786  1.00  0.00     0.211 HD
ENDBRANCH   2  10
BRANCH   3  12
ATOM     12  O   UNL     1      17.111  -7.228   7.634  1.00  0.00    -0.387 OA
ATOM     13  H   UNL     1      17.735  -7.584   8.320  1.00  0.00     0.211 HD
ENDBRANCH   3  12
BRANCH   5  14
ATOM     14  C   UNL     1      19.625  -9.630   7.596  1.00  0.00     0.191 C 
BRANCH  14  15
ATOM     15  O   UNL     1      19.376  -9.004   8.823  1.00  0.00    -0.394 OA
ATOM     16  H   UNL     1      20.208  -8.519   9.061  1.00  0.00     0.210 HD
ENDBRANCH  14  15
ENDBRANCH   5  14
BRANCH   4  17
ATOM     17  O   UNL     1      20.209  -6.238   6.114  1.00  0.00    -0.387 OA
ATOM     18  H   UNL     1      19.792  -5.339   6.158  1.00  0.00     0.211 HD
ENDBRANCH   4  17
TORSDOF 7
ENDMDL
MODEL 8
REMARK VINA RESULT:    -2.902      1.762      3.926
REMARK INTER + INTRA:          -4.303
REMARK INTER:                  -3.895
REMARK INTRA:                  -0.408
REMARK UNBOUND:                -0.553
REMARK SMILES CCO[C@@H]1O[C@H](CO)[C@@H](O)[C@H](O)[C@H]1O
REMARK SMILES IDX 4 1 13 2 11 3 9 4 6 5 5 6 3 7 2 8 1 9 14 10 12 12 7 14 8 15
REMARK SMILES IDX 10 17
REMARK H PARENT 14 11 12 13 8 16 10 18
REMARK Flexibility Score: inf
ROOT
ATOM      1  C   UNL     1      18.058  -7.397   6.358  1.00  0.00     0.281 C 
ATOM      2  C   UNL     1      16.697  -6.751   6.689  1.00  0.00     0.202 C 
ATOM      3  C   UNL     1      15.583  -7.326   5.800  1.00  0.00     0.179 C 
ATOM      4  C   UNL     1      15.620  -8.869   5.766  1.00  0.00     0.177 C 
ATOM      5  C   UNL     1      17.060  -9.462   5.680  1.00  0.00     0.178 C 
ATOM      6  O   UNL     1      18.019  -8.807   6.504  1.00  0.00    -0.341 OA
ENDROOT
BRANCH   1   7
ATOM      7  O   UNL     1      18.489  -7.046   5.052  1.00  0.00    -0.350 OA
BRANCH   7   8
ATOM      8  C   UNL     1      19.823  -6.583   5.056  1.00  0.00     0.160 C 
ATOM      9  C   UNL     1      20.026  -5.646   3.876  1.00  0.00     0.035 C 
ENDBRANCH   7   8
ENDBRANCH   1   7
BRANCH   2  10
ATOM     10  O   UNL     1      16.379  -6.965   8.041  1.00  0.00    -0.385 OA
ATOM     11  H   UNL     1      17.208  -6.806   8.563  1.00  0.00     0.211 HD
ENDBRANCH   2  10
BRANCH   3  12
ATOM     12  O   UNL     1      15.693  -6.818   4.494  1.00  0.00    -0.387 OA
ATOM     13  H   UNL     1      16.529  -7.188   4.107  1.00  0.00     0.211 HD
ENDBRANCH   3  12
BRANCH   5  14
ATOM     14  C   UNL     1      17.579  -9.729   4.247  1.00  0.00     0.191 C 
BRANCH  14  15
ATOM     15  O   UNL     1      18.961  -9.948   4.217  1.00  0.00    -0.394 OA
ATOM     16  H   UNL     1      19.367  -9.115   3.862  1.00  0.00     0.210 HD
ENDBRANCH  14  15
ENDBRANCH   5  14
BRANCH   4  17
ATOM     17  O   UNL     1      14.931  -9.393   6.877  1.00  0.00    -0.387 OA
ATOM     18  H   UNL     1      15.393 -10.224   7.162  1.00  0.00     0.211 HD
ENDBRANCH   4  17
TORSDOF 7
ENDMDL
MODEL 9
REMARK VINA RESULT:    -2.896      1.923      3.940
REMARK INTER + INTRA:          -4.296
REMARK INTER:                  -4.034
REMARK INTRA:                  -0.262
REMARK UNBOUND:                -0.553
REMARK SMILES CCO[C@@H]1O[C@H](CO)[C@@H](O)[C@H](O)[C@H]1O
REMARK SMILES IDX 4 1 13 2 11 3 9 4 6 5 5 6 3 7 2 8 1 9 14 10 12 12 7 14 8 15
REMARK SMILES IDX 10 17
REMARK H PARENT 14 11 12 13 8 16 10 18
REMARK Flexibility Score: inf
ROOT
ATOM      1  C   UNL     1      19.590  -7.823   4.721  1.00  0.00     0.281 C 
ATOM      2  C   UNL     1      19.895  -8.525   6.060  1.00  0.00     0.202 C 
ATOM      3  C   UNL     1      18.743  -8.331   7.059  1.00  0.00     0.179 C 
ATOM      4  C   UNL     1      17.375  -8.643   6.416  1.00  0.00     0.177 C 
ATOM      5  C   UNL     1      17.228  -8.113   4.957  1.00  0.00     0.178 C 
ATOM      6  O   UNL     1      18.384  -8.294   4.144  1.00  0.00    -0.341 OA
ENDROOT
BRANCH   1   7
ATOM      7  O   UNL     1      19.547  -6.413   4.878  1.00  0.00    -0.350 OA
BRANCH   7   8
ATOM      8  C   UNL     1      20.845  -5.865   4.971  1.00  0.00     0.160 C 
ATOM      9  C   UNL     1      20.870  -4.525   4.251  1.00  0.00     0.035 C 
ENDBRANCH   7   8
ENDBRANCH   1   7
BRANCH   2  10
ATOM     10  O   UNL     1      20.109  -9.897   5.847  1.00  0.00    -0.385 OA
ATOM     11  H   UNL     1      21.087 -10.024   5.731  1.00  0.00     0.211 HD
ENDBRANCH   2  10
BRANCH   3  12
ATOM     12  O   UNL     1      18.748  -7.017   7.556  1.00  0.00    -0.387 OA
ATOM     13  H   UNL     1      17.866  -6.618   7.334  1.00  0.00     0.211 HD
ENDBRANCH   3  12
BRANCH   5  14
ATOM     14  C   UNL     1      16.617  -6.698   4.828  1.00  0.00     0.191 C 
BRANCH  14  15
ATOM     15  O   UNL     1      15.746  -6.399   5.882  1.00  0.00    -0.394 OA
ATOM     16  H   UNL     1      15.236  -7.230   6.065  1.00  0.00     0.210 HD
ENDBRANCH  14  15
ENDBRANCH   5  14
BRANCH   4  17
ATOM     17  O   UNL     1      17.119 -10.027   6.471  1.00  0.00    -0.387 OA
ATOM     18  H   UNL     1      16.653 -10.288   5.636  1.00  0.00     0.211 HD
ENDBRANCH   4  17
TORSDOF 7
ENDMDL
