MODEL 1
REMARK VINA RESULT:    -2.717      0.000      0.000
REMARK INTER + INTRA:          -3.887
REMARK INTER:                  -3.511
REMARK INTRA:                  -0.376
REMARK UNBOUND:                -0.376
REMARK SMILES C=CC(=O)CCCCC
REMARK SMILES IDX 6 1 7 2 8 3 9 4 5 5 3 6 4 7 2 8 1 9
REMARK H PARENT
REMARK Flexibility Score: inf
ROOT
ATOM      1  C   UNL     1      60.121   5.162  30.949  1.00  0.00     0.008 C 
ENDROOT
BRANCH   1   2
ATOM      2  C   UNL     1      59.275   6.322  30.402  1.00  0.00     0.000 C 
BRANCH   2   3
ATOM      3  C   UNL     1      57.991   6.550  31.212  1.00  0.00    -0.003 C 
ATOM      4  C   UNL     1      58.127   7.767  32.125  1.00  0.00     0.004 C 
ENDBRANCH   2   3
ENDBRANCH   1   2
BRANCH   1   5
ATOM      5  C   UNL     1      61.142   5.619  32.006  1.00  0.00     0.080 C 
BRANCH   5   6
ATOM      6  C   UNL     1      62.459   6.053  31.405  1.00  0.00     0.155 C 
ATOM      7  O   UNL     1      63.382   5.211  31.231  1.00  0.00    -0.295 OA
BRANCH   6   8
ATOM      8  C   UNL     1      62.703   7.449  30.987  1.00  0.00     0.039 C 
ATOM      9  C   UNL     1      62.343   8.508  31.711  1.00  0.00     0.012 C 
ENDBRANCH   6   8
ENDBRANCH   5   6
ENDBRANCH   1   5
TORSDOF 5
ENDMDL
MODEL 2
REMARK VINA RESULT:    -2.670      2.038      3.953
REMARK INTER + INTRA:          -3.826
REMARK INTER:                  -3.315
REMARK INTRA:                  -0.511
REMARK UNBOUND:                -0.376
REMARK SMILES C=CC(=O)CCCCC
REMARK SMILES IDX 6 1 7 2 8 3 9 4 5 5 3 6 4 7 2 8 1 9
REMARK H PARENT
REMARK Flexibility Score: inf
ROOT
ATOM      1  C   UNL     1      61.279   4.511  31.791  1.00  0.00     0.008 C 
ENDROOT
BRANCH   1   2
ATOM      2  C   UNL     1      62.549   5.229  31.309  1.00  0.00     0.000 C 
BRANCH   2   3
ATOM      3  C   UNL     1      62.699   6.634  31.911  1.00  0.00    -0.003 C 
ATOM      4  C   UNL     1      62.556   7.710  30.837  1.00  0.00     0.004 C 
ENDBRANCH   2   3
ENDBRANCH   1   2
BRANCH   1   5
ATOM      5  C   UNL     1      60.382   4.047  30.630  1.00  0.00     0.080 C 
BRANCH   5   6
ATOM      6  C   UNL     1      59.072   4.797  30.561  1.00  0.00     0.155 C 
ATOM      7  O   UNL     1      57.981   4.164  30.560  1.00  0.00    -0.295 OA
BRANCH   6   8
ATOM      8  C   UNL     1      59.020   6.273  30.513  1.00  0.00     0.039 C 
ATOM      9  C   UNL     1      58.522   7.025  31.494  1.00  0.00     0.012 C 
ENDBRANCH   6   8
ENDBRANCH   5   6
ENDBRANCH   1   5
TORSDOF 5
ENDMDL
MODEL 3
REMARK VINA RESULT:    -2.665      1.605      2.519
REMARK INTER + INTRA:          -3.820
REMARK INTER:                  -3.344
REMARK INTRA:                  -0.476
REMARK UNBOUND:                -0.376
REMARK SMILES C=CC(=O)CCCCC
REMARK SMILES IDX 6 1 7 2 8 3 9 4 5 5 3 6 4 7 2 8 1 9
REMARK H PARENT
REMARK Flexibility Score: inf
ROOT
ATOM      1  C   UNL     1      59.842   6.184  31.860  1.00  0.00     0.008 C 
ENDROOT
BRANCH   1   2
ATOM      2  C   UNL     1      59.267   6.218  30.436  1.00  0.00     0.000 C 
BRANCH   2   3
ATOM      3  C   UNL     1      58.996   4.814  29.875  1.00  0.00    -0.003 C 
ATOM      4  C   UNL     1      59.833   3.762  30.600  1.00  0.00     0.004 C 
ENDBRANCH   2   3
ENDBRANCH   1   2
BRANCH   1   5
ATOM      5  C   UNL     1      60.926   7.254  32.088  1.00  0.00     0.080 C 
BRANCH   5   6
ATOM      6  C   UNL     1      62.201   6.973  31.325  1.00  0.00     0.155 C 
ATOM      7  O   UNL     1      62.746   7.886  30.649  1.00  0.00    -0.295 OA
BRANCH   6   8
ATOM      8  C   UNL     1      62.854   5.648  31.360  1.00  0.00     0.039 C 
ATOM      9  C   UNL     1      63.403   5.125  32.455  1.00  0.00     0.012 C 
ENDBRANCH   6   8
ENDBRANCH   5   6
ENDBRANCH   1   5
TORSDOF 5
ENDMDL
MODEL 4
REMARK VINA RESULT:    -2.664     21.248     22.981
REMARK INTER + INTRA:          -3.818
REMARK INTER:                  -3.333
REMARK INTRA:                  -0.486
REMARK UNBOUND:                -0.376
REMARK SMILES C=CC(=O)CCCCC
REMARK SMILES IDX 6 1 7 2 8 3 9 4 5 5 3 6 4 7 2 8 1 9
REMARK H PARENT
REMARK Flexibility Score: inf
ROOT
ATOM      1  C   UNL     1      77.057  10.064  47.417  1.00  0.00     0.008 C 
ENDROOT
BRANCH   1   2
ATOM      2  C   UNL     1      77.918  11.193  48.003  1.00  0.00     0.000 C 
BRANCH   2   3
ATOM      3  C   UNL     1      77.728  11.356  49.518  1.00  0.00    -0.003 C 
ATOM      4  C   UNL     1      76.263  11.176  49.909  1.00  0.00     0.004 C 
ENDBRANCH   2   3
ENDBRANCH   1   2
BRANCH   1   5
ATOM      5  C   UNL     1      76.452  10.429  46.049  1.00  0.00     0.080 C 
BRANCH   5   6
ATOM      6  C   UNL     1      75.861  11.820  46.018  1.00  0.00     0.155 C 
ATOM      7  O   UNL     1      76.407  12.722  45.326  1.00  0.00    -0.295 OA
BRANCH   6   8
ATOM      8  C   UNL     1      74.635  12.164  46.768  1.00  0.00     0.039 C 
ATOM      9  C   UNL     1      73.601  11.336  46.909  1.00  0.00     0.012 C 
ENDBRANCH   6   8
ENDBRANCH   5   6
ENDBRANCH   1   5
TORSDOF 5
ENDMDL
MODEL 5
REMARK VINA RESULT:    -2.507      2.260      4.467
REMARK INTER + INTRA:          -3.616
REMARK INTER:                  -3.054
REMARK INTRA:                  -0.562
REMARK UNBOUND:                -0.376
REMARK SMILES C=CC(=O)CCCCC
REMARK SMILES IDX 6 1 7 2 8 3 9 4 5 5 3 6 4 7 2 8 1 9
REMARK H PARENT
REMARK Flexibility Score: inf
ROOT
ATOM      1  C   UNL     1      61.050   6.513  31.978  1.00  0.00     0.008 C 
ENDROOT
BRANCH   1   2
ATOM      2  C   UNL     1      62.464   6.629  31.388  1.00  0.00     0.000 C 
BRANCH   2   3
ATOM      3  C   UNL     1      63.202   5.283  31.355  1.00  0.00    -0.003 C 
ATOM      4  C   UNL     1      63.135   4.587  32.713  1.00  0.00     0.004 C 
ENDBRANCH   2   3
ENDBRANCH   1   2
BRANCH   1   5
ATOM      5  C   UNL     1      59.952   6.548  30.899  1.00  0.00     0.080 C 
BRANCH   5   6
ATOM      6  C   UNL     1      59.204   5.240  30.777  1.00  0.00     0.155 C 
ATOM      7  O   UNL     1      58.002   5.162  31.149  1.00  0.00    -0.295 OA
BRANCH   6   8
ATOM      8  C   UNL     1      59.836   4.031  30.209  1.00  0.00     0.039 C 
ATOM      9  C   UNL     1      60.209   2.981  30.940  1.00  0.00     0.012 C 
ENDBRANCH   6   8
ENDBRANCH   5   6
ENDBRANCH   1   5
TORSDOF 5
ENDMDL
MODEL 6
REMARK VINA RESULT:    -2.466      1.841      3.037
REMARK INTER + INTRA:          -3.563
REMARK INTER:                  -3.057
REMARK INTRA:                  -0.506
REMARK UNBOUND:                -0.376
REMARK SMILES C=CC(=O)CCCCC
REMARK SMILES IDX 6 1 7 2 8 3 9 4 5 5 3 6 4 7 2 8 1 9
REMARK H PARENT
REMARK Flexibility Score: inf
ROOT
ATOM      1  C   UNL     1      59.274   5.233  31.143  1.00  0.00     0.008 C 
ENDROOT
BRANCH   1   2
ATOM      2  C   UNL     1      59.509   4.277  29.964  1.00  0.00     0.000 C 
BRANCH   2   3
ATOM      3  C   UNL     1      59.860   2.853  30.419  1.00  0.00    -0.003 C 
ATOM      4  C   UNL     1      60.423   2.853  31.838  1.00  0.00     0.004 C 
ENDBRANCH   2   3
ENDBRANCH   1   2
BRANCH   1   5
ATOM      5  C   UNL     1      59.968   6.594  30.951  1.00  0.00     0.080 C 
BRANCH   5   6
ATOM      6  C   UNL     1      61.195   6.758  31.818  1.00  0.00     0.155 C 
ATOM      7  O   UNL     1      61.080   7.166  33.006  1.00  0.00    -0.295 OA
BRANCH   6   8
ATOM      8  C   UNL     1      62.549   6.432  31.323  1.00  0.00     0.039 C 
ATOM      9  C   UNL     1      63.109   5.229  31.447  1.00  0.00     0.012 C 
ENDBRANCH   6   8
ENDBRANCH   5   6
ENDBRANCH   1   5
TORSDOF 5
ENDMDL
MODEL 7
REMARK VINA RESULT:    -2.446      1.848      2.643
REMARK INTER + INTRA:          -3.537
REMARK INTER:                  -3.015
REMARK INTRA:                  -0.522
REMARK UNBOUND:                -0.376
REMARK SMILES C=CC(=O)CCCCC
REMARK SMILES IDX 6 1 7 2 8 3 9 4 5 5 3 6 4 7 2 8 1 9
REMARK H PARENT
REMARK Flexibility Score: inf
ROOT
ATOM      1  C   UNL     1      58.822   7.654  32.186  1.00  0.00     0.008 C 
ENDROOT
BRANCH   1   2
ATOM      2  C   UNL     1      58.107   6.711  31.206  1.00  0.00     0.000 C 
BRANCH   2   3
ATOM      3  C   UNL     1      58.996   6.305  30.021  1.00  0.00    -0.003 C 
ATOM      4  C   UNL     1      59.279   4.805  30.036  1.00  0.00     0.004 C 
ENDBRANCH   2   3
ENDBRANCH   1   2
BRANCH   1   5
ATOM      5  C   UNL     1      59.802   6.915  33.114  1.00  0.00     0.080 C 
BRANCH   5   6
ATOM      6  C   UNL     1      61.186   7.523  33.115  1.00  0.00     0.155 C 
ATOM      7  O   UNL     1      61.744   7.820  34.206  1.00  0.00    -0.295 OA
BRANCH   6   8
ATOM      8  C   UNL     1      61.930   7.769  31.863  1.00  0.00     0.039 C 
ATOM      9  C   UNL     1      62.651   6.839  31.238  1.00  0.00     0.012 C 
ENDBRANCH   6   8
ENDBRANCH   5   6
ENDBRANCH   1   5
TORSDOF 5
ENDMDL
MODEL 8
REMARK VINA RESULT:    -2.439      1.973      2.529
REMARK INTER + INTRA:          -3.528
REMARK INTER:                  -2.979
REMARK INTRA:                  -0.548
REMARK UNBOUND:                -0.376
REMARK SMILES C=CC(=O)CCCCC
REMARK SMILES IDX 6 1 7 2 8 3 9 4 5 5 3 6 4 7 2 8 1 9
REMARK H PARENT
REMARK Flexibility Score: inf
ROOT
ATOM      1  C   UNL     1      58.800   4.737  30.598  1.00  0.00     0.008 C 
ENDROOT
BRANCH   1   2
ATOM      2  C   UNL     1      58.999   6.253  30.444  1.00  0.00     0.000 C 
BRANCH   2   3
ATOM      3  C   UNL     1      58.543   7.038  31.683  1.00  0.00    -0.003 C 
ATOM      4  C   UNL     1      59.740   7.580  32.461  1.00  0.00     0.004 C 
ENDBRANCH   2   3
ENDBRANCH   1   2
BRANCH   1   5
ATOM      5  C   UNL     1      60.102   3.944  30.387  1.00  0.00     0.080 C 
BRANCH   5   6
ATOM      6  C   UNL     1      60.841   3.671  31.677  1.00  0.00     0.155 C 
ATOM      7  O   UNL     1      60.518   2.686  32.395  1.00  0.00    -0.295 OA
BRANCH   6   8
ATOM      8  C   UNL     1      61.963   4.520  32.127  1.00  0.00     0.039 C 
ATOM      9  C   UNL     1      62.687   5.281  31.307  1.00  0.00     0.012 C 
ENDBRANCH   6   8
ENDBRANCH   5   6
ENDBRANCH   1   5
TORSDOF 5
ENDMDL
