MODEL 1
REMARK VINA RESULT:    -4.006      0.000      0.000
REMARK INTER + INTRA:          -4.977
REMARK INTER:                  -4.708
REMARK INTRA:                  -0.268
REMARK UNBOUND:                -0.268
REMARK SMILES O=c1c(O)c(-c2ccc(O)cc2)oc2cc(O)cc(O)c12
REMARK SMILES IDX 5 1 3 2 2 3 1 4 21 5 19 6 18 7 16 8 15 9 14 10 13 11 6 12
REMARK SMILES IDX 7 13 8 14 9 15 12 16 11 17 10 18 4 20 20 22 17 24
REMARK H PARENT 10 19 4 21 20 23 17 25
REMARK Flexibility Score: inf
ROOT
ATOM      1  C   UNL     1      12.059   8.090  28.509  1.00  0.00     0.180 A 
ATOM      2  C   UNL     1      10.722   8.200  28.080  1.00  0.00     0.208 A 
ATOM      3  C   UNL     1       9.947   9.275  28.543  1.00  0.00     0.238 A 
ATOM      4  O   UNL     1       8.752   9.390  28.157  1.00  0.00    -0.285 OA
ATOM      5  C   UNL     1      10.513  10.207  29.436  1.00  0.00     0.111 A 
ATOM      6  C   UNL     1       9.799  11.317  29.952  1.00  0.00     0.134 A 
ATOM      7  C   UNL     1      10.430  12.195  30.846  1.00  0.00     0.093 A 
ATOM      8  C   UNL     1      11.755  11.987  31.233  1.00  0.00     0.123 A 
ATOM      9  C   UNL     1      12.465  10.893  30.727  1.00  0.00     0.094 A 
ATOM     10  C   UNL     1      11.856  10.008  29.834  1.00  0.00     0.146 A 
ATOM     11  O   UNL     1      12.553   8.980  29.364  1.00  0.00    -0.452 OA
ENDROOT
BRANCH   1  12
ATOM     12  C   UNL     1      12.945   6.995  28.052  1.00  0.00     0.021 A 
ATOM     13  C   UNL     1      13.139   5.837  28.828  1.00  0.00     0.016 A 
ATOM     14  C   UNL     1      13.962   4.806  28.365  1.00  0.00     0.047 A 
ATOM     15  C   UNL     1      14.588   4.909  27.120  1.00  0.00     0.115 A 
ATOM     16  C   UNL     1      13.561   7.083  26.793  1.00  0.00     0.016 A 
ATOM     17  C   UNL     1      14.384   6.051  26.332  1.00  0.00     0.047 A 
BRANCH  15  18
ATOM     18  O   UNL     1      15.405   3.875  26.672  1.00  0.00    -0.508 OA
ATOM     19  H   UNL     1      16.252   3.617  27.166  1.00  0.00     0.293 HD
ENDBRANCH  15  18
ENDBRANCH   1  12
BRANCH   2  20
ATOM     20  O   UNL     1      10.171   7.235  27.233  1.00  0.00    -0.502 OA
ATOM     21  H   UNL     1       9.189   6.987  27.259  1.00  0.00     0.293 HD
ENDBRANCH   2  20
BRANCH   6  22
ATOM     22  O   UNL     1       8.473  11.551  29.585  1.00  0.00    -0.507 OA
ATOM     23  H   UNL     1       8.229  12.239  28.882  1.00  0.00     0.293 HD
ENDBRANCH   6  22
BRANCH   8  24
ATOM     24  O   UNL     1      12.358  12.874  32.123  1.00  0.00    -0.508 OA
ATOM     25  H   UNL     1      12.948  12.547  32.879  1.00  0.00     0.293 HD
ENDBRANCH   8  24
TORSDOF 5
ENDMDL
MODEL 2
REMARK VINA RESULT:    -3.292      1.155      2.899
REMARK INTER + INTRA:          -4.138
REMARK INTER:                  -3.840
REMARK INTRA:                  -0.298
REMARK UNBOUND:                -0.268
REMARK SMILES O=c1c(O)c(-c2ccc(O)cc2)oc2cc(O)cc(O)c12
REMARK SMILES IDX 5 1 3 2 2 3 1 4 21 5 19 6 18 7 16 8 15 9 14 10 13 11 6 12
REMARK SMILES IDX 7 13 8 14 9 15 12 16 11 17 10 18 4 20 20 22 17 24
REMARK H PARENT 10 19 4 21 20 23 17 25
REMARK Flexibility Score: inf
ROOT
ATOM      1  C   UNL     1      12.579   8.364  28.978  1.00  0.00     0.180 A 
ATOM      2  C   UNL     1      13.278   9.225  29.845  1.00  0.00     0.208 A 
ATOM      3  C   UNL     1      12.596  10.306  30.424  1.00  0.00     0.238 A 
ATOM      4  O   UNL     1      13.209  11.078  31.211  1.00  0.00    -0.285 OA
ATOM      5  C   UNL     1      11.237  10.518  30.115  1.00  0.00     0.111 A 
ATOM      6  C   UNL     1      10.477  11.586  30.653  1.00  0.00     0.134 A 
ATOM      7  C   UNL     1       9.131  11.735  30.288  1.00  0.00     0.093 A 
ATOM      8  C   UNL     1       8.531  10.842  29.398  1.00  0.00     0.123 A 
ATOM      9  C   UNL     1       9.276   9.786  28.862  1.00  0.00     0.094 A 
ATOM     10  C   UNL     1      10.618   9.619  29.215  1.00  0.00     0.146 A 
ATOM     11  O   UNL     1      11.302   8.604  28.697  1.00  0.00    -0.452 OA
ENDROOT
BRANCH   1  12
ATOM     12  C   UNL     1      13.224   7.193  28.342  1.00  0.00     0.021 A 
ATOM     13  C   UNL     1      13.247   5.936  28.974  1.00  0.00     0.016 A 
ATOM     14  C   UNL     1      13.842   4.838  28.343  1.00  0.00     0.047 A 
ATOM     15  C   UNL     1      14.405   4.977  27.072  1.00  0.00     0.115 A 
ATOM     16  C   UNL     1      13.774   7.320  27.056  1.00  0.00     0.016 A 
ATOM     17  C   UNL     1      14.368   6.221  26.427  1.00  0.00     0.047 A 
BRANCH  15  18
ATOM     18  O   UNL     1      14.993   3.875  26.456  1.00  0.00    -0.508 OA
ATOM     19  H   UNL     1      15.561   3.975  25.623  1.00  0.00     0.293 HD
ENDBRANCH  15  18
ENDBRANCH   1  12
BRANCH   2  20
ATOM     20  O   UNL     1      14.638   9.022  30.097  1.00  0.00    -0.502 OA
ATOM     21  H   UNL     1      15.312   9.778  30.084  1.00  0.00     0.293 HD
ENDBRANCH   2  20
BRANCH   6  22
ATOM     22  O   UNL     1      11.048  12.495  31.544  1.00  0.00    -0.507 OA
ATOM     23  H   UNL     1      11.699  12.200  32.264  1.00  0.00     0.293 HD
ENDBRANCH   6  22
BRANCH   8  24
ATOM     24  O   UNL     1       7.192  11.014  29.050  1.00  0.00    -0.508 OA
ATOM     25  H   UNL     1       6.770  11.934  29.003  1.00  0.00     0.293 HD
ENDBRANCH   8  24
TORSDOF 5
ENDMDL
