MODEL 1
REMARK VINA RESULT:    -4.122      0.000      0.000
REMARK INTER + INTRA:          -4.881
REMARK INTER:                  -4.724
REMARK INTRA:                  -0.157
REMARK UNBOUND:                -0.157
REMARK SMILES CC=Cc1ccc(O)c(OC)c1
REMARK SMILES IDX 4 1 12 2 9 3 7 4 6 5 5 6 3 7 1 8 2 9 10 10 11 11 8 12
REMARK H PARENT 8 13
REMARK Flexibility Score: inf
ROOT
ATOM      1  C   UNL     1      28.106  35.417  19.743  1.00  0.00    -0.022 A 
ATOM      2  C   UNL     1      26.766  35.354  19.326  1.00  0.00     0.058 A 
ATOM      3  C   UNL     1      26.109  36.497  18.827  1.00  0.00     0.161 A 
ATOM      4  C   UNL     1      26.807  37.715  18.760  1.00  0.00     0.157 A 
ATOM      5  C   UNL     1      28.134  37.785  19.189  1.00  0.00     0.051 A 
ATOM      6  C   UNL     1      28.782  36.650  19.681  1.00  0.00     0.012 A 
ENDROOT
BRANCH   1   7
ATOM      7  C   UNL     1      28.745  34.185  20.269  1.00  0.00     0.003 C 
ATOM      8  C   UNL     1      29.105  32.365  21.890  1.00  0.00     0.035 C 
ATOM      9  C   UNL     1      28.402  33.599  21.422  1.00  0.00    -0.030 C 
ENDBRANCH   1   7
BRANCH   3  10
ATOM     10  O   UNL     1      24.773  36.457  18.395  1.00  0.00    -0.493 OA
ATOM     11  C   UNL     1      23.691  35.933  19.159  1.00  0.00     0.278 C 
ENDBRANCH   3  10
BRANCH   4  12
ATOM     12  O   UNL     1      26.195  38.871  18.272  1.00  0.00    -0.504 OA
ATOM     13  H   UNL     1      26.700  39.562  17.732  1.00  0.00     0.293 HD
ENDBRANCH   4  12
TORSDOF 3
ENDMDL
MODEL 2
REMARK VINA RESULT:    -4.081      7.426     10.292
REMARK INTER + INTRA:          -4.835
REMARK INTER:                  -4.690
REMARK INTRA:                  -0.145
REMARK UNBOUND:                -0.157
REMARK SMILES CC=Cc1ccc(O)c(OC)c1
REMARK SMILES IDX 4 1 12 2 9 3 7 4 6 5 5 6 3 7 1 8 2 9 10 10 11 11 8 12
REMARK H PARENT 8 13
REMARK Flexibility Score: inf
ROOT
ATOM      1  C   UNL     1      27.697  29.478  24.943  1.00  0.00    -0.022 A 
ATOM      2  C   UNL     1      26.617  29.166  25.784  1.00  0.00     0.058 A 
ATOM      3  C   UNL     1      26.567  27.937  26.473  1.00  0.00     0.161 A 
ATOM      4  C   UNL     1      27.612  27.012  26.301  1.00  0.00     0.157 A 
ATOM      5  C   UNL     1      28.679  27.313  25.453  1.00  0.00     0.051 A 
ATOM      6  C   UNL     1      28.725  28.532  24.774  1.00  0.00     0.012 A 
ENDROOT
BRANCH   1   7
ATOM      7  C   UNL     1      27.692  30.783  24.235  1.00  0.00     0.003 C 
ATOM      8  C   UNL     1      28.240  33.165  23.925  1.00  0.00     0.035 C 
ATOM      9  C   UNL     1      28.305  31.883  24.691  1.00  0.00    -0.030 C 
ENDBRANCH   1   7
BRANCH   3  10
ATOM     10  O   UNL     1      25.503  27.606  27.327  1.00  0.00    -0.493 OA
ATOM     11  C   UNL     1      24.437  28.486  27.670  1.00  0.00     0.278 C 
ENDBRANCH   3  10
BRANCH   4  12
ATOM     12  O   UNL     1      27.604  25.784  26.964  1.00  0.00    -0.504 OA
ATOM     13  H   UNL     1      27.394  24.915  26.488  1.00  0.00     0.293 HD
ENDBRANCH   4  12
TORSDOF 3
ENDMDL
MODEL 3
REMARK VINA RESULT:    -4.060      5.897      7.760
REMARK INTER + INTRA:          -4.810
REMARK INTER:                  -4.645
REMARK INTRA:                  -0.166
REMARK UNBOUND:                -0.157
REMARK SMILES CC=Cc1ccc(O)c(OC)c1
REMARK SMILES IDX 4 1 12 2 9 3 7 4 6 5 5 6 3 7 1 8 2 9 10 10 11 11 8 12
REMARK H PARENT 8 13
REMARK Flexibility Score: inf
ROOT
ATOM      1  C   UNL     1      28.194  29.469  24.586  1.00  0.00    -0.022 A 
ATOM      2  C   UNL     1      27.954  30.836  24.802  1.00  0.00     0.058 A 
ATOM      3  C   UNL     1      28.254  31.789  23.807  1.00  0.00     0.161 A 
ATOM      4  C   UNL     1      28.810  31.359  22.590  1.00  0.00     0.157 A 
ATOM      5  C   UNL     1      29.064  30.002  22.379  1.00  0.00     0.051 A 
ATOM      6  C   UNL     1      28.765  29.061  23.366  1.00  0.00     0.012 A 
ENDROOT
BRANCH   1   7
ATOM      7  C   UNL     1      27.868  28.511  25.673  1.00  0.00     0.003 C 
ATOM      8  C   UNL     1      27.393  26.294  26.636  1.00  0.00     0.035 C 
ATOM      9  C   UNL     1      27.737  27.191  25.491  1.00  0.00    -0.030 C 
ENDBRANCH   1   7
BRANCH   3  10
ATOM     10  O   UNL     1      28.014  33.160  23.995  1.00  0.00    -0.493 OA
ATOM     11  C   UNL     1      28.955  34.077  24.543  1.00  0.00     0.278 C 
ENDBRANCH   3  10
BRANCH   4  12
ATOM     12  O   UNL     1      29.121  32.268  21.578  1.00  0.00    -0.504 OA
ATOM     13  H   UNL     1      30.006  32.759  21.547  1.00  0.00     0.293 HD
ENDBRANCH   4  12
TORSDOF 3
ENDMDL
MODEL 4
REMARK VINA RESULT:    -4.048      4.534      6.229
REMARK INTER + INTRA:          -4.797
REMARK INTER:                  -4.671
REMARK INTRA:                  -0.126
REMARK UNBOUND:                -0.157
REMARK SMILES CC=Cc1ccc(O)c(OC)c1
REMARK SMILES IDX 4 1 12 2 9 3 7 4 6 5 5 6 3 7 1 8 2 9 10 10 11 11 8 12
REMARK H PARENT 8 13
REMARK Flexibility Score: inf
ROOT
ATOM      1  C   UNL     1      28.409  31.066  24.091  1.00  0.00    -0.022 A 
ATOM      2  C   UNL     1      28.037  32.335  24.564  1.00  0.00     0.058 A 
ATOM      3  C   UNL     1      28.193  33.481  23.757  1.00  0.00     0.161 A 
ATOM      4  C   UNL     1      28.739  33.345  22.470  1.00  0.00     0.157 A 
ATOM      5  C   UNL     1      29.125  32.086  22.003  1.00  0.00     0.051 A 
ATOM      6  C   UNL     1      28.968  30.954  22.805  1.00  0.00     0.012 A 
ENDROOT
BRANCH   1   7
ATOM      7  C   UNL     1      28.231  29.895  24.987  1.00  0.00     0.003 C 
ATOM      8  C   UNL     1      26.956  28.132  26.143  1.00  0.00     0.035 C 
ATOM      9  C   UNL     1      27.054  29.299  25.213  1.00  0.00    -0.030 C 
ENDBRANCH   1   7
BRANCH   3  10
ATOM     10  O   UNL     1      27.819  34.760  24.202  1.00  0.00    -0.493 OA
ATOM     11  C   UNL     1      26.570  35.382  23.917  1.00  0.00     0.278 C 
ENDBRANCH   3  10
BRANCH   4  12
ATOM     12  O   UNL     1      28.910  34.453  21.638  1.00  0.00    -0.504 OA
ATOM     13  H   UNL     1      28.233  34.704  20.928  1.00  0.00     0.293 HD
ENDBRANCH   4  12
TORSDOF 3
ENDMDL
MODEL 5
REMARK VINA RESULT:    -4.006      2.606      3.896
REMARK INTER + INTRA:          -4.748
REMARK INTER:                  -4.574
REMARK INTRA:                  -0.174
REMARK UNBOUND:                -0.157
REMARK SMILES CC=Cc1ccc(O)c(OC)c1
REMARK SMILES IDX 4 1 12 2 9 3 7 4 6 5 5 6 3 7 1 8 2 9 10 10 11 11 8 12
REMARK H PARENT 8 13
REMARK Flexibility Score: inf
ROOT
ATOM      1  C   UNL     1      28.464  33.464  22.761  1.00  0.00    -0.022 A 
ATOM      2  C   UNL     1      27.986  34.782  22.683  1.00  0.00     0.058 A 
ATOM      3  C   UNL     1      27.958  35.470  21.452  1.00  0.00     0.161 A 
ATOM      4  C   UNL     1      28.426  34.824  20.295  1.00  0.00     0.157 A 
ATOM      5  C   UNL     1      28.917  33.519  20.372  1.00  0.00     0.051 A 
ATOM      6  C   UNL     1      28.942  32.841  21.593  1.00  0.00     0.012 A 
ENDROOT
BRANCH   1   7
ATOM      7  C   UNL     1      28.480  32.793  24.085  1.00  0.00     0.003 C 
ATOM      8  C   UNL     1      28.297  30.882  25.630  1.00  0.00     0.035 C 
ATOM      9  C   UNL     1      28.280  31.481  24.260  1.00  0.00    -0.030 C 
ENDBRANCH   1   7
BRANCH   3  10
ATOM     10  O   UNL     1      27.475  36.784  21.345  1.00  0.00    -0.493 OA
ATOM     11  C   UNL     1      26.138  37.181  21.634  1.00  0.00     0.278 C 
ENDBRANCH   3  10
BRANCH   4  12
ATOM     12  O   UNL     1      28.415  35.466  19.055  1.00  0.00    -0.504 OA
ATOM     13  H   UNL     1      28.104  35.003  18.210  1.00  0.00     0.293 HD
ENDBRANCH   4  12
TORSDOF 3
ENDMDL
MODEL 6
REMARK VINA RESULT:    -3.975      5.223      8.046
REMARK INTER + INTRA:          -4.713
REMARK INTER:                  -4.533
REMARK INTRA:                  -0.180
REMARK UNBOUND:                -0.157
REMARK SMILES CC=Cc1ccc(O)c(OC)c1
REMARK SMILES IDX 4 1 12 2 9 3 7 4 6 5 5 6 3 7 1 8 2 9 10 10 11 11 8 12
REMARK H PARENT 8 13
REMARK Flexibility Score: inf
ROOT
ATOM      1  C   UNL     1      28.826  32.007  22.970  1.00  0.00    -0.022 A 
ATOM      2  C   UNL     1      28.504  31.885  24.332  1.00  0.00     0.058 A 
ATOM      3  C   UNL     1      28.501  30.625  24.965  1.00  0.00     0.161 A 
ATOM      4  C   UNL     1      28.814  29.480  24.213  1.00  0.00     0.157 A 
ATOM      5  C   UNL     1      29.119  29.596  22.855  1.00  0.00     0.051 A 
ATOM      6  C   UNL     1      29.122  30.846  22.233  1.00  0.00     0.012 A 
ENDROOT
BRANCH   1   7
ATOM      7  C   UNL     1      28.804  33.358  22.355  1.00  0.00     0.003 C 
ATOM      8  C   UNL     1      28.773  34.970  20.492  1.00  0.00     0.035 C 
ATOM      9  C   UNL     1      28.779  33.577  21.034  1.00  0.00    -0.030 C 
ENDBRANCH   1   7
BRANCH   3  10
ATOM     10  O   UNL     1      28.192  30.478  26.327  1.00  0.00    -0.493 OA
ATOM     11  C   UNL     1      29.125  30.647  27.390  1.00  0.00     0.278 C 
ENDBRANCH   3  10
BRANCH   4  12
ATOM     12  O   UNL     1      28.824  28.213  24.799  1.00  0.00    -0.504 OA
ATOM     13  H   UNL     1      29.487  27.498  24.527  1.00  0.00     0.293 HD
ENDBRANCH   4  12
TORSDOF 3
ENDMDL
MODEL 7
REMARK VINA RESULT:    -3.971      2.040      2.115
REMARK INTER + INTRA:          -4.709
REMARK INTER:                  -4.542
REMARK INTRA:                  -0.167
REMARK UNBOUND:                -0.157
REMARK SMILES CC=Cc1ccc(O)c(OC)c1
REMARK SMILES IDX 4 1 12 2 9 3 7 4 6 5 5 6 3 7 1 8 2 9 10 10 11 11 8 12
REMARK H PARENT 8 13
REMARK Flexibility Score: inf
ROOT
ATOM      1  C   UNL     1      27.761  35.878  21.196  1.00  0.00    -0.022 A 
ATOM      2  C   UNL     1      26.656  36.635  21.620  1.00  0.00     0.058 A 
ATOM      3  C   UNL     1      26.087  37.616  20.783  1.00  0.00     0.161 A 
ATOM      4  C   UNL     1      26.645  37.842  19.513  1.00  0.00     0.157 A 
ATOM      5  C   UNL     1      27.754  37.103  19.095  1.00  0.00     0.051 A 
ATOM      6  C   UNL     1      28.313  36.131  19.927  1.00  0.00     0.012 A 
ENDROOT
BRANCH   1   7
ATOM      7  C   UNL     1      28.325  34.865  22.123  1.00  0.00     0.003 C 
ATOM      8  C   UNL     1      28.484  33.602  24.233  1.00  0.00     0.035 C 
ATOM      9  C   UNL     1      27.851  34.632  23.353  1.00  0.00    -0.030 C 
ENDBRANCH   1   7
BRANCH   3  10
ATOM     10  O   UNL     1      24.976  38.379  21.180  1.00  0.00    -0.493 OA
ATOM     11  C   UNL     1      23.707  37.837  21.528  1.00  0.00     0.278 C 
ENDBRANCH   3  10
BRANCH   4  12
ATOM     12  O   UNL     1      26.114  38.803  18.652  1.00  0.00    -0.504 OA
ATOM     13  H   UNL     1      25.143  39.087  18.694  1.00  0.00     0.293 HD
ENDBRANCH   4  12
TORSDOF 3
ENDMDL
MODEL 8
REMARK VINA RESULT:    -3.965      3.226      5.266
REMARK INTER + INTRA:          -4.702
REMARK INTER:                  -4.538
REMARK INTRA:                  -0.164
REMARK UNBOUND:                -0.157
REMARK SMILES CC=Cc1ccc(O)c(OC)c1
REMARK SMILES IDX 4 1 12 2 9 3 7 4 6 5 5 6 3 7 1 8 2 9 10 10 11 11 8 12
REMARK H PARENT 8 13
REMARK Flexibility Score: inf
ROOT
ATOM      1  C   UNL     1      26.876  39.643  19.435  1.00  0.00    -0.022 A 
ATOM      2  C   UNL     1      26.668  38.319  19.014  1.00  0.00     0.058 A 
ATOM      3  C   UNL     1      25.809  37.459  19.728  1.00  0.00     0.161 A 
ATOM      4  C   UNL     1      25.165  37.936  20.882  1.00  0.00     0.157 A 
ATOM      5  C   UNL     1      25.383  39.247  21.314  1.00  0.00     0.051 A 
ATOM      6  C   UNL     1      26.233  40.096  20.602  1.00  0.00     0.012 A 
ENDROOT
BRANCH   1   7
ATOM      7  C   UNL     1      27.798  40.501  18.650  1.00  0.00     0.003 C 
ATOM      8  C   UNL     1      28.734  42.633  17.844  1.00  0.00     0.035 C 
ATOM      9  C   UNL     1      27.779  41.839  18.677  1.00  0.00    -0.030 C 
ENDBRANCH   1   7
BRANCH   3  10
ATOM     10  O   UNL     1      25.576  36.135  19.321  1.00  0.00    -0.493 OA
ATOM     11  C   UNL     1      24.532  35.732  18.440  1.00  0.00     0.278 C 
ENDBRANCH   3  10
BRANCH   4  12
ATOM     12  O   UNL     1      24.306  37.119  21.619  1.00  0.00    -0.504 OA
ATOM     13  H   UNL     1      23.341  36.970  21.351  1.00  0.00     0.293 HD
ENDBRANCH   4  12
TORSDOF 3
ENDMDL
MODEL 9
REMARK VINA RESULT:    -3.946      3.363      5.785
REMARK INTER + INTRA:          -4.679
REMARK INTER:                  -4.507
REMARK INTRA:                  -0.172
REMARK UNBOUND:                -0.157
REMARK SMILES CC=Cc1ccc(O)c(OC)c1
REMARK SMILES IDX 4 1 12 2 9 3 7 4 6 5 5 6 3 7 1 8 2 9 10 10 11 11 8 12
REMARK H PARENT 8 13
REMARK Flexibility Score: inf
ROOT
ATOM      1  C   UNL     1      26.920  40.396  19.701  1.00  0.00    -0.022 A 
ATOM      2  C   UNL     1      26.037  39.816  20.627  1.00  0.00     0.058 A 
ATOM      3  C   UNL     1      25.729  38.442  20.570  1.00  0.00     0.161 A 
ATOM      4  C   UNL     1      26.308  37.650  19.563  1.00  0.00     0.157 A 
ATOM      5  C   UNL     1      27.173  38.227  18.631  1.00  0.00     0.051 A 
ATOM      6  C   UNL     1      27.477  39.589  18.692  1.00  0.00     0.012 A 
ENDROOT
BRANCH   1   7
ATOM      7  C   UNL     1      27.201  41.850  19.804  1.00  0.00     0.003 C 
ATOM      8  C   UNL     1      27.584  44.124  18.936  1.00  0.00     0.035 C 
ATOM      9  C   UNL     1      27.282  42.671  18.750  1.00  0.00    -0.030 C 
ENDBRANCH   1   7
BRANCH   3  10
ATOM     10  O   UNL     1      24.857  37.836  21.490  1.00  0.00    -0.493 OA
ATOM     11  C   UNL     1      23.497  38.211  21.682  1.00  0.00     0.278 C 
ENDBRANCH   3  10
BRANCH   4  12
ATOM     12  O   UNL     1      26.030  36.285  19.470  1.00  0.00    -0.504 OA
ATOM     13  H   UNL     1      25.743  35.851  18.601  1.00  0.00     0.293 HD
ENDBRANCH   4  12
TORSDOF 3
ENDMDL
