MODEL 1
REMARK VINA RESULT:    45.149      0.000      0.000
REMARK INTER + INTRA:          48.905
REMARK INTER:                  49.108
REMARK INTRA:                  -0.203
REMARK UNBOUND:                -0.203
REMARK SMILES C[C@@H]1[C@H](C)CC[C@@]2(C(=O)[O-])CC[C@@]3(C)C(=CC[C@H]4[C@]5(C)CC[C@H](O)C(C)(C)[C@H]5CC[C@]43C)[C@@H]12
REMARK SMILES IDX 7 1 6 2 11 3 33 4 5 5 12 6 15 7 2 8 3 9 13 10 16 11 1 12
REMARK SMILES IDX 4 13 14 14 31 15 17 16 18 17 30 18 32 19 19 20 29 21 28 22
REMARK SMILES IDX 21 23 20 24 25 25 22 26 23 27 26 28 27 29 8 30 9 31 10 32
REMARK SMILES IDX 24 33
REMARK H PARENT 24 34
REMARK Flexibility Score: inf
ROOT
ATOM      1  C   UNL     1      18.872  11.639  -9.345  1.00  0.00     0.017 C 
ATOM      2  C   UNL     1      18.723  12.890 -10.265  1.00  0.00     0.014 C 
ATOM      3  C   UNL     1      20.123  10.864  -9.836  1.00  0.00     0.014 C 
ATOM      4  C   UNL     1      18.961  12.054  -7.805  1.00  0.00     0.030 C 
ATOM      5  C   UNL     1      19.777  13.973 -10.009  1.00  0.00     0.004 C 
ATOM      6  C   UNL     1      20.485   9.718  -8.914  1.00  0.00     0.013 C 
ATOM      7  C   UNL     1      20.042  11.311  -6.965  1.00  0.00    -0.063 C 
ATOM      8  C   UNL     1      18.975  13.618  -7.548  1.00  0.00    -0.003 C 
ATOM      9  C   UNL     1      19.904  14.405  -8.527  1.00  0.00    -0.011 C 
ATOM     10  C   UNL     1      20.976  10.214  -7.515  1.00  0.00    -0.006 C 
ATOM     11  C   UNL     1      20.087  11.525  -5.618  1.00  0.00    -0.027 C 
ATOM     12  C   UNL     1      17.533  14.182  -7.435  1.00  0.00     0.008 C 
ATOM     13  C   UNL     1      19.752  15.939  -8.394  1.00  0.00     0.008 C 
ATOM     14  C   UNL     1      22.385  10.868  -7.738  1.00  0.00     0.017 C 
ATOM     15  C   UNL     1      21.008   8.976  -6.464  1.00  0.00    -0.020 C 
ATOM     16  C   UNL     1      21.209  10.979  -4.783  1.00  0.00     0.032 C 
ATOM     17  C   UNL     1      21.429   9.444  -4.984  1.00  0.00     0.006 C 
ATOM     18  C   UNL     1      19.570   8.299  -6.463  1.00  0.00     0.008 C 
ATOM     19  C   UNL     1      22.074   7.943  -6.977  1.00  0.00     0.012 C 
ATOM     20  C   UNL     1      20.953   8.508  -3.740  1.00  0.00    -0.025 C 
ATOM     21  C   UNL     1      19.044   7.682  -5.166  1.00  0.00     0.005 C 
ATOM     22  C   UNL     1      20.193   7.234  -4.271  1.00  0.00     0.003 C 
ATOM     23  C   UNL     1      22.209   7.995  -2.968  1.00  0.00     0.010 C 
ATOM     24  C   UNL     1      20.079   9.314  -2.721  1.00  0.00     0.012 C 
ATOM     25  C   UNL     1      19.868   6.062  -3.251  1.00  0.00    -0.006 C 
ATOM     26  C   UNL     1      21.881   6.949  -1.880  1.00  0.00     0.033 C 
ATOM     27  C   UNL     1      21.177   5.707  -2.461  1.00  0.00     0.120 C 
ATOM     28  C   UNL     1      18.698   6.385  -2.269  1.00  0.00     0.014 C 
ATOM     29  C   UNL     1      19.426   4.791  -4.049  1.00  0.00     0.014 C 
ENDROOT
BRANCH   1  30
ATOM     30  C   UNL     1      17.644  10.742  -9.568  1.00  0.00     0.048 C 
ATOM     31  O   UNL     1      17.201   9.998  -8.647  1.00  0.00    -0.550 OA
ATOM     32  O   UNL     1      16.963  10.760 -10.780  1.00  0.00    -0.550 OA
ENDBRANCH   1  30
BRANCH  27  33
ATOM     33  O   UNL     1      22.085   5.022  -3.296  1.00  0.00    -0.393 OA
ATOM     34  H   UNL     1      21.832   4.062  -3.275  1.00  0.00     0.210 HD
ENDBRANCH  27  33
TORSDOF 2
ENDMDL
