MODEL 1
REMARK VINA RESULT:    -3.854      0.000      0.000
REMARK INTER + INTRA:          -4.748
REMARK INTER:                  -4.530
REMARK INTRA:                  -0.218
REMARK UNBOUND:                -0.218
REMARK SMILES [NH3+][C@@H](CO)C(=O)[O-]
REMARK SMILES IDX 3 1 2 2 1 3 5 7 6 8 7 9 4 10
REMARK H PARENT 1 4 1 5 1 6 4 11
REMARK Flexibility Score: inf
ROOT
ATOM      1  C   UNL     1      -0.216 -14.414 -15.977  1.00  0.00     0.227 C 
ENDROOT
BRANCH   1   2
ATOM      2  C   UNL     1       0.182 -14.043 -14.540  1.00  0.00     0.253 C 
BRANCH   2   3
ATOM      3  N   UNL     1       1.072 -12.875 -14.518  1.00  0.00    -0.348 N 
ATOM      4  H   UNL     1       1.946 -13.106 -13.991  1.00  0.00     0.345 HD
ATOM      5  H   UNL     1       0.606 -12.056 -14.063  1.00  0.00     0.345 HD
ATOM      6  H   UNL     1       1.339 -12.617 -15.496  1.00  0.00     0.345 HD
ENDBRANCH   2   3
BRANCH   2   7
ATOM      7  C   UNL     1       0.815 -15.217 -13.839  1.00  0.00     0.102 C 
ATOM      8  O   UNL     1       1.471 -16.076 -14.489  1.00  0.00    -0.544 OA
ATOM      9  O   UNL     1       0.644 -15.380 -12.470  1.00  0.00    -0.544 OA
ENDBRANCH   2   7
ENDBRANCH   1   2
BRANCH   1  10
ATOM     10  O   UNL     1       0.919 -14.525 -16.795  1.00  0.00    -0.390 OA
ATOM     11  H   UNL     1       0.607 -14.933 -17.644  1.00  0.00     0.210 HD
ENDBRANCH   1  10
TORSDOF 4
ENDMDL
MODEL 2
REMARK VINA RESULT:    -3.795      1.837      2.370
REMARK INTER + INTRA:          -4.678
REMARK INTER:                  -4.456
REMARK INTRA:                  -0.223
REMARK UNBOUND:                -0.218
REMARK SMILES [NH3+][C@@H](CO)C(=O)[O-]
REMARK SMILES IDX 3 1 2 2 1 3 5 7 6 8 7 9 4 10
REMARK H PARENT 1 4 1 5 1 6 4 11
REMARK Flexibility Score: inf
ROOT
ATOM      1  C   UNL     1       0.071 -12.996 -13.621  1.00  0.00     0.227 C 
ENDROOT
BRANCH   1   2
ATOM      2  C   UNL     1       0.281 -14.475 -13.256  1.00  0.00     0.253 C 
BRANCH   2   3
ATOM      3  N   UNL     1       1.132 -14.614 -12.067  1.00  0.00    -0.348 N 
ATOM      4  H   UNL     1       0.545 -14.879 -11.242  1.00  0.00     0.345 HD
ATOM      5  H   UNL     1       1.634 -13.721 -11.856  1.00  0.00     0.345 HD
ATOM      6  H   UNL     1       1.836 -15.373 -12.224  1.00  0.00     0.345 HD
ENDBRANCH   2   3
BRANCH   2   7
ATOM      7  C   UNL     1       0.854 -15.238 -14.422  1.00  0.00     0.102 C 
ATOM      8  O   UNL     1       1.681 -16.171 -14.236  1.00  0.00    -0.544 OA
ATOM      9  O   UNL     1       0.500 -14.887 -15.719  1.00  0.00    -0.544 OA
ENDBRANCH   2   7
ENDBRANCH   1   2
BRANCH   1  10
ATOM     10  O   UNL     1       1.110 -12.534 -14.442  1.00  0.00    -0.390 OA
ATOM     11  H   UNL     1       0.880 -12.820 -15.364  1.00  0.00     0.210 HD
ENDBRANCH   1  10
TORSDOF 4
ENDMDL
MODEL 3
REMARK VINA RESULT:    -3.784      1.744      2.469
REMARK INTER + INTRA:          -4.665
REMARK INTER:                  -4.434
REMARK INTRA:                  -0.231
REMARK UNBOUND:                -0.218
REMARK SMILES [NH3+][C@@H](CO)C(=O)[O-]
REMARK SMILES IDX 3 1 2 2 1 3 5 7 6 8 7 9 4 10
REMARK H PARENT 1 4 1 5 1 6 4 11
REMARK Flexibility Score: inf
ROOT
ATOM      1  C   UNL     1      -1.452 -13.045 -14.849  1.00  0.00     0.227 C 
ENDROOT
BRANCH   1   2
ATOM      2  C   UNL     1      -0.095 -13.639 -14.435  1.00  0.00     0.253 C 
BRANCH   2   3
ATOM      3  N   UNL     1       0.929 -12.593 -14.313  1.00  0.00    -0.348 N 
ATOM      4  H   UNL     1       1.600 -12.661 -15.112  1.00  0.00     0.345 HD
ATOM      5  H   UNL     1       1.457 -12.687 -13.415  1.00  0.00     0.345 HD
ATOM      6  H   UNL     1       0.476 -11.650 -14.346  1.00  0.00     0.345 HD
ENDBRANCH   2   3
BRANCH   2   7
ATOM      7  C   UNL     1       0.339 -14.709 -15.402  1.00  0.00     0.102 C 
ATOM      8  O   UNL     1       1.076 -15.658 -15.021  1.00  0.00    -0.544 OA
ATOM      9  O   UNL     1      -0.042 -14.632 -16.735  1.00  0.00    -0.544 OA
ENDBRANCH   2   7
ENDBRANCH   1   2
BRANCH   1  10
ATOM     10  O   UNL     1      -2.426 -14.049 -14.942  1.00  0.00    -0.390 OA
ATOM     11  H   UNL     1      -3.264 -13.652 -14.589  1.00  0.00     0.210 HD
ENDBRANCH   1  10
TORSDOF 4
ENDMDL
MODEL 4
REMARK VINA RESULT:    -3.758      1.375      2.644
REMARK INTER + INTRA:          -4.635
REMARK INTER:                  -4.392
REMARK INTRA:                  -0.243
REMARK UNBOUND:                -0.218
REMARK SMILES [NH3+][C@@H](CO)C(=O)[O-]
REMARK SMILES IDX 3 1 2 2 1 3 5 7 6 8 7 9 4 10
REMARK H PARENT 1 4 1 5 1 6 4 11
REMARK Flexibility Score: inf
ROOT
ATOM      1  C   UNL     1       1.040 -15.428 -14.181  1.00  0.00     0.227 C 
ENDROOT
BRANCH   1   2
ATOM      2  C   UNL     1       0.893 -14.205 -15.100  1.00  0.00     0.253 C 
BRANCH   2   3
ATOM      3  N   UNL     1       1.015 -12.952 -14.344  1.00  0.00    -0.348 N 
ATOM      4  H   UNL     1       0.142 -12.787 -13.792  1.00  0.00     0.345 HD
ATOM      5  H   UNL     1       1.173 -12.140 -14.984  1.00  0.00     0.345 HD
ATOM      6  H   UNL     1       1.817 -13.021 -13.675  1.00  0.00     0.345 HD
ENDBRANCH   2   3
BRANCH   2   7
ATOM      7  C   UNL     1      -0.410 -14.256 -15.855  1.00  0.00     0.102 C 
ATOM      8  O   UNL     1      -0.486 -14.848 -16.965  1.00  0.00    -0.544 OA
ATOM      9  O   UNL     1      -1.530 -13.610 -15.346  1.00  0.00    -0.544 OA
ENDBRANCH   2   7
ENDBRANCH   1   2
BRANCH   1  10
ATOM     10  O   UNL     1       0.700 -16.606 -14.862  1.00  0.00    -0.390 OA
ATOM     11  H   UNL     1       1.106 -16.528 -15.764  1.00  0.00     0.210 HD
ENDBRANCH   1  10
TORSDOF 4
ENDMDL
MODEL 5
REMARK VINA RESULT:    -3.720     14.346     15.089
REMARK INTER + INTRA:          -4.590
REMARK INTER:                  -4.379
REMARK INTRA:                  -0.211
REMARK UNBOUND:                -0.218
REMARK SMILES [NH3+][C@@H](CO)C(=O)[O-]
REMARK SMILES IDX 3 1 2 2 1 3 5 7 6 8 7 9 4 10
REMARK H PARENT 1 4 1 5 1 6 4 11
REMARK Flexibility Score: inf
ROOT
ATOM      1  C   UNL     1       6.106 -10.964 -29.195  1.00  0.00     0.227 C 
ENDROOT
BRANCH   1   2
ATOM      2  C   UNL     1       6.435 -12.465 -29.150  1.00  0.00     0.253 C 
BRANCH   2   3
ATOM      3  N   UNL     1       5.437 -13.251 -29.886  1.00  0.00    -0.348 N 
ATOM      4  H   UNL     1       4.531 -13.252 -29.362  1.00  0.00     0.345 HD
ATOM      5  H   UNL     1       5.756 -14.238 -30.016  1.00  0.00     0.345 HD
ATOM      6  H   UNL     1       5.270 -12.820 -30.825  1.00  0.00     0.345 HD
ENDBRANCH   2   3
BRANCH   2   7
ATOM      7  C   UNL     1       6.557 -12.944 -27.727  1.00  0.00     0.102 C 
ATOM      8  O   UNL     1       7.201 -13.993 -27.455  1.00  0.00    -0.544 OA
ATOM      9  O   UNL     1       5.924 -12.247 -26.706  1.00  0.00    -0.544 OA
ENDBRANCH   2   7
ENDBRANCH   1   2
BRANCH   1  10
ATOM     10  O   UNL     1       4.722 -10.755 -29.102  1.00  0.00    -0.390 OA
ATOM     11  H   UNL     1       4.606  -9.824 -28.780  1.00  0.00     0.210 HD
ENDBRANCH   1  10
TORSDOF 4
ENDMDL
MODEL 6
REMARK VINA RESULT:    -3.655     16.340     16.604
REMARK INTER + INTRA:          -4.514
REMARK INTER:                  -4.136
REMARK INTRA:                  -0.378
REMARK UNBOUND:                -0.218
REMARK SMILES [NH3+][C@@H](CO)C(=O)[O-]
REMARK SMILES IDX 3 1 2 2 1 3 5 7 6 8 7 9 4 10
REMARK H PARENT 1 4 1 5 1 6 4 11
REMARK Flexibility Score: inf
ROOT
ATOM      1  C   UNL     1       5.448 -10.413 -30.283  1.00  0.00     0.227 C 
ENDROOT
BRANCH   1   2
ATOM      2  C   UNL     1       6.318 -11.583 -30.771  1.00  0.00     0.253 C 
BRANCH   2   3
ATOM      3  N   UNL     1       5.766 -12.184 -31.991  1.00  0.00    -0.348 N 
ATOM      4  H   UNL     1       5.759 -13.227 -31.898  1.00  0.00     0.345 HD
ATOM      5  H   UNL     1       6.331 -11.920 -32.830  1.00  0.00     0.345 HD
ATOM      6  H   UNL     1       4.780 -11.862 -32.128  1.00  0.00     0.345 HD
ENDBRANCH   2   3
BRANCH   2   7
ATOM      7  C   UNL     1       6.485 -12.615 -29.686  1.00  0.00     0.102 C 
ATOM      8  O   UNL     1       5.823 -13.688 -29.714  1.00  0.00    -0.544 OA
ATOM      9  O   UNL     1       7.344 -12.369 -28.623  1.00  0.00    -0.544 OA
ENDBRANCH   2   7
ENDBRANCH   1   2
BRANCH   1  10
ATOM     10  O   UNL     1       4.725 -10.775 -29.136  1.00  0.00    -0.390 OA
ATOM     11  H   UNL     1       5.084 -11.656 -28.853  1.00  0.00     0.210 HD
ENDBRANCH   1  10
TORSDOF 4
ENDMDL
MODEL 7
REMARK VINA RESULT:    -3.652      2.116      2.326
REMARK INTER + INTRA:          -4.510
REMARK INTER:                  -4.287
REMARK INTRA:                  -0.223
REMARK UNBOUND:                -0.218
REMARK SMILES [NH3+][C@@H](CO)C(=O)[O-]
REMARK SMILES IDX 3 1 2 2 1 3 5 7 6 8 7 9 4 10
REMARK H PARENT 1 4 1 5 1 6 4 11
REMARK Flexibility Score: inf
ROOT
ATOM      1  C   UNL     1       0.459 -14.003 -15.007  1.00  0.00     0.227 C 
ENDROOT
BRANCH   1   2
ATOM      2  C   UNL     1       0.960 -15.244 -14.252  1.00  0.00     0.253 C 
BRANCH   2   3
ATOM      3  N   UNL     1       0.740 -16.468 -15.033  1.00  0.00    -0.348 N 
ATOM      4  H   UNL     1      -0.159 -16.916 -14.742  1.00  0.00     0.345 HD
ATOM      5  H   UNL     1       1.522 -17.149 -14.894  1.00  0.00     0.345 HD
ATOM      6  H   UNL     1       0.672 -16.230 -16.050  1.00  0.00     0.345 HD
ENDBRANCH   2   3
BRANCH   2   7
ATOM      7  C   UNL     1       0.311 -15.345 -12.896  1.00  0.00     0.102 C 
ATOM      8  O   UNL     1      -0.391 -14.399 -12.448  1.00  0.00    -0.544 OA
ATOM      9  O   UNL     1       0.519 -16.473 -12.112  1.00  0.00    -0.544 OA
ENDBRANCH   2   7
ENDBRANCH   1   2
BRANCH   1  10
ATOM     10  O   UNL     1       1.094 -12.844 -14.537  1.00  0.00    -0.390 OA
ATOM     11  H   UNL     1       2.053 -12.943 -14.769  1.00  0.00     0.210 HD
ENDBRANCH   1  10
TORSDOF 4
ENDMDL
MODEL 8
REMARK VINA RESULT:    -3.646      1.989      2.423
REMARK INTER + INTRA:          -4.504
REMARK INTER:                  -4.249
REMARK INTRA:                  -0.254
REMARK UNBOUND:                -0.218
REMARK SMILES [NH3+][C@@H](CO)C(=O)[O-]
REMARK SMILES IDX 3 1 2 2 1 3 5 7 6 8 7 9 4 10
REMARK H PARENT 1 4 1 5 1 6 4 11
REMARK Flexibility Score: inf
ROOT
ATOM      1  C   UNL     1      -1.417 -13.222 -14.894  1.00  0.00     0.227 C 
ENDROOT
BRANCH   1   2
ATOM      2  C   UNL     1      -0.322 -13.156 -13.817  1.00  0.00     0.253 C 
BRANCH   2   3
ATOM      3  N   UNL     1       0.989 -12.860 -14.407  1.00  0.00    -0.348 N 
ATOM      4  H   UNL     1       0.922 -12.895 -15.451  1.00  0.00     0.345 HD
ATOM      5  H   UNL     1       1.709 -13.548 -14.089  1.00  0.00     0.345 HD
ATOM      6  H   UNL     1       1.291 -11.897 -14.132  1.00  0.00     0.345 HD
ENDBRANCH   2   3
BRANCH   2   7
ATOM      7  C   UNL     1      -0.279 -14.432 -13.017  1.00  0.00     0.102 C 
ATOM      8  O   UNL     1      -1.014 -14.580 -12.004  1.00  0.00    -0.544 OA
ATOM      9  O   UNL     1       0.605 -15.442 -13.374  1.00  0.00    -0.544 OA
ENDBRANCH   2   7
ENDBRANCH   1   2
BRANCH   1  10
ATOM     10  O   UNL     1      -2.511 -13.977 -14.445  1.00  0.00    -0.390 OA
ATOM     11  H   UNL     1      -2.129 -14.795 -14.033  1.00  0.00     0.210 HD
ENDBRANCH   1  10
TORSDOF 4
ENDMDL
MODEL 9
REMARK VINA RESULT:    -3.643      1.993      3.237
REMARK INTER + INTRA:          -4.500
REMARK INTER:                  -4.275
REMARK INTRA:                  -0.224
REMARK UNBOUND:                -0.218
REMARK SMILES [NH3+][C@@H](CO)C(=O)[O-]
REMARK SMILES IDX 3 1 2 2 1 3 5 7 6 8 7 9 4 10
REMARK H PARENT 1 4 1 5 1 6 4 11
REMARK Flexibility Score: inf
ROOT
ATOM      1  C   UNL     1       0.697 -15.110 -13.365  1.00  0.00     0.227 C 
ENDROOT
BRANCH   1   2
ATOM      2  C   UNL     1       0.113 -14.042 -14.304  1.00  0.00     0.253 C 
BRANCH   2   3
ATOM      3  N   UNL     1       1.008 -12.884 -14.415  1.00  0.00    -0.348 N 
ATOM      4  H   UNL     1       1.092 -12.596 -15.418  1.00  0.00     0.345 HD
ATOM      5  H   UNL     1       1.960 -13.105 -14.043  1.00  0.00     0.345 HD
ATOM      6  H   UNL     1       0.611 -12.078 -13.877  1.00  0.00     0.345 HD
ENDBRANCH   2   3
BRANCH   2   7
ATOM      7  C   UNL     1      -1.260 -13.623 -13.850  1.00  0.00     0.102 C 
ATOM      8  O   UNL     1      -1.516 -13.482 -12.624  1.00  0.00    -0.544 OA
ATOM      9  O   UNL     1      -2.268 -13.428 -14.786  1.00  0.00    -0.544 OA
ENDBRANCH   2   7
ENDBRANCH   1   2
BRANCH   1  10
ATOM     10  O   UNL     1       1.135 -14.531 -12.165  1.00  0.00    -0.390 OA
ATOM     11  H   UNL     1       0.591 -13.710 -12.042  1.00  0.00     0.210 HD
ENDBRANCH   1  10
TORSDOF 4
ENDMDL
