MODEL 1
REMARK VINA RESULT:    -4.288      0.000      0.000
REMARK INTER + INTRA:          -5.475
REMARK INTER:                  -5.291
REMARK INTRA:                  -0.183
REMARK UNBOUND:                -0.183
REMARK SMILES CCCCC=CC(C)=O
REMARK SMILES IDX 4 1 3 2 2 3 1 4 5 5 6 6 7 7 9 8 8 9
REMARK H PARENT
REMARK Flexibility Score: inf
ROOT
ATOM      1  C   UNL     1     256.427 261.224 246.122  1.00  0.00     0.027 C 
ENDROOT
BRANCH   1   2
ATOM      2  C   UNL     1     254.944 260.840 245.992  1.00  0.00     0.004 C 
BRANCH   2   3
ATOM      3  C   UNL     1     254.241 260.781 247.355  1.00  0.00    -0.003 C 
ATOM      4  C   UNL     1     252.792 261.247 247.249  1.00  0.00     0.004 C 
ENDBRANCH   2   3
ENDBRANCH   1   2
BRANCH   1   5
ATOM      5  C   UNL     1     257.176 261.069 244.824  1.00  0.00    -0.023 C 
ATOM      6  C   UNL     1     258.101 261.914 244.340  1.00  0.00     0.042 C 
BRANCH   6   7
ATOM      7  C   UNL     1     258.610 263.136 245.005  1.00  0.00     0.152 C 
ATOM      8  O   UNL     1     259.701 263.141 245.636  1.00  0.00    -0.295 OA
ATOM      9  C   UNL     1     257.849 264.414 244.864  1.00  0.00     0.093 C 
ENDBRANCH   6   7
ENDBRANCH   1   5
TORSDOF 4
ENDMDL
MODEL 2
REMARK VINA RESULT:    -4.148      1.325      1.792
REMARK INTER + INTRA:          -5.302
REMARK INTER:                  -5.127
REMARK INTRA:                  -0.175
REMARK UNBOUND:                -0.183
REMARK SMILES CCCCC=CC(C)=O
REMARK SMILES IDX 4 1 3 2 2 3 1 4 5 5 6 6 7 7 9 8 8 9
REMARK H PARENT
REMARK Flexibility Score: inf
ROOT
ATOM      1  C   UNL     1     256.364 261.220 246.178  1.00  0.00     0.027 C 
ENDROOT
BRANCH   1   2
ATOM      2  C   UNL     1     254.886 260.823 246.033  1.00  0.00     0.004 C 
BRANCH   2   3
ATOM      3  C   UNL     1     254.145 260.853 247.377  1.00  0.00    -0.003 C 
ATOM      4  C   UNL     1     252.684 261.251 247.193  1.00  0.00     0.004 C 
ENDBRANCH   2   3
ENDBRANCH   1   2
BRANCH   1   5
ATOM      5  C   UNL     1     257.111 261.139 244.872  1.00  0.00    -0.023 C 
ATOM      6  C   UNL     1     258.436 261.295 244.709  1.00  0.00     0.042 C 
BRANCH   6   7
ATOM      7  C   UNL     1     259.433 261.523 245.779  1.00  0.00     0.152 C 
ATOM      8  O   UNL     1     259.764 262.685 246.139  1.00  0.00    -0.295 OA
ATOM      9  C   UNL     1     260.011 260.349 246.501  1.00  0.00     0.093 C 
ENDBRANCH   6   7
ENDBRANCH   1   5
TORSDOF 4
ENDMDL
MODEL 3
REMARK VINA RESULT:    -4.062      1.778      2.252
REMARK INTER + INTRA:          -5.195
REMARK INTER:                  -4.860
REMARK INTRA:                  -0.335
REMARK UNBOUND:                -0.183
REMARK SMILES CCCCC=CC(C)=O
REMARK SMILES IDX 4 1 3 2 2 3 1 4 5 5 6 6 7 7 9 8 8 9
REMARK H PARENT
REMARK Flexibility Score: inf
ROOT
ATOM      1  C   UNL     1     254.626 260.935 246.033  1.00  0.00     0.027 C 
ENDROOT
BRANCH   1   2
ATOM      2  C   UNL     1     254.385 259.621 245.272  1.00  0.00     0.004 C 
BRANCH   2   3
ATOM      3  C   UNL     1     253.877 258.505 246.195  1.00  0.00    -0.003 C 
ATOM      4  C   UNL     1     252.536 258.875 246.821  1.00  0.00     0.004 C 
ENDBRANCH   2   3
ENDBRANCH   1   2
BRANCH   1   5
ATOM      5  C   UNL     1     255.818 260.857 246.951  1.00  0.00    -0.023 C 
ATOM      6  C   UNL     1     257.074 261.224 246.647  1.00  0.00     0.042 C 
BRANCH   6   7
ATOM      7  C   UNL     1     257.531 261.828 245.374  1.00  0.00     0.152 C 
ATOM      8  O   UNL     1     257.689 261.137 244.332  1.00  0.00    -0.295 OA
ATOM      9  C   UNL     1     257.741 263.306 245.301  1.00  0.00     0.093 C 
ENDBRANCH   6   7
ENDBRANCH   1   5
TORSDOF 4
ENDMDL
MODEL 4
REMARK VINA RESULT:    -4.044      7.782      9.601
REMARK INTER + INTRA:          -5.173
REMARK INTER:                  -4.857
REMARK INTRA:                  -0.316
REMARK UNBOUND:                -0.183
REMARK SMILES CCCCC=CC(C)=O
REMARK SMILES IDX 4 1 3 2 2 3 1 4 5 5 6 6 7 7 9 8 8 9
REMARK H PARENT
REMARK Flexibility Score: inf
ROOT
ATOM      1  C   UNL     1     249.307 258.370 247.417  1.00  0.00     0.027 C 
ENDROOT
BRANCH   1   2
ATOM      2  C   UNL     1     250.132 259.595 246.989  1.00  0.00     0.004 C 
BRANCH   2   3
ATOM      3  C   UNL     1     249.240 260.788 246.615  1.00  0.00    -0.003 C 
ATOM      4  C   UNL     1     249.961 262.111 246.857  1.00  0.00     0.004 C 
ENDBRANCH   2   3
ENDBRANCH   1   2
BRANCH   1   5
ATOM      5  C   UNL     1     249.507 257.194 246.497  1.00  0.00    -0.023 C 
ATOM      6  C   UNL     1     248.701 256.840 245.481  1.00  0.00     0.042 C 
BRANCH   6   7
ATOM      7  C   UNL     1     247.489 257.559 245.028  1.00  0.00     0.152 C 
ATOM      8  O   UNL     1     247.560 258.654 244.409  1.00  0.00    -0.295 OA
ATOM      9  C   UNL     1     246.147 256.937 245.246  1.00  0.00     0.093 C 
ENDBRANCH   6   7
ENDBRANCH   1   5
TORSDOF 4
ENDMDL
MODEL 5
REMARK VINA RESULT:    -4.015      5.387      7.406
REMARK INTER + INTRA:          -5.137
REMARK INTER:                  -4.848
REMARK INTRA:                  -0.289
REMARK UNBOUND:                -0.183
REMARK SMILES CCCCC=CC(C)=O
REMARK SMILES IDX 4 1 3 2 2 3 1 4 5 5 6 6 7 7 9 8 8 9
REMARK H PARENT
REMARK Flexibility Score: inf
ROOT
ATOM      1  C   UNL     1     255.595 260.479 251.051  1.00  0.00     0.027 C 
ENDROOT
BRANCH   1   2
ATOM      2  C   UNL     1     255.142 259.823 249.736  1.00  0.00     0.004 C 
BRANCH   2   3
ATOM      3  C   UNL     1     255.188 260.805 248.557  1.00  0.00    -0.003 C 
ATOM      4  C   UNL     1     253.824 260.920 247.883  1.00  0.00     0.004 C 
ENDBRANCH   2   3
ENDBRANCH   1   2
BRANCH   1   5
ATOM      5  C   UNL     1     254.900 261.791 251.307  1.00  0.00    -0.023 C 
ATOM      6  C   UNL     1     254.353 262.181 252.471  1.00  0.00     0.042 C 
BRANCH   6   7
ATOM      7  C   UNL     1     254.367 261.428 253.746  1.00  0.00     0.152 C 
ATOM      8  O   UNL     1     255.184 261.699 254.666  1.00  0.00    -0.295 OA
ATOM      9  C   UNL     1     253.339 260.368 253.980  1.00  0.00     0.093 C 
ENDBRANCH   6   7
ENDBRANCH   1   5
TORSDOF 4
ENDMDL
MODEL 6
REMARK VINA RESULT:    -4.005      3.980      5.449
REMARK INTER + INTRA:          -5.125
REMARK INTER:                  -4.827
REMARK INTRA:                  -0.298
REMARK UNBOUND:                -0.183
REMARK SMILES CCCCC=CC(C)=O
REMARK SMILES IDX 4 1 3 2 2 3 1 4 5 5 6 6 7 7 9 8 8 9
REMARK H PARENT
REMARK Flexibility Score: inf
ROOT
ATOM      1  C   UNL     1     251.176 260.245 246.883  1.00  0.00     0.027 C 
ENDROOT
BRANCH   1   2
ATOM      2  C   UNL     1     249.813 260.953 246.808  1.00  0.00     0.004 C 
BRANCH   2   3
ATOM      3  C   UNL     1     249.942 262.474 246.969  1.00  0.00    -0.003 C 
ATOM      4  C   UNL     1     249.554 263.199 245.684  1.00  0.00     0.004 C 
ENDBRANCH   2   3
ENDBRANCH   1   2
BRANCH   1   5
ATOM      5  C   UNL     1     252.287 261.182 247.281  1.00  0.00    -0.023 C 
ATOM      6  C   UNL     1     253.602 260.961 247.117  1.00  0.00     0.042 C 
BRANCH   6   7
ATOM      7  C   UNL     1     254.223 259.784 246.468  1.00  0.00     0.152 C 
ATOM      8  O   UNL     1     254.394 258.700 247.087  1.00  0.00    -0.295 OA
ATOM      9  C   UNL     1     254.592 259.858 245.021  1.00  0.00     0.093 C 
ENDBRANCH   6   7
ENDBRANCH   1   5
TORSDOF 4
ENDMDL
MODEL 7
REMARK VINA RESULT:    -3.946      2.482      4.027
REMARK INTER + INTRA:          -5.052
REMARK INTER:                  -4.579
REMARK INTRA:                  -0.473
REMARK UNBOUND:                -0.183
REMARK SMILES CCCCC=CC(C)=O
REMARK SMILES IDX 4 1 3 2 2 3 1 4 5 5 6 6 7 7 9 8 8 9
REMARK H PARENT
REMARK Flexibility Score: inf
ROOT
ATOM      1  C   UNL     1     257.986 261.415 247.942  1.00  0.00     0.027 C 
ENDROOT
BRANCH   1   2
ATOM      2  C   UNL     1     259.018 260.276 247.981  1.00  0.00     0.004 C 
BRANCH   2   3
ATOM      3  C   UNL     1     260.251 260.584 247.120  1.00  0.00    -0.003 C 
ATOM      4  C   UNL     1     260.648 259.376 246.276  1.00  0.00     0.004 C 
ENDBRANCH   2   3
ENDBRANCH   1   2
BRANCH   1   5
ATOM      5  C   UNL     1     256.833 261.112 247.021  1.00  0.00    -0.023 C 
ATOM      6  C   UNL     1     256.730 261.488 245.735  1.00  0.00     0.042 C 
BRANCH   6   7
ATOM      7  C   UNL     1     257.745 262.225 244.949  1.00  0.00     0.152 C 
ATOM      8  O   UNL     1     258.527 261.635 244.157  1.00  0.00    -0.295 OA
ATOM      9  C   UNL     1     257.798 263.716 245.041  1.00  0.00     0.093 C 
ENDBRANCH   6   7
ENDBRANCH   1   5
TORSDOF 4
ENDMDL
MODEL 8
REMARK VINA RESULT:    -3.937      3.396      5.094
REMARK INTER + INTRA:          -5.042
REMARK INTER:                  -4.618
REMARK INTRA:                  -0.424
REMARK UNBOUND:                -0.183
REMARK SMILES CCCCC=CC(C)=O
REMARK SMILES IDX 4 1 3 2 2 3 1 4 5 5 6 6 7 7 9 8 8 9
REMARK H PARENT
REMARK Flexibility Score: inf
ROOT
ATOM      1  C   UNL     1     255.143 260.163 248.896  1.00  0.00     0.027 C 
ENDROOT
BRANCH   1   2
ATOM      2  C   UNL     1     256.456 260.959 248.976  1.00  0.00     0.004 C 
BRANCH   2   3
ATOM      3  C   UNL     1     257.228 260.933 247.649  1.00  0.00    -0.003 C 
ATOM      4  C   UNL     1     258.266 262.051 247.594  1.00  0.00     0.004 C 
ENDBRANCH   2   3
ENDBRANCH   1   2
BRANCH   1   5
ATOM      5  C   UNL     1     254.033 260.950 248.250  1.00  0.00    -0.023 C 
ATOM      6  C   UNL     1     253.550 260.761 247.010  1.00  0.00     0.042 C 
BRANCH   6   7
ATOM      7  C   UNL     1     253.970 259.714 246.051  1.00  0.00     0.152 C 
ATOM      8  O   UNL     1     253.578 258.521 246.159  1.00  0.00    -0.295 OA
ATOM      9  C   UNL     1     254.821 260.093 244.883  1.00  0.00     0.093 C 
ENDBRANCH   6   7
ENDBRANCH   1   5
TORSDOF 4
ENDMDL
MODEL 9
REMARK VINA RESULT:    -3.909      3.003      5.155
REMARK INTER + INTRA:          -5.007
REMARK INTER:                  -4.588
REMARK INTRA:                  -0.419
REMARK UNBOUND:                -0.183
REMARK SMILES CCCCC=CC(C)=O
REMARK SMILES IDX 4 1 3 2 2 3 1 4 5 5 6 6 7 7 9 8 8 9
REMARK H PARENT
REMARK Flexibility Score: inf
ROOT
ATOM      1  C   UNL     1     257.092 260.506 247.938  1.00  0.00     0.027 C 
ENDROOT
BRANCH   1   2
ATOM      2  C   UNL     1     257.655 261.640 247.065  1.00  0.00     0.004 C 
BRANCH   2   3
ATOM      3  C   UNL     1     256.964 261.711 245.696  1.00  0.00    -0.003 C 
ATOM      4  C   UNL     1     257.931 261.352 244.572  1.00  0.00     0.004 C 
ENDBRANCH   2   3
ENDBRANCH   1   2
BRANCH   1   5
ATOM      5  C   UNL     1     255.724 260.825 248.483  1.00  0.00    -0.023 C 
ATOM      6  C   UNL     1     254.573 260.235 248.121  1.00  0.00     0.042 C 
BRANCH   6   7
ATOM      7  C   UNL     1     254.419 259.120 247.159  1.00  0.00     0.152 C 
ATOM      8  O   UNL     1     254.490 257.916 247.523  1.00  0.00    -0.295 OA
ATOM      9  C   UNL     1     254.101 259.427 245.731  1.00  0.00     0.093 C 
ENDBRANCH   6   7
ENDBRANCH   1   5
TORSDOF 4
ENDMDL
