MODEL 1
REMARK VINA RESULT:    -3.287      0.000      0.000
REMARK INTER + INTRA:          -8.913
REMARK INTER:                  -6.170
REMARK INTRA:                  -2.743
REMARK UNBOUND:                -2.743
REMARK SMILES CCCCCCCCC=CCCCCCCCC(=O)[O-]
REMARK SMILES IDX 10 1 9 2 11 3 12 4 13 5 14 6 15 7 16 8 17 9 18 10 19 11
REMARK SMILES IDX 20 12 8 13 7 14 6 15 5 16 4 17 3 18 2 19 1 20
REMARK H PARENT
REMARK Flexibility Score: inf
ROOT
ATOM      1  C   UNL     1      57.454  26.567  52.945  1.00  0.00    -0.031 C 
ATOM      2  C   UNL     1      57.305  25.600  52.019  1.00  0.00    -0.031 C 
ENDROOT
BRANCH   1   3
ATOM      3  C   UNL     1      56.912  27.973  52.838  1.00  0.00     0.027 C 
BRANCH   3   4
ATOM      4  C   UNL     1      57.937  28.934  52.209  1.00  0.00     0.004 C 
BRANCH   4   5
ATOM      5  C   UNL     1      57.775  29.135  50.691  1.00  0.00     0.000 C 
BRANCH   5   6
ATOM      6  C   UNL     1      59.118  29.117  49.942  1.00  0.00     0.000 C 
BRANCH   6   7
ATOM      7  C   UNL     1      59.593  27.691  49.617  1.00  0.00     0.000 C 
BRANCH   7   8
ATOM      8  C   UNL     1      60.985  27.384  50.190  1.00  0.00     0.006 C 
BRANCH   8   9
ATOM      9  C   UNL     1      60.878  26.565  51.480  1.00  0.00     0.053 C 
BRANCH   9  10
ATOM     10  C   UNL     1      61.234  27.404  52.666  1.00  0.00     0.041 C 
ATOM     11  O   UNL     1      61.904  28.459  52.518  1.00  0.00    -0.550 OA
ATOM     12  O   UNL     1      60.863  26.997  53.942  1.00  0.00    -0.550 OA
ENDBRANCH   9  10
ENDBRANCH   8   9
ENDBRANCH   7   8
ENDBRANCH   6   7
ENDBRANCH   5   6
ENDBRANCH   4   5
ENDBRANCH   3   4
ENDBRANCH   1   3
BRANCH   2  13
ATOM     13  C   UNL     1      56.529  25.732  50.729  1.00  0.00     0.027 C 
BRANCH  13  14
ATOM     14  C   UNL     1      55.028  25.443  50.888  1.00  0.00     0.004 C 
BRANCH  14  15
ATOM     15  C   UNL     1      54.209  25.908  49.672  1.00  0.00     0.000 C 
BRANCH  15  16
ATOM     16  C   UNL     1      53.300  27.103  49.997  1.00  0.00     0.000 C 
BRANCH  16  17
ATOM     17  C   UNL     1      54.098  28.389  50.279  1.00  0.00    -0.000 C 
BRANCH  17  18
ATOM     18  C   UNL     1      53.747  29.017  51.636  1.00  0.00    -0.000 C 
BRANCH  18  19
ATOM     19  C   UNL     1      53.597  30.543  51.559  1.00  0.00    -0.003 C 
ATOM     20  C   UNL     1      54.959  31.231  51.577  1.00  0.00     0.004 C 
ENDBRANCH  18  19
ENDBRANCH  17  18
ENDBRANCH  16  17
ENDBRANCH  15  16
ENDBRANCH  14  15
ENDBRANCH  13  14
ENDBRANCH   2  13
TORSDOF 15
ENDMDL
MODEL 2
REMARK VINA RESULT:    -3.254      1.728      3.655
REMARK INTER + INTRA:          -8.851
REMARK INTER:                  -6.018
REMARK INTRA:                  -2.832
REMARK UNBOUND:                -2.743
REMARK SMILES CCCCCCCCC=CCCCCCCCC(=O)[O-]
REMARK SMILES IDX 10 1 9 2 11 3 12 4 13 5 14 6 15 7 16 8 17 9 18 10 19 11
REMARK SMILES IDX 20 12 8 13 7 14 6 15 5 16 4 17 3 18 2 19 1 20
REMARK H PARENT
REMARK Flexibility Score: inf
ROOT
ATOM      1  C   UNL     1      54.418  30.734  51.937  1.00  0.00    -0.031 C 
ATOM      2  C   UNL     1      53.446  29.845  51.658  1.00  0.00    -0.031 C 
ENDROOT
BRANCH   1   3
ATOM      3  C   UNL     1      55.429  31.265  50.948  1.00  0.00     0.027 C 
BRANCH   3   4
ATOM      4  C   UNL     1      56.612  30.297  50.767  1.00  0.00     0.004 C 
BRANCH   4   5
ATOM      5  C   UNL     1      57.128  29.668  52.074  1.00  0.00     0.000 C 
BRANCH   5   6
ATOM      6  C   UNL     1      57.997  28.422  51.833  1.00  0.00     0.000 C 
BRANCH   6   7
ATOM      7  C   UNL     1      58.400  28.262  50.358  1.00  0.00     0.000 C 
BRANCH   7   8
ATOM      8  C   UNL     1      59.380  27.100  50.134  1.00  0.00     0.006 C 
BRANCH   8   9
ATOM      9  C   UNL     1      58.707  25.753  50.415  1.00  0.00     0.053 C 
BRANCH   9  10
ATOM     10  C   UNL     1      59.443  25.010  51.485  1.00  0.00     0.041 C 
ATOM     11  O   UNL     1      59.756  25.591  52.557  1.00  0.00    -0.550 OA
ATOM     12  O   UNL     1      59.822  23.689  51.280  1.00  0.00    -0.550 OA
ENDBRANCH   9  10
ENDBRANCH   8   9
ENDBRANCH   7   8
ENDBRANCH   6   7
ENDBRANCH   5   6
ENDBRANCH   4   5
ENDBRANCH   3   4
ENDBRANCH   1   3
BRANCH   2  13
ATOM     13  C   UNL     1      53.161  29.253  50.297  1.00  0.00     0.027 C 
BRANCH  13  14
ATOM     14  C   UNL     1      53.307  27.724  50.255  1.00  0.00     0.004 C 
BRANCH  14  15
ATOM     15  C   UNL     1      54.778  27.276  50.238  1.00  0.00     0.000 C 
BRANCH  15  16
ATOM     16  C   UNL     1      54.932  25.756  50.403  1.00  0.00     0.000 C 
BRANCH  16  17
ATOM     17  C   UNL     1      54.693  25.294  51.853  1.00  0.00    -0.000 C 
BRANCH  17  18
ATOM     18  C   UNL     1      55.958  25.391  52.719  1.00  0.00    -0.000 C 
BRANCH  18  19
ATOM     19  C   UNL     1      55.708  26.121  54.047  1.00  0.00    -0.003 C 
ATOM     20  C   UNL     1      54.717  27.267  53.867  1.00  0.00     0.004 C 
ENDBRANCH  18  19
ENDBRANCH  17  18
ENDBRANCH  16  17
ENDBRANCH  15  16
ENDBRANCH  14  15
ENDBRANCH  13  14
ENDBRANCH   2  13
TORSDOF 15
ENDMDL
MODEL 3
REMARK VINA RESULT:    -3.192      1.792      5.375
REMARK INTER + INTRA:          -8.734
REMARK INTER:                  -6.186
REMARK INTRA:                  -2.548
REMARK UNBOUND:                -2.743
REMARK SMILES CCCCCCCCC=CCCCCCCCC(=O)[O-]
REMARK SMILES IDX 10 1 9 2 11 3 12 4 13 5 14 6 15 7 16 8 17 9 18 10 19 11
REMARK SMILES IDX 20 12 8 13 7 14 6 15 5 16 4 17 3 18 2 19 1 20
REMARK H PARENT
REMARK Flexibility Score: inf
ROOT
ATOM      1  C   UNL     1      53.737  28.631  50.354  1.00  0.00    -0.031 C 
ATOM      2  C   UNL     1      54.559  29.626  50.740  1.00  0.00    -0.031 C 
ENDROOT
BRANCH   1   3
ATOM      3  C   UNL     1      53.793  27.206  50.852  1.00  0.00     0.027 C 
BRANCH   3   4
ATOM      4  C   UNL     1      54.735  26.339  49.998  1.00  0.00     0.004 C 
BRANCH   4   5
ATOM      5  C   UNL     1      55.857  25.644  50.791  1.00  0.00     0.000 C 
BRANCH   5   6
ATOM      6  C   UNL     1      55.535  25.518  52.290  1.00  0.00     0.000 C 
BRANCH   6   7
ATOM      7  C   UNL     1      56.556  26.251  53.175  1.00  0.00     0.000 C 
BRANCH   7   8
ATOM      8  C   UNL     1      58.010  25.957  52.772  1.00  0.00     0.006 C 
BRANCH   8   9
ATOM      9  C   UNL     1      58.381  24.503  53.080  1.00  0.00     0.053 C 
BRANCH   9  10
ATOM     10  C   UNL     1      59.337  23.977  52.057  1.00  0.00     0.041 C 
ATOM     11  O   UNL     1      60.135  23.050  52.354  1.00  0.00    -0.550 OA
ATOM     12  O   UNL     1      59.377  24.540  50.787  1.00  0.00    -0.550 OA
ENDBRANCH   9  10
ENDBRANCH   8   9
ENDBRANCH   7   8
ENDBRANCH   6   7
ENDBRANCH   5   6
ENDBRANCH   4   5
ENDBRANCH   3   4
ENDBRANCH   1   3
BRANCH   2  13
ATOM     13  C   UNL     1      55.654  29.509  51.775  1.00  0.00     0.027 C 
BRANCH  13  14
ATOM     14  C   UNL     1      57.050  29.838  51.224  1.00  0.00     0.004 C 
BRANCH  14  15
ATOM     15  C   UNL     1      57.673  28.656  50.461  1.00  0.00     0.000 C 
BRANCH  15  16
ATOM     16  C   UNL     1      59.025  29.014  49.826  1.00  0.00     0.000 C 
BRANCH  16  17
ATOM     17  C   UNL     1      59.936  27.785  49.650  1.00  0.00    -0.000 C 
BRANCH  17  18
ATOM     18  C   UNL     1      61.233  27.890  50.466  1.00  0.00    -0.000 C 
BRANCH  18  19
ATOM     19  C   UNL     1      61.000  27.699  51.972  1.00  0.00    -0.003 C 
ATOM     20  C   UNL     1      61.895  26.597  52.531  1.00  0.00     0.004 C 
ENDBRANCH  18  19
ENDBRANCH  17  18
ENDBRANCH  16  17
ENDBRANCH  15  16
ENDBRANCH  14  15
ENDBRANCH  13  14
ENDBRANCH   2  13
TORSDOF 15
ENDMDL
MODEL 4
REMARK VINA RESULT:    -3.172      1.662      5.513
REMARK INTER + INTRA:          -8.696
REMARK INTER:                  -5.855
REMARK INTRA:                  -2.841
REMARK UNBOUND:                -2.743
REMARK SMILES CCCCCCCCC=CCCCCCCCC(=O)[O-]
REMARK SMILES IDX 10 1 9 2 11 3 12 4 13 5 14 6 15 7 16 8 17 9 18 10 19 11
REMARK SMILES IDX 20 12 8 13 7 14 6 15 5 16 4 17 3 18 2 19 1 20
REMARK H PARENT
REMARK Flexibility Score: inf
ROOT
ATOM      1  C   UNL     1      54.649  29.158  51.619  1.00  0.00    -0.031 C 
ATOM      2  C   UNL     1      55.780  29.871  51.784  1.00  0.00    -0.031 C 
ENDROOT
BRANCH   1   3
ATOM      3  C   UNL     1      54.244  28.438  50.355  1.00  0.00     0.027 C 
BRANCH   3   4
ATOM      4  C   UNL     1      53.930  26.954  50.620  1.00  0.00     0.004 C 
BRANCH   4   5
ATOM      5  C   UNL     1      54.904  25.967  49.952  1.00  0.00     0.000 C 
BRANCH   5   6
ATOM      6  C   UNL     1      56.278  25.927  50.643  1.00  0.00     0.000 C 
BRANCH   6   7
ATOM      7  C   UNL     1      56.179  25.543  52.128  1.00  0.00     0.000 C 
BRANCH   7   8
ATOM      8  C   UNL     1      57.173  26.316  53.009  1.00  0.00     0.006 C 
BRANCH   8   9
ATOM      9  C   UNL     1      56.451  27.030  54.155  1.00  0.00     0.053 C 
BRANCH   9  10
ATOM     10  C   UNL     1      57.408  27.877  54.933  1.00  0.00     0.041 C 
ATOM     11  O   UNL     1      57.757  29.004  54.493  1.00  0.00    -0.550 OA
ATOM     12  O   UNL     1      57.949  27.403  56.122  1.00  0.00    -0.550 OA
ENDBRANCH   9  10
ENDBRANCH   8   9
ENDBRANCH   7   8
ENDBRANCH   6   7
ENDBRANCH   5   6
ENDBRANCH   4   5
ENDBRANCH   3   4
ENDBRANCH   1   3
BRANCH   2  13
ATOM     13  C   UNL     1      56.869  30.040  50.750  1.00  0.00     0.027 C 
BRANCH  13  14
ATOM     14  C   UNL     1      58.012  29.024  50.898  1.00  0.00     0.004 C 
BRANCH  14  15
ATOM     15  C   UNL     1      58.873  28.920  49.627  1.00  0.00     0.000 C 
BRANCH  15  16
ATOM     16  C   UNL     1      59.947  27.827  49.731  1.00  0.00     0.000 C 
BRANCH  16  17
ATOM     17  C   UNL     1      60.255  27.442  51.190  1.00  0.00    -0.000 C 
BRANCH  17  18
ATOM     18  C   UNL     1      61.237  26.266  51.297  1.00  0.00    -0.000 C 
BRANCH  18  19
ATOM     19  C   UNL     1      60.633  25.057  52.026  1.00  0.00    -0.003 C 
ATOM     20  C   UNL     1      59.645  24.314  51.132  1.00  0.00     0.004 C 
ENDBRANCH  18  19
ENDBRANCH  17  18
ENDBRANCH  16  17
ENDBRANCH  15  16
ENDBRANCH  14  15
ENDBRANCH  13  14
ENDBRANCH   2  13
TORSDOF 15
ENDMDL
MODEL 5
REMARK VINA RESULT:    -3.152      2.953      4.763
REMARK INTER + INTRA:          -8.659
REMARK INTER:                  -5.571
REMARK INTRA:                  -3.089
REMARK UNBOUND:                -2.743
REMARK SMILES CCCCCCCCC=CCCCCCCCC(=O)[O-]
REMARK SMILES IDX 10 1 9 2 11 3 12 4 13 5 14 6 15 7 16 8 17 9 18 10 19 11
REMARK SMILES IDX 20 12 8 13 7 14 6 15 5 16 4 17 3 18 2 19 1 20
REMARK H PARENT
REMARK Flexibility Score: inf
ROOT
ATOM      1  C   UNL     1      59.939  27.680  49.807  1.00  0.00    -0.031 C 
ATOM      2  C   UNL     1      59.786  26.484  50.408  1.00  0.00    -0.031 C 
ENDROOT
BRANCH   1   3
ATOM      3  C   UNL     1      59.553  29.014  50.401  1.00  0.00     0.027 C 
BRANCH   3   4
ATOM      4  C   UNL     1      58.129  29.430  49.990  1.00  0.00     0.004 C 
BRANCH   4   5
ATOM      5  C   UNL     1      57.125  29.506  51.155  1.00  0.00     0.000 C 
BRANCH   5   6
ATOM      6  C   UNL     1      57.813  29.638  52.525  1.00  0.00     0.000 C 
BRANCH   6   7
ATOM      7  C   UNL     1      56.950  29.091  53.673  1.00  0.00     0.000 C 
BRANCH   7   8
ATOM      8  C   UNL     1      55.564  29.751  53.740  1.00  0.00     0.006 C 
BRANCH   8   9
ATOM      9  C   UNL     1      55.676  31.220  54.160  1.00  0.00     0.053 C 
BRANCH   9  10
ATOM     10  C   UNL     1      54.859  32.088  53.257  1.00  0.00     0.041 C 
ATOM     11  O   UNL     1      53.627  31.875  53.117  1.00  0.00    -0.550 OA
ATOM     12  O   UNL     1      55.468  33.107  52.534  1.00  0.00    -0.550 OA
ENDBRANCH   9  10
ENDBRANCH   8   9
ENDBRANCH   7   8
ENDBRANCH   6   7
ENDBRANCH   5   6
ENDBRANCH   4   5
ENDBRANCH   3   4
ENDBRANCH   1   3
BRANCH   2  13
ATOM     13  C   UNL     1      59.244  26.265  51.802  1.00  0.00     0.027 C 
BRANCH  13  14
ATOM     14  C   UNL     1      57.744  25.933  51.827  1.00  0.00     0.004 C 
BRANCH  14  15
ATOM     15  C   UNL     1      57.151  25.789  50.414  1.00  0.00     0.000 C 
BRANCH  15  16
ATOM     16  C   UNL     1      55.644  26.088  50.376  1.00  0.00     0.000 C 
BRANCH  16  17
ATOM     17  C   UNL     1      55.069  26.390  51.772  1.00  0.00    -0.000 C 
BRANCH  17  18
ATOM     18  C   UNL     1      53.847  27.319  51.719  1.00  0.00    -0.000 C 
BRANCH  18  19
ATOM     19  C   UNL     1      53.679  27.996  50.351  1.00  0.00    -0.003 C 
ATOM     20  C   UNL     1      53.502  29.504  50.503  1.00  0.00     0.004 C 
ENDBRANCH  18  19
ENDBRANCH  17  18
ENDBRANCH  16  17
ENDBRANCH  15  16
ENDBRANCH  14  15
ENDBRANCH  13  14
ENDBRANCH   2  13
TORSDOF 15
ENDMDL
MODEL 6
REMARK VINA RESULT:    -3.108      1.901      5.520
REMARK INTER + INTRA:          -8.577
REMARK INTER:                  -5.996
REMARK INTRA:                  -2.580
REMARK UNBOUND:                -2.743
REMARK SMILES CCCCCCCCC=CCCCCCCCC(=O)[O-]
REMARK SMILES IDX 10 1 9 2 11 3 12 4 13 5 14 6 15 7 16 8 17 9 18 10 19 11
REMARK SMILES IDX 20 12 8 13 7 14 6 15 5 16 4 17 3 18 2 19 1 20
REMARK H PARENT
REMARK Flexibility Score: inf
ROOT
ATOM      1  C   UNL     1      52.974  29.017  50.377  1.00  0.00    -0.031 C 
ATOM      2  C   UNL     1      53.244  30.039  51.212  1.00  0.00    -0.031 C 
ENDROOT
BRANCH   1   3
ATOM      3  C   UNL     1      53.939  27.918  49.997  1.00  0.00     0.027 C 
BRANCH   3   4
ATOM      4  C   UNL     1      53.286  26.528  50.090  1.00  0.00     0.004 C 
BRANCH   4   5
ATOM      5  C   UNL     1      54.281  25.367  50.270  1.00  0.00     0.000 C 
BRANCH   5   6
ATOM      6  C   UNL     1      55.740  25.844  50.377  1.00  0.00     0.000 C 
BRANCH   6   7
ATOM      7  C   UNL     1      56.345  25.580  51.765  1.00  0.00     0.000 C 
BRANCH   7   8
ATOM      8  C   UNL     1      55.846  26.570  52.829  1.00  0.00     0.006 C 
BRANCH   8   9
ATOM      9  C   UNL     1      57.020  27.214  53.573  1.00  0.00     0.053 C 
BRANCH   9  10
ATOM     10  C   UNL     1      56.532  28.276  54.507  1.00  0.00     0.041 C 
ATOM     11  O   UNL     1      55.352  28.240  54.945  1.00  0.00    -0.550 OA
ATOM     12  O   UNL     1      57.366  29.330  54.858  1.00  0.00    -0.550 OA
ENDBRANCH   9  10
ENDBRANCH   8   9
ENDBRANCH   7   8
ENDBRANCH   6   7
ENDBRANCH   5   6
ENDBRANCH   4   5
ENDBRANCH   3   4
ENDBRANCH   1   3
BRANCH   2  13
ATOM     13  C   UNL     1      54.544  30.246  51.954  1.00  0.00     0.027 C 
BRANCH  13  14
ATOM     14  C   UNL     1      55.670  30.803  51.069  1.00  0.00     0.004 C 
BRANCH  14  15
ATOM     15  C   UNL     1      57.034  30.165  51.384  1.00  0.00     0.000 C 
BRANCH  15  16
ATOM     16  C   UNL     1      57.403  29.049  50.394  1.00  0.00     0.000 C 
BRANCH  16  17
ATOM     17  C   UNL     1      58.869  29.136  49.930  1.00  0.00    -0.000 C 
BRANCH  17  18
ATOM     18  C   UNL     1      59.767  28.093  50.611  1.00  0.00    -0.000 C 
BRANCH  18  19
ATOM     19  C   UNL     1      59.603  26.690  50.008  1.00  0.00    -0.003 C 
ATOM     20  C   UNL     1      59.813  25.610  51.065  1.00  0.00     0.004 C 
ENDBRANCH  18  19
ENDBRANCH  17  18
ENDBRANCH  16  17
ENDBRANCH  15  16
ENDBRANCH  14  15
ENDBRANCH  13  14
ENDBRANCH   2  13
TORSDOF 15
ENDMDL
MODEL 7
REMARK VINA RESULT:    -3.108      1.612      2.863
REMARK INTER + INTRA:          -8.576
REMARK INTER:                  -5.746
REMARK INTRA:                  -2.830
REMARK UNBOUND:                -2.743
REMARK SMILES CCCCCCCCC=CCCCCCCCC(=O)[O-]
REMARK SMILES IDX 10 1 9 2 11 3 12 4 13 5 14 6 15 7 16 8 17 9 18 10 19 11
REMARK SMILES IDX 20 12 8 13 7 14 6 15 5 16 4 17 3 18 2 19 1 20
REMARK H PARENT
REMARK Flexibility Score: inf
ROOT
ATOM      1  C   UNL     1      56.152  25.301  52.378  1.00  0.00    -0.031 C 
ATOM      2  C   UNL     1      55.199  25.521  51.452  1.00  0.00    -0.031 C 
ENDROOT
BRANCH   1   3
ATOM      3  C   UNL     1      57.500  25.979  52.424  1.00  0.00     0.027 C 
BRANCH   3   4
ATOM      4  C   UNL     1      58.654  24.961  52.365  1.00  0.00     0.004 C 
BRANCH   4   5
ATOM      5  C   UNL     1      59.423  24.947  51.031  1.00  0.00     0.000 C 
BRANCH   5   6
ATOM      6  C   UNL     1      58.891  25.984  50.026  1.00  0.00     0.000 C 
BRANCH   6   7
ATOM      7  C   UNL     1      59.856  27.166  49.834  1.00  0.00     0.000 C 
BRANCH   7   8
ATOM      8  C   UNL     1      59.145  28.527  49.891  1.00  0.00     0.006 C 
BRANCH   8   9
ATOM      9  C   UNL     1      59.400  29.222  51.232  1.00  0.00     0.053 C 
BRANCH   9  10
ATOM     10  C   UNL     1      60.860  29.494  51.414  1.00  0.00     0.041 C 
ATOM     11  O   UNL     1      61.473  30.234  50.601  1.00  0.00    -0.550 OA
ATOM     12  O   UNL     1      61.555  28.893  52.457  1.00  0.00    -0.550 OA
ENDBRANCH   9  10
ENDBRANCH   8   9
ENDBRANCH   7   8
ENDBRANCH   6   7
ENDBRANCH   5   6
ENDBRANCH   4   5
ENDBRANCH   3   4
ENDBRANCH   1   3
BRANCH   2  13
ATOM     13  C   UNL     1      55.287  26.519  50.321  1.00  0.00     0.027 C 
BRANCH  13  14
ATOM     14  C   UNL     1      54.004  27.342  50.133  1.00  0.00     0.004 C 
BRANCH  14  15
ATOM     15  C   UNL     1      54.195  28.821  50.512  1.00  0.00     0.000 C 
BRANCH  15  16
ATOM     16  C   UNL     1      55.640  29.140  50.924  1.00  0.00     0.000 C 
BRANCH  16  17
ATOM     17  C   UNL     1      55.712  30.000  52.199  1.00  0.00    -0.000 C 
BRANCH  17  18
ATOM     18  C   UNL     1      56.141  29.193  53.434  1.00  0.00    -0.000 C 
BRANCH  18  19
ATOM     19  C   UNL     1      54.979  28.402  54.054  1.00  0.00    -0.003 C 
ATOM     20  C   UNL     1      53.805  29.319  54.384  1.00  0.00     0.004 C 
ENDBRANCH  18  19
ENDBRANCH  17  18
ENDBRANCH  16  17
ENDBRANCH  15  16
ENDBRANCH  14  15
ENDBRANCH  13  14
ENDBRANCH   2  13
TORSDOF 15
ENDMDL
MODEL 8
REMARK VINA RESULT:    -3.105      0.961      1.587
REMARK INTER + INTRA:          -8.571
REMARK INTER:                  -5.648
REMARK INTRA:                  -2.923
REMARK UNBOUND:                -2.743
REMARK SMILES CCCCCCCCC=CCCCCCCCC(=O)[O-]
REMARK SMILES IDX 10 1 9 2 11 3 12 4 13 5 14 6 15 7 16 8 17 9 18 10 19 11
REMARK SMILES IDX 20 12 8 13 7 14 6 15 5 16 4 17 3 18 2 19 1 20
REMARK H PARENT
REMARK Flexibility Score: inf
ROOT
ATOM      1  C   UNL     1      57.419  27.529  53.979  1.00  0.00    -0.031 C 
ATOM      2  C   UNL     1      57.051  26.236  53.889  1.00  0.00    -0.031 C 
ENDROOT
BRANCH   1   3
ATOM      3  C   UNL     1      56.975  28.632  53.047  1.00  0.00     0.027 C 
BRANCH   3   4
ATOM      4  C   UNL     1      58.141  29.159  52.191  1.00  0.00     0.004 C 
BRANCH   4   5
ATOM      5  C   UNL     1      57.760  29.510  50.741  1.00  0.00     0.000 C 
BRANCH   5   6
ATOM      6  C   UNL     1      58.838  29.092  49.726  1.00  0.00     0.000 C 
BRANCH   6   7
ATOM      7  C   UNL     1      59.348  27.661  49.964  1.00  0.00     0.000 C 
BRANCH   7   8
ATOM      8  C   UNL     1      60.866  27.602  50.192  1.00  0.00     0.006 C 
BRANCH   8   9
ATOM      9  C   UNL     1      61.246  26.386  51.042  1.00  0.00     0.053 C 
BRANCH   9  10
ATOM     10  C   UNL     1      60.927  26.633  52.483  1.00  0.00     0.041 C 
ATOM     11  O   UNL     1      61.190  27.746  53.009  1.00  0.00    -0.550 OA
ATOM     12  O   UNL     1      60.379  25.618  53.258  1.00  0.00    -0.550 OA
ENDBRANCH   9  10
ENDBRANCH   8   9
ENDBRANCH   7   8
ENDBRANCH   6   7
ENDBRANCH   5   6
ENDBRANCH   4   5
ENDBRANCH   3   4
ENDBRANCH   1   3
BRANCH   2  13
ATOM     13  C   UNL     1      56.092  25.665  52.870  1.00  0.00     0.027 C 
BRANCH  13  14
ATOM     14  C   UNL     1      56.751  25.361  51.516  1.00  0.00     0.004 C 
BRANCH  14  15
ATOM     15  C   UNL     1      56.142  26.186  50.369  1.00  0.00     0.000 C 
BRANCH  15  16
ATOM     16  C   UNL     1      54.723  25.725  50.003  1.00  0.00     0.000 C 
BRANCH  16  17
ATOM     17  C   UNL     1      53.710  26.885  49.999  1.00  0.00    -0.000 C 
BRANCH  17  18
ATOM     18  C   UNL     1      54.355  28.233  50.355  1.00  0.00    -0.000 C 
BRANCH  18  19
ATOM     19  C   UNL     1      53.628  28.950  51.502  1.00  0.00    -0.003 C 
ATOM     20  C   UNL     1      53.326  27.988  52.647  1.00  0.00     0.004 C 
ENDBRANCH  18  19
ENDBRANCH  17  18
ENDBRANCH  16  17
ENDBRANCH  15  16
ENDBRANCH  14  15
ENDBRANCH  13  14
ENDBRANCH   2  13
TORSDOF 15
ENDMDL
MODEL 9
REMARK VINA RESULT:    -3.085      3.024      6.142
REMARK INTER + INTRA:          -8.533
REMARK INTER:                  -5.702
REMARK INTRA:                  -2.831
REMARK UNBOUND:                -2.743
REMARK SMILES CCCCCCCCC=CCCCCCCCC(=O)[O-]
REMARK SMILES IDX 10 1 9 2 11 3 12 4 13 5 14 6 15 7 16 8 17 9 18 10 19 11
REMARK SMILES IDX 20 12 8 13 7 14 6 15 5 16 4 17 3 18 2 19 1 20
REMARK H PARENT
REMARK Flexibility Score: inf
ROOT
ATOM      1  C   UNL     1      54.766  26.966  52.859  1.00  0.00    -0.031 C 
ATOM      2  C   UNL     1      55.687  27.599  53.611  1.00  0.00    -0.031 C 
ENDROOT
BRANCH   1   3
ATOM      3  C   UNL     1      55.044  26.228  51.571  1.00  0.00     0.027 C 
BRANCH   3   4
ATOM      4  C   UNL     1      54.858  27.136  50.341  1.00  0.00     0.004 C 
BRANCH   4   5
ATOM      5  C   UNL     1      53.395  27.514  50.044  1.00  0.00     0.000 C 
BRANCH   5   6
ATOM      6  C   UNL     1      53.096  28.997  50.319  1.00  0.00     0.000 C 
BRANCH   6   7
ATOM      7  C   UNL     1      54.367  29.808  50.621  1.00  0.00     0.000 C 
BRANCH   7   8
ATOM      8  C   UNL     1      54.268  30.598  51.935  1.00  0.00     0.006 C 
BRANCH   8   9
ATOM      9  C   UNL     1      55.342  31.688  52.001  1.00  0.00     0.053 C 
BRANCH   9  10
ATOM     10  C   UNL     1      54.962  32.741  52.994  1.00  0.00     0.041 C 
ATOM     11  O   UNL     1      53.814  32.738  53.512  1.00  0.00    -0.550 OA
ATOM     12  O   UNL     1      55.860  33.751  53.315  1.00  0.00    -0.550 OA
ENDBRANCH   9  10
ENDBRANCH   8   9
ENDBRANCH   7   8
ENDBRANCH   6   7
ENDBRANCH   5   6
ENDBRANCH   4   5
ENDBRANCH   3   4
ENDBRANCH   1   3
BRANCH   2  13
ATOM     13  C   UNL     1      57.171  27.645  53.327  1.00  0.00     0.027 C 
BRANCH  13  14
ATOM     14  C   UNL     1      57.616  28.930  52.612  1.00  0.00     0.004 C 
BRANCH  14  15
ATOM     15  C   UNL     1      57.879  28.705  51.113  1.00  0.00     0.000 C 
BRANCH  15  16
ATOM     16  C   UNL     1      59.357  28.407  50.814  1.00  0.00     0.000 C 
BRANCH  16  17
ATOM     17  C   UNL     1      59.536  27.185  49.894  1.00  0.00    -0.000 C 
BRANCH  17  18
ATOM     18  C   UNL     1      58.585  26.032  50.252  1.00  0.00    -0.000 C 
BRANCH  18  19
ATOM     19  C   UNL     1      59.282  24.918  51.046  1.00  0.00    -0.003 C 
ATOM     20  C   UNL     1      58.437  24.484  52.240  1.00  0.00     0.004 C 
ENDBRANCH  18  19
ENDBRANCH  17  18
ENDBRANCH  16  17
ENDBRANCH  15  16
ENDBRANCH  14  15
ENDBRANCH  13  14
ENDBRANCH   2  13
TORSDOF 15
ENDMDL
