MODEL 1
REMARK VINA RESULT:    -9.272      0.000      0.000
REMARK INTER + INTRA:         -13.318
REMARK INTER:                 -12.524
REMARK INTRA:                  -0.794
REMARK UNBOUND:                -0.794
REMARK SMILES O=c1c(-c2ccc(O)cc2)coc2c([C@@H]3O[C@@H](CO)[C@@H](O)[C@@H](O)[C@H]3O)c(O)ccc12
REMARK SMILES IDX 3 1 11 2 12 3 13 4 30 5 2 6 1 7 29 8 28 9 26 10 14 11 4 12
REMARK SMILES IDX 5 13 6 14 7 15 10 16 9 17 8 18 15 20 24 21 16 22 22 23 17 24
REMARK SMILES IDX 20 25 25 26 23 28 18 30 19 31 21 33 27 35
REMARK H PARENT 8 19 25 27 23 29 19 32 21 34 27 36
REMARK Flexibility Score: inf
ROOT
ATOM      1  C   UNL     1     -12.182   0.220 -26.479  1.00  0.00     0.065 A 
ATOM      2  C   UNL     1     -12.318  -0.577 -25.334  1.00  0.00     0.208 A 
ATOM      3  O   UNL     1     -13.254  -1.515 -25.263  1.00  0.00    -0.463 OA
ATOM      4  C   UNL     1     -14.112  -1.764 -26.249  1.00  0.00     0.147 A 
ATOM      5  C   UNL     1     -14.046  -1.006 -27.442  1.00  0.00     0.066 A 
ATOM      6  C   UNL     1     -13.061  -0.008 -27.553  1.00  0.00     0.200 A 
ATOM      7  O   UNL     1     -12.952   0.664 -28.616  1.00  0.00    -0.288 OA
ATOM      8  C   UNL     1     -14.958  -1.261 -28.477  1.00  0.00     0.020 A 
ATOM      9  C   UNL     1     -15.932  -2.247 -28.328  1.00  0.00     0.047 A 
ATOM     10  C   UNL     1     -16.010  -2.999 -27.151  1.00  0.00     0.125 A 
ATOM     11  C   UNL     1     -15.085  -2.781 -26.103  1.00  0.00     0.069 A 
ENDROOT
BRANCH   1  12
ATOM     12  C   UNL     1     -11.131   1.267 -26.531  1.00  0.00    -0.011 A 
ATOM     13  C   UNL     1      -9.772   0.927 -26.402  1.00  0.00     0.013 A 
ATOM     14  C   UNL     1      -8.786   1.915 -26.461  1.00  0.00     0.047 A 
ATOM     15  C   UNL     1      -9.141   3.253 -26.653  1.00  0.00     0.115 A 
ATOM     16  C   UNL     1     -11.480   2.614 -26.730  1.00  0.00     0.013 A 
ATOM     17  C   UNL     1     -10.491   3.601 -26.787  1.00  0.00     0.047 A 
BRANCH  15  18
ATOM     18  O   UNL     1      -8.148   4.229 -26.708  1.00  0.00    -0.508 OA
ATOM     19  H   UNL     1      -7.977   4.856 -25.931  1.00  0.00     0.293 HD
ENDBRANCH  15  18
ENDBRANCH   1  12
BRANCH  11  20
ATOM     20  C   UNL     1     -15.175  -3.581 -24.810  1.00  0.00     0.188 C 
ATOM     21  C   UNL     1     -16.277  -2.989 -23.901  1.00  0.00     0.179 C 
ATOM     22  O   UNL     1     -15.437  -4.941 -25.125  1.00  0.00    -0.362 OA
ATOM     23  C   UNL     1     -16.425  -3.818 -22.602  1.00  0.00     0.177 C 
ATOM     24  C   UNL     1     -15.449  -5.783 -23.980  1.00  0.00     0.176 C 
ATOM     25  C   UNL     1     -16.508  -5.322 -22.941  1.00  0.00     0.177 C 
BRANCH  21  26
ATOM     26  O   UNL     1     -15.981  -1.650 -23.594  1.00  0.00    -0.387 OA
ATOM     27  H   UNL     1     -14.994  -1.584 -23.525  1.00  0.00     0.211 HD
ENDBRANCH  21  26
BRANCH  23  28
ATOM     28  O   UNL     1     -15.426  -3.549 -21.643  1.00  0.00    -0.387 OA
ATOM     29  H   UNL     1     -14.533  -3.743 -22.024  1.00  0.00     0.211 HD
ENDBRANCH  23  28
BRANCH  24  30
ATOM     30  C   UNL     1     -14.022  -6.025 -23.430  1.00  0.00     0.191 C 
BRANCH  30  31
ATOM     31  O   UNL     1     -13.308  -6.903 -24.259  1.00  0.00    -0.394 OA
ATOM     32  H   UNL     1     -12.383  -6.547 -24.323  1.00  0.00     0.210 HD
ENDBRANCH  30  31
ENDBRANCH  24  30
BRANCH  25  33
ATOM     33  O   UNL     1     -16.519  -6.131 -21.790  1.00  0.00    -0.388 OA
ATOM     34  H   UNL     1     -16.795  -5.571 -21.019  1.00  0.00     0.211 HD
ENDBRANCH  25  33
ENDBRANCH  11  20
BRANCH  10  35
ATOM     35  O   UNL     1     -17.010  -3.965 -27.021  1.00  0.00    -0.507 OA
ATOM     36  H   UNL     1     -17.186  -4.434 -26.141  1.00  0.00     0.293 HD
ENDBRANCH  10  35
TORSDOF 9
ENDMDL
MODEL 2
REMARK VINA RESULT:    -8.657      1.789      2.133
REMARK INTER + INTRA:         -12.488
REMARK INTER:                 -11.735
REMARK INTRA:                  -0.753
REMARK UNBOUND:                -0.794
REMARK SMILES O=c1c(-c2ccc(O)cc2)coc2c([C@@H]3O[C@@H](CO)[C@@H](O)[C@@H](O)[C@H]3O)c(O)ccc12
REMARK SMILES IDX 3 1 11 2 12 3 13 4 30 5 2 6 1 7 29 8 28 9 26 10 14 11 4 12
REMARK SMILES IDX 5 13 6 14 7 15 10 16 9 17 8 18 15 20 24 21 16 22 22 23 17 24
REMARK SMILES IDX 20 25 25 26 23 28 18 30 19 31 21 33 27 35
REMARK H PARENT 8 19 25 27 23 29 19 32 21 34 27 36
REMARK Flexibility Score: inf
ROOT
ATOM      1  C   UNL     1     -13.111  -0.875 -26.005  1.00  0.00     0.065 A 
ATOM      2  C   UNL     1     -13.239  -2.033 -25.225  1.00  0.00     0.208 A 
ATOM      3  O   UNL     1     -14.392  -2.688 -25.163  1.00  0.00    -0.463 OA
ATOM      4  C   UNL     1     -15.483  -2.306 -25.821  1.00  0.00     0.147 A 
ATOM      5  C   UNL     1     -15.442  -1.148 -26.632  1.00  0.00     0.066 A 
ATOM      6  C   UNL     1     -14.235  -0.433 -26.726  1.00  0.00     0.200 A 
ATOM      7  O   UNL     1     -14.154   0.585 -27.467  1.00  0.00    -0.288 OA
ATOM      8  C   UNL     1     -16.597  -0.740 -27.317  1.00  0.00     0.020 A 
ATOM      9  C   UNL     1     -17.782  -1.462 -27.189  1.00  0.00     0.047 A 
ATOM     10  C   UNL     1     -17.836  -2.606 -26.385  1.00  0.00     0.125 A 
ATOM     11  C   UNL     1     -16.679  -3.055 -25.706  1.00  0.00     0.069 A 
ENDROOT
BRANCH   1  12
ATOM     12  C   UNL     1     -11.813  -0.156 -26.053  1.00  0.00    -0.011 A 
ATOM     13  C   UNL     1     -11.264   0.252 -27.282  1.00  0.00     0.013 A 
ATOM     14  C   UNL     1     -10.046   0.936 -27.321  1.00  0.00     0.047 A 
ATOM     15  C   UNL     1      -9.363   1.226 -26.136  1.00  0.00     0.115 A 
ATOM     16  C   UNL     1     -11.124   0.145 -24.865  1.00  0.00     0.013 A 
ATOM     17  C   UNL     1      -9.905   0.829 -24.907  1.00  0.00     0.047 A 
BRANCH  15  18
ATOM     18  O   UNL     1      -8.149   1.908 -26.189  1.00  0.00    -0.508 OA
ATOM     19  H   UNL     1      -7.352   1.615 -25.637  1.00  0.00     0.293 HD
ENDBRANCH  15  18
ENDBRANCH   1  12
BRANCH  11  20
ATOM     20  C   UNL     1     -16.733  -4.289 -24.813  1.00  0.00     0.188 C 
ATOM     21  C   UNL     1     -17.221  -3.893 -23.400  1.00  0.00     0.179 C 
ATOM     22  O   UNL     1     -17.591  -5.252 -25.407  1.00  0.00    -0.362 OA
ATOM     23  C   UNL     1     -17.336  -5.137 -22.487  1.00  0.00     0.177 C 
ATOM     24  C   UNL     1     -17.633  -6.476 -24.686  1.00  0.00     0.176 C 
ATOM     25  C   UNL     1     -18.101  -6.261 -23.220  1.00  0.00     0.177 C 
BRANCH  21  26
ATOM     26  O   UNL     1     -16.343  -2.952 -22.834  1.00  0.00    -0.387 OA
ATOM     27  H   UNL     1     -15.645  -3.465 -22.351  1.00  0.00     0.211 HD
ENDBRANCH  21  26
BRANCH  23  28
ATOM     28  O   UNL     1     -16.096  -5.586 -21.985  1.00  0.00    -0.387 OA
ATOM     29  H   UNL     1     -15.491  -4.816 -21.843  1.00  0.00     0.211 HD
ENDBRANCH  23  28
BRANCH  24  30
ATOM     30  C   UNL     1     -16.333  -7.295 -24.868  1.00  0.00     0.191 C 
BRANCH  30  31
ATOM     31  O   UNL     1     -16.544  -8.646 -24.553  1.00  0.00    -0.394 OA
ATOM     32  H   UNL     1     -16.613  -8.703 -23.565  1.00  0.00     0.210 HD
ENDBRANCH  30  31
ENDBRANCH  24  30
BRANCH  25  33
ATOM     33  O   UNL     1     -18.127  -7.459 -22.483  1.00  0.00    -0.388 OA
ATOM     34  H   UNL     1     -18.464  -7.257 -21.572  1.00  0.00     0.211 HD
ENDBRANCH  25  33
ENDBRANCH  11  20
BRANCH  10  35
ATOM     35  O   UNL     1     -19.042  -3.298 -26.259  1.00  0.00    -0.507 OA
ATOM     36  H   UNL     1     -19.250  -3.863 -25.445  1.00  0.00     0.293 HD
ENDBRANCH  10  35
TORSDOF 9
ENDMDL
MODEL 3
REMARK VINA RESULT:    -8.429      1.640      2.672
REMARK INTER + INTRA:         -12.181
REMARK INTER:                 -12.179
REMARK INTRA:                  -0.002
REMARK UNBOUND:                -0.794
REMARK SMILES O=c1c(-c2ccc(O)cc2)coc2c([C@@H]3O[C@@H](CO)[C@@H](O)[C@@H](O)[C@H]3O)c(O)ccc12
REMARK SMILES IDX 3 1 11 2 12 3 13 4 30 5 2 6 1 7 29 8 28 9 26 10 14 11 4 12
REMARK SMILES IDX 5 13 6 14 7 15 10 16 9 17 8 18 15 20 24 21 16 22 22 23 17 24
REMARK SMILES IDX 20 25 25 26 23 28 18 30 19 31 21 33 27 35
REMARK H PARENT 8 19 25 27 23 29 19 32 21 34 27 36
REMARK Flexibility Score: inf
ROOT
ATOM      1  C   UNL     1     -13.082  -0.736 -26.090  1.00  0.00     0.065 A 
ATOM      2  C   UNL     1     -13.211  -1.855 -25.254  1.00  0.00     0.208 A 
ATOM      3  O   UNL     1     -14.364  -2.506 -25.160  1.00  0.00    -0.463 OA
ATOM      4  C   UNL     1     -15.455  -2.156 -25.836  1.00  0.00     0.147 A 
ATOM      5  C   UNL     1     -15.414  -1.039 -26.703  1.00  0.00     0.066 A 
ATOM      6  C   UNL     1     -14.206  -0.330 -26.831  1.00  0.00     0.200 A 
ATOM      7  O   UNL     1     -14.124   0.651 -27.621  1.00  0.00    -0.288 OA
ATOM      8  C   UNL     1     -16.568  -0.664 -27.407  1.00  0.00     0.020 A 
ATOM      9  C   UNL     1     -17.753  -1.379 -27.244  1.00  0.00     0.047 A 
ATOM     10  C   UNL     1     -17.808  -2.482 -26.385  1.00  0.00     0.125 A 
ATOM     11  C   UNL     1     -16.652  -2.898 -25.685  1.00  0.00     0.069 A 
ENDROOT
BRANCH   1  12
ATOM     12  C   UNL     1     -11.784  -0.021 -26.172  1.00  0.00    -0.011 A 
ATOM     13  C   UNL     1     -11.275   0.401 -27.414  1.00  0.00     0.013 A 
ATOM     14  C   UNL     1     -10.057   1.082 -27.485  1.00  0.00     0.047 A 
ATOM     15  C   UNL     1      -9.333   1.354 -26.321  1.00  0.00     0.115 A 
ATOM     16  C   UNL     1     -11.054   0.261 -25.005  1.00  0.00     0.013 A 
ATOM     17  C   UNL     1      -9.834   0.942 -25.080  1.00  0.00     0.047 A 
BRANCH  15  18
ATOM     18  O   UNL     1      -8.119   2.032 -26.406  1.00  0.00    -0.508 OA
ATOM     19  H   UNL     1      -7.314   1.623 -26.864  1.00  0.00     0.293 HD
ENDBRANCH  15  18
ENDBRANCH   1  12
BRANCH  11  20
ATOM     20  C   UNL     1     -16.706  -4.086 -24.733  1.00  0.00     0.188 C 
ATOM     21  C   UNL     1     -15.891  -5.264 -25.316  1.00  0.00     0.179 C 
ATOM     22  O   UNL     1     -16.204  -3.686 -23.466  1.00  0.00    -0.362 OA
ATOM     23  C   UNL     1     -15.886  -6.467 -24.342  1.00  0.00     0.177 C 
ATOM     24  C   UNL     1     -16.300  -4.709 -22.484  1.00  0.00     0.176 C 
ATOM     25  C   UNL     1     -15.534  -5.991 -22.916  1.00  0.00     0.177 C 
BRANCH  21  26
ATOM     26  O   UNL     1     -16.421  -5.647 -26.561  1.00  0.00    -0.387 OA
ATOM     27  H   UNL     1     -17.287  -5.173 -26.661  1.00  0.00     0.211 HD
ENDBRANCH  21  26
BRANCH  23  28
ATOM     28  O   UNL     1     -17.079  -7.219 -24.367  1.00  0.00    -0.387 OA
ATOM     29  H   UNL     1     -17.827  -6.676 -24.013  1.00  0.00     0.211 HD
ENDBRANCH  23  28
BRANCH  24  30
ATOM     30  C   UNL     1     -17.759  -4.920 -22.013  1.00  0.00     0.191 C 
BRANCH  30  31
ATOM     31  O   UNL     1     -18.189  -3.847 -21.217  1.00  0.00    -0.394 OA
ATOM     32  H   UNL     1     -17.855  -3.019 -21.649  1.00  0.00     0.210 HD
ENDBRANCH  30  31
ENDBRANCH  24  30
BRANCH  25  33
ATOM     33  O   UNL     1     -15.636  -7.023 -21.966  1.00  0.00    -0.388 OA
ATOM     34  H   UNL     1     -15.111  -6.763 -21.166  1.00  0.00     0.211 HD
ENDBRANCH  25  33
ENDBRANCH  11  20
BRANCH  10  35
ATOM     35  O   UNL     1     -19.015  -3.166 -26.226  1.00  0.00    -0.507 OA
ATOM     36  H   UNL     1     -19.625  -3.359 -27.010  1.00  0.00     0.293 HD
ENDBRANCH  10  35
TORSDOF 9
ENDMDL
MODEL 4
REMARK VINA RESULT:    -8.085      2.330      4.549
REMARK INTER + INTRA:         -11.715
REMARK INTER:                 -11.136
REMARK INTRA:                  -0.580
REMARK UNBOUND:                -0.794
REMARK SMILES O=c1c(-c2ccc(O)cc2)coc2c([C@@H]3O[C@@H](CO)[C@@H](O)[C@@H](O)[C@H]3O)c(O)ccc12
REMARK SMILES IDX 3 1 11 2 12 3 13 4 30 5 2 6 1 7 29 8 28 9 26 10 14 11 4 12
REMARK SMILES IDX 5 13 6 14 7 15 10 16 9 17 8 18 15 20 24 21 16 22 22 23 17 24
REMARK SMILES IDX 20 25 25 26 23 28 18 30 19 31 21 33 27 35
REMARK H PARENT 8 19 25 27 23 29 19 32 21 34 27 36
REMARK Flexibility Score: inf
ROOT
ATOM      1  C   UNL     1     -14.263  -2.708 -25.365  1.00  0.00     0.065 A 
ATOM      2  C   UNL     1     -13.918  -4.025 -25.029  1.00  0.00     0.208 A 
ATOM      3  O   UNL     1     -14.811  -4.848 -24.492  1.00  0.00    -0.463 OA
ATOM      4  C   UNL     1     -16.068  -4.493 -24.239  1.00  0.00     0.147 A 
ATOM      5  C   UNL     1     -16.501  -3.181 -24.547  1.00  0.00     0.066 A 
ATOM      6  C   UNL     1     -15.582  -2.287 -25.124  1.00  0.00     0.200 A 
ATOM      7  O   UNL     1     -15.944  -1.120 -25.442  1.00  0.00    -0.288 OA
ATOM      8  C   UNL     1     -17.824  -2.805 -24.270  1.00  0.00     0.020 A 
ATOM      9  C   UNL     1     -18.704  -3.712 -23.682  1.00  0.00     0.047 A 
ATOM     10  C   UNL     1     -18.286  -5.010 -23.369  1.00  0.00     0.125 A 
ATOM     11  C   UNL     1     -16.966  -5.424 -23.663  1.00  0.00     0.069 A 
ENDROOT
BRANCH   1  12
ATOM     12  C   UNL     1     -13.244  -1.807 -25.959  1.00  0.00    -0.011 A 
ATOM     13  C   UNL     1     -12.302  -1.153 -25.144  1.00  0.00     0.013 A 
ATOM     14  C   UNL     1     -11.340  -0.312 -25.710  1.00  0.00     0.047 A 
ATOM     15  C   UNL     1     -11.302  -0.116 -27.093  1.00  0.00     0.115 A 
ATOM     16  C   UNL     1     -13.196  -1.610 -27.350  1.00  0.00     0.013 A 
ATOM     17  C   UNL     1     -12.232  -0.767 -27.913  1.00  0.00     0.047 A 
BRANCH  15  18
ATOM     18  O   UNL     1     -10.337   0.726 -27.643  1.00  0.00    -0.508 OA
ATOM     19  H   UNL     1      -9.847   1.410 -27.080  1.00  0.00     0.293 HD
ENDBRANCH  15  18
ENDBRANCH   1  12
BRANCH  11  20
ATOM     20  C   UNL     1     -16.495  -6.828 -23.307  1.00  0.00     0.188 C 
ATOM     21  C   UNL     1     -16.125  -7.600 -24.595  1.00  0.00     0.179 C 
ATOM     22  O   UNL     1     -15.388  -6.734 -22.422  1.00  0.00    -0.362 OA
ATOM     23  C   UNL     1     -15.592  -9.013 -24.257  1.00  0.00     0.177 C 
ATOM     24  C   UNL     1     -14.936  -8.001 -21.964  1.00  0.00     0.176 C 
ATOM     25  C   UNL     1     -14.525  -8.924 -23.144  1.00  0.00     0.177 C 
BRANCH  21  26
ATOM     26  O   UNL     1     -17.244  -7.690 -25.441  1.00  0.00    -0.387 OA
ATOM     27  H   UNL     1     -17.239  -6.876 -26.008  1.00  0.00     0.211 HD
ENDBRANCH  21  26
BRANCH  23  28
ATOM     28  O   UNL     1     -16.608  -9.939 -23.938  1.00  0.00    -0.387 OA
ATOM     29  H   UNL     1     -16.207 -10.767 -23.572  1.00  0.00     0.211 HD
ENDBRANCH  23  28
BRANCH  24  30
ATOM     30  C   UNL     1     -15.907  -8.619 -20.929  1.00  0.00     0.191 C 
BRANCH  30  31
ATOM     31  O   UNL     1     -15.202  -9.226 -19.879  1.00  0.00    -0.394 OA
ATOM     32  H   UNL     1     -15.870  -9.705 -19.324  1.00  0.00     0.210 HD
ENDBRANCH  30  31
ENDBRANCH  24  30
BRANCH  25  33
ATOM     33  O   UNL     1     -14.096 -10.192 -22.711  1.00  0.00    -0.388 OA
ATOM     34  H   UNL     1     -13.783 -10.111 -21.774  1.00  0.00     0.211 HD
ENDBRANCH  25  33
ENDBRANCH  11  20
BRANCH  10  35
ATOM     35  O   UNL     1     -19.183  -5.890 -22.761  1.00  0.00    -0.507 OA
ATOM     36  H   UNL     1     -19.660  -5.654 -21.899  1.00  0.00     0.293 HD
ENDBRANCH  10  35
TORSDOF 9
ENDMDL
MODEL 5
REMARK VINA RESULT:    -8.056      2.270      3.472
REMARK INTER + INTRA:         -11.676
REMARK INTER:                 -10.989
REMARK INTRA:                  -0.688
REMARK UNBOUND:                -0.794
REMARK SMILES O=c1c(-c2ccc(O)cc2)coc2c([C@@H]3O[C@@H](CO)[C@@H](O)[C@@H](O)[C@H]3O)c(O)ccc12
REMARK SMILES IDX 3 1 11 2 12 3 13 4 30 5 2 6 1 7 29 8 28 9 26 10 14 11 4 12
REMARK SMILES IDX 5 13 6 14 7 15 10 16 9 17 8 18 15 20 24 21 16 22 22 23 17 24
REMARK SMILES IDX 20 25 25 26 23 28 18 30 19 31 21 33 27 35
REMARK H PARENT 8 19 25 27 23 29 19 32 21 34 27 36
REMARK Flexibility Score: inf
ROOT
ATOM      1  C   UNL     1     -13.766  -2.378 -26.116  1.00  0.00     0.065 A 
ATOM      2  C   UNL     1     -13.350  -3.493 -25.374  1.00  0.00     0.208 A 
ATOM      3  O   UNL     1     -14.216  -4.430 -25.008  1.00  0.00    -0.463 OA
ATOM      4  C   UNL     1     -15.511  -4.383 -25.311  1.00  0.00     0.147 A 
ATOM      5  C   UNL     1     -16.017  -3.292 -26.058  1.00  0.00     0.066 A 
ATOM      6  C   UNL     1     -15.124  -2.285 -26.468  1.00  0.00     0.200 A 
ATOM      7  O   UNL     1     -15.535  -1.315 -27.163  1.00  0.00    -0.288 OA
ATOM      8  C   UNL     1     -17.384  -3.238 -26.367  1.00  0.00     0.020 A 
ATOM      9  C   UNL     1     -18.243  -4.244 -25.932  1.00  0.00     0.047 A 
ATOM     10  C   UNL     1     -17.756  -5.325 -25.188  1.00  0.00     0.125 A 
ATOM     11  C   UNL     1     -16.378  -5.418 -24.886  1.00  0.00     0.069 A 
ENDROOT
BRANCH   1  12
ATOM     12  C   UNL     1     -12.778  -1.341 -26.507  1.00  0.00    -0.011 A 
ATOM     13  C   UNL     1     -11.898  -0.794 -25.557  1.00  0.00     0.013 A 
ATOM     14  C   UNL     1     -10.964   0.176 -25.933  1.00  0.00     0.047 A 
ATOM     15  C   UNL     1     -10.894   0.609 -27.260  1.00  0.00     0.115 A 
ATOM     16  C   UNL     1     -12.698  -0.906 -27.842  1.00  0.00     0.013 A 
ATOM     17  C   UNL     1     -11.763   0.066 -28.214  1.00  0.00     0.047 A 
BRANCH  15  18
ATOM     18  O   UNL     1      -9.959   1.577 -27.621  1.00  0.00    -0.508 OA
ATOM     19  H   UNL     1     -10.120   2.561 -27.443  1.00  0.00     0.293 HD
ENDBRANCH  15  18
ENDBRANCH   1  12
BRANCH  11  20
ATOM     20  C   UNL     1     -15.841  -6.581 -24.061  1.00  0.00     0.188 C 
ATOM     21  C   UNL     1     -16.450  -6.542 -22.640  1.00  0.00     0.179 C 
ATOM     22  O   UNL     1     -16.148  -7.799 -24.723  1.00  0.00    -0.362 OA
ATOM     23  C   UNL     1     -15.962  -7.744 -21.797  1.00  0.00     0.177 C 
ATOM     24  C   UNL     1     -15.606  -8.938 -24.069  1.00  0.00     0.176 C 
ATOM     25  C   UNL     1     -16.113  -9.052 -22.604  1.00  0.00     0.177 C 
BRANCH  21  26
ATOM     26  O   UNL     1     -16.116  -5.333 -22.005  1.00  0.00    -0.387 OA
ATOM     27  H   UNL     1     -15.541  -4.828 -22.637  1.00  0.00     0.211 HD
ENDBRANCH  21  26
BRANCH  23  28
ATOM     28  O   UNL     1     -14.655  -7.586 -21.291  1.00  0.00    -0.387 OA
ATOM     29  H   UNL     1     -14.672  -7.604 -20.301  1.00  0.00     0.211 HD
ENDBRANCH  23  28
BRANCH  24  30
ATOM     30  C   UNL     1     -14.074  -9.039 -24.264  1.00  0.00     0.191 C 
BRANCH  30  31
ATOM     31  O   UNL     1     -13.603 -10.306 -23.886  1.00  0.00    -0.394 OA
ATOM     32  H   UNL     1     -12.662 -10.365 -24.195  1.00  0.00     0.210 HD
ENDBRANCH  30  31
ENDBRANCH  24  30
BRANCH  25  33
ATOM     33  O   UNL     1     -15.569 -10.162 -21.932  1.00  0.00    -0.388 OA
ATOM     34  H   UNL     1     -14.727  -9.877 -21.492  1.00  0.00     0.211 HD
ENDBRANCH  25  33
ENDBRANCH  11  20
BRANCH  10  35
ATOM     35  O   UNL     1     -18.644  -6.308 -24.747  1.00  0.00    -0.507 OA
ATOM     36  H   UNL     1     -19.646  -6.165 -24.761  1.00  0.00     0.293 HD
ENDBRANCH  10  35
TORSDOF 9
ENDMDL
MODEL 6
REMARK VINA RESULT:    -7.848      1.903      8.112
REMARK INTER + INTRA:         -11.395
REMARK INTER:                 -10.526
REMARK INTRA:                  -0.869
REMARK UNBOUND:                -0.794
REMARK SMILES O=c1c(-c2ccc(O)cc2)coc2c([C@@H]3O[C@@H](CO)[C@@H](O)[C@@H](O)[C@H]3O)c(O)ccc12
REMARK SMILES IDX 3 1 11 2 12 3 13 4 30 5 2 6 1 7 29 8 28 9 26 10 14 11 4 12
REMARK SMILES IDX 5 13 6 14 7 15 10 16 9 17 8 18 15 20 24 21 16 22 22 23 17 24
REMARK SMILES IDX 20 25 25 26 23 28 18 30 19 31 21 33 27 35
REMARK H PARENT 8 19 25 27 23 29 19 32 21 34 27 36
REMARK Flexibility Score: inf
ROOT
ATOM      1  C   UNL     1     -15.913  -2.525 -24.549  1.00  0.00     0.065 A 
ATOM      2  C   UNL     1     -14.919  -1.623 -24.144  1.00  0.00     0.208 A 
ATOM      3  O   UNL     1     -14.151  -1.009 -25.035  1.00  0.00    -0.463 OA
ATOM      4  C   UNL     1     -14.263  -1.200 -26.347  1.00  0.00     0.147 A 
ATOM      5  C   UNL     1     -15.241  -2.094 -26.844  1.00  0.00     0.066 A 
ATOM      6  C   UNL     1     -16.077  -2.755 -25.926  1.00  0.00     0.200 A 
ATOM      7  O   UNL     1     -16.982  -3.534 -26.336  1.00  0.00    -0.288 OA
ATOM      8  C   UNL     1     -15.352  -2.303 -28.227  1.00  0.00     0.020 A 
ATOM      9  C   UNL     1     -14.496  -1.644 -29.107  1.00  0.00     0.047 A 
ATOM     10  C   UNL     1     -13.522  -0.760 -28.628  1.00  0.00     0.125 A 
ATOM     11  C   UNL     1     -13.407  -0.512 -27.240  1.00  0.00     0.069 A 
ENDROOT
BRANCH   1  12
ATOM     12  C   UNL     1     -16.756  -3.202 -23.532  1.00  0.00    -0.011 A 
ATOM     13  C   UNL     1     -16.178  -4.057 -22.576  1.00  0.00     0.013 A 
ATOM     14  C   UNL     1     -16.975  -4.685 -21.614  1.00  0.00     0.047 A 
ATOM     15  C   UNL     1     -18.355  -4.466 -21.592  1.00  0.00     0.115 A 
ATOM     16  C   UNL     1     -18.144  -2.981 -23.499  1.00  0.00     0.013 A 
ATOM     17  C   UNL     1     -18.938  -3.612 -22.536  1.00  0.00     0.047 A 
BRANCH  15  18
ATOM     18  O   UNL     1     -19.138  -5.099 -20.629  1.00  0.00    -0.508 OA
ATOM     19  H   UNL     1     -18.865  -5.985 -20.222  1.00  0.00     0.293 HD
ENDBRANCH  15  18
ENDBRANCH   1  12
BRANCH  11  20
ATOM     20  C   UNL     1     -12.337   0.433 -26.707  1.00  0.00     0.188 C 
ATOM     21  C   UNL     1     -11.028  -0.350 -26.448  1.00  0.00     0.179 C 
ATOM     22  O   UNL     1     -12.138   1.481 -27.645  1.00  0.00    -0.362 OA
ATOM     23  C   UNL     1      -9.907   0.598 -25.957  1.00  0.00     0.177 C 
ATOM     24  C   UNL     1     -11.217   2.463 -27.189  1.00  0.00     0.176 C 
ATOM     25  C   UNL     1      -9.829   1.842 -26.868  1.00  0.00     0.177 C 
BRANCH  21  26
ATOM     26  O   UNL     1     -11.254  -1.368 -25.507  1.00  0.00    -0.387 OA
ATOM     27  H   UNL     1     -12.234  -1.408 -25.358  1.00  0.00     0.211 HD
ENDBRANCH  21  26
BRANCH  23  28
ATOM     28  O   UNL     1     -10.022   0.949 -24.595  1.00  0.00    -0.387 OA
ATOM     29  H   UNL     1     -10.969   1.125 -24.370  1.00  0.00     0.211 HD
ENDBRANCH  23  28
BRANCH  24  30
ATOM     30  C   UNL     1     -11.829   3.358 -26.084  1.00  0.00     0.191 C 
BRANCH  30  31
ATOM     31  O   UNL     1     -11.331   4.667 -26.167  1.00  0.00    -0.394 OA
ATOM     32  H   UNL     1     -10.362   4.619 -25.962  1.00  0.00     0.210 HD
ENDBRANCH  30  31
ENDBRANCH  24  30
BRANCH  25  33
ATOM     33  O   UNL     1      -8.910   2.796 -26.394  1.00  0.00    -0.388 OA
ATOM     34  H   UNL     1      -8.614   2.519 -25.488  1.00  0.00     0.211 HD
ENDBRANCH  25  33
ENDBRANCH  11  20
BRANCH  10  35
ATOM     35  O   UNL     1     -12.664  -0.131 -29.532  1.00  0.00    -0.507 OA
ATOM     36  H   UNL     1     -12.851   0.800 -29.883  1.00  0.00     0.293 HD
ENDBRANCH  10  35
TORSDOF 9
ENDMDL
MODEL 7
REMARK VINA RESULT:    -7.483      2.358      4.470
REMARK INTER + INTRA:         -10.902
REMARK INTER:                  -9.787
REMARK INTRA:                  -1.115
REMARK UNBOUND:                -0.794
REMARK SMILES O=c1c(-c2ccc(O)cc2)coc2c([C@@H]3O[C@@H](CO)[C@@H](O)[C@@H](O)[C@H]3O)c(O)ccc12
REMARK SMILES IDX 3 1 11 2 12 3 13 4 30 5 2 6 1 7 29 8 28 9 26 10 14 11 4 12
REMARK SMILES IDX 5 13 6 14 7 15 10 16 9 17 8 18 15 20 24 21 16 22 22 23 17 24
REMARK SMILES IDX 20 25 25 26 23 28 18 30 19 31 21 33 27 35
REMARK H PARENT 8 19 25 27 23 29 19 32 21 34 27 36
REMARK Flexibility Score: inf
ROOT
ATOM      1  C   UNL     1     -14.678  -2.531 -25.952  1.00  0.00     0.065 A 
ATOM      2  C   UNL     1     -14.313  -3.874 -25.777  1.00  0.00     0.208 A 
ATOM      3  O   UNL     1     -15.107  -4.717 -25.128  1.00  0.00    -0.463 OA
ATOM      4  C   UNL     1     -16.279  -4.360 -24.609  1.00  0.00     0.147 A 
ATOM      5  C   UNL     1     -16.725  -3.023 -24.739  1.00  0.00     0.066 A 
ATOM      6  C   UNL     1     -15.912  -2.106 -25.428  1.00  0.00     0.200 A 
ATOM      7  O   UNL     1     -16.294  -0.914 -25.591  1.00  0.00    -0.288 OA
ATOM      8  C   UNL     1     -17.956  -2.646 -24.182  1.00  0.00     0.020 A 
ATOM      9  C   UNL     1     -18.730  -3.577 -23.492  1.00  0.00     0.047 A 
ATOM     10  C   UNL     1     -18.297  -4.901 -23.352  1.00  0.00     0.125 A 
ATOM     11  C   UNL     1     -17.074  -5.314 -23.928  1.00  0.00     0.069 A 
ENDROOT
BRANCH   1  12
ATOM     12  C   UNL     1     -13.770  -1.607 -26.676  1.00  0.00    -0.011 A 
ATOM     13  C   UNL     1     -12.780  -0.886 -25.985  1.00  0.00     0.013 A 
ATOM     14  C   UNL     1     -11.921  -0.024 -26.673  1.00  0.00     0.047 A 
ATOM     15  C   UNL     1     -12.036   0.127 -28.057  1.00  0.00     0.115 A 
ATOM     16  C   UNL     1     -13.876  -1.455 -28.070  1.00  0.00     0.013 A 
ATOM     17  C   UNL     1     -13.016  -0.591 -28.755  1.00  0.00     0.047 A 
BRANCH  15  18
ATOM     18  O   UNL     1     -11.175   0.990 -28.731  1.00  0.00    -0.508 OA
ATOM     19  H   UNL     1     -11.390   1.337 -29.657  1.00  0.00     0.293 HD
ENDBRANCH  15  18
ENDBRANCH   1  12
BRANCH  11  20
ATOM     20  C   UNL     1     -16.584  -6.748 -23.765  1.00  0.00     0.188 C 
ATOM     21  C   UNL     1     -15.781  -6.882 -22.449  1.00  0.00     0.179 C 
ATOM     22  O   UNL     1     -17.703  -7.622 -23.781  1.00  0.00    -0.362 OA
ATOM     23  C   UNL     1     -15.318  -8.342 -22.232  1.00  0.00     0.177 C 
ATOM     24  C   UNL     1     -17.334  -8.994 -23.723  1.00  0.00     0.176 C 
ATOM     25  C   UNL     1     -16.501  -9.310 -22.450  1.00  0.00     0.177 C 
BRANCH  21  26
ATOM     26  O   UNL     1     -14.674  -6.016 -22.471  1.00  0.00    -0.387 OA
ATOM     27  H   UNL     1     -15.032  -5.095 -22.558  1.00  0.00     0.211 HD
ENDBRANCH  21  26
BRANCH  23  28
ATOM     28  O   UNL     1     -14.196  -8.700 -23.008  1.00  0.00    -0.387 OA
ATOM     29  H   UNL     1     -14.262  -8.290 -23.907  1.00  0.00     0.211 HD
ENDBRANCH  23  28
BRANCH  24  30
ATOM     30  C   UNL     1     -16.735  -9.485 -25.063  1.00  0.00     0.191 C 
BRANCH  30  31
ATOM     31  O   UNL     1     -16.630 -10.884 -25.082  1.00  0.00    -0.394 OA
ATOM     32  H   UNL     1     -17.035 -11.191 -25.934  1.00  0.00     0.210 HD
ENDBRANCH  30  31
ENDBRANCH  24  30
BRANCH  25  33
ATOM     33  O   UNL     1     -16.108 -10.659 -22.387  1.00  0.00    -0.388 OA
ATOM     34  H   UNL     1     -15.119 -10.692 -22.322  1.00  0.00     0.211 HD
ENDBRANCH  25  33
ENDBRANCH  11  20
BRANCH  10  35
ATOM     35  O   UNL     1     -19.084  -5.806 -22.638  1.00  0.00    -0.507 OA
ATOM     36  H   UNL     1     -18.771  -6.750 -22.450  1.00  0.00     0.293 HD
ENDBRANCH  10  35
TORSDOF 9
ENDMDL
MODEL 8
REMARK VINA RESULT:    -7.447      2.684      5.013
REMARK INTER + INTRA:         -10.853
REMARK INTER:                 -10.996
REMARK INTRA:                   0.143
REMARK UNBOUND:                -0.794
REMARK SMILES O=c1c(-c2ccc(O)cc2)coc2c([C@@H]3O[C@@H](CO)[C@@H](O)[C@@H](O)[C@H]3O)c(O)ccc12
REMARK SMILES IDX 3 1 11 2 12 3 13 4 30 5 2 6 1 7 29 8 28 9 26 10 14 11 4 12
REMARK SMILES IDX 5 13 6 14 7 15 10 16 9 17 8 18 15 20 24 21 16 22 22 23 17 24
REMARK SMILES IDX 20 25 25 26 23 28 18 30 19 31 21 33 27 35
REMARK H PARENT 8 19 25 27 23 29 19 32 21 34 27 36
REMARK Flexibility Score: inf
ROOT
ATOM      1  C   UNL     1     -14.435  -3.740 -25.702  1.00  0.00     0.065 A 
ATOM      2  C   UNL     1     -14.157  -4.583 -24.617  1.00  0.00     0.208 A 
ATOM      3  O   UNL     1     -14.918  -5.639 -24.361  1.00  0.00    -0.463 OA
ATOM      4  C   UNL     1     -15.975  -5.970 -25.098  1.00  0.00     0.147 A 
ATOM      5  C   UNL     1     -16.328  -5.174 -26.214  1.00  0.00     0.066 A 
ATOM      6  C   UNL     1     -15.538  -4.051 -26.517  1.00  0.00     0.200 A 
ATOM      7  O   UNL     1     -15.804  -3.339 -27.524  1.00  0.00    -0.288 OA
ATOM      8  C   UNL     1     -17.450  -5.518 -26.984  1.00  0.00     0.020 A 
ATOM      9  C   UNL     1     -18.220  -6.628 -26.646  1.00  0.00     0.047 A 
ATOM     10  C   UNL     1     -17.884  -7.420 -25.542  1.00  0.00     0.125 A 
ATOM     11  C   UNL     1     -16.743  -7.112 -24.766  1.00  0.00     0.069 A 
ENDROOT
BRANCH   1  12
ATOM     12  C   UNL     1     -13.571  -2.561 -25.963  1.00  0.00    -0.011 A 
ATOM     13  C   UNL     1     -13.148  -2.257 -27.269  1.00  0.00     0.013 A 
ATOM     14  C   UNL     1     -12.342  -1.141 -27.510  1.00  0.00     0.047 A 
ATOM     15  C   UNL     1     -11.953  -0.312 -26.454  1.00  0.00     0.115 A 
ATOM     16  C   UNL     1     -13.181  -1.720 -24.907  1.00  0.00     0.013 A 
ATOM     17  C   UNL     1     -12.374  -0.604 -25.151  1.00  0.00     0.047 A 
BRANCH  15  18
ATOM     18  O   UNL     1     -11.149   0.797 -26.709  1.00  0.00    -0.508 OA
ATOM     19  H   UNL     1     -10.792   0.992 -27.636  1.00  0.00     0.293 HD
ENDBRANCH  15  18
ENDBRANCH   1  12
BRANCH  11  20
ATOM     20  C   UNL     1     -16.380  -7.956 -23.550  1.00  0.00     0.188 C 
ATOM     21  C   UNL     1     -14.843  -8.087 -23.441  1.00  0.00     0.179 C 
ATOM     22  O   UNL     1     -16.933  -7.354 -22.388  1.00  0.00    -0.362 OA
ATOM     23  C   UNL     1     -14.446  -8.896 -22.183  1.00  0.00     0.177 C 
ATOM     24  C   UNL     1     -16.721  -8.124 -21.212  1.00  0.00     0.176 C 
ATOM     25  C   UNL     1     -15.208  -8.363 -20.950  1.00  0.00     0.177 C 
BRANCH  21  26
ATOM     26  O   UNL     1     -14.329  -8.699 -24.598  1.00  0.00    -0.387 OA
ATOM     27  H   UNL     1     -13.400  -8.368 -24.707  1.00  0.00     0.211 HD
ENDBRANCH  21  26
BRANCH  23  28
ATOM     28  O   UNL     1     -14.601 -10.290 -22.336  1.00  0.00    -0.387 OA
ATOM     29  H   UNL     1     -13.969 -10.766 -21.741  1.00  0.00     0.211 HD
ENDBRANCH  23  28
BRANCH  24  30
ATOM     30  C   UNL     1     -17.621  -9.382 -21.177  1.00  0.00     0.191 C 
BRANCH  30  31
ATOM     31  O   UNL     1     -16.979 -10.440 -20.515  1.00  0.00    -0.394 OA
ATOM     32  H   UNL     1     -17.678 -11.109 -20.298  1.00  0.00     0.210 HD
ENDBRANCH  30  31
ENDBRANCH  24  30
BRANCH  25  33
ATOM     33  O   UNL     1     -14.978  -9.143 -19.801  1.00  0.00    -0.388 OA
ATOM     34  H   UNL     1     -15.171 -10.090 -20.025  1.00  0.00     0.211 HD
ENDBRANCH  25  33
ENDBRANCH  11  20
BRANCH  10  35
ATOM     35  O   UNL     1     -18.687  -8.514 -25.215  1.00  0.00    -0.507 OA
ATOM     36  H   UNL     1     -18.313  -9.454 -25.164  1.00  0.00     0.293 HD
ENDBRANCH  10  35
TORSDOF 9
ENDMDL
