MODEL 1
REMARK VINA RESULT:    -4.047      0.000      0.000
REMARK INTER + INTRA:          -7.930
REMARK INTER:                  -6.413
REMARK INTRA:                  -1.517
REMARK UNBOUND:                -1.517
REMARK SMILES CCCCCCCCCCCC=O
REMARK SMILES IDX 7 1 6 2 5 3 4 4 3 5 2 6 1 7 8 8 9 9 10 10 11 11 12 12 13 13
REMARK H PARENT
REMARK Flexibility Score: inf
ROOT
ATOM      1  C   UNL     1     118.004 117.297 118.495  1.00  0.00     0.000 C 
ENDROOT
BRANCH   1   2
ATOM      2  C   UNL     1     119.211 117.129 119.437  1.00  0.00     0.000 C 
BRANCH   2   3
ATOM      3  C   UNL     1     120.543 117.523 118.782  1.00  0.00    -0.000 C 
BRANCH   3   4
ATOM      4  C   UNL     1     121.338 118.478 119.686  1.00  0.00    -0.000 C 
BRANCH   4   5
ATOM      5  C   UNL     1     120.442 119.509 120.390  1.00  0.00    -0.000 C 
BRANCH   5   6
ATOM      6  C   UNL     1     121.006 120.935 120.311  1.00  0.00    -0.003 C 
ATOM      7  C   UNL     1     120.521 121.649 119.052  1.00  0.00     0.004 C 
ENDBRANCH   5   6
ENDBRANCH   4   5
ENDBRANCH   3   4
ENDBRANCH   2   3
ENDBRANCH   1   2
BRANCH   1   8
ATOM      8  C   UNL     1     118.205 118.309 117.353  1.00  0.00     0.000 C 
BRANCH   8   9
ATOM      9  C   UNL     1     117.776 119.735 117.732  1.00  0.00     0.000 C 
BRANCH   9  10
ATOM     10  C   UNL     1     116.694 119.712 118.821  1.00  0.00     0.008 C 
BRANCH  10  11
ATOM     11  C   UNL     1     116.956 120.749 119.923  1.00  0.00     0.072 C 
BRANCH  11  12
ATOM     12  C   UNL     1     116.826 120.166 121.299  1.00  0.00     0.224 C 
ATOM     13  O   UNL     1     116.865 118.955 121.453  1.00  0.00    -0.303 OA
ENDBRANCH  11  12
ENDBRANCH  10  11
ENDBRANCH   9  10
ENDBRANCH   8   9
ENDBRANCH   1   8
TORSDOF 10
ENDMDL
MODEL 2
REMARK VINA RESULT:    -4.020      1.281      1.612
REMARK INTER + INTRA:          -7.887
REMARK INTER:                  -6.181
REMARK INTRA:                  -1.706
REMARK UNBOUND:                -1.517
REMARK SMILES CCCCCCCCCCCC=O
REMARK SMILES IDX 7 1 6 2 5 3 4 4 3 5 2 6 1 7 8 8 9 9 10 10 11 11 12 12 13 13
REMARK H PARENT
REMARK Flexibility Score: inf
ROOT
ATOM      1  C   UNL     1     118.224 118.172 117.678  1.00  0.00     0.000 C 
ENDROOT
BRANCH   1   2
ATOM      2  C   UNL     1     119.758 118.042 117.650  1.00  0.00     0.000 C 
BRANCH   2   3
ATOM      3  C   UNL     1     120.358 117.716 119.026  1.00  0.00    -0.000 C 
BRANCH   3   4
ATOM      4  C   UNL     1     121.181 118.899 119.560  1.00  0.00    -0.000 C 
BRANCH   4   5
ATOM      5  C   UNL     1     120.546 119.549 120.799  1.00  0.00    -0.000 C 
BRANCH   5   6
ATOM      6  C   UNL     1     120.147 121.013 120.559  1.00  0.00    -0.003 C 
ATOM      7  C   UNL     1     120.517 121.459 119.148  1.00  0.00     0.004 C 
ENDBRANCH   5   6
ENDBRANCH   4   5
ENDBRANCH   3   4
ENDBRANCH   2   3
ENDBRANCH   1   2
BRANCH   1   8
ATOM      8  C   UNL     1     117.691 119.615 117.626  1.00  0.00     0.000 C 
BRANCH   8   9
ATOM      9  C   UNL     1     117.032 120.060 118.940  1.00  0.00     0.000 C 
BRANCH   9  10
ATOM     10  C   UNL     1     116.429 118.861 119.686  1.00  0.00     0.008 C 
BRANCH  10  11
ATOM     11  C   UNL     1     116.969 118.737 121.119  1.00  0.00     0.072 C 
BRANCH  11  12
ATOM     12  C   UNL     1     117.555 117.383 121.392  1.00  0.00     0.224 C 
ATOM     13  O   UNL     1     117.311 116.451 120.643  1.00  0.00    -0.303 OA
ENDBRANCH  11  12
ENDBRANCH  10  11
ENDBRANCH   9  10
ENDBRANCH   8   9
ENDBRANCH   1   8
TORSDOF 10
ENDMDL
MODEL 3
REMARK VINA RESULT:    -4.007      1.780      3.352
REMARK INTER + INTRA:          -7.867
REMARK INTER:                  -6.244
REMARK INTRA:                  -1.624
REMARK UNBOUND:                -1.517
REMARK SMILES CCCCCCCCCCCC=O
REMARK SMILES IDX 7 1 6 2 5 3 4 4 3 5 2 6 1 7 8 8 9 9 10 10 11 11 12 12 13 13
REMARK H PARENT
REMARK Flexibility Score: inf
ROOT
ATOM      1  C   UNL     1     118.030 119.397 117.682  1.00  0.00     0.000 C 
ENDROOT
BRANCH   1   2
ATOM      2  C   UNL     1     117.945 117.860 117.646  1.00  0.00     0.000 C 
BRANCH   2   3
ATOM      3  C   UNL     1     117.563 117.248 119.001  1.00  0.00    -0.000 C 
BRANCH   3   4
ATOM      4  C   UNL     1     118.757 116.513 119.628  1.00  0.00    -0.000 C 
BRANCH   4   5
ATOM      5  C   UNL     1     119.470 117.350 120.702  1.00  0.00    -0.000 C 
BRANCH   5   6
ATOM      6  C   UNL     1     120.992 117.398 120.500  1.00  0.00    -0.003 C 
ATOM      7  C   UNL     1     121.348 117.463 119.017  1.00  0.00     0.004 C 
ENDBRANCH   5   6
ENDBRANCH   4   5
ENDBRANCH   3   4
ENDBRANCH   2   3
ENDBRANCH   1   2
BRANCH   1   8
ATOM      8  C   UNL     1     117.419 120.055 118.932  1.00  0.00     0.000 C 
BRANCH   8   9
ATOM      9  C   UNL     1     118.455 120.803 119.785  1.00  0.00     0.000 C 
BRANCH   9  10
ATOM     10  C   UNL     1     119.796 120.917 119.046  1.00  0.00     0.008 C 
BRANCH  10  11
ATOM     11  C   UNL     1     120.978 121.087 120.011  1.00  0.00     0.072 C 
BRANCH  11  12
ATOM     12  C   UNL     1     120.563 120.966 121.449  1.00  0.00     0.224 C 
ATOM     13  O   UNL     1     121.008 121.744 122.278  1.00  0.00    -0.303 OA
ENDBRANCH  11  12
ENDBRANCH  10  11
ENDBRANCH   9  10
ENDBRANCH   8   9
ENDBRANCH   1   8
TORSDOF 10
ENDMDL
MODEL 4
REMARK VINA RESULT:    -3.998      1.523      4.348
REMARK INTER + INTRA:          -7.853
REMARK INTER:                  -6.436
REMARK INTRA:                  -1.417
REMARK UNBOUND:                -1.517
REMARK SMILES CCCCCCCCCCCC=O
REMARK SMILES IDX 7 1 6 2 5 3 4 4 3 5 2 6 1 7 8 8 9 9 10 10 11 11 12 12 13 13
REMARK H PARENT
REMARK Flexibility Score: inf
ROOT
ATOM      1  C   UNL     1     118.379 120.678 120.409  1.00  0.00     0.000 C 
ENDROOT
BRANCH   1   2
ATOM      2  C   UNL     1     117.006 120.593 119.716  1.00  0.00     0.000 C 
BRANCH   2   3
ATOM      3  C   UNL     1     117.056 119.841 118.378  1.00  0.00    -0.000 C 
BRANCH   3   4
ATOM      4  C   UNL     1     117.504 118.386 118.582  1.00  0.00    -0.000 C 
BRANCH   4   5
ATOM      5  C   UNL     1     118.536 117.933 117.538  1.00  0.00    -0.000 C 
BRANCH   5   6
ATOM      6  C   UNL     1     119.089 119.100 116.707  1.00  0.00    -0.003 C 
ATOM      7  C   UNL     1     118.834 118.885 115.218  1.00  0.00     0.004 C 
ENDBRANCH   5   6
ENDBRANCH   4   5
ENDBRANCH   3   4
ENDBRANCH   2   3
ENDBRANCH   1   2
BRANCH   1   8
ATOM      8  C   UNL     1     119.480 121.375 119.591  1.00  0.00     0.000 C 
BRANCH   8   9
ATOM      9  C   UNL     1     120.888 120.845 119.903  1.00  0.00     0.000 C 
BRANCH   9  10
ATOM     10  C   UNL     1     120.818 119.466 120.575  1.00  0.00     0.008 C 
BRANCH  10  11
ATOM     11  C   UNL     1     121.404 118.358 119.687  1.00  0.00     0.072 C 
BRANCH  11  12
ATOM     12  C   UNL     1     120.951 116.990 120.107  1.00  0.00     0.224 C 
ATOM     13  O   UNL     1     120.012 116.871 120.879  1.00  0.00    -0.303 OA
ENDBRANCH  11  12
ENDBRANCH  10  11
ENDBRANCH   9  10
ENDBRANCH   8   9
ENDBRANCH   1   8
TORSDOF 10
ENDMDL
MODEL 5
REMARK VINA RESULT:    -3.993      1.560      4.186
REMARK INTER + INTRA:          -7.845
REMARK INTER:                  -6.261
REMARK INTRA:                  -1.584
REMARK UNBOUND:                -1.517
REMARK SMILES CCCCCCCCCCCC=O
REMARK SMILES IDX 7 1 6 2 5 3 4 4 3 5 2 6 1 7 8 8 9 9 10 10 11 11 12 12 13 13
REMARK H PARENT
REMARK Flexibility Score: inf
ROOT
ATOM      1  C   UNL     1     119.379 119.376 117.502  1.00  0.00     0.000 C 
ENDROOT
BRANCH   1   2
ATOM      2  C   UNL     1     117.851 119.548 117.576  1.00  0.00     0.000 C 
BRANCH   2   3
ATOM      3  C   UNL     1     117.371 120.068 118.939  1.00  0.00    -0.000 C 
BRANCH   3   4
ATOM      4  C   UNL     1     116.380 119.086 119.584  1.00  0.00    -0.000 C 
BRANCH   4   5
ATOM      5  C   UNL     1     117.069 118.078 120.516  1.00  0.00    -0.000 C 
BRANCH   5   6
ATOM      6  C   UNL     1     116.561 116.643 120.314  1.00  0.00    -0.003 C 
ATOM      7  C   UNL     1     117.146 116.026 119.046  1.00  0.00     0.004 C 
ENDBRANCH   5   6
ENDBRANCH   4   5
ENDBRANCH   3   4
ENDBRANCH   2   3
ENDBRANCH   1   2
BRANCH   1   8
ATOM      8  C   UNL     1     119.881 117.929 117.656  1.00  0.00     0.000 C 
BRANCH   8   9
ATOM      9  C   UNL     1     120.555 117.668 119.012  1.00  0.00     0.000 C 
BRANCH   9  10
ATOM     10  C   UNL     1     121.044 118.979 119.644  1.00  0.00     0.008 C 
BRANCH  10  11
ATOM     11  C   UNL     1     120.539 119.152 121.084  1.00  0.00     0.072 C 
BRANCH  11  12
ATOM     12  C   UNL     1     120.141 120.568 121.383  1.00  0.00     0.224 C 
ATOM     13  O   UNL     1     119.093 120.795 121.968  1.00  0.00    -0.303 OA
ENDBRANCH  11  12
ENDBRANCH  10  11
ENDBRANCH   9  10
ENDBRANCH   8   9
ENDBRANCH   1   8
TORSDOF 10
ENDMDL
MODEL 6
REMARK VINA RESULT:    -3.977      1.656      3.430
REMARK INTER + INTRA:          -7.819
REMARK INTER:                  -6.214
REMARK INTRA:                  -1.606
REMARK UNBOUND:                -1.517
REMARK SMILES CCCCCCCCCCCC=O
REMARK SMILES IDX 7 1 6 2 5 3 4 4 3 5 2 6 1 7 8 8 9 9 10 10 11 11 12 12 13 13
REMARK H PARENT
REMARK Flexibility Score: inf
ROOT
ATOM      1  C   UNL     1     117.913 117.537 117.898  1.00  0.00     0.000 C 
ENDROOT
BRANCH   1   2
ATOM      2  C   UNL     1     117.835 116.498 119.032  1.00  0.00     0.000 C 
BRANCH   2   3
ATOM      3  C   UNL     1     117.426 117.109 120.379  1.00  0.00    -0.000 C 
BRANCH   3   4
ATOM      4  C   UNL     1     116.487 118.308 120.176  1.00  0.00    -0.000 C 
BRANCH   4   5
ATOM      5  C   UNL     1     116.916 119.540 120.987  1.00  0.00    -0.000 C 
BRANCH   5   6
ATOM      6  C   UNL     1     116.553 120.861 120.293  1.00  0.00    -0.003 C 
ATOM      7  C   UNL     1     115.955 120.610 118.911  1.00  0.00     0.004 C 
ENDBRANCH   5   6
ENDBRANCH   4   5
ENDBRANCH   3   4
ENDBRANCH   2   3
ENDBRANCH   1   2
BRANCH   1   8
ATOM      8  C   UNL     1     119.335 117.995 117.529  1.00  0.00     0.000 C 
BRANCH   8   9
ATOM      9  C   UNL     1     119.423 119.498 117.224  1.00  0.00     0.000 C 
BRANCH   9  10
ATOM     10  C   UNL     1     119.715 120.301 118.500  1.00  0.00     0.008 C 
BRANCH  10  11
ATOM     11  C   UNL     1     120.544 119.498 119.513  1.00  0.00     0.072 C 
BRANCH  11  12
ATOM     12  C   UNL     1     120.654 120.193 120.839  1.00  0.00     0.224 C 
ATOM     13  O   UNL     1     120.074 121.252 121.020  1.00  0.00    -0.303 OA
ENDBRANCH  11  12
ENDBRANCH  10  11
ENDBRANCH   9  10
ENDBRANCH   8   9
ENDBRANCH   1   8
TORSDOF 10
ENDMDL
MODEL 7
REMARK VINA RESULT:    -3.961      1.772      3.557
REMARK INTER + INTRA:          -7.794
REMARK INTER:                  -6.215
REMARK INTRA:                  -1.579
REMARK UNBOUND:                -1.517
REMARK SMILES CCCCCCCCCCCC=O
REMARK SMILES IDX 7 1 6 2 5 3 4 4 3 5 2 6 1 7 8 8 9 9 10 10 11 11 12 12 13 13
REMARK H PARENT
REMARK Flexibility Score: inf
ROOT
ATOM      1  C   UNL     1     119.317 118.239 117.489  1.00  0.00     0.000 C 
ENDROOT
BRANCH   1   2
ATOM      2  C   UNL     1     119.497 119.764 117.599  1.00  0.00     0.000 C 
BRANCH   2   3
ATOM      3  C   UNL     1     120.032 120.209 118.967  1.00  0.00    -0.000 C 
BRANCH   3   4
ATOM      4  C   UNL     1     119.087 121.227 119.623  1.00  0.00    -0.000 C 
BRANCH   4   5
ATOM      5  C   UNL     1     118.088 120.572 120.589  1.00  0.00    -0.000 C 
BRANCH   5   6
ATOM      6  C   UNL     1     116.652 121.079 120.389  1.00  0.00    -0.003 C 
ATOM      7  C   UNL     1     116.044 120.518 119.107  1.00  0.00     0.004 C 
ENDBRANCH   5   6
ENDBRANCH   4   5
ENDBRANCH   3   4
ENDBRANCH   2   3
ENDBRANCH   1   2
BRANCH   1   8
ATOM      8  C   UNL     1     117.883 117.733 117.732  1.00  0.00     0.000 C 
BRANCH   8   9
ATOM      9  C   UNL     1     117.704 117.074 119.108  1.00  0.00     0.000 C 
BRANCH   9  10
ATOM     10  C   UNL     1     119.059 116.658 119.699  1.00  0.00     0.008 C 
BRANCH  10  11
ATOM     11  C   UNL     1     119.209 117.088 121.166  1.00  0.00     0.072 C 
BRANCH  11  12
ATOM     12  C   UNL     1     120.620 117.470 121.507  1.00  0.00     0.224 C 
ATOM     13  O   UNL     1     120.858 118.579 121.958  1.00  0.00    -0.303 OA
ENDBRANCH  11  12
ENDBRANCH  10  11
ENDBRANCH   9  10
ENDBRANCH   8   9
ENDBRANCH   1   8
TORSDOF 10
ENDMDL
MODEL 8
REMARK VINA RESULT:    -3.954      1.885      3.826
REMARK INTER + INTRA:          -7.782
REMARK INTER:                  -6.144
REMARK INTRA:                  -1.638
REMARK UNBOUND:                -1.517
REMARK SMILES CCCCCCCCCCCC=O
REMARK SMILES IDX 7 1 6 2 5 3 4 4 3 5 2 6 1 7 8 8 9 9 10 10 11 11 12 12 13 13
REMARK H PARENT
REMARK Flexibility Score: inf
ROOT
ATOM      1  C   UNL     1     119.370 118.282 117.451  1.00  0.00     0.000 C 
ENDROOT
BRANCH   1   2
ATOM      2  C   UNL     1     117.912 117.842 117.685  1.00  0.00     0.000 C 
BRANCH   2   3
ATOM      3  C   UNL     1     117.771 116.810 118.813  1.00  0.00    -0.000 C 
BRANCH   3   4
ATOM      4  C   UNL     1     116.969 117.388 119.990  1.00  0.00    -0.000 C 
BRANCH   4   5
ATOM      5  C   UNL     1     116.367 118.766 119.675  1.00  0.00    -0.000 C 
BRANCH   5   6
ATOM      6  C   UNL     1     116.733 119.825 120.726  1.00  0.00    -0.003 C 
ATOM      7  C   UNL     1     116.639 121.232 120.143  1.00  0.00     0.004 C 
ENDBRANCH   5   6
ENDBRANCH   4   5
ENDBRANCH   3   4
ENDBRANCH   2   3
ENDBRANCH   1   2
BRANCH   1   8
ATOM      8  C   UNL     1     119.642 119.781 117.672  1.00  0.00     0.000 C 
BRANCH   8   9
ATOM      9  C   UNL     1     120.062 120.109 119.113  1.00  0.00     0.000 C 
BRANCH   9  10
ATOM     10  C   UNL     1     120.967 119.008 119.685  1.00  0.00     0.008 C 
BRANCH  10  11
ATOM     11  C   UNL     1     120.566 118.612 121.114  1.00  0.00     0.072 C 
BRANCH  11  12
ATOM     12  C   UNL     1     120.543 117.124 121.308  1.00  0.00     0.224 C 
ATOM     13  O   UNL     1     121.137 116.399 120.527  1.00  0.00    -0.303 OA
ENDBRANCH  11  12
ENDBRANCH  10  11
ENDBRANCH   9  10
ENDBRANCH   8   9
ENDBRANCH   1   8
TORSDOF 10
ENDMDL
MODEL 9
REMARK VINA RESULT:    -3.915      1.430      3.332
REMARK INTER + INTRA:          -7.721
REMARK INTER:                  -6.143
REMARK INTRA:                  -1.578
REMARK UNBOUND:                -1.517
REMARK SMILES CCCCCCCCCCCC=O
REMARK SMILES IDX 7 1 6 2 5 3 4 4 3 5 2 6 1 7 8 8 9 9 10 10 11 11 12 12 13 13
REMARK H PARENT
REMARK Flexibility Score: inf
ROOT
ATOM      1  C   UNL     1     117.638 117.556 118.503  1.00  0.00     0.000 C 
ENDROOT
BRANCH   1   2
ATOM      2  C   UNL     1     116.982 118.452 119.570  1.00  0.00     0.000 C 
BRANCH   2   3
ATOM      3  C   UNL     1     116.748 119.890 119.084  1.00  0.00    -0.000 C 
BRANCH   3   4
ATOM      4  C   UNL     1     117.420 120.903 120.023  1.00  0.00    -0.000 C 
BRANCH   4   5
ATOM      5  C   UNL     1     118.613 120.305 120.783  1.00  0.00    -0.000 C 
BRANCH   5   6
ATOM      6  C   UNL     1     119.878 121.169 120.673  1.00  0.00    -0.003 C 
ATOM      7  C   UNL     1     120.189 121.506 119.218  1.00  0.00     0.004 C 
ENDBRANCH   5   6
ENDBRANCH   4   5
ENDBRANCH   3   4
ENDBRANCH   2   3
ENDBRANCH   1   2
BRANCH   1   8
ATOM      8  C   UNL     1     118.278 118.308 117.323  1.00  0.00     0.000 C 
BRANCH   8   9
ATOM      9  C   UNL     1     119.793 118.503 117.485  1.00  0.00     0.000 C 
BRANCH   9  10
ATOM     10  C   UNL     1     120.390 117.425 118.401  1.00  0.00     0.008 C 
BRANCH  10  11
ATOM     11  C   UNL     1     121.296 118.024 119.488  1.00  0.00     0.072 C 
BRANCH  11  12
ATOM     12  C   UNL     1     121.066 117.396 120.832  1.00  0.00     0.224 C 
ATOM     13  O   UNL     1     119.941 117.058 121.161  1.00  0.00    -0.303 OA
ENDBRANCH  11  12
ENDBRANCH  10  11
ENDBRANCH   9  10
ENDBRANCH   8   9
ENDBRANCH   1   8
TORSDOF 10
ENDMDL
