MODEL 1
REMARK VINA RESULT:    -5.064      0.000      0.000
REMARK INTER + INTRA:         -15.020
REMARK INTER:                 -11.578
REMARK INTRA:                  -3.442
REMARK UNBOUND:                -3.442
REMARK SMILES CCCCCCCCCCCCCCCCCCCCCCCC(=O)[O-]
REMARK SMILES IDX 13 1 14 2 15 3 16 4 17 5 18 6 19 7 20 8 21 9 22 10 23 11
REMARK SMILES IDX 24 12 25 13 26 14 12 15 11 16 10 17 9 18 8 19 7 20 6 21 5 22
REMARK SMILES IDX 4 23 3 24 2 25 1 26
REMARK H PARENT
REMARK Flexibility Score: inf
ROOT
ATOM      1  C   UNL     1     -93.941 -62.902 -67.176  1.00  0.00     0.000 C 
ENDROOT
BRANCH   1   2
ATOM      2  C   UNL     1     -92.877 -63.555 -68.072  1.00  0.00     0.000 C 
BRANCH   2   3
ATOM      3  C   UNL     1     -93.423 -63.943 -69.454  1.00  0.00     0.000 C 
BRANCH   3   4
ATOM      4  C   UNL     1     -93.354 -62.753 -70.424  1.00  0.00     0.000 C 
BRANCH   4   5
ATOM      5  C   UNL     1     -94.661 -62.545 -71.208  1.00  0.00     0.000 C 
BRANCH   5   6
ATOM      6  C   UNL     1     -95.039 -61.072 -71.465  1.00  0.00     0.000 C 
BRANCH   6   7
ATOM      7  C   UNL     1     -96.375 -60.622 -70.840  1.00  0.00     0.000 C 
BRANCH   7   8
ATOM      8  C   UNL     1     -96.779 -61.370 -69.554  1.00  0.00     0.000 C 
BRANCH   8   9
ATOM      9  C   UNL     1     -97.793 -62.511 -69.760  1.00  0.00     0.000 C 
BRANCH   9  10
ATOM     10  C   UNL     1     -98.937 -62.484 -68.733  1.00  0.00     0.006 C 
BRANCH  10  11
ATOM     11  C   UNL     1     -99.788 -63.760 -68.784  1.00  0.00     0.053 C 
BRANCH  11  12
ATOM     12  C   UNL     1    -101.013 -63.574 -69.628  1.00  0.00     0.041 C 
ATOM     13  O   UNL     1    -101.550 -64.562 -70.195  1.00  0.00    -0.550 OA
ATOM     14  O   UNL     1    -101.541 -62.303 -69.815  1.00  0.00    -0.550 OA
ENDBRANCH  11  12
ENDBRANCH  10  11
ENDBRANCH   9  10
ENDBRANCH   8   9
ENDBRANCH   7   8
ENDBRANCH   6   7
ENDBRANCH   5   6
ENDBRANCH   4   5
ENDBRANCH   3   4
ENDBRANCH   2   3
ENDBRANCH   1   2
BRANCH   1  15
ATOM     15  C   UNL     1     -93.891 -61.364 -67.220  1.00  0.00     0.000 C 
BRANCH  15  16
ATOM     16  C   UNL     1     -94.997 -60.717 -66.371  1.00  0.00     0.000 C 
BRANCH  16  17
ATOM     17  C   UNL     1     -95.792 -61.748 -65.553  1.00  0.00     0.000 C 
BRANCH  17  18
ATOM     18  C   UNL     1     -97.315 -61.536 -65.640  1.00  0.00    -0.000 C 
BRANCH  18  19
ATOM     19  C   UNL     1     -98.068 -61.638 -64.301  1.00  0.00    -0.000 C 
BRANCH  19  20
ATOM     20  C   UNL     1     -99.506 -62.155 -64.458  1.00  0.00    -0.000 C 
BRANCH  20  21
ATOM     21  C   UNL     1    -100.499 -61.043 -64.836  1.00  0.00    -0.000 C 
BRANCH  21  22
ATOM     22  C   UNL     1    -101.121 -61.217 -66.239  1.00  0.00    -0.000 C 
BRANCH  22  23
ATOM     23  C   UNL     1    -100.728 -60.074 -67.192  1.00  0.00    -0.000 C 
BRANCH  23  24
ATOM     24  C   UNL     1     -99.827 -59.023 -66.507  1.00  0.00    -0.000 C 
BRANCH  24  25
ATOM     25  C   UNL     1     -98.477 -58.814 -67.214  1.00  0.00    -0.003 C 
ATOM     26  C   UNL     1     -97.522 -57.919 -66.427  1.00  0.00     0.004 C 
ENDBRANCH  24  25
ENDBRANCH  23  24
ENDBRANCH  22  23
ENDBRANCH  21  22
ENDBRANCH  20  21
ENDBRANCH  19  20
ENDBRANCH  18  19
ENDBRANCH  17  18
ENDBRANCH  16  17
ENDBRANCH  15  16
ENDBRANCH   1  15
TORSDOF 22
ENDMDL
MODEL 2
REMARK VINA RESULT:    -4.847      1.959      3.359
REMARK INTER + INTRA:         -14.523
REMARK INTER:                 -11.644
REMARK INTRA:                  -2.879
REMARK UNBOUND:                -3.442
REMARK SMILES CCCCCCCCCCCCCCCCCCCCCCCC(=O)[O-]
REMARK SMILES IDX 13 1 14 2 15 3 16 4 17 5 18 6 19 7 20 8 21 9 22 10 23 11
REMARK SMILES IDX 24 12 25 13 26 14 12 15 11 16 10 17 9 18 8 19 7 20 6 21 5 22
REMARK SMILES IDX 4 23 3 24 2 25 1 26
REMARK H PARENT
REMARK Flexibility Score: inf
ROOT
ATOM      1  C   UNL     1     -93.752 -62.615 -68.138  1.00  0.00     0.000 C 
ENDROOT
BRANCH   1   2
ATOM      2  C   UNL     1     -92.895 -63.655 -68.875  1.00  0.00     0.000 C 
BRANCH   2   3
ATOM      3  C   UNL     1     -93.510 -64.089 -70.213  1.00  0.00     0.000 C 
BRANCH   3   4
ATOM      4  C   UNL     1     -92.897 -63.299 -71.380  1.00  0.00     0.000 C 
BRANCH   4   5
ATOM      5  C   UNL     1     -93.955 -62.588 -72.242  1.00  0.00     0.000 C 
BRANCH   5   6
ATOM      6  C   UNL     1     -94.735 -61.468 -71.523  1.00  0.00     0.000 C 
BRANCH   6   7
ATOM      7  C   UNL     1     -96.268 -61.640 -71.517  1.00  0.00     0.000 C 
BRANCH   7   8
ATOM      8  C   UNL     1     -96.894 -61.861 -70.125  1.00  0.00     0.000 C 
BRANCH   8   9
ATOM      9  C   UNL     1     -96.500 -60.816 -69.064  1.00  0.00     0.000 C 
BRANCH   9  10
ATOM     10  C   UNL     1     -97.596 -60.593 -68.010  1.00  0.00     0.006 C 
BRANCH  10  11
ATOM     11  C   UNL     1     -97.190 -59.543 -66.967  1.00  0.00     0.053 C 
BRANCH  11  12
ATOM     12  C   UNL     1     -98.186 -58.425 -66.892  1.00  0.00     0.041 C 
ATOM     13  O   UNL     1     -97.910 -57.370 -66.262  1.00  0.00    -0.550 OA
ATOM     14  O   UNL     1     -99.432 -58.564 -67.490  1.00  0.00    -0.550 OA
ENDBRANCH  11  12
ENDBRANCH  10  11
ENDBRANCH   9  10
ENDBRANCH   8   9
ENDBRANCH   7   8
ENDBRANCH   6   7
ENDBRANCH   5   6
ENDBRANCH   4   5
ENDBRANCH   3   4
ENDBRANCH   2   3
ENDBRANCH   1   2
BRANCH   1  15
ATOM     15  C   UNL     1     -92.915 -61.677 -67.249  1.00  0.00     0.000 C 
BRANCH  15  16
ATOM     16  C   UNL     1     -93.617 -61.342 -65.924  1.00  0.00     0.000 C 
BRANCH  16  17
ATOM     17  C   UNL     1     -94.899 -62.165 -65.711  1.00  0.00     0.000 C 
BRANCH  17  18
ATOM     18  C   UNL     1     -95.933 -61.446 -64.827  1.00  0.00    -0.000 C 
BRANCH  18  19
ATOM     19  C   UNL     1     -97.076 -62.334 -64.300  1.00  0.00    -0.000 C 
BRANCH  19  20
ATOM     20  C   UNL     1     -98.340 -61.536 -63.941  1.00  0.00    -0.000 C 
BRANCH  20  21
ATOM     21  C   UNL     1     -99.608 -62.105 -64.600  1.00  0.00    -0.000 C 
BRANCH  21  22
ATOM     22  C   UNL     1    -100.580 -61.020 -65.113  1.00  0.00    -0.000 C 
BRANCH  22  23
ATOM     23  C   UNL     1    -101.200 -61.394 -66.472  1.00  0.00    -0.000 C 
BRANCH  23  24
ATOM     24  C   UNL     1    -100.208 -62.153 -67.380  1.00  0.00    -0.000 C 
BRANCH  24  25
ATOM     25  C   UNL     1    -100.857 -62.749 -68.640  1.00  0.00    -0.003 C 
ATOM     26  C   UNL     1    -100.057 -63.906 -69.236  1.00  0.00     0.004 C 
ENDBRANCH  24  25
ENDBRANCH  23  24
ENDBRANCH  22  23
ENDBRANCH  21  22
ENDBRANCH  20  21
ENDBRANCH  19  20
ENDBRANCH  18  19
ENDBRANCH  17  18
ENDBRANCH  16  17
ENDBRANCH  15  16
ENDBRANCH   1  15
TORSDOF 22
ENDMDL
MODEL 3
REMARK VINA RESULT:    -4.569      1.620      6.587
REMARK INTER + INTRA:         -13.887
REMARK INTER:                 -10.323
REMARK INTRA:                  -3.564
REMARK UNBOUND:                -3.442
REMARK SMILES CCCCCCCCCCCCCCCCCCCCCCCC(=O)[O-]
REMARK SMILES IDX 13 1 14 2 15 3 16 4 17 5 18 6 19 7 20 8 21 9 22 10 23 11
REMARK SMILES IDX 24 12 25 13 26 14 12 15 11 16 10 17 9 18 8 19 7 20 6 21 5 22
REMARK SMILES IDX 4 23 3 24 2 25 1 26
REMARK H PARENT
REMARK Flexibility Score: inf
ROOT
ATOM      1  C   UNL     1    -100.111 -62.835 -67.735  1.00  0.00     0.000 C 
ENDROOT
BRANCH   1   2
ATOM      2  C   UNL     1     -99.233 -62.875 -66.474  1.00  0.00     0.000 C 
BRANCH   2   3
ATOM      3  C   UNL     1     -99.998 -62.465 -65.207  1.00  0.00     0.000 C 
BRANCH   3   4
ATOM      4  C   UNL     1     -99.098 -61.652 -64.263  1.00  0.00     0.000 C 
BRANCH   4   5
ATOM      5  C   UNL     1     -97.688 -62.251 -64.120  1.00  0.00     0.000 C 
BRANCH   5   6
ATOM      6  C   UNL     1     -96.534 -61.302 -64.501  1.00  0.00     0.000 C 
BRANCH   6   7
ATOM      7  C   UNL     1     -96.965 -59.872 -64.887  1.00  0.00     0.000 C 
BRANCH   7   8
ATOM      8  C   UNL     1     -96.779 -59.513 -66.375  1.00  0.00     0.000 C 
BRANCH   8   9
ATOM      9  C   UNL     1     -97.606 -58.307 -66.858  1.00  0.00     0.000 C 
BRANCH   9  10
ATOM     10  C   UNL     1     -99.068 -58.357 -66.386  1.00  0.00     0.006 C 
BRANCH  10  11
ATOM     11  C   UNL     1     -99.922 -59.297 -67.247  1.00  0.00     0.053 C 
BRANCH  11  12
ATOM     12  C   UNL     1    -101.198 -59.673 -66.555  1.00  0.00     0.041 C 
ATOM     13  O   UNL     1    -102.070 -60.352 -67.158  1.00  0.00    -0.550 OA
ATOM     14  O   UNL     1    -101.436 -59.244 -65.256  1.00  0.00    -0.550 OA
ENDBRANCH  11  12
ENDBRANCH  10  11
ENDBRANCH   9  10
ENDBRANCH   8   9
ENDBRANCH   7   8
ENDBRANCH   6   7
ENDBRANCH   5   6
ENDBRANCH   4   5
ENDBRANCH   3   4
ENDBRANCH   2   3
ENDBRANCH   1   2
BRANCH   1  15
ATOM     15  C   UNL     1     -99.308 -62.508 -69.007  1.00  0.00     0.000 C 
BRANCH  15  16
ATOM     16  C   UNL     1     -97.852 -62.124 -68.698  1.00  0.00     0.000 C 
BRANCH  16  17
ATOM     17  C   UNL     1     -97.321 -61.022 -69.631  1.00  0.00     0.000 C 
BRANCH  17  18
ATOM     18  C   UNL     1     -96.572 -61.582 -70.854  1.00  0.00    -0.000 C 
BRANCH  18  19
ATOM     19  C   UNL     1     -95.142 -61.046 -71.048  1.00  0.00    -0.000 C 
BRANCH  19  20
ATOM     20  C   UNL     1     -94.155 -62.126 -71.521  1.00  0.00    -0.000 C 
BRANCH  20  21
ATOM     21  C   UNL     1     -94.497 -63.523 -70.976  1.00  0.00    -0.000 C 
BRANCH  21  22
ATOM     22  C   UNL     1     -93.367 -64.154 -70.133  1.00  0.00    -0.000 C 
BRANCH  22  23
ATOM     23  C   UNL     1     -92.911 -63.227 -68.991  1.00  0.00    -0.000 C 
BRANCH  23  24
ATOM     24  C   UNL     1     -93.313 -63.767 -67.602  1.00  0.00    -0.000 C 
BRANCH  24  25
ATOM     25  C   UNL     1     -93.615 -62.663 -66.575  1.00  0.00    -0.003 C 
ATOM     26  C   UNL     1     -93.980 -61.328 -67.220  1.00  0.00     0.004 C 
ENDBRANCH  24  25
ENDBRANCH  23  24
ENDBRANCH  22  23
ENDBRANCH  21  22
ENDBRANCH  20  21
ENDBRANCH  19  20
ENDBRANCH  18  19
ENDBRANCH  17  18
ENDBRANCH  16  17
ENDBRANCH  15  16
ENDBRANCH   1  15
TORSDOF 22
ENDMDL
MODEL 4
REMARK VINA RESULT:    -4.227      1.950      3.897
REMARK INTER + INTRA:         -13.106
REMARK INTER:                 -11.164
REMARK INTRA:                  -1.942
REMARK UNBOUND:                -3.442
REMARK SMILES CCCCCCCCCCCCCCCCCCCCCCCC(=O)[O-]
REMARK SMILES IDX 13 1 14 2 15 3 16 4 17 5 18 6 19 7 20 8 21 9 22 10 23 11
REMARK SMILES IDX 24 12 25 13 26 14 12 15 11 16 10 17 9 18 8 19 7 20 6 21 5 22
REMARK SMILES IDX 4 23 3 24 2 25 1 26
REMARK H PARENT
REMARK Flexibility Score: inf
ROOT
ATOM      1  C   UNL     1     -93.492 -61.684 -66.003  1.00  0.00     0.000 C 
ENDROOT
BRANCH   1   2
ATOM      2  C   UNL     1     -92.958 -61.834 -67.436  1.00  0.00     0.000 C 
BRANCH   2   3
ATOM      3  C   UNL     1     -93.436 -63.125 -68.116  1.00  0.00     0.000 C 
BRANCH   3   4
ATOM      4  C   UNL     1     -92.915 -63.210 -69.558  1.00  0.00     0.000 C 
BRANCH   4   5
ATOM      5  C   UNL     1     -93.693 -64.223 -70.416  1.00  0.00     0.000 C 
BRANCH   5   6
ATOM      6  C   UNL     1     -94.426 -63.620 -71.632  1.00  0.00     0.000 C 
BRANCH   6   7
ATOM      7  C   UNL     1     -95.194 -62.312 -71.349  1.00  0.00     0.000 C 
BRANCH   7   8
ATOM      8  C   UNL     1     -96.145 -62.363 -70.136  1.00  0.00     0.000 C 
BRANCH   8   9
ATOM      9  C   UNL     1     -97.142 -61.193 -70.046  1.00  0.00     0.000 C 
BRANCH   9  10
ATOM     10  C   UNL     1     -96.777 -60.179 -68.950  1.00  0.00     0.006 C 
BRANCH  10  11
ATOM     11  C   UNL     1     -97.710 -60.279 -67.736  1.00  0.00     0.053 C 
BRANCH  11  12
ATOM     12  C   UNL     1     -98.324 -58.952 -67.401  1.00  0.00     0.041 C 
ATOM     13  O   UNL     1     -97.620 -58.033 -66.907  1.00  0.00    -0.550 OA
ATOM     14  O   UNL     1     -99.682 -58.745 -67.605  1.00  0.00    -0.550 OA
ENDBRANCH  11  12
ENDBRANCH  10  11
ENDBRANCH   9  10
ENDBRANCH   8   9
ENDBRANCH   7   8
ENDBRANCH   6   7
ENDBRANCH   5   6
ENDBRANCH   4   5
ENDBRANCH   3   4
ENDBRANCH   2   3
ENDBRANCH   1   2
BRANCH   1  15
ATOM     15  C   UNL     1     -94.992 -61.339 -65.962  1.00  0.00     0.000 C 
BRANCH  15  16
ATOM     16  C   UNL     1     -95.786 -62.281 -65.044  1.00  0.00     0.000 C 
BRANCH  16  17
ATOM     17  C   UNL     1     -96.761 -61.527 -64.125  1.00  0.00     0.000 C 
BRANCH  17  18
ATOM     18  C   UNL     1     -98.095 -61.189 -64.814  1.00  0.00    -0.000 C 
BRANCH  18  19
ATOM     19  C   UNL     1     -99.357 -61.635 -64.053  1.00  0.00    -0.000 C 
BRANCH  19  20
ATOM     20  C   UNL     1    -100.227 -62.616 -64.855  1.00  0.00    -0.000 C 
BRANCH  20  21
ATOM     21  C   UNL     1     -99.652 -62.917 -66.249  1.00  0.00    -0.000 C 
BRANCH  21  22
ATOM     22  C   UNL     1    -100.570 -62.472 -67.408  1.00  0.00    -0.000 C 
BRANCH  22  23
ATOM     23  C   UNL     1    -100.043 -62.941 -68.776  1.00  0.00    -0.000 C 
BRANCH  23  24
ATOM     24  C   UNL     1    -101.185 -63.278 -69.760  1.00  0.00    -0.000 C 
BRANCH  24  25
ATOM     25  C   UNL     1    -101.449 -64.786 -69.905  1.00  0.00    -0.003 C 
ATOM     26  C   UNL     1    -102.794 -65.098 -70.559  1.00  0.00     0.004 C 
ENDBRANCH  24  25
ENDBRANCH  23  24
ENDBRANCH  22  23
ENDBRANCH  21  22
ENDBRANCH  20  21
ENDBRANCH  19  20
ENDBRANCH  18  19
ENDBRANCH  17  18
ENDBRANCH  16  17
ENDBRANCH  15  16
ENDBRANCH   1  15
TORSDOF 22
ENDMDL
MODEL 5
REMARK VINA RESULT:    -3.372     15.623     19.588
REMARK INTER + INTRA:         -11.151
REMARK INTER:                  -6.554
REMARK INTRA:                  -4.597
REMARK UNBOUND:                -3.442
REMARK SMILES CCCCCCCCCCCCCCCCCCCCCCCC(=O)[O-]
REMARK SMILES IDX 13 1 14 2 15 3 16 4 17 5 18 6 19 7 20 8 21 9 22 10 23 11
REMARK SMILES IDX 24 12 25 13 26 14 12 15 11 16 10 17 9 18 8 19 7 20 6 21 5 22
REMARK SMILES IDX 4 23 3 24 2 25 1 26
REMARK H PARENT
REMARK Flexibility Score: inf
ROOT
ATOM      1  C   UNL     1    -108.625 -48.130 -59.126  1.00  0.00     0.000 C 
ENDROOT
BRANCH   1   2
ATOM      2  C   UNL     1    -108.613 -47.518 -60.536  1.00  0.00     0.000 C 
BRANCH   2   3
ATOM      3  C   UNL     1    -109.728 -46.481 -60.741  1.00  0.00     0.000 C 
BRANCH   3   4
ATOM      4  C   UNL     1    -110.601 -46.849 -61.950  1.00  0.00     0.000 C 
BRANCH   4   5
ATOM      5  C   UNL     1    -112.054 -47.175 -61.561  1.00  0.00     0.000 C 
BRANCH   5   6
ATOM      6  C   UNL     1    -112.256 -48.546 -60.885  1.00  0.00     0.000 C 
BRANCH   6   7
ATOM      7  C   UNL     1    -111.717 -49.753 -61.680  1.00  0.00     0.000 C 
BRANCH   7   8
ATOM      8  C   UNL     1    -110.672 -50.610 -60.937  1.00  0.00     0.000 C 
BRANCH   8   9
ATOM      9  C   UNL     1    -109.426 -50.975 -61.766  1.00  0.00     0.000 C 
BRANCH   9  10
ATOM     10  C   UNL     1    -109.346 -50.205 -63.094  1.00  0.00     0.006 C 
BRANCH  10  11
ATOM     11  C   UNL     1    -107.915 -49.753 -63.415  1.00  0.00     0.053 C 
BRANCH  11  12
ATOM     12  C   UNL     1    -107.212 -50.736 -64.302  1.00  0.00     0.041 C 
ATOM     13  O   UNL     1    -107.518 -50.826 -65.520  1.00  0.00    -0.550 OA
ATOM     14  O   UNL     1    -106.240 -51.576 -63.773  1.00  0.00    -0.550 OA
ENDBRANCH  11  12
ENDBRANCH  10  11
ENDBRANCH   9  10
ENDBRANCH   8   9
ENDBRANCH   7   8
ENDBRANCH   6   7
ENDBRANCH   5   6
ENDBRANCH   4   5
ENDBRANCH   3   4
ENDBRANCH   2   3
ENDBRANCH   1   2
BRANCH   1  15
ATOM     15  C   UNL     1    -109.721 -47.529 -58.228  1.00  0.00     0.000 C 
BRANCH  15  16
ATOM     16  C   UNL     1    -110.587 -48.607 -57.558  1.00  0.00     0.000 C 
BRANCH  16  17
ATOM     17  C   UNL     1    -110.632 -48.462 -56.027  1.00  0.00     0.000 C 
BRANCH  17  18
ATOM     18  C   UNL     1    -109.500 -47.576 -55.476  1.00  0.00    -0.000 C 
BRANCH  18  19
ATOM     19  C   UNL     1    -108.337 -48.338 -54.815  1.00  0.00    -0.000 C 
BRANCH  19  20
ATOM     20  C   UNL     1    -106.995 -48.129 -55.536  1.00  0.00    -0.000 C 
BRANCH  20  21
ATOM     21  C   UNL     1    -106.577 -49.347 -56.377  1.00  0.00    -0.000 C 
BRANCH  21  22
ATOM     22  C   UNL     1    -106.507 -50.663 -55.571  1.00  0.00    -0.000 C 
BRANCH  22  23
ATOM     23  C   UNL     1    -107.588 -51.667 -56.007  1.00  0.00    -0.000 C 
BRANCH  23  24
ATOM     24  C   UNL     1    -108.142 -51.358 -57.415  1.00  0.00    -0.000 C 
BRANCH  24  25
ATOM     25  C   UNL     1    -109.499 -52.021 -57.703  1.00  0.00    -0.003 C 
ATOM     26  C   UNL     1    -109.401 -53.186 -58.686  1.00  0.00     0.004 C 
ENDBRANCH  24  25
ENDBRANCH  23  24
ENDBRANCH  22  23
ENDBRANCH  21  22
ENDBRANCH  20  21
ENDBRANCH  19  20
ENDBRANCH  18  19
ENDBRANCH  17  18
ENDBRANCH  16  17
ENDBRANCH  15  16
ENDBRANCH   1  15
TORSDOF 22
ENDMDL
MODEL 6
REMARK VINA RESULT:    -3.363     15.739     19.472
REMARK INTER + INTRA:         -11.131
REMARK INTER:                  -7.240
REMARK INTRA:                  -3.891
REMARK UNBOUND:                -3.442
REMARK SMILES CCCCCCCCCCCCCCCCCCCCCCCC(=O)[O-]
REMARK SMILES IDX 13 1 14 2 15 3 16 4 17 5 18 6 19 7 20 8 21 9 22 10 23 11
REMARK SMILES IDX 24 12 25 13 26 14 12 15 11 16 10 17 9 18 8 19 7 20 6 21 5 22
REMARK SMILES IDX 4 23 3 24 2 25 1 26
REMARK H PARENT
REMARK Flexibility Score: inf
ROOT
ATOM      1  C   UNL     1    -109.318 -50.193 -58.803  1.00  0.00     0.000 C 
ENDROOT
BRANCH   1   2
ATOM      2  C   UNL     1    -110.778 -49.719 -58.885  1.00  0.00     0.000 C 
BRANCH   2   3
ATOM      3  C   UNL     1    -111.004 -48.374 -58.180  1.00  0.00     0.000 C 
BRANCH   3   4
ATOM      4  C   UNL     1    -109.842 -47.408 -58.459  1.00  0.00     0.000 C 
BRANCH   4   5
ATOM      5  C   UNL     1    -110.316 -46.033 -58.961  1.00  0.00     0.000 C 
BRANCH   5   6
ATOM      6  C   UNL     1    -110.071 -45.766 -60.460  1.00  0.00     0.000 C 
BRANCH   6   7
ATOM      7  C   UNL     1    -110.649 -46.830 -61.416  1.00  0.00     0.000 C 
BRANCH   7   8
ATOM      8  C   UNL     1    -109.644 -47.409 -62.432  1.00  0.00     0.000 C 
BRANCH   8   9
ATOM      9  C   UNL     1    -108.523 -48.267 -61.816  1.00  0.00     0.000 C 
BRANCH   9  10
ATOM     10  C   UNL     1    -108.371 -49.634 -62.503  1.00  0.00     0.006 C 
BRANCH  10  11
ATOM     11  C   UNL     1    -108.286 -49.507 -64.030  1.00  0.00     0.053 C 
BRANCH  11  12
ATOM     12  C   UNL     1    -107.238 -50.414 -64.602  1.00  0.00     0.041 C 
ATOM     13  O   UNL     1    -106.972 -50.380 -65.832  1.00  0.00    -0.550 OA
ATOM     14  O   UNL     1    -106.580 -51.319 -63.780  1.00  0.00    -0.550 OA
ENDBRANCH  11  12
ENDBRANCH  10  11
ENDBRANCH   9  10
ENDBRANCH   8   9
ENDBRANCH   7   8
ENDBRANCH   6   7
ENDBRANCH   5   6
ENDBRANCH   4   5
ENDBRANCH   3   4
ENDBRANCH   2   3
ENDBRANCH   1   2
BRANCH   1  15
ATOM     15  C   UNL     1    -109.154 -51.466 -57.953  1.00  0.00     0.000 C 
BRANCH  15  16
ATOM     16  C   UNL     1    -109.474 -51.225 -56.469  1.00  0.00     0.000 C 
BRANCH  16  17
ATOM     17  C   UNL     1    -108.890 -52.315 -55.555  1.00  0.00     0.000 C 
BRANCH  17  18
ATOM     18  C   UNL     1    -108.580 -51.805 -54.136  1.00  0.00    -0.000 C 
BRANCH  18  19
ATOM     19  C   UNL     1    -107.103 -51.459 -53.873  1.00  0.00    -0.000 C 
BRANCH  19  20
ATOM     20  C   UNL     1    -106.127 -52.379 -54.624  1.00  0.00    -0.000 C 
BRANCH  20  21
ATOM     21  C   UNL     1    -105.078 -51.597 -55.433  1.00  0.00    -0.000 C 
BRANCH  21  22
ATOM     22  C   UNL     1    -105.659 -50.876 -56.669  1.00  0.00    -0.000 C 
BRANCH  22  23
ATOM     23  C   UNL     1    -105.507 -49.348 -56.571  1.00  0.00    -0.000 C 
BRANCH  23  24
ATOM     24  C   UNL     1    -106.871 -48.626 -56.510  1.00  0.00    -0.000 C 
BRANCH  24  25
ATOM     25  C   UNL     1    -107.164 -47.976 -55.147  1.00  0.00    -0.003 C 
ATOM     26  C   UNL     1    -108.635 -48.069 -54.743  1.00  0.00     0.004 C 
ENDBRANCH  24  25
ENDBRANCH  23  24
ENDBRANCH  22  23
ENDBRANCH  21  22
ENDBRANCH  20  21
ENDBRANCH  19  20
ENDBRANCH  18  19
ENDBRANCH  17  18
ENDBRANCH  16  17
ENDBRANCH  15  16
ENDBRANCH   1  15
TORSDOF 22
ENDMDL
MODEL 7
REMARK VINA RESULT:    -3.320     15.972     19.873
REMARK INTER + INTRA:         -11.033
REMARK INTER:                  -6.227
REMARK INTRA:                  -4.806
REMARK UNBOUND:                -3.442
REMARK SMILES CCCCCCCCCCCCCCCCCCCCCCCC(=O)[O-]
REMARK SMILES IDX 13 1 14 2 15 3 16 4 17 5 18 6 19 7 20 8 21 9 22 10 23 11
REMARK SMILES IDX 24 12 25 13 26 14 12 15 11 16 10 17 9 18 8 19 7 20 6 21 5 22
REMARK SMILES IDX 4 23 3 24 2 25 1 26
REMARK H PARENT
REMARK Flexibility Score: inf
ROOT
ATOM      1  C   UNL     1    -109.115 -51.592 -58.799  1.00  0.00     0.000 C 
ENDROOT
BRANCH   1   2
ATOM      2  C   UNL     1    -110.627 -51.414 -59.009  1.00  0.00     0.000 C 
BRANCH   2   3
ATOM      3  C   UNL     1    -111.251 -50.421 -58.018  1.00  0.00     0.000 C 
BRANCH   3   4
ATOM      4  C   UNL     1    -112.114 -49.384 -58.752  1.00  0.00     0.000 C 
BRANCH   4   5
ATOM      5  C   UNL     1    -111.820 -47.939 -58.309  1.00  0.00     0.000 C 
BRANCH   5   6
ATOM      6  C   UNL     1    -110.885 -47.149 -59.247  1.00  0.00     0.000 C 
BRANCH   6   7
ATOM      7  C   UNL     1    -109.380 -47.297 -58.946  1.00  0.00     0.000 C 
BRANCH   7   8
ATOM      8  C   UNL     1    -108.526 -47.808 -60.124  1.00  0.00     0.000 C 
BRANCH   8   9
ATOM      9  C   UNL     1    -109.284 -48.674 -61.146  1.00  0.00     0.000 C 
BRANCH   9  10
ATOM     10  C   UNL     1    -108.524 -48.836 -62.472  1.00  0.00     0.006 C 
BRANCH  10  11
ATOM     11  C   UNL     1    -108.497 -50.295 -62.948  1.00  0.00     0.053 C 
BRANCH  11  12
ATOM     12  C   UNL     1    -107.372 -50.542 -63.909  1.00  0.00     0.041 C 
ATOM     13  O   UNL     1    -106.498 -51.411 -63.653  1.00  0.00    -0.550 OA
ATOM     14  O   UNL     1    -107.273 -49.786 -65.070  1.00  0.00    -0.550 OA
ENDBRANCH  11  12
ENDBRANCH  10  11
ENDBRANCH   9  10
ENDBRANCH   8   9
ENDBRANCH   7   8
ENDBRANCH   6   7
ENDBRANCH   5   6
ENDBRANCH   4   5
ENDBRANCH   3   4
ENDBRANCH   2   3
ENDBRANCH   1   2
BRANCH   1  15
ATOM     15  C   UNL     1    -108.558 -50.674 -57.696  1.00  0.00     0.000 C 
BRANCH  15  16
ATOM     16  C   UNL     1    -107.303 -51.256 -57.027  1.00  0.00     0.000 C 
BRANCH  16  17
ATOM     17  C   UNL     1    -106.461 -50.183 -56.317  1.00  0.00     0.000 C 
BRANCH  17  18
ATOM     18  C   UNL     1    -107.071 -48.774 -56.424  1.00  0.00    -0.000 C 
BRANCH  18  19
ATOM     19  C   UNL     1    -106.951 -47.910 -55.156  1.00  0.00    -0.000 C 
BRANCH  19  20
ATOM     20  C   UNL     1    -108.274 -47.791 -54.382  1.00  0.00    -0.000 C 
BRANCH  20  21
ATOM     21  C   UNL     1    -109.507 -47.968 -55.284  1.00  0.00    -0.000 C 
BRANCH  21  22
ATOM     22  C   UNL     1    -110.512 -49.018 -54.761  1.00  0.00    -0.000 C 
BRANCH  22  23
ATOM     23  C   UNL     1    -109.807 -50.268 -54.206  1.00  0.00    -0.000 C 
BRANCH  23  24
ATOM     24  C   UNL     1    -110.509 -51.576 -54.632  1.00  0.00    -0.000 C 
BRANCH  24  25
ATOM     25  C   UNL     1    -109.566 -52.789 -54.698  1.00  0.00    -0.003 C 
ATOM     26  C   UNL     1    -109.899 -53.745 -55.841  1.00  0.00     0.004 C 
ENDBRANCH  24  25
ENDBRANCH  23  24
ENDBRANCH  22  23
ENDBRANCH  21  22
ENDBRANCH  20  21
ENDBRANCH  19  20
ENDBRANCH  18  19
ENDBRANCH  17  18
ENDBRANCH  16  17
ENDBRANCH  15  16
ENDBRANCH   1  15
TORSDOF 22
ENDMDL
MODEL 8
REMARK VINA RESULT:    -3.303     16.150     19.011
REMARK INTER + INTRA:         -10.993
REMARK INTER:                  -6.702
REMARK INTRA:                  -4.291
REMARK UNBOUND:                -3.442
REMARK SMILES CCCCCCCCCCCCCCCCCCCCCCCC(=O)[O-]
REMARK SMILES IDX 13 1 14 2 15 3 16 4 17 5 18 6 19 7 20 8 21 9 22 10 23 11
REMARK SMILES IDX 24 12 25 13 26 14 12 15 11 16 10 17 9 18 8 19 7 20 6 21 5 22
REMARK SMILES IDX 4 23 3 24 2 25 1 26
REMARK H PARENT
REMARK Flexibility Score: inf
ROOT
ATOM      1  C   UNL     1    -109.277 -46.812 -61.374  1.00  0.00     0.000 C 
ENDROOT
BRANCH   1   2
ATOM      2  C   UNL     1    -110.604 -46.982 -62.131  1.00  0.00     0.000 C 
BRANCH   2   3
ATOM      3  C   UNL     1    -111.566 -47.952 -61.431  1.00  0.00     0.000 C 
BRANCH   3   4
ATOM      4  C   UNL     1    -111.824 -49.191 -62.302  1.00  0.00     0.000 C 
BRANCH   4   5
ATOM      5  C   UNL     1    -111.721 -50.508 -61.513  1.00  0.00     0.000 C 
BRANCH   5   6
ATOM      6  C   UNL     1    -110.388 -51.267 -61.682  1.00  0.00     0.000 C 
BRANCH   6   7
ATOM      7  C   UNL     1    -109.731 -51.132 -63.071  1.00  0.00     0.000 C 
BRANCH   7   8
ATOM      8  C   UNL     1    -108.257 -50.679 -63.054  1.00  0.00     0.000 C 
BRANCH   8   9
ATOM      9  C   UNL     1    -107.946 -49.454 -63.934  1.00  0.00     0.000 C 
BRANCH   9  10
ATOM     10  C   UNL     1    -109.107 -49.081 -64.870  1.00  0.00     0.006 C 
BRANCH  10  11
ATOM     11  C   UNL     1    -108.672 -49.034 -66.341  1.00  0.00     0.053 C 
BRANCH  11  12
ATOM     12  C   UNL     1    -108.461 -50.409 -66.899  1.00  0.00     0.041 C 
ATOM     13  O   UNL     1    -107.475 -50.648 -67.645  1.00  0.00    -0.550 OA
ATOM     14  O   UNL     1    -109.374 -51.418 -66.621  1.00  0.00    -0.550 OA
ENDBRANCH  11  12
ENDBRANCH  10  11
ENDBRANCH   9  10
ENDBRANCH   8   9
ENDBRANCH   7   8
ENDBRANCH   6   7
ENDBRANCH   5   6
ENDBRANCH   4   5
ENDBRANCH   3   4
ENDBRANCH   2   3
ENDBRANCH   1   2
BRANCH   1  15
ATOM     15  C   UNL     1    -108.856 -48.087 -60.623  1.00  0.00     0.000 C 
BRANCH  15  16
ATOM     16  C   UNL     1    -108.564 -47.824 -59.137  1.00  0.00     0.000 C 
BRANCH  16  17
ATOM     17  C   UNL     1    -109.821 -47.942 -58.258  1.00  0.00     0.000 C 
BRANCH  17  18
ATOM     18  C   UNL     1    -110.351 -49.383 -58.161  1.00  0.00    -0.000 C 
BRANCH  18  19
ATOM     19  C   UNL     1    -109.269 -50.477 -58.110  1.00  0.00    -0.000 C 
BRANCH  19  20
ATOM     20  C   UNL     1    -109.387 -51.382 -56.873  1.00  0.00    -0.000 C 
BRANCH  20  21
ATOM     21  C   UNL     1    -108.038 -51.604 -56.169  1.00  0.00    -0.000 C 
BRANCH  21  22
ATOM     22  C   UNL     1    -106.829 -51.048 -56.954  1.00  0.00    -0.000 C 
BRANCH  22  23
ATOM     23  C   UNL     1    -106.015 -50.041 -56.123  1.00  0.00    -0.000 C 
BRANCH  23  24
ATOM     24  C   UNL     1    -106.491 -48.587 -56.332  1.00  0.00    -0.000 C 
BRANCH  24  25
ATOM     25  C   UNL     1    -107.047 -47.931 -55.057  1.00  0.00    -0.003 C 
ATOM     26  C   UNL     1    -108.543 -48.175 -54.862  1.00  0.00     0.004 C 
ENDBRANCH  24  25
ENDBRANCH  23  24
ENDBRANCH  22  23
ENDBRANCH  21  22
ENDBRANCH  20  21
ENDBRANCH  19  20
ENDBRANCH  18  19
ENDBRANCH  17  18
ENDBRANCH  16  17
ENDBRANCH  15  16
ENDBRANCH   1  15
TORSDOF 22
ENDMDL
MODEL 9
REMARK VINA RESULT:    -3.225     15.712     19.625
REMARK INTER + INTRA:         -10.816
REMARK INTER:                  -7.294
REMARK INTRA:                  -3.522
REMARK UNBOUND:                -3.442
REMARK SMILES CCCCCCCCCCCCCCCCCCCCCCCC(=O)[O-]
REMARK SMILES IDX 13 1 14 2 15 3 16 4 17 5 18 6 19 7 20 8 21 9 22 10 23 11
REMARK SMILES IDX 24 12 25 13 26 14 12 15 11 16 10 17 9 18 8 19 7 20 6 21 5 22
REMARK SMILES IDX 4 23 3 24 2 25 1 26
REMARK H PARENT
REMARK Flexibility Score: inf
ROOT
ATOM      1  C   UNL     1    -109.663 -47.941 -55.028  1.00  0.00     0.000 C 
ENDROOT
BRANCH   1   2
ATOM      2  C   UNL     1    -110.732 -46.882 -55.340  1.00  0.00     0.000 C 
BRANCH   2   3
ATOM      3  C   UNL     1    -110.864 -46.600 -56.844  1.00  0.00     0.000 C 
BRANCH   3   4
ATOM      4  C   UNL     1    -110.377 -47.800 -57.670  1.00  0.00     0.000 C 
BRANCH   4   5
ATOM      5  C   UNL     1    -110.053 -47.429 -59.128  1.00  0.00     0.000 C 
BRANCH   5   6
ATOM      6  C   UNL     1    -108.630 -47.800 -59.594  1.00  0.00     0.000 C 
BRANCH   6   7
ATOM      7  C   UNL     1    -108.459 -47.947 -61.120  1.00  0.00     0.000 C 
BRANCH   7   8
ATOM      8  C   UNL     1    -109.707 -48.454 -61.870  1.00  0.00     0.000 C 
BRANCH   8   9
ATOM      9  C   UNL     1    -109.800 -49.984 -62.014  1.00  0.00     0.000 C 
BRANCH   9  10
ATOM     10  C   UNL     1    -108.540 -50.602 -62.641  1.00  0.00     0.006 C 
BRANCH  10  11
ATOM     11  C   UNL     1    -108.282 -50.075 -64.059  1.00  0.00     0.053 C 
BRANCH  11  12
ATOM     12  C   UNL     1    -107.179 -50.831 -64.738  1.00  0.00     0.041 C 
ATOM     13  O   UNL     1    -106.952 -50.659 -65.964  1.00  0.00    -0.550 OA
ATOM     14  O   UNL     1    -106.424 -51.750 -64.020  1.00  0.00    -0.550 OA
ENDBRANCH  11  12
ENDBRANCH  10  11
ENDBRANCH   9  10
ENDBRANCH   8   9
ENDBRANCH   7   8
ENDBRANCH   6   7
ENDBRANCH   5   6
ENDBRANCH   4   5
ENDBRANCH   3   4
ENDBRANCH   2   3
ENDBRANCH   1   2
BRANCH   1  15
ATOM     15  C   UNL     1    -108.480 -47.371 -54.224  1.00  0.00     0.000 C 
BRANCH  15  16
ATOM     16  C   UNL     1    -107.121 -47.822 -54.781  1.00  0.00     0.000 C 
BRANCH  16  17
ATOM     17  C   UNL     1    -107.245 -48.529 -56.141  1.00  0.00     0.000 C 
BRANCH  17  18
ATOM     18  C   UNL     1    -105.932 -49.191 -56.595  1.00  0.00    -0.000 C 
BRANCH  18  19
ATOM     19  C   UNL     1    -105.944 -50.730 -56.605  1.00  0.00    -0.000 C 
BRANCH  19  20
ATOM     20  C   UNL     1    -106.111 -51.340 -55.204  1.00  0.00    -0.000 C 
BRANCH  20  21
ATOM     21  C   UNL     1    -107.335 -52.265 -55.101  1.00  0.00    -0.000 C 
BRANCH  21  22
ATOM     22  C   UNL     1    -108.671 -51.510 -54.923  1.00  0.00    -0.000 C 
BRANCH  22  23
ATOM     23  C   UNL     1    -109.832 -52.208 -55.653  1.00  0.00    -0.000 C 
BRANCH  23  24
ATOM     24  C   UNL     1    -110.386 -51.360 -56.819  1.00  0.00    -0.000 C 
BRANCH  24  25
ATOM     25  C   UNL     1    -109.355 -51.087 -57.927  1.00  0.00    -0.003 C 
ATOM     26  C   UNL     1    -109.073 -52.310 -58.798  1.00  0.00     0.004 C 
ENDBRANCH  24  25
ENDBRANCH  23  24
ENDBRANCH  22  23
ENDBRANCH  21  22
ENDBRANCH  20  21
ENDBRANCH  19  20
ENDBRANCH  18  19
ENDBRANCH  17  18
ENDBRANCH  16  17
ENDBRANCH  15  16
ENDBRANCH   1  15
TORSDOF 22
ENDMDL
