MODEL 1
REMARK VINA RESULT:    -6.640      0.000      0.000
REMARK INTER + INTRA:         -10.259
REMARK INTER:                  -9.357
REMARK INTRA:                  -0.902
REMARK UNBOUND:                -0.902
REMARK SMILES OC[C@@H]1O[C@@H](O[C@H]2OC=C[C@@H]3[C@@H](O)[C@H]4O[C@@]4(CO)[C@H]23)[C@H](O)[C@@H](O)[C@H]1O
REMARK SMILES IDX 6 1 7 2 10 3 9 4 11 5 8 6 19 7 12 8 16 9 14 10 15 11 13 12
REMARK SMILES IDX 17 14 18 15 5 17 20 18 4 19 22 20 3 21 24 22 21 23 23 25
REMARK SMILES IDX 2 27 1 28 25 30
REMARK H PARENT 13 13 18 16 21 24 23 26 1 29 25 31
REMARK Flexibility Score: inf
ROOT
ATOM      1  O   UNL     1      15.630  22.788 -11.185  1.00  0.00    -0.310 OA
ENDROOT
BRANCH   1   2
ATOM      2  C   UNL     1      16.649  21.891 -10.774  1.00  0.00     0.315 C 
ATOM      3  C   UNL     1      18.593  23.926 -10.327  1.00  0.00     0.018 C 
ATOM      4  C   UNL     1      18.616  23.207 -11.450  1.00  0.00     0.186 C 
ATOM      5  C   UNL     1      17.730  23.547  -9.137  1.00  0.00     0.059 C 
ATOM      6  O   UNL     1      17.786  22.096 -11.607  1.00  0.00    -0.472 OA
ATOM      7  C   UNL     1      17.021  22.184  -9.304  1.00  0.00     0.105 C 
ATOM      8  C   UNL     1      18.616  23.385  -7.889  1.00  0.00     0.154 C 
ATOM      9  C   UNL     1      17.973  21.167  -8.659  1.00  0.00     0.130 C 
ATOM     10  C   UNL     1      18.932  21.893  -7.804  1.00  0.00     0.183 C 
ATOM     11  O   UNL     1      17.882  21.126  -7.253  1.00  0.00    -0.360 OA
BRANCH   8  12
ATOM     12  O   UNL     1      17.913  23.802  -6.746  1.00  0.00    -0.390 OA
ATOM     13  H   UNL     1      17.852  24.791  -6.796  1.00  0.00     0.211 HD
ENDBRANCH   8  12
BRANCH   9  14
ATOM     14  C   UNL     1      18.410  19.843  -9.309  1.00  0.00     0.195 C 
BRANCH  14  15
ATOM     15  O   UNL     1      19.557  20.005 -10.104  1.00  0.00    -0.393 OA
ATOM     16  H   UNL     1      19.254  20.020 -11.050  1.00  0.00     0.210 HD
ENDBRANCH  14  15
ENDBRANCH   9  14
ENDBRANCH   1   2
BRANCH   1  17
ATOM     17  C   UNL     1      14.379  22.459 -10.603  1.00  0.00     0.286 C 
ATOM     18  C   UNL     1      13.498  23.722 -10.493  1.00  0.00     0.202 C 
ATOM     19  O   UNL     1      13.718  21.436 -11.337  1.00  0.00    -0.341 OA
ATOM     20  C   UNL     1      13.059  24.207 -11.885  1.00  0.00     0.179 C 
ATOM     21  C   UNL     1      13.445  21.836 -12.671  1.00  0.00     0.178 C 
ATOM     22  C   UNL     1      12.469  23.038 -12.694  1.00  0.00     0.177 C 
BRANCH  18  23
ATOM     23  O   UNL     1      12.357  23.443  -9.721  1.00  0.00    -0.385 OA
ATOM     24  H   UNL     1      11.608  23.963 -10.115  1.00  0.00     0.211 HD
ENDBRANCH  18  23
BRANCH  20  25
ATOM     25  O   UNL     1      14.163  24.765 -12.554  1.00  0.00    -0.387 OA
ATOM     26  H   UNL     1      14.490  25.521 -11.999  1.00  0.00     0.211 HD
ENDBRANCH  20  25
BRANCH  21  27
ATOM     27  C   UNL     1      12.879  20.628 -13.435  1.00  0.00     0.191 C 
BRANCH  27  28
ATOM     28  O   UNL     1      13.318  20.617 -14.768  1.00  0.00    -0.394 OA
ATOM     29  H   UNL     1      13.827  19.775 -14.894  1.00  0.00     0.210 HD
ENDBRANCH  27  28
ENDBRANCH  21  27
BRANCH  22  30
ATOM     30  O   UNL     1      12.233  23.458 -14.015  1.00  0.00    -0.387 OA
ATOM     31  H   UNL     1      11.630  22.789 -14.433  1.00  0.00     0.211 HD
ENDBRANCH  22  30
ENDBRANCH   1  17
TORSDOF 10
ENDMDL
MODEL 2
REMARK VINA RESULT:    -6.319      1.323      2.405
REMARK INTER + INTRA:          -9.807
REMARK INTER:                  -8.810
REMARK INTRA:                  -0.997
REMARK UNBOUND:                -0.902
REMARK SMILES OC[C@@H]1O[C@@H](O[C@H]2OC=C[C@@H]3[C@@H](O)[C@H]4O[C@@]4(CO)[C@H]23)[C@H](O)[C@@H](O)[C@H]1O
REMARK SMILES IDX 6 1 7 2 10 3 9 4 11 5 8 6 19 7 12 8 16 9 14 10 15 11 13 12
REMARK SMILES IDX 17 14 18 15 5 17 20 18 4 19 22 20 3 21 24 22 21 23 23 25
REMARK SMILES IDX 2 27 1 28 25 30
REMARK H PARENT 13 13 18 16 21 24 23 26 1 29 25 31
REMARK Flexibility Score: inf
ROOT
ATOM      1  O   UNL     1      15.656  22.325 -10.826  1.00  0.00    -0.310 OA
ENDROOT
BRANCH   1   2
ATOM      2  C   UNL     1      16.799  21.545 -10.511  1.00  0.00     0.315 C 
ATOM      3  C   UNL     1      18.528  23.784 -10.163  1.00  0.00     0.018 C 
ATOM      4  C   UNL     1      18.547  23.087 -11.301  1.00  0.00     0.186 C 
ATOM      5  C   UNL     1      17.805  23.292  -8.921  1.00  0.00     0.059 C 
ATOM      6  O   UNL     1      17.839  21.891 -11.421  1.00  0.00    -0.472 OA
ATOM      7  C   UNL     1      17.245  21.859  -9.066  1.00  0.00     0.105 C 
ATOM      8  C   UNL     1      18.795  23.215  -7.746  1.00  0.00     0.154 C 
ATOM      9  C   UNL     1      18.352  20.950  -8.516  1.00  0.00     0.130 C 
ATOM     10  C   UNL     1      19.285  21.769  -7.717  1.00  0.00     0.183 C 
ATOM     11  O   UNL     1      18.372  20.878  -7.108  1.00  0.00    -0.360 OA
BRANCH   8  12
ATOM     12  O   UNL     1      18.138  23.533  -6.546  1.00  0.00    -0.390 OA
ATOM     13  H   UNL     1      18.574  22.999  -5.833  1.00  0.00     0.211 HD
ENDBRANCH   8  12
BRANCH   9  14
ATOM     14  C   UNL     1      18.887  19.693  -9.225  1.00  0.00     0.195 C 
BRANCH  14  15
ATOM     15  O   UNL     1      19.824  20.014 -10.221  1.00  0.00    -0.393 OA
ATOM     16  H   UNL     1      20.710  19.709  -9.894  1.00  0.00     0.210 HD
ENDBRANCH  14  15
ENDBRANCH   9  14
ENDBRANCH   1   2
BRANCH   1  17
ATOM     17  C   UNL     1      14.615  21.530 -11.369  1.00  0.00     0.286 C 
ATOM     18  C   UNL     1      13.893  20.761 -10.242  1.00  0.00     0.202 C 
ATOM     19  O   UNL     1      13.699  22.315 -12.121  1.00  0.00    -0.341 OA
ATOM     20  C   UNL     1      13.095  21.723  -9.347  1.00  0.00     0.179 C 
ATOM     21  C   UNL     1      13.070  23.304 -11.320  1.00  0.00     0.178 C 
ATOM     22  C   UNL     1      12.214  22.646 -10.210  1.00  0.00     0.177 C 
BRANCH  18  23
ATOM     23  O   UNL     1      13.017  19.812 -10.796  1.00  0.00    -0.385 OA
ATOM     24  H   UNL     1      12.109  20.021 -10.450  1.00  0.00     0.211 HD
ENDBRANCH  18  23
BRANCH  20  25
ATOM     25  O   UNL     1      13.985  22.480  -8.564  1.00  0.00    -0.387 OA
ATOM     26  H   UNL     1      14.358  21.871  -7.875  1.00  0.00     0.211 HD
ENDBRANCH  20  25
BRANCH  21  27
ATOM     27  C   UNL     1      12.224  24.204 -12.234  1.00  0.00     0.191 C 
BRANCH  27  28
ATOM     28  O   UNL     1      11.986  25.453 -11.639  1.00  0.00    -0.394 OA
ATOM     29  H   UNL     1      12.566  25.502 -10.835  1.00  0.00     0.210 HD
ENDBRANCH  27  28
ENDBRANCH  21  27
BRANCH  22  30
ATOM     30  O   UNL     1      11.626  23.627  -9.393  1.00  0.00    -0.387 OA
ATOM     31  H   UNL     1      12.003  23.516  -8.483  1.00  0.00     0.211 HD
ENDBRANCH  22  30
ENDBRANCH   1  17
TORSDOF 10
ENDMDL
MODEL 3
REMARK VINA RESULT:    -6.223      1.149      6.340
REMARK INTER + INTRA:          -9.672
REMARK INTER:                  -8.894
REMARK INTRA:                  -0.777
REMARK UNBOUND:                -0.902
REMARK SMILES OC[C@@H]1O[C@@H](O[C@H]2OC=C[C@@H]3[C@@H](O)[C@H]4O[C@@]4(CO)[C@H]23)[C@H](O)[C@@H](O)[C@H]1O
REMARK SMILES IDX 6 1 7 2 10 3 9 4 11 5 8 6 19 7 12 8 16 9 14 10 15 11 13 12
REMARK SMILES IDX 17 14 18 15 5 17 20 18 4 19 22 20 3 21 24 22 21 23 23 25
REMARK SMILES IDX 2 27 1 28 25 30
REMARK H PARENT 13 13 18 16 21 24 23 26 1 29 25 31
REMARK Flexibility Score: inf
ROOT
ATOM      1  O   UNL     1      15.693  22.072  -9.869  1.00  0.00    -0.310 OA
ENDROOT
BRANCH   1   2
ATOM      2  C   UNL     1      14.692  21.641 -10.777  1.00  0.00     0.315 C 
ATOM      3  C   UNL     1      12.620  23.213  -9.613  1.00  0.00     0.018 C 
ATOM      4  C   UNL     1      12.719  21.913  -9.332  1.00  0.00     0.186 C 
ATOM      5  C   UNL     1      13.408  23.864 -10.735  1.00  0.00     0.059 C 
ATOM      6  O   UNL     1      13.613  21.095 -10.024  1.00  0.00    -0.472 OA
ATOM      7  C   UNL     1      14.195  22.851 -11.598  1.00  0.00     0.105 C 
ATOM      8  C   UNL     1      12.439  24.551 -11.714  1.00  0.00     0.154 C 
ATOM      9  C   UNL     1      13.249  22.507 -12.756  1.00  0.00     0.130 C 
ATOM     10  C   UNL     1      12.192  23.535 -12.826  1.00  0.00     0.183 C 
ATOM     11  O   UNL     1      13.235  23.479 -13.778  1.00  0.00    -0.360 OA
BRANCH   8  12
ATOM     12  O   UNL     1      13.031  25.714 -12.235  1.00  0.00    -0.390 OA
ATOM     13  H   UNL     1      12.310  26.221 -12.689  1.00  0.00     0.211 HD
ENDBRANCH   8  12
BRANCH   9  14
ATOM     14  C   UNL     1      12.929  21.079 -13.231  1.00  0.00     0.195 C 
BRANCH  14  15
ATOM     15  O   UNL     1      13.750  20.689 -14.302  1.00  0.00    -0.393 OA
ATOM     16  H   UNL     1      14.687  20.872 -14.031  1.00  0.00     0.210 HD
ENDBRANCH  14  15
ENDBRANCH   9  14
ENDBRANCH   1   2
BRANCH   1  17
ATOM     17  C   UNL     1      16.926  22.315 -10.528  1.00  0.00     0.286 C 
ATOM     18  C   UNL     1      17.598  23.576  -9.945  1.00  0.00     0.202 C 
ATOM     19  O   UNL     1      17.790  21.190 -10.445  1.00  0.00    -0.341 OA
ATOM     20  C   UNL     1      18.076  23.326  -8.505  1.00  0.00     0.179 C 
ATOM     21  C   UNL     1      18.112  20.869  -9.100  1.00  0.00     0.178 C 
ATOM     22  C   UNL     1      18.898  22.026  -8.435  1.00  0.00     0.177 C 
BRANCH  18  23
ATOM     23  O   UNL     1      18.698  23.942 -10.739  1.00  0.00    -0.385 OA
ATOM     24  H   UNL     1      19.394  23.245 -10.607  1.00  0.00     0.211 HD
ENDBRANCH  18  23
BRANCH  20  25
ATOM     25  O   UNL     1      16.962  23.253  -7.648  1.00  0.00    -0.387 OA
ATOM     26  H   UNL     1      16.374  24.022  -7.869  1.00  0.00     0.211 HD
ENDBRANCH  20  25
BRANCH  21  27
ATOM     27  C   UNL     1      18.912  19.557  -9.090  1.00  0.00     0.191 C 
BRANCH  27  28
ATOM     28  O   UNL     1      19.829  19.513 -10.151  1.00  0.00    -0.394 OA
ATOM     29  H   UNL     1      20.583  20.109  -9.903  1.00  0.00     0.210 HD
ENDBRANCH  27  28
ENDBRANCH  21  27
BRANCH  22  30
ATOM     30  O   UNL     1      19.180  21.724  -7.092  1.00  0.00    -0.387 OA
ATOM     31  H   UNL     1      19.401  22.578  -6.638  1.00  0.00     0.211 HD
ENDBRANCH  22  30
ENDBRANCH   1  17
TORSDOF 10
ENDMDL
MODEL 4
REMARK VINA RESULT:    -6.048      1.507      2.904
REMARK INTER + INTRA:          -9.425
REMARK INTER:                  -8.452
REMARK INTRA:                  -0.973
REMARK UNBOUND:                -0.902
REMARK SMILES OC[C@@H]1O[C@@H](O[C@H]2OC=C[C@@H]3[C@@H](O)[C@H]4O[C@@]4(CO)[C@H]23)[C@H](O)[C@@H](O)[C@H]1O
REMARK SMILES IDX 6 1 7 2 10 3 9 4 11 5 8 6 19 7 12 8 16 9 14 10 15 11 13 12
REMARK SMILES IDX 17 14 18 15 5 17 20 18 4 19 22 20 3 21 24 22 21 23 23 25
REMARK SMILES IDX 2 27 1 28 25 30
REMARK H PARENT 13 13 18 16 21 24 23 26 1 29 25 31
REMARK Flexibility Score: inf
ROOT
ATOM      1  O   UNL     1      15.005  21.654 -10.277  1.00  0.00    -0.310 OA
ENDROOT
BRANCH   1   2
ATOM      2  C   UNL     1      15.640  21.769  -9.013  1.00  0.00     0.315 C 
ATOM      3  C   UNL     1      16.328  19.010  -8.838  1.00  0.00     0.018 C 
ATOM      4  C   UNL     1      15.265  19.483  -8.184  1.00  0.00     0.186 C 
ATOM      5  C   UNL     1      17.359  19.921  -9.479  1.00  0.00     0.059 C 
ATOM      6  O   UNL     1      15.017  20.854  -8.117  1.00  0.00    -0.472 OA
ATOM      7  C   UNL     1      17.136  21.417  -9.161  1.00  0.00     0.105 C 
ATOM      8  C   UNL     1      18.753  19.598  -8.913  1.00  0.00     0.154 C 
ATOM      9  C   UNL     1      17.993  21.684  -7.917  1.00  0.00     0.130 C 
ATOM     10  C   UNL     1      18.970  20.588  -7.770  1.00  0.00     0.183 C 
ATOM     11  O   UNL     1      19.360  21.874  -8.207  1.00  0.00    -0.360 OA
BRANCH   8  12
ATOM     12  O   UNL     1      19.727  19.780  -9.909  1.00  0.00    -0.390 OA
ATOM     13  H   UNL     1      20.040  20.718  -9.832  1.00  0.00     0.211 HD
ENDBRANCH   8  12
BRANCH   9  14
ATOM     14  C   UNL     1      17.502  22.416  -6.656  1.00  0.00     0.195 C 
BRANCH  14  15
ATOM     15  O   UNL     1      17.701  23.803  -6.746  1.00  0.00    -0.393 OA
ATOM     16  H   UNL     1      18.647  23.977  -6.499  1.00  0.00     0.210 HD
ENDBRANCH  14  15
ENDBRANCH   9  14
ENDBRANCH   1   2
BRANCH   1  17
ATOM     17  C   UNL     1      13.618  21.938 -10.193  1.00  0.00     0.286 C 
ATOM     18  C   UNL     1      13.386  23.463 -10.238  1.00  0.00     0.202 C 
ATOM     19  O   UNL     1      12.890  21.279 -11.220  1.00  0.00    -0.341 OA
ATOM     20  C   UNL     1      13.720  24.028 -11.629  1.00  0.00     0.179 C 
ATOM     21  C   UNL     1      13.306  21.696 -12.512  1.00  0.00     0.178 C 
ATOM     22  C   UNL     1      13.015  23.202 -12.721  1.00  0.00     0.177 C 
BRANCH  18  23
ATOM     23  O   UNL     1      12.045  23.752  -9.933  1.00  0.00    -0.385 OA
ATOM     24  H   UNL     1      11.511  22.958 -10.198  1.00  0.00     0.211 HD
ENDBRANCH  18  23
BRANCH  20  25
ATOM     25  O   UNL     1      15.114  24.010 -11.818  1.00  0.00    -0.387 OA
ATOM     26  H   UNL     1      15.348  24.822 -12.340  1.00  0.00     0.211 HD
ENDBRANCH  20  25
BRANCH  21  27
ATOM     27  C   UNL     1      12.588  20.828 -13.558  1.00  0.00     0.191 C 
BRANCH  27  28
ATOM     28  O   UNL     1      13.368  20.674 -14.714  1.00  0.00    -0.394 OA
ATOM     29  H   UNL     1      13.989  21.448 -14.745  1.00  0.00     0.210 HD
ENDBRANCH  27  28
ENDBRANCH  21  27
BRANCH  22  30
ATOM     30  O   UNL     1      13.465  23.622 -13.985  1.00  0.00    -0.387 OA
ATOM     31  H   UNL     1      13.137  22.961 -14.648  1.00  0.00     0.211 HD
ENDBRANCH  22  30
ENDBRANCH   1  17
TORSDOF 10
ENDMDL
MODEL 5
REMARK VINA RESULT:    -5.992      1.499      6.666
REMARK INTER + INTRA:          -9.346
REMARK INTER:                  -8.366
REMARK INTRA:                  -0.979
REMARK UNBOUND:                -0.902
REMARK SMILES OC[C@@H]1O[C@@H](O[C@H]2OC=C[C@@H]3[C@@H](O)[C@H]4O[C@@]4(CO)[C@H]23)[C@H](O)[C@@H](O)[C@H]1O
REMARK SMILES IDX 6 1 7 2 10 3 9 4 11 5 8 6 19 7 12 8 16 9 14 10 15 11 13 12
REMARK SMILES IDX 17 14 18 15 5 17 20 18 4 19 22 20 3 21 24 22 21 23 23 25
REMARK SMILES IDX 2 27 1 28 25 30
REMARK H PARENT 13 13 18 16 21 24 23 26 1 29 25 31
REMARK Flexibility Score: inf
ROOT
ATOM      1  O   UNL     1      15.409  22.679 -10.598  1.00  0.00    -0.310 OA
ENDROOT
BRANCH   1   2
ATOM      2  C   UNL     1      14.411  22.217 -11.494  1.00  0.00     0.315 C 
ATOM      3  C   UNL     1      12.276  23.599 -10.209  1.00  0.00     0.018 C 
ATOM      4  C   UNL     1      12.469  22.298  -9.985  1.00  0.00     0.186 C 
ATOM      5  C   UNL     1      12.984  24.345 -11.325  1.00  0.00     0.059 C 
ATOM      6  O   UNL     1      13.394  21.571 -10.735  1.00  0.00    -0.472 OA
ATOM      7  C   UNL     1      13.810  23.422 -12.251  1.00  0.00     0.105 C 
ATOM      8  C   UNL     1      11.942  25.003 -12.248  1.00  0.00     0.154 C 
ATOM      9  C   UNL     1      12.854  23.060 -13.395  1.00  0.00     0.130 C 
ATOM     10  C   UNL     1      11.730  24.016 -13.394  1.00  0.00     0.183 C 
ATOM     11  O   UNL     1      12.745  24.068 -14.376  1.00  0.00    -0.360 OA
BRANCH   8  12
ATOM     12  O   UNL     1      12.440  26.222 -12.737  1.00  0.00    -0.390 OA
ATOM     13  H   UNL     1      11.739  26.596 -13.332  1.00  0.00     0.211 HD
ENDBRANCH   8  12
BRANCH   9  14
ATOM     14  C   UNL     1      12.616  21.633 -13.919  1.00  0.00     0.195 C 
BRANCH  14  15
ATOM     15  O   UNL     1      11.718  20.922 -13.106  1.00  0.00    -0.393 OA
ATOM     16  H   UNL     1      11.460  21.526 -12.362  1.00  0.00     0.210 HD
ENDBRANCH  14  15
ENDBRANCH   9  14
ENDBRANCH   1   2
BRANCH   1  17
ATOM     17  C   UNL     1      16.029  21.606  -9.908  1.00  0.00     0.286 C 
ATOM     18  C   UNL     1      17.450  21.372 -10.462  1.00  0.00     0.202 C 
ATOM     19  O   UNL     1      16.058  21.837  -8.506  1.00  0.00    -0.341 OA
ATOM     20  C   UNL     1      18.382  22.539 -10.093  1.00  0.00     0.179 C 
ATOM     21  C   UNL     1      16.798  23.004  -8.178  1.00  0.00     0.178 C 
ATOM     22  C   UNL     1      18.283  22.842  -8.587  1.00  0.00     0.177 C 
BRANCH  18  23
ATOM     23  O   UNL     1      17.977  20.178  -9.939  1.00  0.00    -0.385 OA
ATOM     24  H   UNL     1      18.863  20.400  -9.550  1.00  0.00     0.211 HD
ENDBRANCH  18  23
BRANCH  20  25
ATOM     25  O   UNL     1      18.033  23.672 -10.850  1.00  0.00    -0.387 OA
ATOM     26  H   UNL     1      17.103  23.535 -11.169  1.00  0.00     0.211 HD
ENDBRANCH  20  25
BRANCH  21  27
ATOM     27  C   UNL     1      16.647  23.269  -6.672  1.00  0.00     0.191 C 
BRANCH  27  28
ATOM     28  O   UNL     1      16.802  24.632  -6.377  1.00  0.00    -0.394 OA
ATOM     29  H   UNL     1      16.008  25.097  -6.750  1.00  0.00     0.210 HD
ENDBRANCH  27  28
ENDBRANCH  21  27
BRANCH  22  30
ATOM     30  O   UNL     1      19.004  24.014  -8.299  1.00  0.00    -0.387 OA
ATOM     31  H   UNL     1      19.877  23.735  -7.918  1.00  0.00     0.211 HD
ENDBRANCH  22  30
ENDBRANCH   1  17
TORSDOF 10
ENDMDL
MODEL 6
REMARK VINA RESULT:    -5.985      3.299      5.781
REMARK INTER + INTRA:          -9.336
REMARK INTER:                  -8.691
REMARK INTRA:                  -0.646
REMARK UNBOUND:                -0.902
REMARK SMILES OC[C@@H]1O[C@@H](O[C@H]2OC=C[C@@H]3[C@@H](O)[C@H]4O[C@@]4(CO)[C@H]23)[C@H](O)[C@@H](O)[C@H]1O
REMARK SMILES IDX 6 1 7 2 10 3 9 4 11 5 8 6 19 7 12 8 16 9 14 10 15 11 13 12
REMARK SMILES IDX 17 14 18 15 5 17 20 18 4 19 22 20 3 21 24 22 21 23 23 25
REMARK SMILES IDX 2 27 1 28 25 30
REMARK H PARENT 13 13 18 16 21 24 23 26 1 29 25 31
REMARK Flexibility Score: inf
ROOT
ATOM      1  O   UNL     1      14.751  21.421  -7.305  1.00  0.00    -0.310 OA
ENDROOT
BRANCH   1   2
ATOM      2  C   UNL     1      16.146  21.610  -7.477  1.00  0.00     0.315 C 
ATOM      3  C   UNL     1      16.299  20.099  -9.887  1.00  0.00     0.018 C 
ATOM      4  C   UNL     1      16.664  19.554  -8.725  1.00  0.00     0.186 C 
ATOM      5  C   UNL     1      16.041  21.587 -10.042  1.00  0.00     0.059 C 
ATOM      6  O   UNL     1      16.762  20.329  -7.569  1.00  0.00    -0.472 OA
ATOM      7  C   UNL     1      16.395  22.403  -8.778  1.00  0.00     0.105 C 
ATOM      8  C   UNL     1      16.947  22.154 -11.149  1.00  0.00     0.154 C 
ATOM      9  C   UNL     1      17.845  22.854  -8.998  1.00  0.00     0.130 C 
ATOM     10  C   UNL     1      18.176  22.706 -10.429  1.00  0.00     0.183 C 
ATOM     11  O   UNL     1      17.962  23.975  -9.845  1.00  0.00    -0.360 OA
BRANCH   8  12
ATOM     12  O   UNL     1      16.278  23.182 -11.833  1.00  0.00    -0.390 OA
ATOM     13  H   UNL     1      15.356  22.856 -12.004  1.00  0.00     0.211 HD
ENDBRANCH   8  12
BRANCH   9  14
ATOM     14  C   UNL     1      18.970  22.722  -7.957  1.00  0.00     0.195 C 
BRANCH  14  15
ATOM     15  O   UNL     1      18.935  23.762  -7.014  1.00  0.00    -0.393 OA
ATOM     16  H   UNL     1      19.858  24.123  -6.946  1.00  0.00     0.210 HD
ENDBRANCH  14  15
ENDBRANCH   9  14
ENDBRANCH   1   2
BRANCH   1  17
ATOM     17  C   UNL     1      14.047  22.652  -7.343  1.00  0.00     0.286 C 
ATOM     18  C   UNL     1      12.527  22.391  -7.393  1.00  0.00     0.202 C 
ATOM     19  O   UNL     1      14.389  23.480  -6.240  1.00  0.00    -0.341 OA
ATOM     20  C   UNL     1      12.027  21.806  -6.061  1.00  0.00     0.179 C 
ATOM     21  C   UNL     1      14.061  22.871  -5.001  1.00  0.00     0.178 C 
ATOM     22  C   UNL     1      12.531  22.660  -4.883  1.00  0.00     0.177 C 
BRANCH  18  23
ATOM     23  O   UNL     1      11.844  23.591  -7.654  1.00  0.00    -0.385 OA
ATOM     24  H   UNL     1      11.117  23.662  -6.981  1.00  0.00     0.211 HD
ENDBRANCH  18  23
BRANCH  20  25
ATOM     25  O   UNL     1      12.476  20.478  -5.937  1.00  0.00    -0.387 OA
ATOM     26  H   UNL     1      11.772  19.895  -6.324  1.00  0.00     0.211 HD
ENDBRANCH  20  25
BRANCH  21  27
ATOM     27  C   UNL     1      14.602  23.754  -3.865  1.00  0.00     0.191 C 
BRANCH  27  28
ATOM     28  O   UNL     1      15.318  24.850  -4.370  1.00  0.00    -0.394 OA
ATOM     29  H   UNL     1      15.227  25.581  -3.706  1.00  0.00     0.210 HD
ENDBRANCH  27  28
ENDBRANCH  21  27
BRANCH  22  30
ATOM     30  O   UNL     1      12.212  22.020  -3.673  1.00  0.00    -0.387 OA
ATOM     31  H   UNL     1      12.472  21.067  -3.767  1.00  0.00     0.211 HD
ENDBRANCH  22  30
ENDBRANCH   1  17
TORSDOF 10
ENDMDL
MODEL 7
REMARK VINA RESULT:    -5.893      3.693      6.475
REMARK INTER + INTRA:          -9.206
REMARK INTER:                  -8.385
REMARK INTRA:                  -0.821
REMARK UNBOUND:                -0.902
REMARK SMILES OC[C@@H]1O[C@@H](O[C@H]2OC=C[C@@H]3[C@@H](O)[C@H]4O[C@@]4(CO)[C@H]23)[C@H](O)[C@@H](O)[C@H]1O
REMARK SMILES IDX 6 1 7 2 10 3 9 4 11 5 8 6 19 7 12 8 16 9 14 10 15 11 13 12
REMARK SMILES IDX 17 14 18 15 5 17 20 18 4 19 22 20 3 21 24 22 21 23 23 25
REMARK SMILES IDX 2 27 1 28 25 30
REMARK H PARENT 13 13 18 16 21 24 23 26 1 29 25 31
REMARK Flexibility Score: inf
ROOT
ATOM      1  O   UNL     1      15.926  22.439  -7.528  1.00  0.00    -0.310 OA
ENDROOT
BRANCH   1   2
ATOM      2  C   UNL     1      14.951  23.152  -6.785  1.00  0.00     0.315 C 
ATOM      3  C   UNL     1      14.380  20.997  -5.010  1.00  0.00     0.018 C 
ATOM      4  C   UNL     1      13.572  21.254  -6.040  1.00  0.00     0.186 C 
ATOM      5  C   UNL     1      15.469  21.959  -4.571  1.00  0.00     0.059 C 
ATOM      6  O   UNL     1      13.738  22.405  -6.811  1.00  0.00    -0.472 OA
ATOM      7  C   UNL     1      15.435  23.307  -5.327  1.00  0.00     0.105 C 
ATOM      8  C   UNL     1      15.265  22.328  -3.091  1.00  0.00     0.154 C 
ATOM      9  C   UNL     1      14.574  24.225  -4.449  1.00  0.00     0.130 C 
ATOM     10  C   UNL     1      14.475  23.634  -3.100  1.00  0.00     0.183 C 
ATOM     11  O   UNL     1      15.273  24.773  -3.354  1.00  0.00    -0.360 OA
BRANCH   8  12
ATOM     12  O   UNL     1      16.511  22.513  -2.469  1.00  0.00    -0.390 OA
ATOM     13  H   UNL     1      16.623  21.764  -1.829  1.00  0.00     0.211 HD
ENDBRANCH   8  12
BRANCH   9  14
ATOM     14  C   UNL     1      13.416  25.096  -4.966  1.00  0.00     0.195 C 
BRANCH  14  15
ATOM     15  O   UNL     1      13.743  26.463  -4.949  1.00  0.00    -0.393 OA
ATOM     16  H   UNL     1      13.435  26.845  -5.812  1.00  0.00     0.210 HD
ENDBRANCH  14  15
ENDBRANCH   9  14
ENDBRANCH   1   2
BRANCH   1  17
ATOM     17  C   UNL     1      17.052  23.250  -7.825  1.00  0.00     0.286 C 
ATOM     18  C   UNL     1      18.312  22.676  -7.143  1.00  0.00     0.202 C 
ATOM     19  O   UNL     1      17.243  23.381  -9.227  1.00  0.00    -0.341 OA
ATOM     20  C   UNL     1      18.727  21.345  -7.791  1.00  0.00     0.179 C 
ATOM     21  C   UNL     1      17.480  22.126  -9.847  1.00  0.00     0.178 C 
ATOM     22  C   UNL     1      18.794  21.497  -9.322  1.00  0.00     0.177 C 
BRANCH  18  23
ATOM     23  O   UNL     1      19.373  23.592  -7.251  1.00  0.00    -0.385 OA
ATOM     24  H   UNL     1      19.019  24.477  -6.971  1.00  0.00     0.211 HD
ENDBRANCH  18  23
BRANCH  20  25
ATOM     25  O   UNL     1      17.806  20.343  -7.433  1.00  0.00    -0.387 OA
ATOM     26  H   UNL     1      16.999  20.802  -7.081  1.00  0.00     0.211 HD
ENDBRANCH  20  25
BRANCH  21  27
ATOM     27  C   UNL     1      17.517  22.334 -11.369  1.00  0.00     0.191 C 
BRANCH  27  28
ATOM     28  O   UNL     1      18.805  22.118 -11.881  1.00  0.00    -0.394 OA
ATOM     29  H   UNL     1      18.701  21.542 -12.683  1.00  0.00     0.210 HD
ENDBRANCH  27  28
ENDBRANCH  21  27
BRANCH  22  30
ATOM     30  O   UNL     1      19.005  20.236  -9.907  1.00  0.00    -0.387 OA
ATOM     31  H   UNL     1      18.146  19.952 -10.314  1.00  0.00     0.211 HD
ENDBRANCH  22  30
ENDBRANCH   1  17
TORSDOF 10
ENDMDL
MODEL 8
REMARK VINA RESULT:    -5.833      2.948      5.586
REMARK INTER + INTRA:          -9.121
REMARK INTER:                  -8.088
REMARK INTRA:                  -1.034
REMARK UNBOUND:                -0.902
REMARK SMILES OC[C@@H]1O[C@@H](O[C@H]2OC=C[C@@H]3[C@@H](O)[C@H]4O[C@@]4(CO)[C@H]23)[C@H](O)[C@@H](O)[C@H]1O
REMARK SMILES IDX 6 1 7 2 10 3 9 4 11 5 8 6 19 7 12 8 16 9 14 10 15 11 13 12
REMARK SMILES IDX 17 14 18 15 5 17 20 18 4 19 22 20 3 21 24 22 21 23 23 25
REMARK SMILES IDX 2 27 1 28 25 30
REMARK H PARENT 13 13 18 16 21 24 23 26 1 29 25 31
REMARK Flexibility Score: inf
ROOT
ATOM      1  O   UNL     1      16.718  20.621  -8.038  1.00  0.00    -0.310 OA
ENDROOT
BRANCH   1   2
ATOM      2  C   UNL     1      17.262  20.105  -6.833  1.00  0.00     0.315 C 
ATOM      3  C   UNL     1      15.618  17.778  -6.806  1.00  0.00     0.018 C 
ATOM      4  C   UNL     1      15.310  18.830  -6.045  1.00  0.00     0.186 C 
ATOM      5  C   UNL     1      16.957  17.647  -7.509  1.00  0.00     0.059 C 
ATOM      6  O   UNL     1      16.193  19.902  -5.913  1.00  0.00    -0.472 OA
ATOM      7  C   UNL     1      17.960  18.760  -7.126  1.00  0.00     0.105 C 
ATOM      8  C   UNL     1      17.637  16.335  -7.081  1.00  0.00     0.154 C 
ATOM      9  C   UNL     1      18.763  18.175  -5.956  1.00  0.00     0.130 C 
ATOM     10  C   UNL     1      18.570  16.712  -5.932  1.00  0.00     0.183 C 
ATOM     11  O   UNL     1      19.785  17.292  -6.362  1.00  0.00    -0.360 OA
BRANCH   8  12
ATOM     12  O   UNL     1      18.373  15.806  -8.154  1.00  0.00    -0.390 OA
ATOM     13  H   UNL     1      19.292  16.169  -8.075  1.00  0.00     0.211 HD
ENDBRANCH   8  12
BRANCH   9  14
ATOM     14  C   UNL     1      19.044  18.910  -4.634  1.00  0.00     0.195 C 
BRANCH  14  15
ATOM     15  O   UNL     1      17.951  18.840  -3.755  1.00  0.00    -0.393 OA
ATOM     16  H   UNL     1      17.794  17.878  -3.563  1.00  0.00     0.210 HD
ENDBRANCH  14  15
ENDBRANCH   9  14
ENDBRANCH   1   2
BRANCH   1  17
ATOM     17  C   UNL     1      16.748  22.039  -8.059  1.00  0.00     0.286 C 
ATOM     18  C   UNL     1      18.174  22.534  -8.384  1.00  0.00     0.202 C 
ATOM     19  O   UNL     1      15.801  22.565  -8.979  1.00  0.00    -0.341 OA
ATOM     20  C   UNL     1      18.548  22.208  -9.839  1.00  0.00     0.179 C 
ATOM     21  C   UNL     1      16.065  22.140 -10.308  1.00  0.00     0.178 C 
ATOM     22  C   UNL     1      17.434  22.677 -10.793  1.00  0.00     0.177 C 
BRANCH  18  23
ATOM     23  O   UNL     1      18.254  23.923  -8.187  1.00  0.00    -0.385 OA
ATOM     24  H   UNL     1      17.322  24.263  -8.142  1.00  0.00     0.211 HD
ENDBRANCH  18  23
BRANCH  20  25
ATOM     25  O   UNL     1      18.760  20.823  -9.969  1.00  0.00    -0.387 OA
ATOM     26  H   UNL     1      18.302  20.386  -9.204  1.00  0.00     0.211 HD
ENDBRANCH  20  25
BRANCH  21  27
ATOM     27  C   UNL     1      14.915  22.617 -11.209  1.00  0.00     0.191 C 
BRANCH  27  28
ATOM     28  O   UNL     1      15.320  23.678 -12.032  1.00  0.00    -0.394 OA
ATOM     29  H   UNL     1      15.287  24.500 -11.477  1.00  0.00     0.210 HD
ENDBRANCH  27  28
ENDBRANCH  21  27
BRANCH  22  30
ATOM     30  O   UNL     1      17.711  22.221 -12.093  1.00  0.00    -0.387 OA
ATOM     31  H   UNL     1      18.643  22.485 -12.305  1.00  0.00     0.211 HD
ENDBRANCH  22  30
ENDBRANCH   1  17
TORSDOF 10
ENDMDL
MODEL 9
REMARK VINA RESULT:    -5.817      3.541      5.890
REMARK INTER + INTRA:          -9.099
REMARK INTER:                  -8.698
REMARK INTRA:                  -0.402
REMARK UNBOUND:                -0.902
REMARK SMILES OC[C@@H]1O[C@@H](O[C@H]2OC=C[C@@H]3[C@@H](O)[C@H]4O[C@@]4(CO)[C@H]23)[C@H](O)[C@@H](O)[C@H]1O
REMARK SMILES IDX 6 1 7 2 10 3 9 4 11 5 8 6 19 7 12 8 16 9 14 10 15 11 13 12
REMARK SMILES IDX 17 14 18 15 5 17 20 18 4 19 22 20 3 21 24 22 21 23 23 25
REMARK SMILES IDX 2 27 1 28 25 30
REMARK H PARENT 13 13 18 16 21 24 23 26 1 29 25 31
REMARK Flexibility Score: inf
ROOT
ATOM      1  O   UNL     1      14.715  22.570  -6.972  1.00  0.00    -0.310 OA
ENDROOT
BRANCH   1   2
ATOM      2  C   UNL     1      16.102  22.356  -7.180  1.00  0.00     0.315 C 
ATOM      3  C   UNL     1      15.751  20.740  -9.500  1.00  0.00     0.018 C 
ATOM      4  C   UNL     1      15.990  20.175  -8.315  1.00  0.00     0.186 C 
ATOM      5  C   UNL     1      15.909  22.231  -9.737  1.00  0.00     0.059 C 
ATOM      6  O   UNL     1      16.337  20.951  -7.208  1.00  0.00    -0.472 OA
ATOM      7  C   UNL     1      16.517  22.981  -8.529  1.00  0.00     0.105 C 
ATOM      8  C   UNL     1      16.899  22.467 -10.891  1.00  0.00     0.154 C 
ATOM      9  C   UNL     1      18.027  22.999  -8.801  1.00  0.00     0.130 C 
ATOM     10  C   UNL     1      18.256  22.692 -10.227  1.00  0.00     0.183 C 
ATOM     11  O   UNL     1      18.422  23.999  -9.715  1.00  0.00    -0.360 OA
BRANCH   8  12
ATOM     12  O   UNL     1      16.518  23.604 -11.622  1.00  0.00    -0.390 OA
ATOM     13  H   UNL     1      17.254  24.263 -11.527  1.00  0.00     0.211 HD
ENDBRANCH   8  12
BRANCH   9  14
ATOM     14  C   UNL     1      19.106  22.613  -7.775  1.00  0.00     0.195 C 
BRANCH  14  15
ATOM     15  O   UNL     1      19.347  23.647  -6.855  1.00  0.00    -0.393 OA
ATOM     16  H   UNL     1      19.844  23.248  -6.094  1.00  0.00     0.210 HD
ENDBRANCH  14  15
ENDBRANCH   9  14
ENDBRANCH   1   2
BRANCH   1  17
ATOM     17  C   UNL     1      14.280  22.016  -5.742  1.00  0.00     0.286 C 
ATOM     18  C   UNL     1      15.164  22.532  -4.586  1.00  0.00     0.202 C 
ATOM     19  O   UNL     1      12.908  22.299  -5.501  1.00  0.00    -0.341 OA
ATOM     20  C   UNL     1      14.923  24.031  -4.339  1.00  0.00     0.179 C 
ATOM     21  C   UNL     1      12.662  23.694  -5.420  1.00  0.00     0.178 C 
ATOM     22  C   UNL     1      13.414  24.313  -4.216  1.00  0.00     0.177 C 
BRANCH  18  23
ATOM     23  O   UNL     1      14.878  21.819  -3.410  1.00  0.00    -0.385 OA
ATOM     24  H   UNL     1      13.908  21.933  -3.231  1.00  0.00     0.211 HD
ENDBRANCH  18  23
BRANCH  20  25
ATOM     25  O   UNL     1      15.481  24.775  -5.394  1.00  0.00    -0.387 OA
ATOM     26  H   UNL     1      16.402  25.024  -5.120  1.00  0.00     0.211 HD
ENDBRANCH  20  25
BRANCH  21  27
ATOM     27  C   UNL     1      11.145  23.917  -5.320  1.00  0.00     0.191 C 
BRANCH  27  28
ATOM     28  O   UNL     1      10.604  24.302  -6.556  1.00  0.00    -0.394 OA
ATOM     29  H   UNL     1      10.930  23.648  -7.227  1.00  0.00     0.210 HD
ENDBRANCH  27  28
ENDBRANCH  21  27
BRANCH  22  30
ATOM     30  O   UNL     1      13.203  25.702  -4.162  1.00  0.00    -0.387 OA
ATOM     31  H   UNL     1      13.713  26.106  -4.911  1.00  0.00     0.211 HD
ENDBRANCH  22  30
ENDBRANCH   1  17
TORSDOF 10
ENDMDL
