MODEL 1
REMARK VINA RESULT:    -3.917      0.000      0.000
REMARK INTER + INTRA:          -4.490
REMARK INTER:                  -5.291
REMARK INTRA:                   0.801
REMARK UNBOUND:                 0.801
REMARK SMILES O=c1c(-c2ccc(O)cc2)coc2c([C@@H]3O[C@H](CO)[C@H](O)[C@H](O)[C@@H]3O)c(O)ccc12
REMARK SMILES IDX 3 1 11 2 12 3 13 4 30 5 2 6 1 7 29 8 28 9 26 10 14 11 4 12
REMARK SMILES IDX 5 13 6 14 7 15 10 16 9 17 8 18 15 20 24 21 16 22 22 23 17 24
REMARK SMILES IDX 20 25 25 26 23 28 18 30 19 31 21 33 27 35
REMARK H PARENT 8 19 25 27 23 29 19 32 21 34 27 36
REMARK Flexibility Score: inf
ROOT
ATOM      1  C   UNL     1      20.550  14.335   3.415  1.00  0.00     0.065 A 
ATOM      2  C   UNL     1      20.383  15.633   3.918  1.00  0.00     0.208 A 
ATOM      3  O   UNL     1      21.426  16.430   4.109  1.00  0.00    -0.463 OA
ATOM      4  C   UNL     1      22.680  16.068   3.845  1.00  0.00     0.147 A 
ATOM      5  C   UNL     1      22.940  14.776   3.332  1.00  0.00     0.066 A 
ATOM      6  C   UNL     1      21.858  13.901   3.126  1.00  0.00     0.200 A 
ATOM      7  O   UNL     1      22.057  12.729   2.703  1.00  0.00    -0.288 OA
ATOM      8  C   UNL     1      24.259  14.398   3.039  1.00  0.00     0.020 A 
ATOM      9  C   UNL     1      25.305  15.296   3.235  1.00  0.00     0.047 A 
ATOM     10  C   UNL     1      25.060  16.579   3.737  1.00  0.00     0.125 A 
ATOM     11  C   UNL     1      23.745  16.974   4.073  1.00  0.00     0.069 A 
ENDROOT
BRANCH   1  12
ATOM     12  C   UNL     1      19.367  13.464   3.205  1.00  0.00    -0.011 A 
ATOM     13  C   UNL     1      18.288  13.505   4.105  1.00  0.00     0.013 A 
ATOM     14  C   UNL     1      17.168  12.693   3.904  1.00  0.00     0.047 A 
ATOM     15  C   UNL     1      17.111  11.833   2.800  1.00  0.00     0.115 A 
ATOM     16  C   UNL     1      19.299  12.603   2.095  1.00  0.00     0.013 A 
ATOM     17  C   UNL     1      18.178  11.792   1.897  1.00  0.00     0.047 A 
BRANCH  15  18
ATOM     18  O   UNL     1      16.000  11.019   2.590  1.00  0.00    -0.508 OA
ATOM     19  H   UNL     1      16.100  10.038   2.353  1.00  0.00     0.293 HD
ENDBRANCH  15  18
ENDBRANCH   1  12
BRANCH  11  20
ATOM     20  C   UNL     1      23.492  18.381   4.599  1.00  0.00     0.188 C 
ATOM     21  C   UNL     1      22.100  18.473   5.273  1.00  0.00     0.179 C 
ATOM     22  O   UNL     1      24.521  18.765   5.499  1.00  0.00    -0.362 OA
ATOM     23  C   UNL     1      21.885  19.901   5.811  1.00  0.00     0.177 C 
ATOM     24  C   UNL     1      24.388  20.128   5.865  1.00  0.00     0.176 C 
ATOM     25  C   UNL     1      23.086  20.351   6.664  1.00  0.00     0.177 C 
BRANCH  21  26
ATOM     26  O   UNL     1      21.997  17.551   6.331  1.00  0.00    -0.387 OA
ATOM     27  H   UNL     1      22.778  17.698   6.925  1.00  0.00     0.211 HD
ENDBRANCH  21  26
BRANCH  23  28
ATOM     28  O   UNL     1      20.704  19.971   6.569  1.00  0.00    -0.387 OA
ATOM     29  H   UNL     1      19.960  20.118   5.929  1.00  0.00     0.211 HD
ENDBRANCH  23  28
BRANCH  24  30
ATOM     30  C   UNL     1      25.618  20.547   6.684  1.00  0.00     0.191 C 
BRANCH  30  31
ATOM     31  O   UNL     1      26.062  19.481   7.477  1.00  0.00    -0.394 OA
ATOM     32  H   UNL     1      27.042  19.597   7.587  1.00  0.00     0.210 HD
ENDBRANCH  30  31
ENDBRANCH  24  30
BRANCH  25  33
ATOM     33  O   UNL     1      23.134  19.626   7.868  1.00  0.00    -0.388 OA
ATOM     34  H   UNL     1      22.699  18.750   7.696  1.00  0.00     0.211 HD
ENDBRANCH  25  33
ENDBRANCH  11  20
BRANCH  10  35
ATOM     35  O   UNL     1      26.125  17.466   3.900  1.00  0.00    -0.507 OA
ATOM     36  H   UNL     1      26.168  18.345   3.396  1.00  0.00     0.293 HD
ENDBRANCH  10  35
TORSDOF 9
ENDMDL
MODEL 2
REMARK VINA RESULT:    -2.534     14.714     17.878
REMARK INTER + INTRA:          -2.622
REMARK INTER:                  -2.401
REMARK INTRA:                  -0.221
REMARK UNBOUND:                 0.801
REMARK SMILES O=c1c(-c2ccc(O)cc2)coc2c([C@@H]3O[C@H](CO)[C@H](O)[C@H](O)[C@@H]3O)c(O)ccc12
REMARK SMILES IDX 3 1 11 2 12 3 13 4 30 5 2 6 1 7 29 8 28 9 26 10 14 11 4 12
REMARK SMILES IDX 5 13 6 14 7 15 10 16 9 17 8 18 15 20 24 21 16 22 22 23 17 24
REMARK SMILES IDX 20 25 25 26 23 28 18 30 19 31 21 33 27 35
REMARK H PARENT 8 19 25 27 23 29 19 32 21 34 27 36
REMARK Flexibility Score: inf
ROOT
ATOM      1  C   UNL     1      16.885  19.336  19.087  1.00  0.00     0.065 A 
ATOM      2  C   UNL     1      15.677  19.485  19.783  1.00  0.00     0.208 A 
ATOM      3  O   UNL     1      14.519  19.533  19.139  1.00  0.00    -0.463 OA
ATOM      4  C   UNL     1      14.417  19.446  17.814  1.00  0.00     0.147 A 
ATOM      5  C   UNL     1      15.585  19.292  17.032  1.00  0.00     0.066 A 
ATOM      6  C   UNL     1      16.832  19.247  17.683  1.00  0.00     0.200 A 
ATOM      7  O   UNL     1      17.897  19.145  17.014  1.00  0.00    -0.288 OA
ATOM      8  C   UNL     1      15.478  19.185  15.638  1.00  0.00     0.020 A 
ATOM      9  C   UNL     1      14.226  19.212  15.027  1.00  0.00     0.047 A 
ATOM     10  C   UNL     1      13.063  19.359  15.789  1.00  0.00     0.125 A 
ATOM     11  C   UNL     1      13.144  19.503  17.193  1.00  0.00     0.069 A 
ENDROOT
BRANCH   1  12
ATOM     12  C   UNL     1      18.167  19.280  19.831  1.00  0.00    -0.011 A 
ATOM     13  C   UNL     1      19.003  18.155  19.721  1.00  0.00     0.013 A 
ATOM     14  C   UNL     1      20.216  18.103  20.414  1.00  0.00     0.047 A 
ATOM     15  C   UNL     1      20.611  19.178  21.221  1.00  0.00     0.115 A 
ATOM     16  C   UNL     1      18.575  20.358  20.639  1.00  0.00     0.013 A 
ATOM     17  C   UNL     1      19.789  20.303  21.330  1.00  0.00     0.047 A 
BRANCH  15  18
ATOM     18  O   UNL     1      21.818  19.138  21.917  1.00  0.00    -0.508 OA
ATOM     19  H   UNL     1      22.547  19.824  21.753  1.00  0.00     0.293 HD
ENDBRANCH  15  18
ENDBRANCH   1  12
BRANCH  11  20
ATOM     20  C   UNL     1      11.867  19.642  18.012  1.00  0.00     0.188 C 
ATOM     21  C   UNL     1      11.889  20.947  18.848  1.00  0.00     0.179 C 
ATOM     22  O   UNL     1      10.729  19.599  17.164  1.00  0.00    -0.362 OA
ATOM     23  C   UNL     1      10.576  21.065  19.647  1.00  0.00     0.177 C 
ATOM     24  C   UNL     1       9.534  19.558  17.925  1.00  0.00     0.176 C 
ATOM     25  C   UNL     1       9.356  20.866  18.728  1.00  0.00     0.177 C 
BRANCH  21  26
ATOM     26  O   UNL     1      12.036  22.070  18.014  1.00  0.00    -0.387 OA
ATOM     27  H   UNL     1      12.951  22.034  17.632  1.00  0.00     0.211 HD
ENDBRANCH  21  26
BRANCH  23  28
ATOM     28  O   UNL     1      10.498  22.314  20.285  1.00  0.00    -0.387 OA
ATOM     29  H   UNL     1       9.550  22.603  20.232  1.00  0.00     0.211 HD
ENDBRANCH  23  28
BRANCH  24  30
ATOM     30  C   UNL     1       8.347  19.325  16.979  1.00  0.00     0.191 C 
BRANCH  30  31
ATOM     31  O   UNL     1       8.803  18.988  15.697  1.00  0.00    -0.394 OA
ATOM     32  H   UNL     1       9.688  18.554  15.815  1.00  0.00     0.210 HD
ENDBRANCH  30  31
ENDBRANCH  24  30
BRANCH  25  33
ATOM     33  O   UNL     1       9.222  21.953  17.845  1.00  0.00    -0.388 OA
ATOM     34  H   UNL     1      10.133  22.318  17.694  1.00  0.00     0.211 HD
ENDBRANCH  25  33
ENDBRANCH  11  20
BRANCH  10  35
ATOM     35  O   UNL     1      11.821  19.358  15.153  1.00  0.00    -0.507 OA
ATOM     36  H   UNL     1      11.270  18.513  15.061  1.00  0.00     0.293 HD
ENDBRANCH  10  35
TORSDOF 9
ENDMDL
MODEL 3
REMARK VINA RESULT:    -1.655      2.974      5.834
REMARK INTER + INTRA:          -1.434
REMARK INTER:                  -2.762
REMARK INTRA:                   1.328
REMARK UNBOUND:                 0.801
REMARK SMILES O=c1c(-c2ccc(O)cc2)coc2c([C@@H]3O[C@H](CO)[C@H](O)[C@H](O)[C@@H]3O)c(O)ccc12
REMARK SMILES IDX 3 1 11 2 12 3 13 4 30 5 2 6 1 7 29 8 28 9 26 10 14 11 4 12
REMARK SMILES IDX 5 13 6 14 7 15 10 16 9 17 8 18 15 20 24 21 16 22 22 23 17 24
REMARK SMILES IDX 20 25 25 26 23 28 18 30 19 31 21 33 27 35
REMARK H PARENT 8 19 25 27 23 29 19 32 21 34 27 36
REMARK Flexibility Score: inf
ROOT
ATOM      1  C   UNL     1      18.613  16.467   5.122  1.00  0.00     0.065 A 
ATOM      2  C   UNL     1      19.797  17.040   4.636  1.00  0.00     0.208 A 
ATOM      3  O   UNL     1      20.675  16.316   3.955  1.00  0.00    -0.463 OA
ATOM      4  C   UNL     1      20.506  15.023   3.688  1.00  0.00     0.147 A 
ATOM      5  C   UNL     1      19.338  14.365   4.139  1.00  0.00     0.066 A 
ATOM      6  C   UNL     1      18.389  15.100   4.873  1.00  0.00     0.200 A 
ATOM      7  O   UNL     1      17.353  14.535   5.321  1.00  0.00    -0.288 OA
ATOM      8  C   UNL     1      19.151  13.006   3.846  1.00  0.00     0.020 A 
ATOM      9  C   UNL     1      20.100  12.312   3.098  1.00  0.00     0.047 A 
ATOM     10  C   UNL     1      21.257  12.954   2.642  1.00  0.00     0.125 A 
ATOM     11  C   UNL     1      21.487  14.314   2.952  1.00  0.00     0.069 A 
ENDROOT
BRANCH   1  12
ATOM     12  C   UNL     1      17.643  17.299   5.877  1.00  0.00    -0.011 A 
ATOM     13  C   UNL     1      16.521  16.707   6.482  1.00  0.00     0.013 A 
ATOM     14  C   UNL     1      15.611  17.486   7.202  1.00  0.00     0.047 A 
ATOM     15  C   UNL     1      15.814  18.866   7.330  1.00  0.00     0.115 A 
ATOM     16  C   UNL     1      17.843  18.684   6.016  1.00  0.00     0.013 A 
ATOM     17  C   UNL     1      16.932  19.461   6.737  1.00  0.00     0.047 A 
BRANCH  15  18
ATOM     18  O   UNL     1      14.914  19.654   8.045  1.00  0.00    -0.508 OA
ATOM     19  H   UNL     1      13.972  19.820   7.707  1.00  0.00     0.293 HD
ENDBRANCH  15  18
ENDBRANCH   1  12
BRANCH  11  20
ATOM     20  C   UNL     1      22.741  15.004   2.431  1.00  0.00     0.188 C 
ATOM     21  C   UNL     1      22.993  16.332   3.188  1.00  0.00     0.179 C 
ATOM     22  O   UNL     1      23.862  14.137   2.535  1.00  0.00    -0.362 OA
ATOM     23  C   UNL     1      24.277  16.993   2.650  1.00  0.00     0.177 C 
ATOM     24  C   UNL     1      24.997  14.703   1.901  1.00  0.00     0.176 C 
ATOM     25  C   UNL     1      25.444  15.987   2.634  1.00  0.00     0.177 C 
BRANCH  21  26
ATOM     26  O   UNL     1      23.125  16.101   4.570  1.00  0.00    -0.387 OA
ATOM     27  H   UNL     1      22.221  16.193   4.969  1.00  0.00     0.211 HD
ENDBRANCH  21  26
BRANCH  23  28
ATOM     28  O   UNL     1      24.619  18.112   3.427  1.00  0.00    -0.387 OA
ATOM     29  H   UNL     1      23.770  18.487   3.779  1.00  0.00     0.211 HD
ENDBRANCH  23  28
BRANCH  24  30
ATOM     30  C   UNL     1      26.125  13.661   1.875  1.00  0.00     0.191 C 
BRANCH  30  31
ATOM     31  O   UNL     1      25.653  12.420   2.324  1.00  0.00    -0.394 OA
ATOM     32  H   UNL     1      26.367  12.035   2.897  1.00  0.00     0.210 HD
ENDBRANCH  30  31
ENDBRANCH  24  30
BRANCH  25  33
ATOM     33  O   UNL     1      25.843  15.674   3.946  1.00  0.00    -0.388 OA
ATOM     34  H   UNL     1      26.012  14.696   3.972  1.00  0.00     0.211 HD
ENDBRANCH  25  33
ENDBRANCH  11  20
BRANCH  10  35
ATOM     35  O   UNL     1      22.179  12.241   1.875  1.00  0.00    -0.507 OA
ATOM     36  H   UNL     1      22.032  11.268   1.633  1.00  0.00     0.293 HD
ENDBRANCH  10  35
TORSDOF 9
ENDMDL
MODEL 4
REMARK VINA RESULT:    -1.344      5.071      8.568
REMARK INTER + INTRA:          -1.014
REMARK INTER:                  -0.965
REMARK INTRA:                  -0.050
REMARK UNBOUND:                 0.801
REMARK SMILES O=c1c(-c2ccc(O)cc2)coc2c([C@@H]3O[C@H](CO)[C@H](O)[C@H](O)[C@@H]3O)c(O)ccc12
REMARK SMILES IDX 3 1 11 2 12 3 13 4 30 5 2 6 1 7 29 8 28 9 26 10 14 11 4 12
REMARK SMILES IDX 5 13 6 14 7 15 10 16 9 17 8 18 15 20 24 21 16 22 22 23 17 24
REMARK SMILES IDX 20 25 25 26 23 28 18 30 19 31 21 33 27 35
REMARK H PARENT 8 19 25 27 23 29 19 32 21 34 27 36
REMARK Flexibility Score: inf
ROOT
ATOM      1  C   UNL     1      23.341  19.435   7.651  1.00  0.00     0.065 A 
ATOM      2  C   UNL     1      22.053  19.041   8.042  1.00  0.00     0.208 A 
ATOM      3  O   UNL     1      21.644  19.194   9.294  1.00  0.00    -0.463 OA
ATOM      4  C   UNL     1      22.405  19.719  10.252  1.00  0.00     0.147 A 
ATOM      5  C   UNL     1      23.718  20.146   9.945  1.00  0.00     0.066 A 
ATOM      6  C   UNL     1      24.188  19.990   8.628  1.00  0.00     0.200 A 
ATOM      7  O   UNL     1      25.367  20.327   8.328  1.00  0.00    -0.288 OA
ATOM      8  C   UNL     1      24.516  20.714  10.950  1.00  0.00     0.020 A 
ATOM      9  C   UNL     1      24.012  20.874  12.239  1.00  0.00     0.047 A 
ATOM     10  C   UNL     1      22.713  20.460  12.553  1.00  0.00     0.125 A 
ATOM     11  C   UNL     1      21.899  19.854  11.569  1.00  0.00     0.069 A 
ENDROOT
BRANCH   1  12
ATOM     12  C   UNL     1      23.774  19.258   6.242  1.00  0.00    -0.011 A 
ATOM     13  C   UNL     1      24.130  17.985   5.764  1.00  0.00     0.013 A 
ATOM     14  C   UNL     1      24.529  17.813   4.436  1.00  0.00     0.047 A 
ATOM     15  C   UNL     1      24.573  18.911   3.567  1.00  0.00     0.115 A 
ATOM     16  C   UNL     1      23.814  20.354   5.362  1.00  0.00     0.013 A 
ATOM     17  C   UNL     1      24.213  20.179   4.034  1.00  0.00     0.047 A 
BRANCH  15  18
ATOM     18  O   UNL     1      24.969  18.753   2.241  1.00  0.00    -0.508 OA
ATOM     19  H   UNL     1      24.292  18.687   1.490  1.00  0.00     0.293 HD
ENDBRANCH  15  18
ENDBRANCH   1  12
BRANCH  11  20
ATOM     20  C   UNL     1      20.479  19.428  11.921  1.00  0.00     0.188 C 
ATOM     21  C   UNL     1      19.443  20.370  11.259  1.00  0.00     0.179 C 
ATOM     22  O   UNL     1      20.259  18.078  11.539  1.00  0.00    -0.362 OA
ATOM     23  C   UNL     1      18.020  19.900  11.619  1.00  0.00     0.177 C 
ATOM     24  C   UNL     1      19.003  17.619  12.011  1.00  0.00     0.176 C 
ATOM     25  C   UNL     1      17.852  18.395  11.334  1.00  0.00     0.177 C 
BRANCH  21  26
ATOM     26  O   UNL     1      19.597  20.376   9.860  1.00  0.00    -0.387 OA
ATOM     27  H   UNL     1      20.390  19.817   9.651  1.00  0.00     0.211 HD
ENDBRANCH  21  26
BRANCH  23  28
ATOM     28  O   UNL     1      17.061  20.634  10.902  1.00  0.00    -0.387 OA
ATOM     29  H   UNL     1      16.200  20.149  10.994  1.00  0.00     0.211 HD
ENDBRANCH  23  28
BRANCH  24  30
ATOM     30  C   UNL     1      18.888  16.112  11.739  1.00  0.00     0.191 C 
BRANCH  30  31
ATOM     31  O   UNL     1      17.541  15.734  11.648  1.00  0.00    -0.394 OA
ATOM     32  H   UNL     1      17.532  14.763  11.438  1.00  0.00     0.210 HD
ENDBRANCH  30  31
ENDBRANCH  24  30
BRANCH  25  33
ATOM     33  O   UNL     1      17.863  18.152   9.948  1.00  0.00    -0.388 OA
ATOM     34  H   UNL     1      18.800  18.269   9.641  1.00  0.00     0.211 HD
ENDBRANCH  25  33
ENDBRANCH  11  20
BRANCH  10  35
ATOM     35  O   UNL     1      22.225  20.655  13.846  1.00  0.00    -0.507 OA
ATOM     36  H   UNL     1      21.522  21.355  14.051  1.00  0.00     0.293 HD
ENDBRANCH  10  35
TORSDOF 9
ENDMDL
MODEL 5
REMARK VINA RESULT:    -1.043      2.659      7.863
REMARK INTER + INTRA:          -0.608
REMARK INTER:                  -1.260
REMARK INTRA:                   0.653
REMARK UNBOUND:                 0.801
REMARK SMILES O=c1c(-c2ccc(O)cc2)coc2c([C@@H]3O[C@H](CO)[C@H](O)[C@H](O)[C@@H]3O)c(O)ccc12
REMARK SMILES IDX 3 1 11 2 12 3 13 4 30 5 2 6 1 7 29 8 28 9 26 10 14 11 4 12
REMARK SMILES IDX 5 13 6 14 7 15 10 16 9 17 8 18 15 20 24 21 16 22 22 23 17 24
REMARK SMILES IDX 20 25 25 26 23 28 18 30 19 31 21 33 27 35
REMARK H PARENT 8 19 25 27 23 29 19 32 21 34 27 36
REMARK Flexibility Score: inf
ROOT
ATOM      1  C   UNL     1      22.828  19.280   7.946  1.00  0.00     0.065 A 
ATOM      2  C   UNL     1      21.817  18.444   7.450  1.00  0.00     0.208 A 
ATOM      3  O   UNL     1      21.856  17.993   6.204  1.00  0.00    -0.463 OA
ATOM      4  C   UNL     1      22.832  18.292   5.349  1.00  0.00     0.147 A 
ATOM      5  C   UNL     1      23.893  19.127   5.766  1.00  0.00     0.066 A 
ATOM      6  C   UNL     1      23.880  19.631   7.079  1.00  0.00     0.200 A 
ATOM      7  O   UNL     1      24.793  20.408   7.474  1.00  0.00    -0.288 OA
ATOM      8  C   UNL     1      24.931  19.431   4.871  1.00  0.00     0.020 A 
ATOM      9  C   UNL     1      24.925  18.897   3.584  1.00  0.00     0.047 A 
ATOM     10  C   UNL     1      23.883  18.065   3.161  1.00  0.00     0.125 A 
ATOM     11  C   UNL     1      22.808  17.771   4.031  1.00  0.00     0.069 A 
ENDROOT
BRANCH   1  12
ATOM     12  C   UNL     1      22.765  19.768   9.346  1.00  0.00    -0.011 A 
ATOM     13  C   UNL     1      21.523  20.001   9.961  1.00  0.00     0.013 A 
ATOM     14  C   UNL     1      21.460  20.451  11.283  1.00  0.00     0.047 A 
ATOM     15  C   UNL     1      22.639  20.670  12.008  1.00  0.00     0.115 A 
ATOM     16  C   UNL     1      23.944  19.983  10.084  1.00  0.00     0.013 A 
ATOM     17  C   UNL     1      23.877  20.433  11.405  1.00  0.00     0.047 A 
BRANCH  15  18
ATOM     18  O   UNL     1      22.589  21.119  13.326  1.00  0.00    -0.508 OA
ATOM     19  H   UNL     1      21.772  20.967  13.907  1.00  0.00     0.293 HD
ENDBRANCH  15  18
ENDBRANCH   1  12
BRANCH  11  20
ATOM     20  C   UNL     1      21.691  16.847   3.563  1.00  0.00     0.188 C 
ATOM     21  C   UNL     1      22.227  15.412   3.330  1.00  0.00     0.179 C 
ATOM     22  O   UNL     1      20.624  16.846   4.501  1.00  0.00    -0.362 OA
ATOM     23  C   UNL     1      21.069  14.500   2.877  1.00  0.00     0.177 C 
ATOM     24  C   UNL     1      19.512  16.124   3.999  1.00  0.00     0.176 C 
ATOM     25  C   UNL     1      19.866  14.630   3.830  1.00  0.00     0.177 C 
BRANCH  21  26
ATOM     26  O   UNL     1      22.800  14.896   4.507  1.00  0.00    -0.387 OA
ATOM     27  H   UNL     1      22.094  14.903   5.204  1.00  0.00     0.211 HD
ENDBRANCH  21  26
BRANCH  23  28
ATOM     28  O   UNL     1      21.491  13.161   2.816  1.00  0.00    -0.387 OA
ATOM     29  H   UNL     1      20.693  12.620   2.579  1.00  0.00     0.211 HD
ENDBRANCH  23  28
BRANCH  24  30
ATOM     30  C   UNL     1      18.325  16.305   4.956  1.00  0.00     0.191 C 
BRANCH  30  31
ATOM     31  O   UNL     1      17.882  17.635   4.938  1.00  0.00    -0.394 OA
ATOM     32  H   UNL     1      18.497  18.149   5.524  1.00  0.00     0.210 HD
ENDBRANCH  30  31
ENDBRANCH  24  30
BRANCH  25  33
ATOM     33  O   UNL     1      20.166  14.066   5.083  1.00  0.00    -0.388 OA
ATOM     34  H   UNL     1      20.024  13.086   5.001  1.00  0.00     0.211 HD
ENDBRANCH  25  33
ENDBRANCH  11  20
BRANCH  10  35
ATOM     35  O   UNL     1      23.915  17.525   1.875  1.00  0.00    -0.507 OA
ATOM     36  H   UNL     1      24.758  17.539   1.312  1.00  0.00     0.293 HD
ENDBRANCH  10  35
TORSDOF 9
ENDMDL
MODEL 6
REMARK VINA RESULT:    -0.935      3.516      7.974
REMARK INTER + INTRA:          -0.461
REMARK INTER:                  -0.848
REMARK INTRA:                   0.387
REMARK UNBOUND:                 0.801
REMARK SMILES O=c1c(-c2ccc(O)cc2)coc2c([C@@H]3O[C@H](CO)[C@H](O)[C@H](O)[C@@H]3O)c(O)ccc12
REMARK SMILES IDX 3 1 11 2 12 3 13 4 30 5 2 6 1 7 29 8 28 9 26 10 14 11 4 12
REMARK SMILES IDX 5 13 6 14 7 15 10 16 9 17 8 18 15 20 24 21 16 22 22 23 17 24
REMARK SMILES IDX 20 25 25 26 23 28 18 30 19 31 21 33 27 35
REMARK H PARENT 8 19 25 27 23 29 19 32 21 34 27 36
REMARK Flexibility Score: inf
ROOT
ATOM      1  C   UNL     1      22.322  19.405   9.541  1.00  0.00     0.065 A 
ATOM      2  C   UNL     1      21.514  18.822   8.554  1.00  0.00     0.208 A 
ATOM      3  O   UNL     1      21.959  18.665   7.315  1.00  0.00    -0.463 OA
ATOM      4  C   UNL     1      23.174  19.039   6.922  1.00  0.00     0.147 A 
ATOM      5  C   UNL     1      24.056  19.634   7.853  1.00  0.00     0.066 A 
ATOM      6  C   UNL     1      23.615  19.825   9.175  1.00  0.00     0.200 A 
ATOM      7  O   UNL     1      24.363  20.385  10.023  1.00  0.00    -0.288 OA
ATOM      8  C   UNL     1      25.343  20.016   7.444  1.00  0.00     0.020 A 
ATOM      9  C   UNL     1      25.757  19.793   6.132  1.00  0.00     0.047 A 
ATOM     10  C   UNL     1      24.895  19.201   5.203  1.00  0.00     0.125 A 
ATOM     11  C   UNL     1      23.581  18.838   5.579  1.00  0.00     0.069 A 
ENDROOT
BRANCH   1  12
ATOM     12  C   UNL     1      21.805  19.565  10.923  1.00  0.00    -0.011 A 
ATOM     13  C   UNL     1      20.640  18.889  11.327  1.00  0.00     0.013 A 
ATOM     14  C   UNL     1      20.155  19.031  12.630  1.00  0.00     0.047 A 
ATOM     15  C   UNL     1      20.831  19.846  13.547  1.00  0.00     0.115 A 
ATOM     16  C   UNL     1      22.481  20.376  11.852  1.00  0.00     0.013 A 
ATOM     17  C   UNL     1      21.994  20.515  13.155  1.00  0.00     0.047 A 
BRANCH  15  18
ATOM     18  O   UNL     1      20.358  19.995  14.849  1.00  0.00    -0.508 OA
ATOM     19  H   UNL     1      20.983  20.201  15.620  1.00  0.00     0.293 HD
ENDBRANCH  15  18
ENDBRANCH   1  12
BRANCH  11  20
ATOM     20  C   UNL     1      22.662  18.175   4.561  1.00  0.00     0.188 C 
ATOM     21  C   UNL     1      22.910  16.646   4.511  1.00  0.00     0.179 C 
ATOM     22  O   UNL     1      21.304  18.461   4.863  1.00  0.00    -0.362 OA
ATOM     23  C   UNL     1      21.952  16.006   3.488  1.00  0.00     0.177 C 
ATOM     24  C   UNL     1      20.449  17.992   3.832  1.00  0.00     0.176 C 
ATOM     25  C   UNL     1      20.499  16.451   3.746  1.00  0.00     0.177 C 
BRANCH  21  26
ATOM     26  O   UNL     1      22.706  16.066   5.776  1.00  0.00    -0.387 OA
ATOM     27  H   UNL     1      23.414  15.382   5.902  1.00  0.00     0.211 HD
ENDBRANCH  21  26
BRANCH  23  28
ATOM     28  O   UNL     1      22.040  14.604   3.539  1.00  0.00    -0.387 OA
ATOM     29  H   UNL     1      23.003  14.381   3.637  1.00  0.00     0.211 HD
ENDBRANCH  23  28
BRANCH  24  30
ATOM     30  C   UNL     1      19.021  18.484   4.106  1.00  0.00     0.191 C 
BRANCH  30  31
ATOM     31  O   UNL     1      18.558  19.261   3.036  1.00  0.00    -0.394 OA
ATOM     32  H   UNL     1      19.324  19.375   2.414  1.00  0.00     0.210 HD
ENDBRANCH  30  31
ENDBRANCH  24  30
BRANCH  25  33
ATOM     33  O   UNL     1      20.016  15.889   4.941  1.00  0.00    -0.388 OA
ATOM     34  H   UNL     1      19.157  16.342   5.147  1.00  0.00     0.211 HD
ENDBRANCH  25  33
ENDBRANCH  11  20
BRANCH  10  35
ATOM     35  O   UNL     1      25.344  18.968   3.902  1.00  0.00    -0.507 OA
ATOM     36  H   UNL     1      25.104  18.121   3.399  1.00  0.00     0.293 HD
ENDBRANCH  10  35
TORSDOF 9
ENDMDL
