MODEL 1
REMARK VINA RESULT:    -3.773      0.000      0.000
REMARK INTER + INTRA:          -5.450
REMARK INTER:                  -5.207
REMARK INTRA:                  -0.243
REMARK UNBOUND:                -0.243
REMARK SMILES CCCCCCCCO
REMARK SMILES IDX 5 1 4 2 3 3 2 4 1 5 6 6 7 7 8 8 9 9
REMARK H PARENT 9 10
REMARK Flexibility Score: inf
ROOT
ATOM      1  C   UNL     1     165.262 175.928 183.355  1.00  0.00     0.000 C 
ENDROOT
BRANCH   1   2
ATOM      2  C   UNL     1     165.430 176.373 184.812  1.00  0.00    -0.000 C 
BRANCH   2   3
ATOM      3  C   UNL     1     166.643 175.693 185.460  1.00  0.00    -0.000 C 
BRANCH   3   4
ATOM      4  C   UNL     1     166.251 174.348 186.084  1.00  0.00    -0.003 C 
ATOM      5  C   UNL     1     167.454 173.417 186.187  1.00  0.00     0.004 C 
ENDBRANCH   3   4
ENDBRANCH   2   3
ENDBRANCH   1   2
BRANCH   1   6
ATOM      6  C   UNL     1     163.983 176.518 182.744  1.00  0.00     0.002 C 
BRANCH   6   7
ATOM      7  C   UNL     1     163.491 177.771 183.489  1.00  0.00     0.028 C 
BRANCH   7   8
ATOM      8  C   UNL     1     163.599 179.064 182.670  1.00  0.00     0.156 C 
BRANCH   8   9
ATOM      9  O   UNL     1     164.620 179.886 183.167  1.00  0.00    -0.396 OA
ATOM     10  H   UNL     1     165.062 179.385 183.901  1.00  0.00     0.210 HD
ENDBRANCH   8   9
ENDBRANCH   7   8
ENDBRANCH   6   7
ENDBRANCH   1   6
TORSDOF 7
ENDMDL
MODEL 2
REMARK VINA RESULT:    -3.717     14.098     16.697
REMARK INTER + INTRA:          -5.372
REMARK INTER:                  -5.117
REMARK INTRA:                  -0.255
REMARK UNBOUND:                -0.243
REMARK SMILES CCCCCCCCO
REMARK SMILES IDX 5 1 4 2 3 3 2 4 1 5 6 6 7 7 8 8 9 9
REMARK H PARENT 9 10
REMARK Flexibility Score: inf
ROOT
ATOM      1  C   UNL     1     178.791 168.515 183.427  1.00  0.00     0.000 C 
ENDROOT
BRANCH   1   2
ATOM      2  C   UNL     1     177.683 169.162 184.265  1.00  0.00    -0.000 C 
BRANCH   2   3
ATOM      3  C   UNL     1     177.938 168.961 185.764  1.00  0.00    -0.000 C 
BRANCH   3   4
ATOM      4  C   UNL     1     177.910 170.300 186.511  1.00  0.00    -0.003 C 
ATOM      5  C   UNL     1     176.639 171.082 186.195  1.00  0.00     0.004 C 
ENDBRANCH   3   4
ENDBRANCH   2   3
ENDBRANCH   1   2
BRANCH   1   6
ATOM      6  C   UNL     1     179.829 167.827 184.326  1.00  0.00     0.002 C 
BRANCH   6   7
ATOM      7  C   UNL     1     180.678 166.791 183.570  1.00  0.00     0.028 C 
BRANCH   7   8
ATOM      8  C   UNL     1     179.861 165.860 182.664  1.00  0.00     0.156 C 
BRANCH   8   9
ATOM      9  O   UNL     1     179.916 164.538 183.128  1.00  0.00    -0.396 OA
ATOM     10  H   UNL     1     180.188 164.579 184.082  1.00  0.00     0.210 HD
ENDBRANCH   8   9
ENDBRANCH   7   8
ENDBRANCH   6   7
ENDBRANCH   1   6
TORSDOF 7
ENDMDL
MODEL 3
REMARK VINA RESULT:    -3.687      0.941      1.284
REMARK INTER + INTRA:          -5.331
REMARK INTER:                  -5.163
REMARK INTRA:                  -0.168
REMARK UNBOUND:                -0.243
REMARK SMILES CCCCCCCCO
REMARK SMILES IDX 5 1 4 2 3 3 2 4 1 5 6 6 7 7 8 8 9 9
REMARK H PARENT 9 10
REMARK Flexibility Score: inf
ROOT
ATOM      1  C   UNL     1     165.650 175.867 184.122  1.00  0.00     0.000 C 
ENDROOT
BRANCH   1   2
ATOM      2  C   UNL     1     166.357 175.760 185.478  1.00  0.00    -0.000 C 
BRANCH   2   3
ATOM      3  C   UNL     1     166.130 174.380 186.110  1.00  0.00    -0.000 C 
BRANCH   3   4
ATOM      4  C   UNL     1     167.432 173.572 186.149  1.00  0.00    -0.003 C 
ATOM      5  C   UNL     1     167.541 172.644 184.942  1.00  0.00     0.004 C 
ENDBRANCH   3   4
ENDBRANCH   2   3
ENDBRANCH   1   2
BRANCH   1   6
ATOM      6  C   UNL     1     164.469 176.847 184.194  1.00  0.00     0.002 C 
BRANCH   6   7
ATOM      7  C   UNL     1     164.169 177.517 182.843  1.00  0.00     0.028 C 
BRANCH   7   8
ATOM      8  C   UNL     1     165.112 178.679 182.502  1.00  0.00     0.156 C 
BRANCH   8   9
ATOM      9  O   UNL     1     164.674 179.868 183.100  1.00  0.00    -0.396 OA
ATOM     10  H   UNL     1     164.042 180.295 182.465  1.00  0.00     0.210 HD
ENDBRANCH   8   9
ENDBRANCH   7   8
ENDBRANCH   6   7
ENDBRANCH   1   6
TORSDOF 7
ENDMDL
MODEL 4
REMARK VINA RESULT:    -3.597     11.598     13.964
REMARK INTER + INTRA:          -5.206
REMARK INTER:                  -4.803
REMARK INTRA:                  -0.403
REMARK UNBOUND:                -0.243
REMARK SMILES CCCCCCCCO
REMARK SMILES IDX 5 1 4 2 3 3 2 4 1 5 6 6 7 7 8 8 9 9
REMARK H PARENT 9 10
REMARK Flexibility Score: inf
ROOT
ATOM      1  C   UNL     1     178.014 169.972 186.327  1.00  0.00     0.000 C 
ENDROOT
BRANCH   1   2
ATOM      2  C   UNL     1     177.723 168.669 185.573  1.00  0.00    -0.000 C 
BRANCH   2   3
ATOM      3  C   UNL     1     178.971 168.171 184.833  1.00  0.00    -0.000 C 
BRANCH   3   4
ATOM      4  C   UNL     1     179.049 168.769 183.423  1.00  0.00    -0.003 C 
ATOM      5  C   UNL     1     177.660 168.926 182.812  1.00  0.00     0.004 C 
ENDBRANCH   3   4
ENDBRANCH   2   3
ENDBRANCH   1   2
BRANCH   1   6
ATOM      6  C   UNL     1     176.848 170.962 186.181  1.00  0.00     0.002 C 
BRANCH   6   7
ATOM      7  C   UNL     1     177.047 171.947 185.016  1.00  0.00     0.028 C 
BRANCH   7   8
ATOM      8  C   UNL     1     175.912 172.969 184.865  1.00  0.00     0.156 C 
BRANCH   8   9
ATOM      9  O   UNL     1     175.510 173.456 186.117  1.00  0.00    -0.396 OA
ATOM     10  H   UNL     1     174.534 173.289 186.191  1.00  0.00     0.210 HD
ENDBRANCH   8   9
ENDBRANCH   7   8
ENDBRANCH   6   7
ENDBRANCH   1   6
TORSDOF 7
ENDMDL
MODEL 5
REMARK VINA RESULT:    -3.579      1.595      2.536
REMARK INTER + INTRA:          -5.181
REMARK INTER:                  -4.960
REMARK INTRA:                  -0.221
REMARK UNBOUND:                -0.243
REMARK SMILES CCCCCCCCO
REMARK SMILES IDX 5 1 4 2 3 3 2 4 1 5 6 6 7 7 8 8 9 9
REMARK H PARENT 9 10
REMARK Flexibility Score: inf
ROOT
ATOM      1  C   UNL     1     166.287 175.469 185.473  1.00  0.00     0.000 C 
ENDROOT
BRANCH   1   2
ATOM      2  C   UNL     1     166.299 174.034 186.014  1.00  0.00    -0.000 C 
BRANCH   2   3
ATOM      3  C   UNL     1     167.735 173.542 186.236  1.00  0.00    -0.000 C 
BRANCH   3   4
ATOM      4  C   UNL     1     168.543 173.596 184.934  1.00  0.00    -0.003 C 
ATOM      5  C   UNL     1     169.833 174.389 185.117  1.00  0.00     0.004 C 
ENDBRANCH   3   4
ENDBRANCH   2   3
ENDBRANCH   1   2
BRANCH   1   6
ATOM      6  C   UNL     1     165.609 175.532 184.096  1.00  0.00     0.002 C 
BRANCH   6   7
ATOM      7  C   UNL     1     165.119 176.945 183.739  1.00  0.00     0.028 C 
BRANCH   7   8
ATOM      8  C   UNL     1     163.595 177.056 183.600  1.00  0.00     0.156 C 
BRANCH   8   9
ATOM      9  O   UNL     1     163.043 177.740 184.692  1.00  0.00    -0.396 OA
ATOM     10  H   UNL     1     162.935 178.688 184.415  1.00  0.00     0.210 HD
ENDBRANCH   8   9
ENDBRANCH   7   8
ENDBRANCH   6   7
ENDBRANCH   1   6
TORSDOF 7
ENDMDL
MODEL 6
REMARK VINA RESULT:    -3.539     11.867     14.565
REMARK INTER + INTRA:          -5.126
REMARK INTER:                  -4.788
REMARK INTRA:                  -0.338
REMARK UNBOUND:                -0.243
REMARK SMILES CCCCCCCCO
REMARK SMILES IDX 5 1 4 2 3 3 2 4 1 5 6 6 7 7 8 8 9 9
REMARK H PARENT 9 10
REMARK Flexibility Score: inf
ROOT
ATOM      1  C   UNL     1     178.001 169.429 186.197  1.00  0.00     0.000 C 
ENDROOT
BRANCH   1   2
ATOM      2  C   UNL     1     178.262 168.236 185.269  1.00  0.00    -0.000 C 
BRANCH   2   3
ATOM      3  C   UNL     1     178.252 168.671 183.798  1.00  0.00    -0.000 C 
BRANCH   3   4
ATOM      4  C   UNL     1     179.601 168.382 183.131  1.00  0.00    -0.003 C 
ATOM      5  C   UNL     1     180.465 167.477 184.003  1.00  0.00     0.004 C 
ENDBRANCH   3   4
ENDBRANCH   2   3
ENDBRANCH   1   2
BRANCH   1   6
ATOM      6  C   UNL     1     177.214 170.529 185.469  1.00  0.00     0.002 C 
BRANCH   6   7
ATOM      7  C   UNL     1     176.012 171.038 186.284  1.00  0.00     0.028 C 
BRANCH   7   8
ATOM      8  C   UNL     1     174.651 170.661 185.685  1.00  0.00     0.156 C 
BRANCH   8   9
ATOM      9  O   UNL     1     174.545 169.272 185.521  1.00  0.00    -0.396 OA
ATOM     10  H   UNL     1     174.742 169.078 184.567  1.00  0.00     0.210 HD
ENDBRANCH   8   9
ENDBRANCH   7   8
ENDBRANCH   6   7
ENDBRANCH   1   6
TORSDOF 7
ENDMDL
MODEL 7
REMARK VINA RESULT:    -3.411      4.118      6.843
REMARK INTER + INTRA:          -4.949
REMARK INTER:                  -4.638
REMARK INTRA:                  -0.312
REMARK UNBOUND:                -0.243
REMARK SMILES CCCCCCCCO
REMARK SMILES IDX 5 1 4 2 3 3 2 4 1 5 6 6 7 7 8 8 9 9
REMARK H PARENT 9 10
REMARK Flexibility Score: inf
ROOT
ATOM      1  C   UNL     1     168.494 173.773 185.257  1.00  0.00     0.000 C 
ENDROOT
BRANCH   1   2
ATOM      2  C   UNL     1     167.059 173.237 185.316  1.00  0.00    -0.000 C 
BRANCH   2   3
ATOM      3  C   UNL     1     166.148 174.189 186.103  1.00  0.00    -0.000 C 
BRANCH   3   4
ATOM      4  C   UNL     1     166.378 175.644 185.680  1.00  0.00    -0.003 C 
ATOM      5  C   UNL     1     165.481 176.026 184.506  1.00  0.00     0.004 C 
ENDBRANCH   3   4
ENDBRANCH   2   3
ENDBRANCH   1   2
BRANCH   1   6
ATOM      6  C   UNL     1     169.300 173.321 186.485  1.00  0.00     0.002 C 
BRANCH   6   7
ATOM      7  C   UNL     1     170.590 172.574 186.107  1.00  0.00     0.028 C 
BRANCH   7   8
ATOM      8  C   UNL     1     170.348 171.215 185.438  1.00  0.00     0.156 C 
BRANCH   8   9
ATOM      9  O   UNL     1     169.388 170.475 186.143  1.00  0.00    -0.396 OA
ATOM     10  H   UNL     1     169.828 169.635 186.436  1.00  0.00     0.210 HD
ENDBRANCH   8   9
ENDBRANCH   7   8
ENDBRANCH   6   7
ENDBRANCH   1   6
TORSDOF 7
ENDMDL
MODEL 8
REMARK VINA RESULT:    -3.404      3.523      6.023
REMARK INTER + INTRA:          -4.940
REMARK INTER:                  -4.701
REMARK INTRA:                  -0.239
REMARK UNBOUND:                -0.243
REMARK SMILES CCCCCCCCO
REMARK SMILES IDX 5 1 4 2 3 3 2 4 1 5 6 6 7 7 8 8 9 9
REMARK H PARENT 9 10
REMARK Flexibility Score: inf
ROOT
ATOM      1  C   UNL     1     166.538 173.524 185.229  1.00  0.00     0.000 C 
ENDROOT
BRANCH   1   2
ATOM      2  C   UNL     1     166.196 174.720 186.124  1.00  0.00    -0.000 C 
BRANCH   2   3
ATOM      3  C   UNL     1     166.286 176.036 185.341  1.00  0.00    -0.000 C 
BRANCH   3   4
ATOM      4  C   UNL     1     165.275 176.060 184.188  1.00  0.00    -0.003 C 
ATOM      5  C   UNL     1     165.619 177.147 183.175  1.00  0.00     0.004 C 
ENDBRANCH   3   4
ENDBRANCH   2   3
ENDBRANCH   1   2
BRANCH   1   6
ATOM      6  C   UNL     1     167.782 172.787 185.750  1.00  0.00     0.002 C 
BRANCH   6   7
ATOM      7  C   UNL     1     169.068 173.619 185.610  1.00  0.00     0.028 C 
BRANCH   7   8
ATOM      8  C   UNL     1     170.192 173.190 186.563  1.00  0.00     0.156 C 
BRANCH   8   9
ATOM      9  O   UNL     1     169.759 173.229 187.896  1.00  0.00    -0.396 OA
ATOM     10  H   UNL     1     168.863 172.802 187.921  1.00  0.00     0.210 HD
ENDBRANCH   8   9
ENDBRANCH   7   8
ENDBRANCH   6   7
ENDBRANCH   1   6
TORSDOF 7
ENDMDL
MODEL 9
REMARK VINA RESULT:    -3.357     13.154     16.017
REMARK INTER + INTRA:          -4.875
REMARK INTER:                  -4.679
REMARK INTRA:                  -0.196
REMARK UNBOUND:                -0.243
REMARK SMILES CCCCCCCCO
REMARK SMILES IDX 5 1 4 2 3 3 2 4 1 5 6 6 7 7 8 8 9 9
REMARK H PARENT 9 10
REMARK Flexibility Score: inf
ROOT
ATOM      1  C   UNL     1     178.229 168.689 184.550  1.00  0.00     0.000 C 
ENDROOT
BRANCH   1   2
ATOM      2  C   UNL     1     178.055 169.335 185.929  1.00  0.00    -0.000 C 
BRANCH   2   3
ATOM      3  C   UNL     1     176.852 170.287 185.943  1.00  0.00    -0.000 C 
BRANCH   3   4
ATOM      4  C   UNL     1     176.041 170.167 184.648  1.00  0.00    -0.003 C 
ATOM      5  C   UNL     1     174.582 169.831 184.939  1.00  0.00     0.004 C 
ENDBRANCH   3   4
ENDBRANCH   2   3
ENDBRANCH   1   2
BRANCH   1   6
ATOM      6  C   UNL     1     179.461 167.771 184.525  1.00  0.00     0.002 C 
BRANCH   6   7
ATOM      7  C   UNL     1     179.797 167.267 183.112  1.00  0.00     0.028 C 
BRANCH   7   8
ATOM      8  C   UNL     1     179.057 165.981 182.719  1.00  0.00     0.156 C 
BRANCH   8   9
ATOM      9  O   UNL     1     179.803 164.848 183.072  1.00  0.00    -0.396 OA
ATOM     10  H   UNL     1     180.562 164.792 182.434  1.00  0.00     0.210 HD
ENDBRANCH   8   9
ENDBRANCH   7   8
ENDBRANCH   6   7
ENDBRANCH   1   6
TORSDOF 7
ENDMDL
