MODEL 1
REMARK VINA RESULT:    -4.812      0.000      0.000
REMARK INTER + INTRA:          -5.488
REMARK INTER:                  -5.234
REMARK INTRA:                  -0.253
REMARK UNBOUND:                -0.253
REMARK SMILES O=C([O-])c1ccccc1O
REMARK SMILES IDX 4 1 9 2 5 3 8 4 6 5 7 6 2 7 1 8 3 9 10 10
REMARK H PARENT 10 11
REMARK Flexibility Score: inf
ROOT
ATOM      1  C   UNL     1      47.153  48.632  35.752  1.00  0.00     0.039 A 
ATOM      2  C   UNL     1      48.324  48.417  36.519  1.00  0.00     0.124 A 
ATOM      3  C   UNL     1      47.108  49.735  34.878  1.00  0.00     0.014 A 
ATOM      4  C   UNL     1      49.411  49.297  36.397  1.00  0.00     0.047 A 
ATOM      5  C   UNL     1      48.197  50.603  34.767  1.00  0.00     0.001 A 
ATOM      6  C   UNL     1      49.346  50.384  35.526  1.00  0.00     0.004 A 
ENDROOT
BRANCH   1   7
ATOM      7  C   UNL     1      45.976  47.731  35.844  1.00  0.00     0.075 C 
ATOM      8  O   UNL     1      44.806  48.193  35.898  1.00  0.00    -0.545 OA
ATOM      9  O   UNL     1      46.151  46.352  35.873  1.00  0.00    -0.545 OA
ENDBRANCH   1   7
BRANCH   2  10
ATOM     10  O   UNL     1      48.414  47.339  37.398  1.00  0.00    -0.507 OA
ATOM     11  H   UNL     1      49.221  47.202  37.995  1.00  0.00     0.293 HD
ENDBRANCH   2  10
TORSDOF 2
ENDMDL
MODEL 2
REMARK VINA RESULT:    -4.738      2.546      3.895
REMARK INTER + INTRA:          -5.406
REMARK INTER:                  -5.156
REMARK INTRA:                  -0.251
REMARK UNBOUND:                -0.253
REMARK SMILES O=C([O-])c1ccccc1O
REMARK SMILES IDX 4 1 9 2 5 3 8 4 6 5 7 6 2 7 1 8 3 9 10 10
REMARK H PARENT 10 11
REMARK Flexibility Score: inf
ROOT
ATOM      1  C   UNL     1      47.295  48.764  34.740  1.00  0.00     0.039 A 
ATOM      2  C   UNL     1      47.662  47.673  33.916  1.00  0.00     0.124 A 
ATOM      3  C   UNL     1      46.168  48.635  35.574  1.00  0.00     0.014 A 
ATOM      4  C   UNL     1      46.905  46.492  33.941  1.00  0.00     0.047 A 
ATOM      5  C   UNL     1      45.423  47.454  35.588  1.00  0.00     0.001 A 
ATOM      6  C   UNL     1      45.791  46.383  34.773  1.00  0.00     0.004 A 
ENDROOT
BRANCH   1   7
ATOM      7  C   UNL     1      48.064  50.035  34.750  1.00  0.00     0.075 C 
ATOM      8  O   UNL     1      47.490  51.142  34.576  1.00  0.00    -0.545 OA
ATOM      9  O   UNL     1      49.439  50.021  34.953  1.00  0.00    -0.545 OA
ENDBRANCH   1   7
BRANCH   2  10
ATOM     10  O   UNL     1      48.771  47.755  33.073  1.00  0.00    -0.507 OA
ATOM     11  H   UNL     1      48.952  48.576  32.508  1.00  0.00     0.293 HD
ENDBRANCH   2  10
TORSDOF 2
ENDMDL
MODEL 3
REMARK VINA RESULT:    -4.613      2.260      3.959
REMARK INTER + INTRA:          -5.271
REMARK INTER:                  -5.047
REMARK INTRA:                  -0.223
REMARK UNBOUND:                -0.253
REMARK SMILES O=C([O-])c1ccccc1O
REMARK SMILES IDX 4 1 9 2 5 3 8 4 6 5 7 6 2 7 1 8 3 9 10 10
REMARK H PARENT 10 11
REMARK Flexibility Score: inf
ROOT
ATOM      1  C   UNL     1      49.635  50.035  36.117  1.00  0.00     0.039 A 
ATOM      2  C   UNL     1      48.960  48.856  36.515  1.00  0.00     0.124 A 
ATOM      3  C   UNL     1      49.019  50.886  35.180  1.00  0.00     0.014 A 
ATOM      4  C   UNL     1      47.700  48.555  35.975  1.00  0.00     0.047 A 
ATOM      5  C   UNL     1      47.765  50.574  34.650  1.00  0.00     0.001 A 
ATOM      6  C   UNL     1      47.106  49.411  35.047  1.00  0.00     0.004 A 
ENDROOT
BRANCH   1   7
ATOM      7  C   UNL     1      50.970  50.397  36.659  1.00  0.00     0.075 C 
ATOM      8  O   UNL     1      51.139  51.459  37.314  1.00  0.00    -0.545 OA
ATOM      9  O   UNL     1      52.062  49.563  36.449  1.00  0.00    -0.545 OA
ENDBRANCH   1   7
BRANCH   2  10
ATOM     10  O   UNL     1      49.532  47.983  37.441  1.00  0.00    -0.507 OA
ATOM     11  H   UNL     1      50.031  47.150  37.152  1.00  0.00     0.293 HD
ENDBRANCH   2  10
TORSDOF 2
ENDMDL
MODEL 4
REMARK VINA RESULT:    -4.569      1.647      2.116
REMARK INTER + INTRA:          -5.223
REMARK INTER:                  -5.013
REMARK INTRA:                  -0.210
REMARK UNBOUND:                -0.253
REMARK SMILES O=C([O-])c1ccccc1O
REMARK SMILES IDX 4 1 9 2 5 3 8 4 6 5 7 6 2 7 1 8 3 9 10 10
REMARK H PARENT 10 11
REMARK Flexibility Score: inf
ROOT
ATOM      1  C   UNL     1      46.810  48.152  34.828  1.00  0.00     0.039 A 
ATOM      2  C   UNL     1      47.612  47.485  33.871  1.00  0.00     0.124 A 
ATOM      3  C   UNL     1      47.186  49.443  35.246  1.00  0.00     0.014 A 
ATOM      4  C   UNL     1      48.758  48.112  33.359  1.00  0.00     0.047 A 
ATOM      5  C   UNL     1      48.329  50.056  34.728  1.00  0.00     0.001 A 
ATOM      6  C   UNL     1      49.114  49.392  33.785  1.00  0.00     0.004 A 
ENDROOT
BRANCH   1   7
ATOM      7  C   UNL     1      45.589  47.531  35.401  1.00  0.00     0.075 C 
ATOM      8  O   UNL     1      44.669  48.238  35.890  1.00  0.00    -0.545 OA
ATOM      9  O   UNL     1      45.442  46.149  35.407  1.00  0.00    -0.545 OA
ENDBRANCH   1   7
BRANCH   2  10
ATOM     10  O   UNL     1      47.279  46.204  33.428  1.00  0.00    -0.507 OA
ATOM     11  H   UNL     1      47.094  46.009  32.452  1.00  0.00     0.293 HD
ENDBRANCH   2  10
TORSDOF 2
ENDMDL
MODEL 5
REMARK VINA RESULT:    -4.556      2.274      3.474
REMARK INTER + INTRA:          -5.209
REMARK INTER:                  -4.997
REMARK INTRA:                  -0.213
REMARK UNBOUND:                -0.253
REMARK SMILES O=C([O-])c1ccccc1O
REMARK SMILES IDX 4 1 9 2 5 3 8 4 6 5 7 6 2 7 1 8 3 9 10 10
REMARK H PARENT 10 11
REMARK Flexibility Score: inf
ROOT
ATOM      1  C   UNL     1      48.214  49.153  35.861  1.00  0.00     0.039 A 
ATOM      2  C   UNL     1      48.471  48.132  36.807  1.00  0.00     0.124 A 
ATOM      3  C   UNL     1      46.986  49.148  35.173  1.00  0.00     0.014 A 
ATOM      4  C   UNL     1      47.508  47.139  37.042  1.00  0.00     0.047 A 
ATOM      5  C   UNL     1      46.036  48.153  35.417  1.00  0.00     0.001 A 
ATOM      6  C   UNL     1      46.296  47.150  36.350  1.00  0.00     0.004 A 
ENDROOT
BRANCH   1   7
ATOM      7  C   UNL     1      49.200  50.227  35.576  1.00  0.00     0.075 C 
ATOM      8  O   UNL     1      48.835  51.337  35.109  1.00  0.00    -0.545 OA
ATOM      9  O   UNL     1      50.553  50.019  35.822  1.00  0.00    -0.545 OA
ENDBRANCH   1   7
BRANCH   2  10
ATOM     10  O   UNL     1      49.674  48.097  37.512  1.00  0.00    -0.507 OA
ATOM     11  H   UNL     1      49.826  48.665  38.337  1.00  0.00     0.293 HD
ENDBRANCH   2  10
TORSDOF 2
ENDMDL
MODEL 6
REMARK VINA RESULT:    -4.515      1.025      2.511
REMARK INTER + INTRA:          -5.165
REMARK INTER:                  -4.919
REMARK INTRA:                  -0.246
REMARK UNBOUND:                -0.253
REMARK SMILES O=C([O-])c1ccccc1O
REMARK SMILES IDX 4 1 9 2 5 3 8 4 6 5 7 6 2 7 1 8 3 9 10 10
REMARK H PARENT 10 11
REMARK Flexibility Score: inf
ROOT
ATOM      1  C   UNL     1      48.284  48.518  36.361  1.00  0.00     0.039 A 
ATOM      2  C   UNL     1      47.348  49.075  35.456  1.00  0.00     0.124 A 
ATOM      3  C   UNL     1      49.502  49.191  36.575  1.00  0.00     0.014 A 
ATOM      4  C   UNL     1      47.645  50.275  34.792  1.00  0.00     0.047 A 
ATOM      5  C   UNL     1      49.785  50.385  35.908  1.00  0.00     0.001 A 
ATOM      6  C   UNL     1      48.858  50.927  35.018  1.00  0.00     0.004 A 
ENDROOT
BRANCH   1   7
ATOM      7  C   UNL     1      48.017  47.251  37.087  1.00  0.00     0.075 C 
ATOM      8  O   UNL     1      48.389  47.095  38.280  1.00  0.00    -0.545 OA
ATOM      9  O   UNL     1      47.348  46.209  36.455  1.00  0.00    -0.545 OA
ENDBRANCH   1   7
BRANCH   2  10
ATOM     10  O   UNL     1      46.128  48.444  35.211  1.00  0.00    -0.507 OA
ATOM     11  H   UNL     1      45.883  47.567  35.654  1.00  0.00     0.293 HD
ENDBRANCH   2  10
TORSDOF 2
ENDMDL
MODEL 7
REMARK VINA RESULT:    -4.505      2.756      4.364
REMARK INTER + INTRA:          -5.154
REMARK INTER:                  -4.903
REMARK INTRA:                  -0.251
REMARK UNBOUND:                -0.253
REMARK SMILES O=C([O-])c1ccccc1O
REMARK SMILES IDX 4 1 9 2 5 3 8 4 6 5 7 6 2 7 1 8 3 9 10 10
REMARK H PARENT 10 11
REMARK Flexibility Score: inf
ROOT
ATOM      1  C   UNL     1      49.225  49.351  36.223  1.00  0.00     0.039 A 
ATOM      2  C   UNL     1      48.379  50.027  35.312  1.00  0.00     0.124 A 
ATOM      3  C   UNL     1      48.766  48.161  36.820  1.00  0.00     0.014 A 
ATOM      4  C   UNL     1      47.108  49.508  35.020  1.00  0.00     0.047 A 
ATOM      5  C   UNL     1      47.499  47.656  36.521  1.00  0.00     0.001 A 
ATOM      6  C   UNL     1      46.671  48.328  35.622  1.00  0.00     0.004 A 
ENDROOT
BRANCH   1   7
ATOM      7  C   UNL     1      50.578  49.859  36.565  1.00  0.00     0.075 C 
ATOM      8  O   UNL     1      51.592  49.116  36.481  1.00  0.00    -0.545 OA
ATOM      9  O   UNL     1      50.747  51.172  36.988  1.00  0.00    -0.545 OA
ENDBRANCH   1   7
BRANCH   2  10
ATOM     10  O   UNL     1      48.791  51.210  34.697  1.00  0.00    -0.507 OA
ATOM     11  H   UNL     1      49.132  51.224  33.743  1.00  0.00     0.293 HD
ENDBRANCH   2  10
TORSDOF 2
ENDMDL
MODEL 8
REMARK VINA RESULT:    -4.505      2.967      3.733
REMARK INTER + INTRA:          -5.153
REMARK INTER:                  -4.905
REMARK INTRA:                  -0.248
REMARK UNBOUND:                -0.253
REMARK SMILES O=C([O-])c1ccccc1O
REMARK SMILES IDX 4 1 9 2 5 3 8 4 6 5 7 6 2 7 1 8 3 9 10 10
REMARK H PARENT 10 11
REMARK Flexibility Score: inf
ROOT
ATOM      1  C   UNL     1      46.037  46.080  34.276  1.00  0.00     0.039 A 
ATOM      2  C   UNL     1      47.158  46.859  33.901  1.00  0.00     0.124 A 
ATOM      3  C   UNL     1      45.136  46.600  35.225  1.00  0.00     0.014 A 
ATOM      4  C   UNL     1      47.353  48.125  34.475  1.00  0.00     0.047 A 
ATOM      5  C   UNL     1      45.342  47.861  35.788  1.00  0.00     0.001 A 
ATOM      6  C   UNL     1      46.448  48.623  35.414  1.00  0.00     0.004 A 
ENDROOT
BRANCH   1   7
ATOM      7  C   UNL     1      45.786  44.735  33.699  1.00  0.00     0.075 C 
ATOM      8  O   UNL     1      44.684  44.455  33.157  1.00  0.00    -0.545 OA
ATOM      9  O   UNL     1      46.772  43.756  33.749  1.00  0.00    -0.545 OA
ENDBRANCH   1   7
BRANCH   2  10
ATOM     10  O   UNL     1      48.077  46.385  32.966  1.00  0.00    -0.507 OA
ATOM     11  H   UNL     1      48.620  47.013  32.385  1.00  0.00     0.293 HD
ENDBRANCH   2  10
TORSDOF 2
ENDMDL
MODEL 9
REMARK VINA RESULT:    -4.441      2.199      3.305
REMARK INTER + INTRA:          -5.084
REMARK INTER:                  -4.829
REMARK INTRA:                  -0.255
REMARK UNBOUND:                -0.253
REMARK SMILES O=C([O-])c1ccccc1O
REMARK SMILES IDX 4 1 9 2 5 3 8 4 6 5 7 6 2 7 1 8 3 9 10 10
REMARK H PARENT 10 11
REMARK Flexibility Score: inf
ROOT
ATOM      1  C   UNL     1      46.615  46.524  34.240  1.00  0.00     0.039 A 
ATOM      2  C   UNL     1      45.864  47.341  35.118  1.00  0.00     0.124 A 
ATOM      3  C   UNL     1      47.785  47.050  33.658  1.00  0.00     0.014 A 
ATOM      4  C   UNL     1      46.291  48.650  35.393  1.00  0.00     0.047 A 
ATOM      5  C   UNL     1      48.198  48.354  33.940  1.00  0.00     0.001 A 
ATOM      6  C   UNL     1      47.452  49.153  34.807  1.00  0.00     0.004 A 
ENDROOT
BRANCH   1   7
ATOM      7  C   UNL     1      46.206  45.133  33.916  1.00  0.00     0.075 C 
ATOM      8  O   UNL     1      47.036  44.187  33.953  1.00  0.00    -0.545 OA
ATOM      9  O   UNL     1      44.891  44.854  33.565  1.00  0.00    -0.545 OA
ENDBRANCH   1   7
BRANCH   2  10
ATOM     10  O   UNL     1      44.698  46.863  35.717  1.00  0.00    -0.507 OA
ATOM     11  H   UNL     1      43.919  46.520  35.169  1.00  0.00     0.293 HD
ENDBRANCH   2  10
TORSDOF 2
ENDMDL
