MODEL 1
REMARK VINA RESULT:    -3.147      0.000      0.000
REMARK INTER + INTRA:          -7.378
REMARK INTER:                  -5.355
REMARK INTRA:                  -2.022
REMARK UNBOUND:                -2.022
REMARK SMILES CC(=O)CCC[C@@H](C)CCC[C@@H](C)CCCC(C)C
REMARK SMILES IDX 10 1 11 2 12 3 13 4 14 5 15 6 16 7 17 8 18 9 19 10 9 11 7 12
REMARK SMILES IDX 8 13 6 14 5 15 4 16 2 17 3 18 1 19
REMARK H PARENT
REMARK Flexibility Score: inf
ROOT
ATOM      1  C   UNL     1       9.620  -3.664  -3.691  1.00  0.00     0.001 C 
ENDROOT
BRANCH   1   2
ATOM      2  C   UNL     1       8.400  -3.430  -4.606  1.00  0.00     0.003 C 
BRANCH   2   3
ATOM      3  C   UNL     1       8.196  -4.491  -5.716  1.00  0.00    -0.014 C 
ATOM      4  C   UNL     1       8.700  -5.884  -5.300  1.00  0.00     0.007 C 
BRANCH   3   5
ATOM      5  C   UNL     1       6.738  -4.521  -6.260  1.00  0.00     0.003 C 
BRANCH   5   6
ATOM      6  C   UNL     1       5.610  -4.928  -5.283  1.00  0.00     0.001 C 
BRANCH   6   7
ATOM      7  C   UNL     1       5.282  -3.926  -4.160  1.00  0.00     0.003 C 
BRANCH   7   8
ATOM      8  C   UNL     1       5.213  -4.529  -2.736  1.00  0.00    -0.017 C 
ATOM      9  C   UNL     1       6.013  -5.838  -2.687  1.00  0.00     0.007 C 
ATOM     10  C   UNL     1       5.741  -3.555  -1.672  1.00  0.00     0.007 C 
ENDBRANCH   7   8
ENDBRANCH   6   7
ENDBRANCH   5   6
ENDBRANCH   3   5
ENDBRANCH   2   3
ENDBRANCH   1   2
BRANCH   1  11
ATOM     11  C   UNL     1       9.293  -3.944  -2.209  1.00  0.00     0.003 C 
BRANCH  11  12
ATOM     12  C   UNL     1       9.519  -5.408  -1.751  1.00  0.00    -0.014 C 
ATOM     13  C   UNL     1       9.039  -5.587  -0.303  1.00  0.00     0.007 C 
BRANCH  12  14
ATOM     14  C   UNL     1      10.974  -5.917  -1.933  1.00  0.00     0.004 C 
BRANCH  14  15
ATOM     15  C   UNL     1      11.949  -5.483  -0.821  1.00  0.00     0.008 C 
BRANCH  15  16
ATOM     16  C   UNL     1      12.601  -4.127  -1.124  1.00  0.00     0.075 C 
BRANCH  16  17
ATOM     17  C   UNL     1      13.381  -4.150  -2.413  1.00  0.00     0.129 C 
ATOM     18  O   UNL     1      13.104  -3.359  -3.301  1.00  0.00    -0.300 OA
ATOM     19  C   UNL     1      14.476  -5.150  -2.634  1.00  0.00     0.087 C 
ENDBRANCH  16  17
ENDBRANCH  15  16
ENDBRANCH  14  15
ENDBRANCH  12  14
ENDBRANCH  11  12
ENDBRANCH   1  11
TORSDOF 12
ENDMDL
MODEL 2
REMARK VINA RESULT:    -3.090     11.175     13.330
REMARK INTER + INTRA:          -7.280
REMARK INTER:                  -4.758
REMARK INTRA:                  -2.523
REMARK UNBOUND:                -2.022
REMARK SMILES CC(=O)CCC[C@@H](C)CCC[C@@H](C)CCCC(C)C
REMARK SMILES IDX 10 1 11 2 12 3 13 4 14 5 15 6 16 7 17 8 18 9 19 10 9 11 7 12
REMARK SMILES IDX 8 13 6 14 5 15 4 16 2 17 3 18 1 19
REMARK H PARENT
REMARK Flexibility Score: inf
ROOT
ATOM      1  C   UNL     1       7.961   9.042  -9.241  1.00  0.00     0.001 C 
ENDROOT
BRANCH   1   2
ATOM      2  C   UNL     1       8.897   8.086 -10.010  1.00  0.00     0.003 C 
BRANCH   2   3
ATOM      3  C   UNL     1      10.052   7.482  -9.173  1.00  0.00    -0.014 C 
ATOM      4  C   UNL     1       9.822   7.628  -7.660  1.00  0.00     0.007 C 
BRANCH   3   5
ATOM      5  C   UNL     1      10.396   6.022  -9.589  1.00  0.00     0.003 C 
BRANCH   5   6
ATOM      6  C   UNL     1       9.273   5.166 -10.218  1.00  0.00     0.001 C 
BRANCH   6   7
ATOM      7  C   UNL     1       8.828   3.926  -9.419  1.00  0.00     0.003 C 
BRANCH   7   8
ATOM      8  C   UNL     1       8.813   4.101  -7.881  1.00  0.00    -0.017 C 
ATOM      9  C   UNL     1       7.434   3.722  -7.328  1.00  0.00     0.007 C 
ATOM     10  C   UNL     1       9.900   3.259  -7.196  1.00  0.00     0.007 C 
ENDBRANCH   7   8
ENDBRANCH   6   7
ENDBRANCH   5   6
ENDBRANCH   3   5
ENDBRANCH   2   3
ENDBRANCH   1   2
BRANCH   1  11
ATOM     11  C   UNL     1       6.506   8.556  -9.077  1.00  0.00     0.003 C 
BRANCH  11  12
ATOM     12  C   UNL     1       6.352   7.107  -8.550  1.00  0.00    -0.014 C 
ATOM     13  C   UNL     1       5.668   6.230  -9.610  1.00  0.00     0.007 C 
BRANCH  12  14
ATOM     14  C   UNL     1       5.635   6.999  -7.178  1.00  0.00     0.004 C 
BRANCH  14  15
ATOM     15  C   UNL     1       6.575   7.059  -5.958  1.00  0.00     0.008 C 
BRANCH  15  16
ATOM     16  C   UNL     1       6.414   8.368  -5.172  1.00  0.00     0.075 C 
BRANCH  16  17
ATOM     17  C   UNL     1       5.843   8.137  -3.798  1.00  0.00     0.129 C 
ATOM     18  O   UNL     1       5.724   6.997  -3.377  1.00  0.00    -0.300 OA
ATOM     19  C   UNL     1       5.390   9.285  -2.947  1.00  0.00     0.087 C 
ENDBRANCH  16  17
ENDBRANCH  15  16
ENDBRANCH  14  15
ENDBRANCH  12  14
ENDBRANCH  11  12
ENDBRANCH   1  11
TORSDOF 12
ENDMDL
MODEL 3
REMARK VINA RESULT:    -3.081     11.205     13.331
REMARK INTER + INTRA:          -7.265
REMARK INTER:                  -4.795
REMARK INTRA:                  -2.470
REMARK UNBOUND:                -2.022
REMARK SMILES CC(=O)CCC[C@@H](C)CCC[C@@H](C)CCCC(C)C
REMARK SMILES IDX 10 1 11 2 12 3 13 4 14 5 15 6 16 7 17 8 18 9 19 10 9 11 7 12
REMARK SMILES IDX 8 13 6 14 5 15 4 16 2 17 3 18 1 19
REMARK H PARENT
REMARK Flexibility Score: inf
ROOT
ATOM      1  C   UNL     1       9.520   4.543  -8.702  1.00  0.00     0.001 C 
ENDROOT
BRANCH   1   2
ATOM      2  C   UNL     1       9.740   5.519  -9.877  1.00  0.00     0.003 C 
BRANCH   2   3
ATOM      3  C   UNL     1       9.570   7.019  -9.527  1.00  0.00    -0.014 C 
ATOM      4  C   UNL     1       8.252   7.604 -10.063  1.00  0.00     0.007 C 
BRANCH   3   5
ATOM      5  C   UNL     1       9.782   7.311  -8.013  1.00  0.00     0.003 C 
BRANCH   5   6
ATOM      6  C   UNL     1      10.574   8.582  -7.626  1.00  0.00     0.001 C 
BRANCH   6   7
ATOM      7  C   UNL     1       9.795   9.667  -6.859  1.00  0.00     0.003 C 
BRANCH   7   8
ATOM      8  C   UNL     1       8.421   9.225  -6.301  1.00  0.00    -0.017 C 
ATOM      9  C   UNL     1       8.320   9.592  -4.815  1.00  0.00     0.007 C 
ATOM     10  C   UNL     1       7.255   9.858  -7.075  1.00  0.00     0.007 C 
ENDBRANCH   7   8
ENDBRANCH   6   7
ENDBRANCH   5   6
ENDBRANCH   3   5
ENDBRANCH   2   3
ENDBRANCH   1   2
BRANCH   1  11
ATOM     11  C   UNL     1       8.281   3.631  -8.819  1.00  0.00     0.003 C 
BRANCH  11  12
ATOM     12  C   UNL     1       7.065   4.060  -7.960  1.00  0.00    -0.014 C 
ATOM     13  C   UNL     1       6.093   4.900  -8.803  1.00  0.00     0.007 C 
BRANCH  12  14
ATOM     14  C   UNL     1       7.439   4.783  -6.639  1.00  0.00     0.004 C 
BRANCH  14  15
ATOM     15  C   UNL     1       6.597   6.037  -6.334  1.00  0.00     0.008 C 
BRANCH  15  16
ATOM     16  C   UNL     1       5.711   5.848  -5.094  1.00  0.00     0.075 C 
BRANCH  16  17
ATOM     17  C   UNL     1       5.465   7.146  -4.371  1.00  0.00     0.129 C 
ATOM     18  O   UNL     1       5.926   7.311  -3.252  1.00  0.00    -0.300 OA
ATOM     19  C   UNL     1       4.636   8.230  -4.992  1.00  0.00     0.087 C 
ENDBRANCH  16  17
ENDBRANCH  15  16
ENDBRANCH  14  15
ENDBRANCH  12  14
ENDBRANCH  11  12
ENDBRANCH   1  11
TORSDOF 12
ENDMDL
MODEL 4
REMARK VINA RESULT:    -3.034     11.997     14.646
REMARK INTER + INTRA:          -7.185
REMARK INTER:                  -5.106
REMARK INTRA:                  -2.079
REMARK UNBOUND:                -2.022
REMARK SMILES CC(=O)CCC[C@@H](C)CCC[C@@H](C)CCCC(C)C
REMARK SMILES IDX 10 1 11 2 12 3 13 4 14 5 15 6 16 7 17 8 18 9 19 10 9 11 7 12
REMARK SMILES IDX 8 13 6 14 5 15 4 16 2 17 3 18 1 19
REMARK H PARENT
REMARK Flexibility Score: inf
ROOT
ATOM      1  C   UNL     1      15.423  -1.492   7.846  1.00  0.00     0.001 C 
ENDROOT
BRANCH   1   2
ATOM      2  C   UNL     1      15.152  -2.635   6.845  1.00  0.00     0.003 C 
BRANCH   2   3
ATOM      3  C   UNL     1      16.196  -3.780   6.857  1.00  0.00    -0.014 C 
ATOM      4  C   UNL     1      15.787  -4.959   5.958  1.00  0.00     0.007 C 
BRANCH   3   5
ATOM      5  C   UNL     1      17.641  -3.279   6.567  1.00  0.00     0.003 C 
BRANCH   5   6
ATOM      6  C   UNL     1      17.993  -2.892   5.112  1.00  0.00     0.001 C 
BRANCH   6   7
ATOM      7  C   UNL     1      18.123  -1.386   4.816  1.00  0.00     0.003 C 
BRANCH   7   8
ATOM      8  C   UNL     1      19.573  -0.853   4.727  1.00  0.00    -0.017 C 
ATOM      9  C   UNL     1      19.812  -0.225   3.348  1.00  0.00     0.007 C 
ATOM     10  C   UNL     1      19.878   0.175   5.828  1.00  0.00     0.007 C 
ENDBRANCH   7   8
ENDBRANCH   6   7
ENDBRANCH   5   6
ENDBRANCH   3   5
ENDBRANCH   2   3
ENDBRANCH   1   2
BRANCH   1  11
ATOM     11  C   UNL     1      15.776  -0.129   7.215  1.00  0.00     0.003 C 
BRANCH  11  12
ATOM     12  C   UNL     1      16.921   0.644   7.917  1.00  0.00    -0.014 C 
ATOM     13  C   UNL     1      17.763  -0.319   8.768  1.00  0.00     0.007 C 
BRANCH  12  14
ATOM     14  C   UNL     1      16.451   1.869   8.746  1.00  0.00     0.004 C 
BRANCH  14  15
ATOM     15  C   UNL     1      17.522   2.960   8.942  1.00  0.00     0.008 C 
BRANCH  15  16
ATOM     16  C   UNL     1      18.165   3.379   7.613  1.00  0.00     0.075 C 
BRANCH  16  17
ATOM     17  C   UNL     1      19.667   3.448   7.708  1.00  0.00     0.129 C 
ATOM     18  O   UNL     1      20.292   4.137   6.915  1.00  0.00    -0.300 OA
ATOM     19  C   UNL     1      20.412   2.660   8.743  1.00  0.00     0.087 C 
ENDBRANCH  16  17
ENDBRANCH  15  16
ENDBRANCH  14  15
ENDBRANCH  12  14
ENDBRANCH  11  12
ENDBRANCH   1  11
TORSDOF 12
ENDMDL
MODEL 5
REMARK VINA RESULT:    -2.972     10.921     12.741
REMARK INTER + INTRA:          -7.079
REMARK INTER:                  -5.098
REMARK INTRA:                  -1.981
REMARK UNBOUND:                -2.022
REMARK SMILES CC(=O)CCC[C@@H](C)CCC[C@@H](C)CCCC(C)C
REMARK SMILES IDX 10 1 11 2 12 3 13 4 14 5 15 6 16 7 17 8 18 9 19 10 9 11 7 12
REMARK SMILES IDX 8 13 6 14 5 15 4 16 2 17 3 18 1 19
REMARK H PARENT
REMARK Flexibility Score: inf
ROOT
ATOM      1  C   UNL     1       7.127   7.620  -7.284  1.00  0.00     0.001 C 
ENDROOT
BRANCH   1   2
ATOM      2  C   UNL     1       7.130   6.418  -6.316  1.00  0.00     0.003 C 
BRANCH   2   3
ATOM      3  C   UNL     1       5.728   5.903  -5.903  1.00  0.00    -0.014 C 
ATOM      4  C   UNL     1       5.559   4.393  -6.146  1.00  0.00     0.007 C 
BRANCH   3   5
ATOM      5  C   UNL     1       5.335   6.324  -4.457  1.00  0.00     0.003 C 
BRANCH   5   6
ATOM      6  C   UNL     1       5.140   7.832  -4.171  1.00  0.00     0.001 C 
BRANCH   6   7
ATOM      7  C   UNL     1       6.271   8.534  -3.397  1.00  0.00     0.003 C 
BRANCH   7   8
ATOM      8  C   UNL     1       7.028   9.632  -4.184  1.00  0.00    -0.017 C 
ATOM      9  C   UNL     1       6.382  10.998  -3.920  1.00  0.00     0.007 C 
ATOM     10  C   UNL     1       8.519   9.680  -3.817  1.00  0.00     0.007 C 
ENDBRANCH   7   8
ENDBRANCH   6   7
ENDBRANCH   5   6
ENDBRANCH   3   5
ENDBRANCH   2   3
ENDBRANCH   1   2
BRANCH   1  11
ATOM     11  C   UNL     1       8.491   8.312  -7.485  1.00  0.00     0.003 C 
BRANCH  11  12
ATOM     12  C   UNL     1       9.617   7.399  -8.035  1.00  0.00    -0.014 C 
ATOM     13  C   UNL     1      10.937   8.181  -8.115  1.00  0.00     0.007 C 
BRANCH  12  14
ATOM     14  C   UNL     1       9.282   6.714  -9.385  1.00  0.00     0.004 C 
BRANCH  14  15
ATOM     15  C   UNL     1       9.719   5.239  -9.481  1.00  0.00     0.008 C 
BRANCH  15  16
ATOM     16  C   UNL     1       8.659   4.287  -8.908  1.00  0.00     0.075 C 
BRANCH  16  17
ATOM     17  C   UNL     1       9.262   3.256  -7.990  1.00  0.00     0.129 C 
ATOM     18  O   UNL     1       9.266   2.080  -8.321  1.00  0.00    -0.300 OA
ATOM     19  C   UNL     1       9.832   3.646  -6.659  1.00  0.00     0.087 C 
ENDBRANCH  16  17
ENDBRANCH  15  16
ENDBRANCH  14  15
ENDBRANCH  12  14
ENDBRANCH  11  12
ENDBRANCH   1  11
TORSDOF 12
ENDMDL
MODEL 6
REMARK VINA RESULT:    -2.961     10.895     12.636
REMARK INTER + INTRA:          -7.061
REMARK INTER:                  -4.541
REMARK INTRA:                  -2.520
REMARK UNBOUND:                -2.022
REMARK SMILES CC(=O)CCC[C@@H](C)CCC[C@@H](C)CCCC(C)C
REMARK SMILES IDX 10 1 11 2 12 3 13 4 14 5 15 6 16 7 17 8 18 9 19 10 9 11 7 12
REMARK SMILES IDX 8 13 6 14 5 15 4 16 2 17 3 18 1 19
REMARK H PARENT
REMARK Flexibility Score: inf
ROOT
ATOM      1  C   UNL     1       8.856   3.955  -7.052  1.00  0.00     0.001 C 
ENDROOT
BRANCH   1   2
ATOM      2  C   UNL     1       7.580   4.774  -6.770  1.00  0.00     0.003 C 
BRANCH   2   3
ATOM      3  C   UNL     1       6.276   4.187  -7.368  1.00  0.00    -0.014 C 
ATOM      4  C   UNL     1       5.508   3.313  -6.362  1.00  0.00     0.007 C 
BRANCH   3   5
ATOM      5  C   UNL     1       5.376   5.272  -8.028  1.00  0.00     0.003 C 
BRANCH   5   6
ATOM      6  C   UNL     1       5.752   6.756  -7.808  1.00  0.00     0.001 C 
BRANCH   6   7
ATOM      7  C   UNL     1       5.018   7.487  -6.668  1.00  0.00     0.003 C 
BRANCH   7   8
ATOM      8  C   UNL     1       5.812   7.614  -5.345  1.00  0.00    -0.017 C 
ATOM      9  C   UNL     1       5.641   9.026  -4.771  1.00  0.00     0.007 C 
ATOM     10  C   UNL     1       5.374   6.571  -4.307  1.00  0.00     0.007 C 
ENDBRANCH   7   8
ENDBRANCH   6   7
ENDBRANCH   5   6
ENDBRANCH   3   5
ENDBRANCH   2   3
ENDBRANCH   1   2
BRANCH   1  11
ATOM     11  C   UNL     1       9.576   4.283  -8.377  1.00  0.00     0.003 C 
BRANCH  11  12
ATOM     12  C   UNL     1       9.171   5.629  -9.029  1.00  0.00    -0.014 C 
ATOM     13  C   UNL     1       8.453   5.374 -10.363  1.00  0.00     0.007 C 
BRANCH  12  14
ATOM     14  C   UNL     1      10.341   6.634  -9.199  1.00  0.00     0.004 C 
BRANCH  14  15
ATOM     15  C   UNL     1      10.479   7.656  -8.053  1.00  0.00     0.008 C 
BRANCH  15  16
ATOM     16  C   UNL     1       9.128   7.965  -7.393  1.00  0.00     0.075 C 
BRANCH  16  17
ATOM     17  C   UNL     1       9.107   9.332  -6.760  1.00  0.00     0.129 C 
ATOM     18  O   UNL     1       9.905   9.601  -5.876  1.00  0.00    -0.300 OA
ATOM     19  C   UNL     1       8.099  10.361  -7.177  1.00  0.00     0.087 C 
ENDBRANCH  16  17
ENDBRANCH  15  16
ENDBRANCH  14  15
ENDBRANCH  12  14
ENDBRANCH  11  12
ENDBRANCH   1  11
TORSDOF 12
ENDMDL
MODEL 7
REMARK VINA RESULT:    -2.960     10.985     12.922
REMARK INTER + INTRA:          -7.059
REMARK INTER:                  -5.019
REMARK INTRA:                  -2.040
REMARK UNBOUND:                -2.022
REMARK SMILES CC(=O)CCC[C@@H](C)CCC[C@@H](C)CCCC(C)C
REMARK SMILES IDX 10 1 11 2 12 3 13 4 14 5 15 6 16 7 17 8 18 9 19 10 9 11 7 12
REMARK SMILES IDX 8 13 6 14 5 15 4 16 2 17 3 18 1 19
REMARK H PARENT
REMARK Flexibility Score: inf
ROOT
ATOM      1  C   UNL     1      10.334   7.023  -8.884  1.00  0.00     0.001 C 
ENDROOT
BRANCH   1   2
ATOM      2  C   UNL     1       9.977   5.970  -9.955  1.00  0.00     0.003 C 
BRANCH   2   3
ATOM      3  C   UNL     1       9.100   4.794  -9.454  1.00  0.00    -0.014 C 
ATOM      4  C   UNL     1       8.804   3.767 -10.560  1.00  0.00     0.007 C 
BRANCH   3   5
ATOM      5  C   UNL     1       9.660   4.136  -8.160  1.00  0.00     0.003 C 
BRANCH   5   6
ATOM      6  C   UNL     1       8.688   3.931  -6.974  1.00  0.00     0.001 C 
BRANCH   6   7
ATOM      7  C   UNL     1       7.548   4.958  -6.838  1.00  0.00     0.003 C 
BRANCH   7   8
ATOM      8  C   UNL     1       6.146   4.448  -7.253  1.00  0.00    -0.017 C 
ATOM      9  C   UNL     1       5.599   5.307  -8.400  1.00  0.00     0.007 C 
ATOM     10  C   UNL     1       6.172   2.970  -7.673  1.00  0.00     0.007 C 
ENDBRANCH   7   8
ENDBRANCH   6   7
ENDBRANCH   5   6
ENDBRANCH   3   5
ENDBRANCH   2   3
ENDBRANCH   1   2
BRANCH   1  11
ATOM     11  C   UNL     1       9.422   8.267  -8.848  1.00  0.00     0.003 C 
BRANCH  11  12
ATOM     12  C   UNL     1       8.176   8.144  -7.934  1.00  0.00    -0.014 C 
ATOM     13  C   UNL     1       6.968   8.826  -8.594  1.00  0.00     0.007 C 
BRANCH  12  14
ATOM     14  C   UNL     1       8.394   8.654  -6.486  1.00  0.00     0.004 C 
BRANCH  14  15
ATOM     15  C   UNL     1       7.110   8.740  -5.637  1.00  0.00     0.008 C 
BRANCH  15  16
ATOM     16  C   UNL     1       7.405   9.167  -4.191  1.00  0.00     0.075 C 
BRANCH  16  17
ATOM     17  C   UNL     1       6.331   8.713  -3.238  1.00  0.00     0.129 C 
ATOM     18  O   UNL     1       6.012   7.534  -3.202  1.00  0.00    -0.300 OA
ATOM     19  C   UNL     1       5.623   9.692  -2.349  1.00  0.00     0.087 C 
ENDBRANCH  16  17
ENDBRANCH  15  16
ENDBRANCH  14  15
ENDBRANCH  12  14
ENDBRANCH  11  12
ENDBRANCH   1  11
TORSDOF 12
ENDMDL
MODEL 8
REMARK VINA RESULT:    -2.933     11.159     13.158
REMARK INTER + INTRA:          -7.013
REMARK INTER:                  -4.525
REMARK INTRA:                  -2.488
REMARK UNBOUND:                -2.022
REMARK SMILES CC(=O)CCC[C@@H](C)CCC[C@@H](C)CCCC(C)C
REMARK SMILES IDX 10 1 11 2 12 3 13 4 14 5 15 6 16 7 17 8 18 9 19 10 9 11 7 12
REMARK SMILES IDX 8 13 6 14 5 15 4 16 2 17 3 18 1 19
REMARK H PARENT
REMARK Flexibility Score: inf
ROOT
ATOM      1  C   UNL     1       7.399   4.183  -6.629  1.00  0.00     0.001 C 
ENDROOT
BRANCH   1   2
ATOM      2  C   UNL     1       8.878   4.035  -7.045  1.00  0.00     0.003 C 
BRANCH   2   3
ATOM      3  C   UNL     1       9.118   3.230  -8.346  1.00  0.00    -0.014 C 
ATOM      4  C   UNL     1       8.157   2.037  -8.488  1.00  0.00     0.007 C 
BRANCH   3   5
ATOM      5  C   UNL     1       9.145   4.131  -9.615  1.00  0.00     0.003 C 
BRANCH   5   6
ATOM      6  C   UNL     1       9.874   5.491  -9.520  1.00  0.00     0.001 C 
BRANCH   6   7
ATOM      7  C   UNL     1       9.037   6.742  -9.846  1.00  0.00     0.003 C 
BRANCH   7   8
ATOM      8  C   UNL     1       9.053   7.849  -8.763  1.00  0.00    -0.017 C 
ATOM      9  C   UNL     1      10.037   7.471  -7.649  1.00  0.00     0.007 C 
ATOM     10  C   UNL     1       9.427   9.220  -9.347  1.00  0.00     0.007 C 
ENDBRANCH   7   8
ENDBRANCH   6   7
ENDBRANCH   5   6
ENDBRANCH   3   5
ENDBRANCH   2   3
ENDBRANCH   1   2
BRANCH   1  11
ATOM     11  C   UNL     1       6.651   5.378  -7.256  1.00  0.00     0.003 C 
BRANCH  11  12
ATOM     12  C   UNL     1       6.555   6.638  -6.359  1.00  0.00    -0.014 C 
ATOM     13  C   UNL     1       5.806   6.304  -5.060  1.00  0.00     0.007 C 
BRANCH  12  14
ATOM     14  C   UNL     1       5.943   7.878  -7.063  1.00  0.00     0.004 C 
BRANCH  14  15
ATOM     15  C   UNL     1       5.864   9.141  -6.183  1.00  0.00     0.008 C 
BRANCH  15  16
ATOM     16  C   UNL     1       7.015  10.115  -6.470  1.00  0.00     0.075 C 
BRANCH  16  17
ATOM     17  C   UNL     1       8.160   9.936  -5.508  1.00  0.00     0.129 C 
ATOM     18  O   UNL     1       7.982   9.333  -4.461  1.00  0.00    -0.300 OA
ATOM     19  C   UNL     1       9.513  10.513  -5.802  1.00  0.00     0.087 C 
ENDBRANCH  16  17
ENDBRANCH  15  16
ENDBRANCH  14  15
ENDBRANCH  12  14
ENDBRANCH  11  12
ENDBRANCH   1  11
TORSDOF 12
ENDMDL
MODEL 9
REMARK VINA RESULT:    -2.868     11.225     13.146
REMARK INTER + INTRA:          -6.903
REMARK INTER:                  -4.694
REMARK INTRA:                  -2.209
REMARK UNBOUND:                -2.022
REMARK SMILES CC(=O)CCC[C@@H](C)CCC[C@@H](C)CCCC(C)C
REMARK SMILES IDX 10 1 11 2 12 3 13 4 14 5 15 6 16 7 17 8 18 9 19 10 9 11 7 12
REMARK SMILES IDX 8 13 6 14 5 15 4 16 2 17 3 18 1 19
REMARK H PARENT
REMARK Flexibility Score: inf
ROOT
ATOM      1  C   UNL     1       6.031   7.429  -7.013  1.00  0.00     0.001 C 
ENDROOT
BRANCH   1   2
ATOM      2  C   UNL     1       7.173   6.450  -6.665  1.00  0.00     0.003 C 
BRANCH   2   3
ATOM      3  C   UNL     1       6.748   4.967  -6.527  1.00  0.00    -0.014 C 
ATOM      4  C   UNL     1       5.508   4.628  -7.372  1.00  0.00     0.007 C 
BRANCH   3   5
ATOM      5  C   UNL     1       7.926   3.979  -6.771  1.00  0.00     0.003 C 
BRANCH   5   6
ATOM      6  C   UNL     1       9.225   4.543  -7.392  1.00  0.00     0.001 C 
BRANCH   6   7
ATOM      7  C   UNL     1       9.500   4.171  -8.861  1.00  0.00     0.003 C 
BRANCH   7   8
ATOM      8  C   UNL     1       9.470   5.355  -9.858  1.00  0.00    -0.017 C 
ATOM      9  C   UNL     1       8.017   5.733 -10.173  1.00  0.00     0.007 C 
ATOM     10  C   UNL     1      10.224   6.580  -9.320  1.00  0.00     0.007 C 
ENDBRANCH   7   8
ENDBRANCH   6   7
ENDBRANCH   5   6
ENDBRANCH   3   5
ENDBRANCH   2   3
ENDBRANCH   1   2
BRANCH   1  11
ATOM     11  C   UNL     1       5.444   8.214  -5.822  1.00  0.00     0.003 C 
BRANCH  11  12
ATOM     12  C   UNL     1       5.670   7.566  -4.432  1.00  0.00    -0.014 C 
ATOM     13  C   UNL     1       4.414   6.794  -3.999  1.00  0.00     0.007 C 
BRANCH  12  14
ATOM     14  C   UNL     1       6.132   8.558  -3.332  1.00  0.00     0.004 C 
BRANCH  14  15
ATOM     15  C   UNL     1       6.859   9.810  -3.862  1.00  0.00     0.008 C 
BRANCH  15  16
ATOM     16  C   UNL     1       8.365   9.569  -4.037  1.00  0.00     0.075 C 
BRANCH  16  17
ATOM     17  C   UNL     1       8.828   9.876  -5.437  1.00  0.00     0.129 C 
ATOM     18  O   UNL     1       9.886   9.415  -5.838  1.00  0.00    -0.300 OA
ATOM     19  C   UNL     1       8.025  10.765  -6.338  1.00  0.00     0.087 C 
ENDBRANCH  16  17
ENDBRANCH  15  16
ENDBRANCH  14  15
ENDBRANCH  12  14
ENDBRANCH  11  12
ENDBRANCH   1  11
TORSDOF 12
ENDMDL
