MODEL 1
REMARK VINA RESULT:    -6.706      0.000      0.000
REMARK INTER + INTRA:         -10.941
REMARK INTER:                  -9.450
REMARK INTRA:                  -1.491
REMARK UNBOUND:                -1.491
REMARK SMILES COc1c(O[C@H]2O[C@H](C(=O)[O-])[C@@H](O)[C@H](O)[C@H]2O)cc(O)c2c(=O)cc(-c3ccccc3)oc12
REMARK SMILES IDX 5 1 6 2 8 3 12 4 7 5 14 6 16 7 9 8 10 9 11 10 13 11 15 13
REMARK SMILES IDX 17 15 4 17 3 18 18 19 33 20 19 21 21 22 32 23 22 24 25 25
REMARK SMILES IDX 24 26 23 27 2 28 1 29 20 30 26 32 27 33 31 34 28 35 30 36
REMARK SMILES IDX 29 37
REMARK H PARENT 13 12 15 14 17 16 20 31
REMARK Flexibility Score: inf
ROOT
ATOM      1  O   UNL     1      30.979  26.060 -10.212  1.00  0.00    -0.458 OA
ENDROOT
BRANCH   1   2
ATOM      2  C   UNL     1      30.904  24.840 -10.965  1.00  0.00     0.339 C 
ATOM      3  C   UNL     1      30.283  23.617  -9.056  1.00  0.00     0.199 C 
ATOM      4  C   UNL     1      28.856  23.351  -9.578  1.00  0.00     0.180 C 
ATOM      5  O   UNL     1      31.205  23.732 -10.130  1.00  0.00    -0.328 OA
ATOM      6  C   UNL     1      28.439  24.470 -10.546  1.00  0.00     0.181 C 
ATOM      7  C   UNL     1      29.520  24.654 -11.626  1.00  0.00     0.214 C 
BRANCH   3   8
ATOM      8  C   UNL     1      30.723  22.483  -8.177  1.00  0.00     0.073 C 
ATOM      9  O   UNL     1      30.450  22.491  -6.948  1.00  0.00    -0.547 OA
ATOM     10  O   UNL     1      31.402  21.399  -8.723  1.00  0.00    -0.547 OA
ENDBRANCH   3   8
BRANCH   4  11
ATOM     11  O   UNL     1      27.962  23.304  -8.495  1.00  0.00    -0.387 OA
ATOM     12  H   UNL     1      27.084  23.623  -8.832  1.00  0.00     0.211 HD
ENDBRANCH   4  11
BRANCH   6  13
ATOM     13  O   UNL     1      27.214  24.129 -11.144  1.00  0.00    -0.387 OA
ATOM     14  H   UNL     1      26.819  23.400 -10.598  1.00  0.00     0.211 HD
ENDBRANCH   6  13
BRANCH   7  15
ATOM     15  O   UNL     1      29.217  25.761 -12.433  1.00  0.00    -0.384 OA
ATOM     16  H   UNL     1      29.458  25.517 -13.364  1.00  0.00     0.211 HD
ENDBRANCH   7  15
ENDBRANCH   1   2
BRANCH   1  17
ATOM     17  C   UNL     1      32.096  26.903 -10.076  1.00  0.00     0.172 A 
ATOM     18  C   UNL     1      32.133  28.063 -10.865  1.00  0.00     0.205 A 
ATOM     19  C   UNL     1      33.146  26.630  -9.183  1.00  0.00     0.097 A 
ATOM     20  C   UNL     1      33.231  28.952 -10.757  1.00  0.00     0.188 A 
ATOM     21  C   UNL     1      34.236  27.497  -9.069  1.00  0.00     0.134 A 
ATOM     22  C   UNL     1      34.288  28.668  -9.855  1.00  0.00     0.111 A 
ATOM     23  O   UNL     1      33.274  30.060 -11.494  1.00  0.00    -0.452 OA
ATOM     24  C   UNL     1      35.358  29.585  -9.780  1.00  0.00     0.197 A 
ATOM     25  C   UNL     1      34.261  30.951 -11.435  1.00  0.00     0.138 A 
ATOM     26  C   UNL     1      35.341  30.729 -10.573  1.00  0.00     0.100 A 
ATOM     27  O   UNL     1      36.337  29.394  -9.008  1.00  0.00    -0.289 OA
BRANCH  18  28
ATOM     28  O   UNL     1      31.042  28.269 -11.731  1.00  0.00    -0.490 OA
ATOM     29  C   UNL     1      29.937  29.137 -11.511  1.00  0.00     0.278 C 
ENDBRANCH  18  28
BRANCH  21  30
ATOM     30  O   UNL     1      35.259  27.187  -8.171  1.00  0.00    -0.507 OA
ATOM     31  H   UNL     1      35.076  26.726  -7.289  1.00  0.00     0.293 HD
ENDBRANCH  21  30
BRANCH  25  32
ATOM     32  C   UNL     1      34.193  32.157 -12.296  1.00  0.00     0.017 A 
ATOM     33  C   UNL     1      33.847  33.398 -11.732  1.00  0.00     0.012 A 
ATOM     34  C   UNL     1      34.501  32.098 -13.671  1.00  0.00     0.012 A 
ATOM     35  C   UNL     1      33.791  34.548 -12.525  1.00  0.00     0.001 A 
ATOM     36  C   UNL     1      34.446  33.251 -14.459  1.00  0.00     0.001 A 
ATOM     37  C   UNL     1      34.089  34.474 -13.888  1.00  0.00     0.000 A 
ENDBRANCH  25  32
ENDBRANCH   1  17
TORSDOF 9
ENDMDL
MODEL 2
REMARK VINA RESULT:    -6.664     10.918     12.359
REMARK INTER + INTRA:         -10.882
REMARK INTER:                  -9.428
REMARK INTRA:                  -1.455
REMARK UNBOUND:                -1.491
REMARK SMILES COc1c(O[C@H]2O[C@H](C(=O)[O-])[C@@H](O)[C@H](O)[C@H]2O)cc(O)c2c(=O)cc(-c3ccccc3)oc12
REMARK SMILES IDX 5 1 6 2 8 3 12 4 7 5 14 6 16 7 9 8 10 9 11 10 13 11 15 13
REMARK SMILES IDX 17 15 4 17 3 18 18 19 33 20 19 21 21 22 32 23 22 24 25 25
REMARK SMILES IDX 24 26 23 27 2 28 1 29 20 30 26 32 27 33 31 34 28 35 30 36
REMARK SMILES IDX 29 37
REMARK H PARENT 13 12 15 14 17 16 20 31
REMARK Flexibility Score: inf
ROOT
ATOM      1  O   UNL     1      24.981  20.312 -17.095  1.00  0.00    -0.458 OA
ENDROOT
BRANCH   1   2
ATOM      2  C   UNL     1      24.024  19.496 -17.788  1.00  0.00     0.339 C 
ATOM      3  C   UNL     1      22.472  19.703 -16.036  1.00  0.00     0.199 C 
ATOM      4  C   UNL     1      21.496  20.550 -16.878  1.00  0.00     0.180 C 
ATOM      5  O   UNL     1      23.206  18.806 -16.856  1.00  0.00    -0.328 OA
ATOM      6  C   UNL     1      22.272  21.308 -17.967  1.00  0.00     0.181 C 
ATOM      7  C   UNL     1      23.153  20.325 -18.758  1.00  0.00     0.214 C 
BRANCH   3   8
ATOM      8  C   UNL     1      21.707  18.898 -15.026  1.00  0.00     0.073 C 
ATOM      9  O   UNL     1      22.312  18.321 -14.085  1.00  0.00    -0.547 OA
ATOM     10  O   UNL     1      20.321  18.818 -15.102  1.00  0.00    -0.547 OA
ENDBRANCH   3   8
BRANCH   4  11
ATOM     11  O   UNL     1      20.833  21.466 -16.045  1.00  0.00    -0.387 OA
ATOM     12  H   UNL     1      20.477  20.951 -15.274  1.00  0.00     0.211 HD
ENDBRANCH   4  11
BRANCH   6  13
ATOM     13  O   UNL     1      21.359  21.937 -18.830  1.00  0.00    -0.387 OA
ATOM     14  H   UNL     1      21.050  21.249 -19.476  1.00  0.00     0.211 HD
ENDBRANCH   6  13
BRANCH   7  15
ATOM     15  O   UNL     1      23.967  21.023 -19.663  1.00  0.00    -0.384 OA
ATOM     16  H   UNL     1      23.367  21.432 -20.340  1.00  0.00     0.211 HD
ENDBRANCH   7  15
ENDBRANCH   1   2
BRANCH   1  17
ATOM     17  C   UNL     1      26.251  19.922 -16.634  1.00  0.00     0.172 A 
ATOM     18  C   UNL     1      27.337  20.090 -17.507  1.00  0.00     0.205 A 
ATOM     19  C   UNL     1      26.460  19.393 -15.350  1.00  0.00     0.097 A 
ATOM     20  C   UNL     1      28.639  19.722 -17.087  1.00  0.00     0.188 A 
ATOM     21  C   UNL     1      27.738  19.024 -14.924  1.00  0.00     0.134 A 
ATOM     22  C   UNL     1      28.842  19.187 -15.789  1.00  0.00     0.111 A 
ATOM     23  O   UNL     1      29.680  19.885 -17.901  1.00  0.00    -0.452 OA
ATOM     24  C   UNL     1      30.157  18.840 -15.414  1.00  0.00     0.197 A 
ATOM     25  C   UNL     1      30.933  19.582 -17.573  1.00  0.00     0.138 A 
ATOM     26  C   UNL     1      31.204  19.040 -16.310  1.00  0.00     0.100 A 
ATOM     27  O   UNL     1      30.413  18.349 -14.281  1.00  0.00    -0.289 OA
BRANCH  18  28
ATOM     28  O   UNL     1      27.048  20.631 -18.775  1.00  0.00    -0.490 OA
ATOM     29  C   UNL     1      27.261  21.973 -19.192  1.00  0.00     0.278 C 
ENDBRANCH  18  28
BRANCH  21  30
ATOM     30  O   UNL     1      27.903  18.499 -13.640  1.00  0.00    -0.507 OA
ATOM     31  H   UNL     1      28.064  19.093 -12.836  1.00  0.00     0.293 HD
ENDBRANCH  21  30
BRANCH  25  32
ATOM     32  C   UNL     1      32.013  19.820 -18.560  1.00  0.00     0.017 A 
ATOM     33  C   UNL     1      33.287  19.262 -18.349  1.00  0.00     0.012 A 
ATOM     34  C   UNL     1      31.787  20.570 -19.732  1.00  0.00     0.012 A 
ATOM     35  C   UNL     1      34.314  19.463 -19.276  1.00  0.00     0.001 A 
ATOM     36  C   UNL     1      32.816  20.767 -20.657  1.00  0.00     0.001 A 
ATOM     37  C   UNL     1      34.079  20.217 -20.428  1.00  0.00     0.000 A 
ENDBRANCH  25  32
ENDBRANCH   1  17
TORSDOF 9
ENDMDL
MODEL 3
REMARK VINA RESULT:    -6.613      2.342      4.930
REMARK INTER + INTRA:         -10.809
REMARK INTER:                  -9.521
REMARK INTRA:                  -1.288
REMARK UNBOUND:                -1.491
REMARK SMILES COc1c(O[C@H]2O[C@H](C(=O)[O-])[C@@H](O)[C@H](O)[C@H]2O)cc(O)c2c(=O)cc(-c3ccccc3)oc12
REMARK SMILES IDX 5 1 6 2 8 3 12 4 7 5 14 6 16 7 9 8 10 9 11 10 13 11 15 13
REMARK SMILES IDX 17 15 4 17 3 18 18 19 33 20 19 21 21 22 32 23 22 24 25 25
REMARK SMILES IDX 24 26 23 27 2 28 1 29 20 30 26 32 27 33 31 34 28 35 30 36
REMARK SMILES IDX 29 37
REMARK H PARENT 13 12 15 14 17 16 20 31
REMARK Flexibility Score: inf
ROOT
ATOM      1  O   UNL     1      30.435  23.565 -10.883  1.00  0.00    -0.458 OA
ENDROOT
BRANCH   1   2
ATOM      2  C   UNL     1      29.655  22.666 -10.080  1.00  0.00     0.339 C 
ATOM      3  C   UNL     1      30.303  20.824 -11.388  1.00  0.00     0.199 C 
ATOM      4  C   UNL     1      31.138  20.196 -10.253  1.00  0.00     0.180 C 
ATOM      5  O   UNL     1      29.213  21.569 -10.866  1.00  0.00    -0.328 OA
ATOM      6  C   UNL     1      31.628  21.296  -9.297  1.00  0.00     0.181 C 
ATOM      7  C   UNL     1      30.440  22.163  -8.848  1.00  0.00     0.214 C 
BRANCH   3   8
ATOM      8  C   UNL     1      29.754  19.744 -12.274  1.00  0.00     0.073 C 
ATOM      9  O   UNL     1      29.455  19.997 -13.470  1.00  0.00    -0.547 OA
ATOM     10  O   UNL     1      29.609  18.449 -11.788  1.00  0.00    -0.547 OA
ENDBRANCH   3   8
BRANCH   4  11
ATOM     11  O   UNL     1      32.240  19.518 -10.801  1.00  0.00    -0.387 OA
ATOM     12  H   UNL     1      32.041  19.375 -11.764  1.00  0.00     0.211 HD
ENDBRANCH   4  11
BRANCH   6  13
ATOM     13  O   UNL     1      32.238  20.698  -8.181  1.00  0.00    -0.387 OA
ATOM     14  H   UNL     1      31.727  20.991  -7.381  1.00  0.00     0.211 HD
ENDBRANCH   6  13
BRANCH   7  15
ATOM     15  O   UNL     1      30.893  23.251  -8.087  1.00  0.00    -0.384 OA
ATOM     16  H   UNL     1      31.647  23.661  -8.586  1.00  0.00     0.211 HD
ENDBRANCH   7  15
ENDBRANCH   1   2
BRANCH   1  17
ATOM     17  C   UNL     1      30.036  24.818 -11.382  1.00  0.00     0.172 A 
ATOM     18  C   UNL     1      31.023  25.806 -11.518  1.00  0.00     0.205 A 
ATOM     19  C   UNL     1      28.710  25.098 -11.751  1.00  0.00     0.097 A 
ATOM     20  C   UNL     1      30.676  27.082 -12.026  1.00  0.00     0.188 A 
ATOM     21  C   UNL     1      28.353  26.353 -12.251  1.00  0.00     0.134 A 
ATOM     22  C   UNL     1      29.334  27.357 -12.395  1.00  0.00     0.111 A 
ATOM     23  O   UNL     1      31.605  28.025 -12.170  1.00  0.00    -0.452 OA
ATOM     24  C   UNL     1      29.037  28.641 -12.900  1.00  0.00     0.197 A 
ATOM     25  C   UNL     1      31.360  29.239 -12.657  1.00  0.00     0.138 A 
ATOM     26  C   UNL     1      30.055  29.582 -13.031  1.00  0.00     0.100 A 
ATOM     27  O   UNL     1      27.865  28.962 -13.239  1.00  0.00    -0.289 OA
BRANCH  18  28
ATOM     28  O   UNL     1      32.330  25.447 -11.132  1.00  0.00    -0.490 OA
ATOM     29  C   UNL     1      32.934  25.686  -9.867  1.00  0.00     0.278 C 
ENDBRANCH  18  28
BRANCH  21  30
ATOM     30  O   UNL     1      27.023  26.592 -12.603  1.00  0.00    -0.507 OA
ATOM     31  H   UNL     1      26.392  27.102 -11.997  1.00  0.00     0.293 HD
ENDBRANCH  21  30
BRANCH  25  32
ATOM     32  C   UNL     1      32.480  30.203 -12.782  1.00  0.00     0.017 A 
ATOM     33  C   UNL     1      32.486  31.131 -13.838  1.00  0.00     0.012 A 
ATOM     34  C   UNL     1      33.531  30.235 -11.843  1.00  0.00     0.012 A 
ATOM     35  C   UNL     1      33.526  32.058 -13.964  1.00  0.00     0.001 A 
ATOM     36  C   UNL     1      34.568  31.164 -11.972  1.00  0.00     0.001 A 
ATOM     37  C   UNL     1      34.566  32.072 -13.033  1.00  0.00     0.000 A 
ENDBRANCH  25  32
ENDBRANCH   1  17
TORSDOF 9
ENDMDL
MODEL 4
REMARK VINA RESULT:    -6.537      8.165     11.480
REMARK INTER + INTRA:         -10.703
REMARK INTER:                  -9.322
REMARK INTRA:                  -1.381
REMARK UNBOUND:                -1.491
REMARK SMILES COc1c(O[C@H]2O[C@H](C(=O)[O-])[C@@H](O)[C@H](O)[C@H]2O)cc(O)c2c(=O)cc(-c3ccccc3)oc12
REMARK SMILES IDX 5 1 6 2 8 3 12 4 7 5 14 6 16 7 9 8 10 9 11 10 13 11 15 13
REMARK SMILES IDX 17 15 4 17 3 18 18 19 33 20 19 21 21 22 32 23 22 24 25 25
REMARK SMILES IDX 24 26 23 27 2 28 1 29 20 30 26 32 27 33 31 34 28 35 30 36
REMARK SMILES IDX 29 37
REMARK H PARENT 13 12 15 14 17 16 20 31
REMARK Flexibility Score: inf
ROOT
ATOM      1  O   UNL     1      26.225  19.687 -16.626  1.00  0.00    -0.458 OA
ENDROOT
BRANCH   1   2
ATOM      2  C   UNL     1      24.986  19.023 -16.915  1.00  0.00     0.339 C 
ATOM      3  C   UNL     1      23.765  20.618 -15.695  1.00  0.00     0.199 C 
ATOM      4  C   UNL     1      23.084  21.194 -16.953  1.00  0.00     0.180 C 
ATOM      5  O   UNL     1      24.060  19.239 -15.861  1.00  0.00    -0.328 OA
ATOM      6  C   UNL     1      23.982  20.965 -18.180  1.00  0.00     0.181 C 
ATOM      7  C   UNL     1      24.385  19.483 -18.262  1.00  0.00     0.214 C 
BRANCH   3   8
ATOM      8  C   UNL     1      22.854  20.765 -14.511  1.00  0.00     0.073 C 
ATOM      9  O   UNL     1      22.133  19.801 -14.143  1.00  0.00    -0.547 OA
ATOM     10  O   UNL     1      22.832  21.954 -13.791  1.00  0.00    -0.547 OA
ENDBRANCH   3   8
BRANCH   4  11
ATOM     11  O   UNL     1      22.863  22.570 -16.778  1.00  0.00    -0.387 OA
ATOM     12  H   UNL     1      21.885  22.718 -16.863  1.00  0.00     0.211 HD
ENDBRANCH   4  11
BRANCH   6  13
ATOM     13  O   UNL     1      23.280  21.337 -19.340  1.00  0.00    -0.387 OA
ATOM     14  H   UNL     1      23.092  20.503 -19.845  1.00  0.00     0.211 HD
ENDBRANCH   6  13
BRANCH   7  15
ATOM     15  O   UNL     1      25.313  19.288 -19.296  1.00  0.00    -0.384 OA
ATOM     16  H   UNL     1      25.660  18.363 -19.205  1.00  0.00     0.211 HD
ENDBRANCH   7  15
ENDBRANCH   1   2
BRANCH   1  17
ATOM     17  C   UNL     1      27.323  19.162 -15.919  1.00  0.00     0.172 A 
ATOM     18  C   UNL     1      27.745  19.853 -14.773  1.00  0.00     0.205 A 
ATOM     19  C   UNL     1      27.984  17.987 -16.312  1.00  0.00     0.097 A 
ATOM     20  C   UNL     1      28.840  19.361 -14.020  1.00  0.00     0.188 A 
ATOM     21  C   UNL     1      29.065  17.492 -15.579  1.00  0.00     0.134 A 
ATOM     22  C   UNL     1      29.503  18.174 -14.424  1.00  0.00     0.111 A 
ATOM     23  O   UNL     1      29.245  20.002 -12.925  1.00  0.00    -0.452 OA
ATOM     24  C   UNL     1      30.585  17.721 -13.639  1.00  0.00     0.197 A 
ATOM     25  C   UNL     1      30.251  19.593 -12.156  1.00  0.00     0.138 A 
ATOM     26  C   UNL     1      30.957  18.434 -12.502  1.00  0.00     0.100 A 
ATOM     27  O   UNL     1      31.229  16.680 -13.941  1.00  0.00    -0.289 OA
BRANCH  18  28
ATOM     28  O   UNL     1      27.029  21.020 -14.442  1.00  0.00    -0.490 OA
ATOM     29  C   UNL     1      27.435  22.361 -14.686  1.00  0.00     0.278 C 
ENDBRANCH  18  28
BRANCH  21  30
ATOM     30  O   UNL     1      29.697  16.322 -16.005  1.00  0.00    -0.507 OA
ATOM     31  H   UNL     1      29.750  15.498 -15.418  1.00  0.00     0.293 HD
ENDBRANCH  21  30
BRANCH  25  32
ATOM     32  C   UNL     1      30.605  20.383 -10.952  1.00  0.00     0.017 A 
ATOM     33  C   UNL     1      31.723  20.019 -10.183  1.00  0.00     0.012 A 
ATOM     34  C   UNL     1      29.860  21.520 -10.574  1.00  0.00     0.012 A 
ATOM     35  C   UNL     1      32.080  20.761  -9.052  1.00  0.00     0.001 A 
ATOM     36  C   UNL     1      30.222  22.259  -9.444  1.00  0.00     0.001 A 
ATOM     37  C   UNL     1      31.329  21.879  -8.683  1.00  0.00     0.000 A 
ENDBRANCH  25  32
ENDBRANCH   1  17
TORSDOF 9
ENDMDL
MODEL 5
REMARK VINA RESULT:    -6.491      1.789      3.759
REMARK INTER + INTRA:         -10.637
REMARK INTER:                  -9.277
REMARK INTRA:                  -1.360
REMARK UNBOUND:                -1.491
REMARK SMILES COc1c(O[C@H]2O[C@H](C(=O)[O-])[C@@H](O)[C@H](O)[C@H]2O)cc(O)c2c(=O)cc(-c3ccccc3)oc12
REMARK SMILES IDX 5 1 6 2 8 3 12 4 7 5 14 6 16 7 9 8 10 9 11 10 13 11 15 13
REMARK SMILES IDX 17 15 4 17 3 18 18 19 33 20 19 21 21 22 32 23 22 24 25 25
REMARK SMILES IDX 24 26 23 27 2 28 1 29 20 30 26 32 27 33 31 34 28 35 30 36
REMARK SMILES IDX 29 37
REMARK H PARENT 13 12 15 14 17 16 20 31
REMARK Flexibility Score: inf
ROOT
ATOM      1  O   UNL     1      30.455  26.217 -10.788  1.00  0.00    -0.458 OA
ENDROOT
BRANCH   1   2
ATOM      2  C   UNL     1      30.226  25.006 -11.523  1.00  0.00     0.339 C 
ATOM      3  C   UNL     1      30.085  23.746  -9.545  1.00  0.00     0.199 C 
ATOM      4  C   UNL     1      28.581  23.459  -9.726  1.00  0.00     0.180 C 
ATOM      5  O   UNL     1      30.731  23.893 -10.801  1.00  0.00    -0.328 OA
ATOM      6  C   UNL     1      27.933  24.583 -10.550  1.00  0.00     0.181 C 
ATOM      7  C   UNL     1      28.729  24.802 -11.848  1.00  0.00     0.214 C 
BRANCH   3   8
ATOM      8  C   UNL     1      30.736  22.609  -8.812  1.00  0.00     0.073 C 
ATOM      9  O   UNL     1      31.436  21.770  -9.438  1.00  0.00    -0.547 OA
ATOM     10  O   UNL     1      30.601  22.499  -7.432  1.00  0.00    -0.547 OA
ENDBRANCH   3   8
BRANCH   4  11
ATOM     11  O   UNL     1      27.964  23.380  -8.466  1.00  0.00    -0.387 OA
ATOM     12  H   UNL     1      27.260  22.683  -8.532  1.00  0.00     0.211 HD
ENDBRANCH   4  11
BRANCH   6  13
ATOM     13  O   UNL     1      26.607  24.227 -10.853  1.00  0.00    -0.387 OA
ATOM     14  H   UNL     1      26.090  24.292 -10.008  1.00  0.00     0.211 HD
ENDBRANCH   6  13
BRANCH   7  15
ATOM     15  O   UNL     1      28.229  25.914 -12.543  1.00  0.00    -0.384 OA
ATOM     16  H   UNL     1      27.903  25.586 -13.421  1.00  0.00     0.211 HD
ENDBRANCH   7  15
ENDBRANCH   1   2
BRANCH   1  17
ATOM     17  C   UNL     1      31.263  27.302 -11.172  1.00  0.00     0.172 A 
ATOM     18  C   UNL     1      32.244  27.732 -10.266  1.00  0.00     0.205 A 
ATOM     19  C   UNL     1      31.128  27.943 -12.415  1.00  0.00     0.097 A 
ATOM     20  C   UNL     1      33.092  28.814 -10.609  1.00  0.00     0.188 A 
ATOM     21  C   UNL     1      31.956  29.013 -12.765  1.00  0.00     0.134 A 
ATOM     22  C   UNL     1      32.947  29.458 -11.865  1.00  0.00     0.111 A 
ATOM     23  O   UNL     1      34.032  29.227  -9.762  1.00  0.00    -0.452 OA
ATOM     24  C   UNL     1      33.818  30.529 -12.163  1.00  0.00     0.197 A 
ATOM     25  C   UNL     1      34.878  30.222 -10.019  1.00  0.00     0.138 A 
ATOM     26  C   UNL     1      34.785  30.909 -11.236  1.00  0.00     0.100 A 
ATOM     27  O   UNL     1      33.742  31.155 -13.255  1.00  0.00    -0.289 OA
BRANCH  18  28
ATOM     28  O   UNL     1      32.321  27.036  -9.044  1.00  0.00    -0.490 OA
ATOM     29  C   UNL     1      33.250  26.013  -8.708  1.00  0.00     0.278 C 
ENDBRANCH  18  28
BRANCH  21  30
ATOM     30  O   UNL     1      31.787  29.625 -14.008  1.00  0.00    -0.507 OA
ATOM     31  H   UNL     1      31.903  30.624 -14.133  1.00  0.00     0.293 HD
ENDBRANCH  21  30
BRANCH  25  32
ATOM     32  C   UNL     1      35.894  30.585  -9.002  1.00  0.00     0.017 A 
ATOM     33  C   UNL     1      37.068  29.821  -8.887  1.00  0.00     0.012 A 
ATOM     34  C   UNL     1      35.725  31.704  -8.161  1.00  0.00     0.012 A 
ATOM     35  C   UNL     1      38.044  30.157  -7.942  1.00  0.00     0.001 A 
ATOM     36  C   UNL     1      36.705  32.037  -7.220  1.00  0.00     0.001 A 
ATOM     37  C   UNL     1      37.861  31.262  -7.110  1.00  0.00     0.000 A 
ENDBRANCH  25  32
ENDBRANCH   1  17
TORSDOF 9
ENDMDL
MODEL 6
REMARK VINA RESULT:    -6.450      2.376      4.795
REMARK INTER + INTRA:         -10.580
REMARK INTER:                  -9.543
REMARK INTRA:                  -1.037
REMARK UNBOUND:                -1.491
REMARK SMILES COc1c(O[C@H]2O[C@H](C(=O)[O-])[C@@H](O)[C@H](O)[C@H]2O)cc(O)c2c(=O)cc(-c3ccccc3)oc12
REMARK SMILES IDX 5 1 6 2 8 3 12 4 7 5 14 6 16 7 9 8 10 9 11 10 13 11 15 13
REMARK SMILES IDX 17 15 4 17 3 18 18 19 33 20 19 21 21 22 32 23 22 24 25 25
REMARK SMILES IDX 24 26 23 27 2 28 1 29 20 30 26 32 27 33 31 34 28 35 30 36
REMARK SMILES IDX 29 37
REMARK H PARENT 13 12 15 14 17 16 20 31
REMARK Flexibility Score: inf
ROOT
ATOM      1  O   UNL     1      30.669  23.550 -11.169  1.00  0.00    -0.458 OA
ENDROOT
BRANCH   1   2
ATOM      2  C   UNL     1      29.824  22.729 -10.349  1.00  0.00     0.339 C 
ATOM      3  C   UNL     1      30.408  20.799 -11.557  1.00  0.00     0.199 C 
ATOM      4  C   UNL     1      31.180  20.181 -10.373  1.00  0.00     0.180 C 
ATOM      5  O   UNL     1      29.346  21.622 -11.097  1.00  0.00    -0.328 OA
ATOM      6  C   UNL     1      31.704  21.297  -9.455  1.00  0.00     0.181 C 
ATOM      7  C   UNL     1      30.552  22.243  -9.075  1.00  0.00     0.214 C 
BRANCH   3   8
ATOM      8  C   UNL     1      29.825  19.710 -12.409  1.00  0.00     0.073 C 
ATOM      9  O   UNL     1      28.583  19.657 -12.606  1.00  0.00    -0.547 OA
ATOM     10  O   UNL     1      30.658  18.777 -13.016  1.00  0.00    -0.547 OA
ENDBRANCH   3   8
BRANCH   4  11
ATOM     11  O   UNL     1      32.259  19.425 -10.862  1.00  0.00    -0.387 OA
ATOM     12  H   UNL     1      31.929  18.933 -11.659  1.00  0.00     0.211 HD
ENDBRANCH   4  11
BRANCH   6  13
ATOM     13  O   UNL     1      32.254  20.720  -8.297  1.00  0.00    -0.387 OA
ATOM     14  H   UNL     1      31.580  20.082  -7.943  1.00  0.00     0.211 HD
ENDBRANCH   6  13
BRANCH   7  15
ATOM     15  O   UNL     1      31.042  23.340  -8.351  1.00  0.00    -0.384 OA
ATOM     16  H   UNL     1      30.263  23.773  -7.914  1.00  0.00     0.211 HD
ENDBRANCH   7  15
ENDBRANCH   1   2
BRANCH   1  17
ATOM     17  C   UNL     1      30.547  24.934 -11.392  1.00  0.00     0.172 A 
ATOM     18  C   UNL     1      31.573  25.761 -10.910  1.00  0.00     0.205 A 
ATOM     19  C   UNL     1      29.459  25.496 -12.080  1.00  0.00     0.097 A 
ATOM     20  C   UNL     1      31.503  27.161 -11.118  1.00  0.00     0.188 A 
ATOM     21  C   UNL     1      29.376  26.874 -12.290  1.00  0.00     0.134 A 
ATOM     22  C   UNL     1      30.399  27.721 -11.812  1.00  0.00     0.111 A 
ATOM     23  O   UNL     1      32.473  27.956 -10.673  1.00  0.00    -0.452 OA
ATOM     24  C   UNL     1      30.376  29.120 -11.998  1.00  0.00     0.197 A 
ATOM     25  C   UNL     1      32.488  29.276 -10.846  1.00  0.00     0.138 A 
ATOM     26  C   UNL     1      31.425  29.897 -11.514  1.00  0.00     0.100 A 
ATOM     27  O   UNL     1      29.423  29.690 -12.596  1.00  0.00    -0.289 OA
BRANCH  18  28
ATOM     28  O   UNL     1      32.631  25.123 -10.235  1.00  0.00    -0.490 OA
ATOM     29  C   UNL     1      33.600  25.743  -9.400  1.00  0.00     0.278 C 
ENDBRANCH  18  28
BRANCH  21  30
ATOM     30  O   UNL     1      28.276  27.393 -12.976  1.00  0.00    -0.507 OA
ATOM     31  H   UNL     1      27.501  27.829 -12.491  1.00  0.00     0.293 HD
ENDBRANCH  21  30
BRANCH  25  32
ATOM     32  C   UNL     1      33.631  30.058 -10.317  1.00  0.00     0.017 A 
ATOM     33  C   UNL     1      34.825  29.401  -9.971  1.00  0.00     0.012 A 
ATOM     34  C   UNL     1      33.563  31.459 -10.179  1.00  0.00     0.012 A 
ATOM     35  C   UNL     1      35.919  30.124  -9.483  1.00  0.00     0.001 A 
ATOM     36  C   UNL     1      34.659  32.178  -9.693  1.00  0.00     0.001 A 
ATOM     37  C   UNL     1      35.834  31.511  -9.343  1.00  0.00     0.000 A 
ENDBRANCH  25  32
ENDBRANCH   1  17
TORSDOF 9
ENDMDL
MODEL 7
REMARK VINA RESULT:    -6.448     11.241     12.551
REMARK INTER + INTRA:         -10.577
REMARK INTER:                  -9.204
REMARK INTRA:                  -1.374
REMARK UNBOUND:                -1.491
REMARK SMILES COc1c(O[C@H]2O[C@H](C(=O)[O-])[C@@H](O)[C@H](O)[C@H]2O)cc(O)c2c(=O)cc(-c3ccccc3)oc12
REMARK SMILES IDX 5 1 6 2 8 3 12 4 7 5 14 6 16 7 9 8 10 9 11 10 13 11 15 13
REMARK SMILES IDX 17 15 4 17 3 18 18 19 33 20 19 21 21 22 32 23 22 24 25 25
REMARK SMILES IDX 24 26 23 27 2 28 1 29 20 30 26 32 27 33 31 34 28 35 30 36
REMARK SMILES IDX 29 37
REMARK H PARENT 13 12 15 14 17 16 20 31
REMARK Flexibility Score: inf
ROOT
ATOM      1  O   UNL     1      29.288  23.649 -20.941  1.00  0.00    -0.458 OA
ENDROOT
BRANCH   1   2
ATOM      2  C   UNL     1      27.917  23.603 -21.366  1.00  0.00     0.339 C 
ATOM      3  C   UNL     1      27.676  21.398 -20.589  1.00  0.00     0.199 C 
ATOM      4  C   UNL     1      26.710  21.805 -19.457  1.00  0.00     0.180 C 
ATOM      5  O   UNL     1      27.555  22.272 -21.701  1.00  0.00    -0.328 OA
ATOM      6  C   UNL     1      26.976  23.262 -19.046  1.00  0.00     0.181 C 
ATOM      7  C   UNL     1      26.961  24.166 -20.291  1.00  0.00     0.214 C 
BRANCH   3   8
ATOM      8  C   UNL     1      27.363  20.004 -21.049  1.00  0.00     0.073 C 
ATOM      9  O   UNL     1      28.248  19.309 -21.613  1.00  0.00    -0.547 OA
ATOM     10  O   UNL     1      26.104  19.460 -20.819  1.00  0.00    -0.547 OA
ENDBRANCH   3   8
BRANCH   4  11
ATOM     11  O   UNL     1      26.900  20.958 -18.352  1.00  0.00    -0.387 OA
ATOM     12  H   UNL     1      26.050  20.462 -18.219  1.00  0.00     0.211 HD
ENDBRANCH   4  11
BRANCH   6  13
ATOM     13  O   UNL     1      25.982  23.673 -18.140  1.00  0.00    -0.387 OA
ATOM     14  H   UNL     1      26.024  23.055 -17.364  1.00  0.00     0.211 HD
ENDBRANCH   6  13
BRANCH   7  15
ATOM     15  O   UNL     1      27.337  25.473 -19.946  1.00  0.00    -0.384 OA
ATOM     16  H   UNL     1      26.531  26.045 -20.050  1.00  0.00     0.211 HD
ENDBRANCH   7  15
ENDBRANCH   1   2
BRANCH   1  17
ATOM     17  C   UNL     1      30.425  23.766 -21.760  1.00  0.00     0.172 A 
ATOM     18  C   UNL     1      30.767  25.049 -22.214  1.00  0.00     0.205 A 
ATOM     19  C   UNL     1      31.217  22.663 -22.118  1.00  0.00     0.097 A 
ATOM     20  C   UNL     1      31.909  25.223 -23.034  1.00  0.00     0.188 A 
ATOM     21  C   UNL     1      32.345  22.820 -22.928  1.00  0.00     0.134 A 
ATOM     22  C   UNL     1      32.703  24.104 -23.392  1.00  0.00     0.111 A 
ATOM     23  O   UNL     1      32.250  26.437 -23.464  1.00  0.00    -0.452 OA
ATOM     24  C   UNL     1      33.833  24.328 -24.207  1.00  0.00     0.197 A 
ATOM     25  C   UNL     1      33.317  26.683 -24.220  1.00  0.00     0.138 A 
ATOM     26  C   UNL     1      34.140  25.622 -24.619  1.00  0.00     0.100 A 
ATOM     27  O   UNL     1      34.580  23.380 -24.574  1.00  0.00    -0.289 OA
BRANCH  18  28
ATOM     28  O   UNL     1      29.927  26.105 -21.809  1.00  0.00    -0.490 OA
ATOM     29  C   UNL     1      29.041  26.848 -22.637  1.00  0.00     0.278 C 
ENDBRANCH  18  28
BRANCH  21  30
ATOM     30  O   UNL     1      33.103  21.697 -23.263  1.00  0.00    -0.507 OA
ATOM     31  H   UNL     1      34.088  21.629 -23.036  1.00  0.00     0.293 HD
ENDBRANCH  21  30
BRANCH  25  32
ATOM     32  C   UNL     1      33.604  28.079 -24.628  1.00  0.00     0.017 A 
ATOM     33  C   UNL     1      32.869  29.136 -24.062  1.00  0.00     0.012 A 
ATOM     34  C   UNL     1      34.624  28.381 -25.553  1.00  0.00     0.012 A 
ATOM     35  C   UNL     1      33.134  30.460 -24.424  1.00  0.00     0.001 A 
ATOM     36  C   UNL     1      34.887  29.706 -25.911  1.00  0.00     0.001 A 
ATOM     37  C   UNL     1      34.141  30.744 -25.349  1.00  0.00     0.000 A 
ENDBRANCH  25  32
ENDBRANCH   1  17
TORSDOF 9
ENDMDL
MODEL 8
REMARK VINA RESULT:    -6.375      6.127      9.792
REMARK INTER + INTRA:         -10.474
REMARK INTER:                  -9.099
REMARK INTRA:                  -1.375
REMARK UNBOUND:                -1.491
REMARK SMILES COc1c(O[C@H]2O[C@H](C(=O)[O-])[C@@H](O)[C@H](O)[C@H]2O)cc(O)c2c(=O)cc(-c3ccccc3)oc12
REMARK SMILES IDX 5 1 6 2 8 3 12 4 7 5 14 6 16 7 9 8 10 9 11 10 13 11 15 13
REMARK SMILES IDX 17 15 4 17 3 18 18 19 33 20 19 21 21 22 32 23 22 24 25 25
REMARK SMILES IDX 24 26 23 27 2 28 1 29 20 30 26 32 27 33 31 34 28 35 30 36
REMARK SMILES IDX 29 37
REMARK H PARENT 13 12 15 14 17 16 20 31
REMARK Flexibility Score: inf
ROOT
ATOM      1  O   UNL     1      26.833  20.343 -14.666  1.00  0.00    -0.458 OA
ENDROOT
BRANCH   1   2
ATOM      2  C   UNL     1      26.901  20.532 -16.087  1.00  0.00     0.339 C 
ATOM      3  C   UNL     1      24.558  20.608 -16.262  1.00  0.00     0.199 C 
ATOM      4  C   UNL     1      24.544  22.102 -16.643  1.00  0.00     0.180 C 
ATOM      5  O   UNL     1      25.751  19.980 -16.709  1.00  0.00    -0.328 OA
ATOM      6  C   UNL     1      25.786  22.799 -16.065  1.00  0.00     0.181 C 
ATOM      7  C   UNL     1      27.052  22.023 -16.465  1.00  0.00     0.214 C 
BRANCH   3   8
ATOM      8  C   UNL     1      23.391  19.909 -16.896  1.00  0.00     0.073 C 
ATOM      9  O   UNL     1      22.881  20.361 -17.953  1.00  0.00    -0.547 OA
ATOM     10  O   UNL     1      22.894  18.736 -16.339  1.00  0.00    -0.547 OA
ENDBRANCH   3   8
BRANCH   4  11
ATOM     11  O   UNL     1      23.381  22.705 -16.133  1.00  0.00    -0.387 OA
ATOM     12  H   UNL     1      22.892  23.089 -16.908  1.00  0.00     0.211 HD
ENDBRANCH   4  11
BRANCH   6  13
ATOM     13  O   UNL     1      25.850  24.113 -16.561  1.00  0.00    -0.387 OA
ATOM     14  H   UNL     1      26.321  24.070 -17.434  1.00  0.00     0.211 HD
ENDBRANCH   6  13
BRANCH   7  15
ATOM     15  O   UNL     1      28.178  22.570 -15.830  1.00  0.00    -0.384 OA
ATOM     16  H   UNL     1      27.923  22.747 -14.887  1.00  0.00     0.211 HD
ENDBRANCH   7  15
ENDBRANCH   1   2
BRANCH   1  17
ATOM     17  C   UNL     1      27.908  20.115 -13.789  1.00  0.00     0.172 A 
ATOM     18  C   UNL     1      28.191  21.107 -12.839  1.00  0.00     0.205 A 
ATOM     19  C   UNL     1      28.681  18.942 -13.829  1.00  0.00     0.097 A 
ATOM     20  C   UNL     1      29.258  20.922 -11.925  1.00  0.00     0.188 A 
ATOM     21  C   UNL     1      29.738  18.748 -12.935  1.00  0.00     0.134 A 
ATOM     22  C   UNL     1      30.035  19.736 -11.973  1.00  0.00     0.111 A 
ATOM     23  O   UNL     1      29.531  21.852 -11.012  1.00  0.00    -0.452 OA
ATOM     24  C   UNL     1      31.085  19.595 -11.040  1.00  0.00     0.197 A 
ATOM     25  C   UNL     1      30.503  21.742 -10.110  1.00  0.00     0.138 A 
ATOM     26  C   UNL     1      31.316  20.602 -10.106  1.00  0.00     0.100 A 
ATOM     27  O   UNL     1      31.824  18.574 -11.028  1.00  0.00    -0.289 OA
BRANCH  18  28
ATOM     28  O   UNL     1      27.369  22.251 -12.859  1.00  0.00    -0.490 OA
ATOM     29  C   UNL     1      26.239  22.496 -12.031  1.00  0.00     0.278 C 
ENDBRANCH  18  28
BRANCH  21  30
ATOM     30  O   UNL     1      30.483  17.570 -13.010  1.00  0.00    -0.507 OA
ATOM     31  H   UNL     1      31.146  17.310 -12.290  1.00  0.00     0.293 HD
ENDBRANCH  21  30
BRANCH  25  32
ATOM     32  C   UNL     1      30.706  22.839  -9.133  1.00  0.00     0.017 A 
ATOM     33  C   UNL     1      31.223  24.073  -9.567  1.00  0.00     0.012 A 
ATOM     34  C   UNL     1      30.360  22.688  -7.775  1.00  0.00     0.012 A 
ATOM     35  C   UNL     1      31.407  25.124  -8.663  1.00  0.00     0.001 A 
ATOM     36  C   UNL     1      30.545  23.742  -6.875  1.00  0.00     0.001 A 
ATOM     37  C   UNL     1      31.070  24.957  -7.318  1.00  0.00     0.000 A 
ENDBRANCH  25  32
ENDBRANCH   1  17
TORSDOF 9
ENDMDL
MODEL 9
REMARK VINA RESULT:    -6.319     11.178     12.928
REMARK INTER + INTRA:         -10.395
REMARK INTER:                  -8.937
REMARK INTRA:                  -1.458
REMARK UNBOUND:                -1.491
REMARK SMILES COc1c(O[C@H]2O[C@H](C(=O)[O-])[C@@H](O)[C@H](O)[C@H]2O)cc(O)c2c(=O)cc(-c3ccccc3)oc12
REMARK SMILES IDX 5 1 6 2 8 3 12 4 7 5 14 6 16 7 9 8 10 9 11 10 13 11 15 13
REMARK SMILES IDX 17 15 4 17 3 18 18 19 33 20 19 21 21 22 32 23 22 24 25 25
REMARK SMILES IDX 24 26 23 27 2 28 1 29 20 30 26 32 27 33 31 34 28 35 30 36
REMARK SMILES IDX 29 37
REMARK H PARENT 13 12 15 14 17 16 20 31
REMARK Flexibility Score: inf
ROOT
ATOM      1  O   UNL     1      24.563  21.142 -18.348  1.00  0.00    -0.458 OA
ENDROOT
BRANCH   1   2
ATOM      2  C   UNL     1      23.571  20.107 -18.290  1.00  0.00     0.339 C 
ATOM      3  C   UNL     1      24.061  19.664 -16.035  1.00  0.00     0.199 C 
ATOM      4  C   UNL     1      22.701  20.198 -15.540  1.00  0.00     0.180 C 
ATOM      5  O   UNL     1      23.949  19.121 -17.342  1.00  0.00    -0.328 OA
ATOM      6  C   UNL     1      22.161  21.244 -16.528  1.00  0.00     0.181 C 
ATOM      7  C   UNL     1      22.170  20.666 -17.954  1.00  0.00     0.214 C 
BRANCH   3   8
ATOM      8  C   UNL     1      24.549  18.583 -15.115  1.00  0.00     0.073 C 
ATOM      9  O   UNL     1      25.773  18.491 -14.839  1.00  0.00    -0.547 OA
ATOM     10  O   UNL     1      23.645  17.701 -14.533  1.00  0.00    -0.547 OA
ENDBRANCH   3   8
BRANCH   4  11
ATOM     11  O   UNL     1      22.860  20.782 -14.272  1.00  0.00    -0.387 OA
ATOM     12  H   UNL     1      23.813  20.664 -14.017  1.00  0.00     0.211 HD
ENDBRANCH   4  11
BRANCH   6  13
ATOM     13  O   UNL     1      20.851  21.594 -16.159  1.00  0.00    -0.387 OA
ATOM     14  H   UNL     1      20.243  20.947 -16.603  1.00  0.00     0.211 HD
ENDBRANCH   6  13
BRANCH   7  15
ATOM     15  O   UNL     1      21.810  21.656 -18.882  1.00  0.00    -0.384 OA
ATOM     16  H   UNL     1      21.103  21.268 -19.461  1.00  0.00     0.211 HD
ENDBRANCH   7  15
ENDBRANCH   1   2
BRANCH   1  17
ATOM     17  C   UNL     1      25.607  21.264 -19.282  1.00  0.00     0.172 A 
ATOM     18  C   UNL     1      26.899  20.915 -18.859  1.00  0.00     0.205 A 
ATOM     19  C   UNL     1      25.397  21.703 -20.600  1.00  0.00     0.097 A 
ATOM     20  C   UNL     1      27.984  21.010 -19.764  1.00  0.00     0.188 A 
ATOM     21  C   UNL     1      26.459  21.803 -21.502  1.00  0.00     0.134 A 
ATOM     22  C   UNL     1      27.764  21.456 -21.093  1.00  0.00     0.111 A 
ATOM     23  O   UNL     1      29.214  20.674 -19.378  1.00  0.00    -0.452 OA
ATOM     24  C   UNL     1      28.876  21.530 -21.959  1.00  0.00     0.197 A 
ATOM     25  C   UNL     1      30.279  20.717 -20.174  1.00  0.00     0.138 A 
ATOM     26  C   UNL     1      30.135  21.158 -21.496  1.00  0.00     0.100 A 
ATOM     27  O   UNL     1      28.758  21.926 -23.150  1.00  0.00    -0.289 OA
BRANCH  18  28
ATOM     28  O   UNL     1      27.028  20.480 -17.525  1.00  0.00    -0.490 OA
ATOM     29  C   UNL     1      27.458  21.262 -16.418  1.00  0.00     0.278 C 
ENDBRANCH  18  28
BRANCH  21  30
ATOM     30  O   UNL     1      26.207  22.246 -22.802  1.00  0.00    -0.507 OA
ATOM     31  H   UNL     1      26.289  21.631 -23.602  1.00  0.00     0.293 HD
ENDBRANCH  21  30
BRANCH  25  32
ATOM     32  C   UNL     1      31.598  20.306 -19.636  1.00  0.00     0.017 A 
ATOM     33  C   UNL     1      32.773  20.672 -20.314  1.00  0.00     0.012 A 
ATOM     34  C   UNL     1      31.706  19.577 -18.433  1.00  0.00     0.012 A 
ATOM     35  C   UNL     1      34.026  20.304 -19.813  1.00  0.00     0.001 A 
ATOM     36  C   UNL     1      32.961  19.213 -17.936  1.00  0.00     0.001 A 
ATOM     37  C   UNL     1      34.119  19.574 -18.627  1.00  0.00     0.000 A 
ENDBRANCH  25  32
ENDBRANCH   1  17
TORSDOF 9
ENDMDL
