MODEL 1
REMARK VINA RESULT:    -2.262      0.000      0.000
REMARK INTER + INTRA:          -4.848
REMARK INTER:                  -4.378
REMARK INTRA:                  -0.470
REMARK UNBOUND:                -0.470
REMARK SMILES CCCCCCCCCCCCCCCCCC(=O)[O-]
REMARK SMILES IDX 10 1 11 2 12 3 13 4 14 5 15 6 16 7 17 8 18 9 19 10 20 11
REMARK SMILES IDX 9 12 8 13 7 14 6 15 5 16 4 17 3 18 2 19 1 20
REMARK H PARENT
REMARK Flexibility Score: inf
ROOT
ATOM      1  C   UNL     1      -6.175  -5.819  -9.333  1.00  0.00     0.000 C 
ENDROOT
BRANCH   1   2
ATOM      2  C   UNL     1      -4.696  -5.576  -9.668  1.00  0.00     0.000 C 
BRANCH   2   3
ATOM      3  C   UNL     1      -3.915  -6.881  -9.900  1.00  0.00     0.000 C 
BRANCH   3   4
ATOM      4  C   UNL     1      -4.260  -7.995  -8.890  1.00  0.00     0.000 C 
BRANCH   4   5
ATOM      5  C   UNL     1      -3.232  -8.086  -7.749  1.00  0.00     0.000 C 
BRANCH   5   6
ATOM      6  C   UNL     1      -3.272  -9.452  -7.028  1.00  0.00     0.000 C 
BRANCH   6   7
ATOM      7  C   UNL     1      -4.663 -10.112  -7.035  1.00  0.00     0.006 C 
BRANCH   7   8
ATOM      8  C   UNL     1      -5.489  -9.843  -5.768  1.00  0.00     0.053 C 
BRANCH   8   9
ATOM      9  C   UNL     1      -6.952  -9.727  -6.070  1.00  0.00     0.041 C 
ATOM     10  O   UNL     1      -7.795  -9.733  -5.133  1.00  0.00    -0.550 OA
ATOM     11  O   UNL     1      -7.389  -9.634  -7.385  1.00  0.00    -0.550 OA
ENDBRANCH   8   9
ENDBRANCH   7   8
ENDBRANCH   6   7
ENDBRANCH   5   6
ENDBRANCH   4   5
ENDBRANCH   3   4
ENDBRANCH   2   3
ENDBRANCH   1   2
BRANCH   1  12
ATOM     12  C   UNL     1      -6.666  -7.140  -9.935  1.00  0.00     0.000 C 
BRANCH  12  13
ATOM     13  C   UNL     1      -8.144  -7.383  -9.596  1.00  0.00    -0.000 C 
BRANCH  13  14
ATOM     14  C   UNL     1      -8.830  -6.138  -9.008  1.00  0.00    -0.000 C 
BRANCH  14  15
ATOM     15  C   UNL     1      -9.288  -6.344  -7.556  1.00  0.00    -0.000 C 
BRANCH  15  16
ATOM     16  C   UNL     1      -8.438  -5.506  -6.590  1.00  0.00    -0.000 C 
BRANCH  16  17
ATOM     17  C   UNL     1      -8.659  -3.994  -6.760  1.00  0.00    -0.000 C 
BRANCH  17  18
ATOM     18  C   UNL     1      -9.914  -3.493  -6.025  1.00  0.00    -0.000 C 
BRANCH  18  19
ATOM     19  C   UNL     1     -10.108  -1.975  -6.165  1.00  0.00    -0.003 C 
ATOM     20  C   UNL     1      -9.891  -1.478  -7.594  1.00  0.00     0.004 C 
ENDBRANCH  18  19
ENDBRANCH  17  18
ENDBRANCH  16  17
ENDBRANCH  15  16
ENDBRANCH  14  15
ENDBRANCH  13  14
ENDBRANCH  12  13
ENDBRANCH   1  12
TORSDOF 16
ENDMDL
MODEL 2
REMARK VINA RESULT:    -1.533     21.575     22.814
REMARK INTER + INTRA:          -3.437
REMARK INTER:                  -3.161
REMARK INTRA:                  -0.276
REMARK UNBOUND:                -0.470
REMARK SMILES CCCCCCCCCCCCCCCCCC(=O)[O-]
REMARK SMILES IDX 10 1 11 2 12 3 13 4 14 5 15 6 16 7 17 8 18 9 19 10 20 11
REMARK SMILES IDX 9 12 8 13 7 14 6 15 5 16 4 17 3 18 2 19 1 20
REMARK H PARENT
REMARK Flexibility Score: inf
ROOT
ATOM      1  C   UNL     1       8.515   6.647   1.137  1.00  0.00     0.000 C 
ENDROOT
BRANCH   1   2
ATOM      2  C   UNL     1       8.424   5.131   1.358  1.00  0.00     0.000 C 
BRANCH   2   3
ATOM      3  C   UNL     1       8.985   4.320   0.177  1.00  0.00     0.000 C 
BRANCH   3   4
ATOM      4  C   UNL     1       9.946   3.190   0.604  1.00  0.00     0.000 C 
BRANCH   4   5
ATOM      5  C   UNL     1      10.122   3.123   2.131  1.00  0.00     0.000 C 
BRANCH   5   6
ATOM      6  C   UNL     1      10.016   1.680   2.673  1.00  0.00     0.000 C 
BRANCH   6   7
ATOM      7  C   UNL     1       9.924   1.603   4.208  1.00  0.00     0.006 C 
BRANCH   7   8
ATOM      8  C   UNL     1       9.269   0.316   4.731  1.00  0.00     0.053 C 
BRANCH   8   9
ATOM      9  C   UNL     1       8.421   0.573   5.940  1.00  0.00     0.041 C 
ATOM     10  O   UNL     1       7.259   0.092   6.012  1.00  0.00    -0.550 OA
ATOM     11  O   UNL     1       8.903   1.361   6.977  1.00  0.00    -0.550 OA
ENDBRANCH   8   9
ENDBRANCH   7   8
ENDBRANCH   6   7
ENDBRANCH   5   6
ENDBRANCH   4   5
ENDBRANCH   3   4
ENDBRANCH   2   3
ENDBRANCH   1   2
BRANCH   1  12
ATOM     12  C   UNL     1       9.522   7.285   2.103  1.00  0.00     0.000 C 
BRANCH  12  13
ATOM     13  C   UNL     1      10.079   6.243   3.083  1.00  0.00    -0.000 C 
BRANCH  13  14
ATOM     14  C   UNL     1       9.257   6.148   4.379  1.00  0.00    -0.000 C 
BRANCH  14  15
ATOM     15  C   UNL     1       9.942   6.840   5.567  1.00  0.00    -0.000 C 
BRANCH  15  16
ATOM     16  C   UNL     1      10.123   8.341   5.296  1.00  0.00    -0.000 C 
BRANCH  16  17
ATOM     17  C   UNL     1       8.852   9.003   4.737  1.00  0.00    -0.000 C 
BRANCH  17  18
ATOM     18  C   UNL     1       7.564   8.313   5.219  1.00  0.00    -0.000 C 
BRANCH  18  19
ATOM     19  C   UNL     1       6.304   8.899   4.563  1.00  0.00    -0.003 C 
ATOM     20  C   UNL     1       5.521   7.865   3.755  1.00  0.00     0.004 C 
ENDBRANCH  18  19
ENDBRANCH  17  18
ENDBRANCH  16  17
ENDBRANCH  15  16
ENDBRANCH  14  15
ENDBRANCH  13  14
ENDBRANCH  12  13
ENDBRANCH   1  12
TORSDOF 16
ENDMDL
MODEL 3
REMARK VINA RESULT:    -0.811      2.189      5.594
REMARK INTER + INTRA:          -2.039
REMARK INTER:                  -0.775
REMARK INTRA:                  -1.264
REMARK UNBOUND:                -0.470
REMARK SMILES CCCCCCCCCCCCCCCCCC(=O)[O-]
REMARK SMILES IDX 10 1 11 2 12 3 13 4 14 5 15 6 16 7 17 8 18 9 19 10 20 11
REMARK SMILES IDX 9 12 8 13 7 14 6 15 5 16 4 17 3 18 2 19 1 20
REMARK H PARENT
REMARK Flexibility Score: inf
ROOT
ATOM      1  C   UNL     1      -5.676  -8.452  -7.008  1.00  0.00     0.000 C 
ENDROOT
BRANCH   1   2
ATOM      2  C   UNL     1      -6.582  -9.653  -6.704  1.00  0.00     0.000 C 
BRANCH   2   3
ATOM      3  C   UNL     1      -7.385 -10.121  -7.930  1.00  0.00     0.000 C 
BRANCH   3   4
ATOM      4  C   UNL     1      -7.652  -9.001  -8.958  1.00  0.00     0.000 C 
BRANCH   4   5
ATOM      5  C   UNL     1      -9.067  -9.085  -9.555  1.00  0.00     0.000 C 
BRANCH   5   6
ATOM      6  C   UNL     1     -10.123  -8.387  -8.669  1.00  0.00     0.000 C 
BRANCH   6   7
ATOM      7  C   UNL     1      -9.766  -6.932  -8.315  1.00  0.00     0.006 C 
BRANCH   7   8
ATOM      8  C   UNL     1      -9.477  -6.704  -6.824  1.00  0.00     0.053 C 
BRANCH   8   9
ATOM      9  C   UNL     1      -8.850  -5.366  -6.575  1.00  0.00     0.041 C 
ATOM     10  O   UNL     1      -9.443  -4.313  -6.929  1.00  0.00    -0.550 OA
ATOM     11  O   UNL     1      -7.601  -5.282  -5.972  1.00  0.00    -0.550 OA
ENDBRANCH   8   9
ENDBRANCH   7   8
ENDBRANCH   6   7
ENDBRANCH   5   6
ENDBRANCH   4   5
ENDBRANCH   3   4
ENDBRANCH   2   3
ENDBRANCH   1   2
BRANCH   1  12
ATOM     12  C   UNL     1      -4.197  -8.821  -6.843  1.00  0.00     0.000 C 
BRANCH  12  13
ATOM     13  C   UNL     1      -3.864 -10.110  -7.610  1.00  0.00    -0.000 C 
BRANCH  13  14
ATOM     14  C   UNL     1      -3.083  -9.844  -8.907  1.00  0.00    -0.000 C 
BRANCH  14  15
ATOM     15  C   UNL     1      -3.819  -8.885  -9.855  1.00  0.00    -0.000 C 
BRANCH  15  16
ATOM     16  C   UNL     1      -3.448  -7.425  -9.554  1.00  0.00    -0.000 C 
BRANCH  16  17
ATOM     17  C   UNL     1      -4.488  -6.424 -10.084  1.00  0.00    -0.000 C 
BRANCH  17  18
ATOM     18  C   UNL     1      -4.964  -5.437  -9.005  1.00  0.00    -0.000 C 
BRANCH  18  19
ATOM     19  C   UNL     1      -6.497  -5.343  -8.931  1.00  0.00    -0.003 C 
ATOM     20  C   UNL     1      -7.193  -6.133 -10.038  1.00  0.00     0.004 C 
ENDBRANCH  18  19
ENDBRANCH  17  18
ENDBRANCH  16  17
ENDBRANCH  15  16
ENDBRANCH  14  15
ENDBRANCH  13  14
ENDBRANCH  12  13
ENDBRANCH   1  12
TORSDOF 16
ENDMDL
