MODEL 1
REMARK VINA RESULT:    -3.421      0.000      0.000
REMARK INTER + INTRA:          -6.945
REMARK INTER:                  -5.420
REMARK INTRA:                  -1.524
REMARK UNBOUND:                -1.524
REMARK SMILES CCCCCCCCCCCC(=O)[O-]
REMARK SMILES IDX 7 1 8 2 9 3 10 4 11 5 12 6 13 7 14 8 6 9 5 10 4 11 3 12 2 13
REMARK SMILES IDX 1 14
REMARK H PARENT
REMARK Flexibility Score: inf
ROOT
ATOM      1  C   UNL     1       2.599 124.722 112.268  1.00  0.00     0.000 C 
ENDROOT
BRANCH   1   2
ATOM      2  C   UNL     1       2.980 124.916 110.790  1.00  0.00     0.000 C 
BRANCH   2   3
ATOM      3  C   UNL     1       4.485 125.172 110.599  1.00  0.00     0.000 C 
BRANCH   3   4
ATOM      4  C   UNL     1       5.296 124.935 111.885  1.00  0.00     0.006 C 
BRANCH   4   5
ATOM      5  C   UNL     1       6.756 125.410 111.811  1.00  0.00     0.053 C 
BRANCH   5   6
ATOM      6  C   UNL     1       7.719 124.262 111.828  1.00  0.00     0.041 C 
ATOM      7  O   UNL     1       7.323 123.107 112.137  1.00  0.00    -0.550 OA
ATOM      8  O   UNL     1       9.047 124.462 111.469  1.00  0.00    -0.550 OA
ENDBRANCH   5   6
ENDBRANCH   4   5
ENDBRANCH   3   4
ENDBRANCH   2   3
ENDBRANCH   1   2
BRANCH   1   9
ATOM      9  C   UNL     1       1.362 125.543 112.670  1.00  0.00     0.000 C 
BRANCH   9  10
ATOM     10  C   UNL     1       1.283 126.898 111.943  1.00  0.00    -0.000 C 
BRANCH  10  11
ATOM     11  C   UNL     1       2.007 128.041 112.686  1.00  0.00    -0.000 C 
BRANCH  11  12
ATOM     12  C   UNL     1       3.345 128.407 112.022  1.00  0.00    -0.000 C 
BRANCH  12  13
ATOM     13  C   UNL     1       4.492 128.537 113.036  1.00  0.00    -0.003 C 
ATOM     14  C   UNL     1       4.346 127.582 114.220  1.00  0.00     0.004 C 
ENDBRANCH  12  13
ENDBRANCH  11  12
ENDBRANCH  10  11
ENDBRANCH   9  10
ENDBRANCH   1   9
TORSDOF 10
ENDMDL
MODEL 2
REMARK VINA RESULT:    -3.401      1.668      2.543
REMARK INTER + INTRA:          -6.913
REMARK INTER:                  -5.338
REMARK INTRA:                  -1.575
REMARK UNBOUND:                -1.524
REMARK SMILES CCCCCCCCCCCC(=O)[O-]
REMARK SMILES IDX 7 1 8 2 9 3 10 4 11 5 12 6 13 7 14 8 6 9 5 10 4 11 3 12 2 13
REMARK SMILES IDX 1 14
REMARK H PARENT
REMARK Flexibility Score: inf
ROOT
ATOM      1  C   UNL     1       3.408 123.835 114.486  1.00  0.00     0.000 C 
ENDROOT
BRANCH   1   2
ATOM      2  C   UNL     1       4.796 123.327 114.060  1.00  0.00     0.000 C 
BRANCH   2   3
ATOM      3  C   UNL     1       4.824 122.847 112.598  1.00  0.00     0.000 C 
BRANCH   3   4
ATOM      4  C   UNL     1       5.570 123.820 111.667  1.00  0.00     0.006 C 
BRANCH   4   5
ATOM      5  C   UNL     1       6.650 124.663 112.364  1.00  0.00     0.053 C 
BRANCH   5   6
ATOM      6  C   UNL     1       8.017 124.078 112.187  1.00  0.00     0.041 C 
ATOM      7  O   UNL     1       8.822 124.586 111.361  1.00  0.00    -0.550 OA
ATOM      8  O   UNL     1       8.414 122.991 112.957  1.00  0.00    -0.550 OA
ENDBRANCH   5   6
ENDBRANCH   4   5
ENDBRANCH   3   4
ENDBRANCH   2   3
ENDBRANCH   1   2
BRANCH   1   9
ATOM      9  C   UNL     1       2.265 123.011 113.869  1.00  0.00     0.000 C 
BRANCH   9  10
ATOM     10  C   UNL     1       1.291 123.868 113.042  1.00  0.00    -0.000 C 
BRANCH  10  11
ATOM     11  C   UNL     1       1.749 125.332 112.868  1.00  0.00    -0.000 C 
BRANCH  11  12
ATOM     12  C   UNL     1       2.274 125.610 111.449  1.00  0.00    -0.000 C 
BRANCH  12  13
ATOM     13  C   UNL     1       3.174 126.854 111.386  1.00  0.00    -0.003 C 
ATOM     14  C   UNL     1       3.913 127.117 112.697  1.00  0.00     0.004 C 
ENDBRANCH  12  13
ENDBRANCH  11  12
ENDBRANCH  10  11
ENDBRANCH   9  10
ENDBRANCH   1   9
TORSDOF 10
ENDMDL
MODEL 3
REMARK VINA RESULT:    -3.391      1.029      1.651
REMARK INTER + INTRA:          -6.897
REMARK INTER:                  -5.330
REMARK INTRA:                  -1.567
REMARK UNBOUND:                -1.524
REMARK SMILES CCCCCCCCCCCC(=O)[O-]
REMARK SMILES IDX 7 1 8 2 9 3 10 4 11 5 12 6 13 7 14 8 6 9 5 10 4 11 3 12 2 13
REMARK SMILES IDX 1 14
REMARK H PARENT
REMARK Flexibility Score: inf
ROOT
ATOM      1  C   UNL     1       2.631 125.981 110.727  1.00  0.00     0.000 C 
ENDROOT
BRANCH   1   2
ATOM      2  C   UNL     1       3.916 125.154 110.550  1.00  0.00     0.000 C 
BRANCH   2   3
ATOM      3  C   UNL     1       4.036 124.026 111.590  1.00  0.00     0.000 C 
BRANCH   3   4
ATOM      4  C   UNL     1       5.495 123.731 111.981  1.00  0.00     0.006 C 
BRANCH   4   5
ATOM      5  C   UNL     1       6.530 124.646 111.309  1.00  0.00     0.053 C 
BRANCH   5   6
ATOM      6  C   UNL     1       7.934 124.250 111.651  1.00  0.00     0.041 C 
ATOM      7  O   UNL     1       8.908 124.867 111.143  1.00  0.00    -0.550 OA
ATOM      8  O   UNL     1       8.166 123.221 112.555  1.00  0.00    -0.550 OA
ENDBRANCH   5   6
ENDBRANCH   4   5
ENDBRANCH   3   4
ENDBRANCH   2   3
ENDBRANCH   1   2
BRANCH   1   9
ATOM      9  C   UNL     1       1.817 125.547 111.959  1.00  0.00     0.000 C 
BRANCH   9  10
ATOM     10  C   UNL     1       1.282 126.740 112.771  1.00  0.00    -0.000 C 
BRANCH  10  11
ATOM     11  C   UNL     1       2.380 127.508 113.537  1.00  0.00    -0.000 C 
BRANCH  11  12
ATOM     12  C   UNL     1       3.230 126.576 114.419  1.00  0.00    -0.000 C 
BRANCH  12  13
ATOM     13  C   UNL     1       4.735 126.707 114.135  1.00  0.00    -0.003 C 
ATOM     14  C   UNL     1       5.047 127.751 113.065  1.00  0.00     0.004 C 
ENDBRANCH  12  13
ENDBRANCH  11  12
ENDBRANCH  10  11
ENDBRANCH   9  10
ENDBRANCH   1   9
TORSDOF 10
ENDMDL
MODEL 4
REMARK VINA RESULT:    -3.355      3.475      5.695
REMARK INTER + INTRA:          -6.840
REMARK INTER:                  -5.982
REMARK INTRA:                  -0.858
REMARK UNBOUND:                -1.524
REMARK SMILES CCCCCCCCCCCC(=O)[O-]
REMARK SMILES IDX 7 1 8 2 9 3 10 4 11 5 12 6 13 7 14 8 6 9 5 10 4 11 3 12 2 13
REMARK SMILES IDX 1 14
REMARK H PARENT
REMARK Flexibility Score: inf
ROOT
ATOM      1  C   UNL     1       4.685 124.182 112.583  1.00  0.00     0.000 C 
ENDROOT
BRANCH   1   2
ATOM      2  C   UNL     1       3.161 123.991 112.665  1.00  0.00     0.000 C 
BRANCH   2   3
ATOM      3  C   UNL     1       2.394 125.016 111.813  1.00  0.00     0.000 C 
BRANCH   3   4
ATOM      4  C   UNL     1       3.327 125.978 111.056  1.00  0.00     0.006 C 
BRANCH   4   5
ATOM      5  C   UNL     1       2.996 127.467 111.249  1.00  0.00     0.053 C 
BRANCH   5   6
ATOM      6  C   UNL     1       2.116 127.991 110.156  1.00  0.00     0.041 C 
ATOM      7  O   UNL     1       2.624 128.512 109.128  1.00  0.00    -0.550 OA
ATOM      8  O   UNL     1       0.735 127.875 110.259  1.00  0.00    -0.550 OA
ENDBRANCH   5   6
ENDBRANCH   4   5
ENDBRANCH   3   4
ENDBRANCH   2   3
ENDBRANCH   1   2
BRANCH   1   9
ATOM      9  C   UNL     1       5.390 123.001 111.892  1.00  0.00     0.000 C 
BRANCH   9  10
ATOM     10  C   UNL     1       6.751 123.390 111.287  1.00  0.00    -0.000 C 
BRANCH  10  11
ATOM     11  C   UNL     1       7.245 124.787 111.722  1.00  0.00    -0.000 C 
BRANCH  11  12
ATOM     12  C   UNL     1       7.768 125.611 110.533  1.00  0.00    -0.000 C 
BRANCH  12  13
ATOM     13  C   UNL     1       7.909 124.775 109.251  1.00  0.00    -0.003 C 
ATOM     14  C   UNL     1       6.986 125.250 108.130  1.00  0.00     0.004 C 
ENDBRANCH  12  13
ENDBRANCH  11  12
ENDBRANCH  10  11
ENDBRANCH   9  10
ENDBRANCH   1   9
TORSDOF 10
ENDMDL
MODEL 5
REMARK VINA RESULT:    -3.312      1.681      2.753
REMARK INTER + INTRA:          -6.772
REMARK INTER:                  -5.684
REMARK INTRA:                  -1.088
REMARK UNBOUND:                -1.524
REMARK SMILES CCCCCCCCCCCC(=O)[O-]
REMARK SMILES IDX 7 1 8 2 9 3 10 4 11 5 12 6 13 7 14 8 6 9 5 10 4 11 3 12 2 13
REMARK SMILES IDX 1 14
REMARK H PARENT
REMARK Flexibility Score: inf
ROOT
ATOM      1  C   UNL     1       3.096 124.196 113.204  1.00  0.00     0.000 C 
ENDROOT
BRANCH   1   2
ATOM      2  C   UNL     1       4.244 123.278 112.751  1.00  0.00     0.000 C 
BRANCH   2   3
ATOM      3  C   UNL     1       5.589 123.660 113.392  1.00  0.00     0.000 C 
BRANCH   3   4
ATOM      4  C   UNL     1       6.038 125.087 113.028  1.00  0.00     0.006 C 
BRANCH   4   5
ATOM      5  C   UNL     1       6.650 125.221 111.625  1.00  0.00     0.053 C 
BRANCH   5   6
ATOM      6  C   UNL     1       7.673 124.160 111.356  1.00  0.00     0.041 C 
ATOM      7  O   UNL     1       8.826 124.251 111.855  1.00  0.00    -0.550 OA
ATOM      8  O   UNL     1       7.342 123.054 110.583  1.00  0.00    -0.550 OA
ENDBRANCH   5   6
ENDBRANCH   4   5
ENDBRANCH   3   4
ENDBRANCH   2   3
ENDBRANCH   1   2
BRANCH   1   9
ATOM      9  C   UNL     1       2.300 124.771 112.019  1.00  0.00     0.000 C 
BRANCH   9  10
ATOM     10  C   UNL     1       3.108 124.787 110.710  1.00  0.00    -0.000 C 
BRANCH  10  11
ATOM     11  C   UNL     1       3.391 126.208 110.176  1.00  0.00    -0.000 C 
BRANCH  11  12
ATOM     12  C   UNL     1       2.549 127.276 110.896  1.00  0.00    -0.000 C 
BRANCH  12  13
ATOM     13  C   UNL     1       1.428 127.840 110.010  1.00  0.00    -0.003 C 
ATOM     14  C   UNL     1       0.302 128.482 110.818  1.00  0.00     0.004 C 
ENDBRANCH  12  13
ENDBRANCH  11  12
ENDBRANCH  10  11
ENDBRANCH   9  10
ENDBRANCH   1   9
TORSDOF 10
ENDMDL
MODEL 6
REMARK VINA RESULT:    -3.268      1.858      3.372
REMARK INTER + INTRA:          -6.703
REMARK INTER:                  -5.678
REMARK INTRA:                  -1.025
REMARK UNBOUND:                -1.524
REMARK SMILES CCCCCCCCCCCC(=O)[O-]
REMARK SMILES IDX 7 1 8 2 9 3 10 4 11 5 12 6 13 7 14 8 6 9 5 10 4 11 3 12 2 13
REMARK SMILES IDX 1 14
REMARK H PARENT
REMARK Flexibility Score: inf
ROOT
ATOM      1  C   UNL     1       2.395 125.835 110.946  1.00  0.00     0.000 C 
ENDROOT
BRANCH   1   2
ATOM      2  C   UNL     1       3.784 125.774 110.286  1.00  0.00     0.000 C 
BRANCH   2   3
ATOM      3  C   UNL     1       4.768 124.888 111.069  1.00  0.00     0.000 C 
BRANCH   3   4
ATOM      4  C   UNL     1       5.952 125.682 111.649  1.00  0.00     0.006 C 
BRANCH   4   5
ATOM      5  C   UNL     1       6.735 124.945 112.747  1.00  0.00     0.053 C 
BRANCH   5   6
ATOM      6  C   UNL     1       7.898 124.183 112.190  1.00  0.00     0.041 C 
ATOM      7  O   UNL     1       8.163 123.029 112.619  1.00  0.00    -0.550 OA
ATOM      8  O   UNL     1       8.669 124.735 111.175  1.00  0.00    -0.550 OA
ENDBRANCH   5   6
ENDBRANCH   4   5
ENDBRANCH   3   4
ENDBRANCH   2   3
ENDBRANCH   1   2
BRANCH   1   9
ATOM      9  C   UNL     1       2.451 125.565 112.459  1.00  0.00     0.000 C 
BRANCH   9  10
ATOM     10  C   UNL     1       1.815 124.219 112.848  1.00  0.00    -0.000 C 
BRANCH  10  11
ATOM     11  C   UNL     1       2.259 123.704 114.234  1.00  0.00    -0.000 C 
BRANCH  11  12
ATOM     12  C   UNL     1       3.748 123.320 114.260  1.00  0.00    -0.000 C 
BRANCH  12  13
ATOM     13  C   UNL     1       4.052 122.077 113.409  1.00  0.00    -0.003 C 
ATOM     14  C   UNL     1       3.250 120.851 113.843  1.00  0.00     0.004 C 
ENDBRANCH  12  13
ENDBRANCH  11  12
ENDBRANCH  10  11
ENDBRANCH   9  10
ENDBRANCH   1   9
TORSDOF 10
ENDMDL
MODEL 7
REMARK VINA RESULT:    -3.214      2.959      5.316
REMARK INTER + INTRA:          -6.617
REMARK INTER:                  -5.590
REMARK INTRA:                  -1.027
REMARK UNBOUND:                -1.524
REMARK SMILES CCCCCCCCCCCC(=O)[O-]
REMARK SMILES IDX 7 1 8 2 9 3 10 4 11 5 12 6 13 7 14 8 6 9 5 10 4 11 3 12 2 13
REMARK SMILES IDX 1 14
REMARK H PARENT
REMARK Flexibility Score: inf
ROOT
ATOM      1  C   UNL     1       4.172 122.478 113.216  1.00  0.00     0.000 C 
ENDROOT
BRANCH   1   2
ATOM      2  C   UNL     1       3.371 123.592 113.910  1.00  0.00     0.000 C 
BRANCH   2   3
ATOM      3  C   UNL     1       1.851 123.397 113.770  1.00  0.00     0.000 C 
BRANCH   3   4
ATOM      4  C   UNL     1       1.188 124.488 112.910  1.00  0.00     0.006 C 
BRANCH   4   5
ATOM      5  C   UNL     1       2.118 125.653 112.534  1.00  0.00     0.053 C 
BRANCH   5   6
ATOM      6  C   UNL     1       2.320 125.753 111.053  1.00  0.00     0.041 C 
ATOM      7  O   UNL     1       2.727 124.755 110.400  1.00  0.00    -0.550 OA
ATOM      8  O   UNL     1       2.027 126.937 110.389  1.00  0.00    -0.550 OA
ENDBRANCH   5   6
ENDBRANCH   4   5
ENDBRANCH   3   4
ENDBRANCH   2   3
ENDBRANCH   1   2
BRANCH   1   9
ATOM      9  C   UNL     1       5.137 123.023 112.149  1.00  0.00     0.000 C 
BRANCH   9  10
ATOM     10  C   UNL     1       5.656 124.434 112.479  1.00  0.00    -0.000 C 
BRANCH  10  11
ATOM     11  C   UNL     1       7.128 124.458 112.945  1.00  0.00    -0.000 C 
BRANCH  11  12
ATOM     12  C   UNL     1       8.106 124.204 111.785  1.00  0.00    -0.000 C 
BRANCH  12  13
ATOM     13  C   UNL     1       8.007 125.272 110.684  1.00  0.00    -0.003 C 
ATOM     14  C   UNL     1       7.894 124.671 109.284  1.00  0.00     0.004 C 
ENDBRANCH  12  13
ENDBRANCH  11  12
ENDBRANCH  10  11
ENDBRANCH   9  10
ENDBRANCH   1   9
TORSDOF 10
ENDMDL
MODEL 8
REMARK VINA RESULT:    -3.182      3.418      4.807
REMARK INTER + INTRA:          -6.567
REMARK INTER:                  -5.295
REMARK INTRA:                  -1.272
REMARK UNBOUND:                -1.524
REMARK SMILES CCCCCCCCCCCC(=O)[O-]
REMARK SMILES IDX 7 1 8 2 9 3 10 4 11 5 12 6 13 7 14 8 6 9 5 10 4 11 3 12 2 13
REMARK SMILES IDX 1 14
REMARK H PARENT
REMARK Flexibility Score: inf
ROOT
ATOM      1  C   UNL     1       3.406 126.175 113.662  1.00  0.00     0.000 C 
ENDROOT
BRANCH   1   2
ATOM      2  C   UNL     1       3.863 127.578 114.093  1.00  0.00     0.000 C 
BRANCH   2   3
ATOM      3  C   UNL     1       5.065 128.082 113.275  1.00  0.00     0.000 C 
BRANCH   3   4
ATOM      4  C   UNL     1       5.465 129.525 113.631  1.00  0.00     0.006 C 
BRANCH   4   5
ATOM      5  C   UNL     1       6.195 129.668 114.976  1.00  0.00     0.053 C 
BRANCH   5   6
ATOM      6  C   UNL     1       7.319 130.655 114.901  1.00  0.00     0.041 C 
ATOM      7  O   UNL     1       8.061 130.695 113.883  1.00  0.00    -0.550 OA
ATOM      8  O   UNL     1       7.528 131.552 115.941  1.00  0.00    -0.550 OA
ENDBRANCH   5   6
ENDBRANCH   4   5
ENDBRANCH   3   4
ENDBRANCH   2   3
ENDBRANCH   1   2
BRANCH   1   9
ATOM      9  C   UNL     1       3.894 125.804 112.251  1.00  0.00     0.000 C 
BRANCH   9  10
ATOM     10  C   UNL     1       2.740 125.477 111.287  1.00  0.00    -0.000 C 
BRANCH  10  11
ATOM     11  C   UNL     1       1.843 126.691 110.962  1.00  0.00    -0.000 C 
BRANCH  11  12
ATOM     12  C   UNL     1       2.559 127.716 110.065  1.00  0.00    -0.000 C 
BRANCH  12  13
ATOM     13  C   UNL     1       2.573 129.126 110.676  1.00  0.00    -0.003 C 
ATOM     14  C   UNL     1       1.550 129.295 111.797  1.00  0.00     0.004 C 
ENDBRANCH  12  13
ENDBRANCH  11  12
ENDBRANCH  10  11
ENDBRANCH   9  10
ENDBRANCH   1   9
TORSDOF 10
ENDMDL
MODEL 9
REMARK VINA RESULT:    -3.154      3.001      4.634
REMARK INTER + INTRA:          -6.521
REMARK INTER:                  -5.240
REMARK INTRA:                  -1.281
REMARK UNBOUND:                -1.524
REMARK SMILES CCCCCCCCCCCC(=O)[O-]
REMARK SMILES IDX 7 1 8 2 9 3 10 4 11 5 12 6 13 7 14 8 6 9 5 10 4 11 3 12 2 13
REMARK SMILES IDX 1 14
REMARK H PARENT
REMARK Flexibility Score: inf
ROOT
ATOM      1  C   UNL     1       2.649 128.044 113.680  1.00  0.00     0.000 C 
ENDROOT
BRANCH   1   2
ATOM      2  C   UNL     1       4.042 127.510 114.054  1.00  0.00     0.000 C 
BRANCH   2   3
ATOM      3  C   UNL     1       5.167 128.196 113.259  1.00  0.00     0.000 C 
BRANCH   3   4
ATOM      4  C   UNL     1       4.932 129.707 113.078  1.00  0.00     0.006 C 
BRANCH   4   5
ATOM      5  C   UNL     1       5.562 130.583 114.173  1.00  0.00     0.053 C 
BRANCH   5   6
ATOM      6  C   UNL     1       7.056 130.477 114.184  1.00  0.00     0.041 C 
ATOM      7  O   UNL     1       7.665 130.213 115.255  1.00  0.00    -0.550 OA
ATOM      8  O   UNL     1       7.774 130.638 113.005  1.00  0.00    -0.550 OA
ENDBRANCH   5   6
ENDBRANCH   4   5
ENDBRANCH   3   4
ENDBRANCH   2   3
ENDBRANCH   1   2
BRANCH   1   9
ATOM      9  C   UNL     1       1.583 126.936 113.647  1.00  0.00     0.000 C 
BRANCH   9  10
ATOM     10  C   UNL     1       1.465 126.262 112.269  1.00  0.00    -0.000 C 
BRANCH  10  11
ATOM     11  C   UNL     1       1.774 127.209 111.089  1.00  0.00    -0.000 C 
BRANCH  11  12
ATOM     12  C   UNL     1       2.943 126.699 110.229  1.00  0.00    -0.000 C 
BRANCH  12  13
ATOM     13  C   UNL     1       3.357 125.263 110.586  1.00  0.00    -0.003 C 
ATOM     14  C   UNL     1       4.810 125.163 111.048  1.00  0.00     0.004 C 
ENDBRANCH  12  13
ENDBRANCH  11  12
ENDBRANCH  10  11
ENDBRANCH   9  10
ENDBRANCH   1   9
TORSDOF 10
ENDMDL
