MODEL 1
REMARK VINA RESULT:     0.000      0.000      0.000
REMARK INTER + INTRA:          -2.543
REMARK INTER:                   0.000
REMARK INTRA:                  -2.543
REMARK UNBOUND:                -2.543
REMARK SMILES CCCCCCCCCCCCCC(=O)[O-]
REMARK SMILES IDX 8 1 9 2 10 3 11 4 12 5 13 6 14 7 15 8 16 9 7 10 6 11 5 12
REMARK SMILES IDX 4 13 3 14 2 15 1 16
REMARK H PARENT
REMARK Flexibility Score: inf
ROOT
ATOM      1  C   UNL     1     177.400 185.686 193.564  1.00  0.00     0.000 C 
ENDROOT
BRANCH   1   2
ATOM      2  C   UNL     1     177.477 184.154 193.691  1.00  0.00     0.000 C 
BRANCH   2   3
ATOM      3  C   UNL     1     178.704 183.691 194.496  1.00  0.00     0.000 C 
BRANCH   3   4
ATOM      4  C   UNL     1     178.320 183.071 195.851  1.00  0.00     0.000 C 
BRANCH   4   5
ATOM      5  C   UNL     1     179.248 183.524 196.990  1.00  0.00     0.006 C 
BRANCH   5   6
ATOM      6  C   UNL     1     180.472 184.300 196.483  1.00  0.00     0.053 C 
BRANCH   6   7
ATOM      7  C   UNL     1     180.764 185.458 197.384  1.00  0.00     0.041 C 
ATOM      8  O   UNL     1     180.375 185.442 198.582  1.00  0.00    -0.550 OA
ATOM      9  O   UNL     1     181.508 186.534 196.918  1.00  0.00    -0.550 OA
ENDBRANCH   6   7
ENDBRANCH   5   6
ENDBRANCH   4   5
ENDBRANCH   3   4
ENDBRANCH   2   3
ENDBRANCH   1   2
BRANCH   1  10
ATOM     10  C   UNL     1     178.705 186.379 193.986  1.00  0.00     0.000 C 
BRANCH  10  11
ATOM     11  C   UNL     1     178.506 187.376 195.143  1.00  0.00    -0.000 C 
BRANCH  11  12
ATOM     12  C   UNL     1     177.138 187.195 195.834  1.00  0.00    -0.000 C 
BRANCH  12  13
ATOM     13  C   UNL     1     177.239 186.664 197.275  1.00  0.00    -0.000 C 
BRANCH  13  14
ATOM     14  C   UNL     1     176.195 185.578 197.585  1.00  0.00    -0.000 C 
BRANCH  14  15
ATOM     15  C   UNL     1     175.133 185.453 196.482  1.00  0.00    -0.003 C 
ATOM     16  C   UNL     1     174.726 184.003 196.213  1.00  0.00     0.004 C 
ENDBRANCH  14  15
ENDBRANCH  13  14
ENDBRANCH  12  13
ENDBRANCH  11  12
ENDBRANCH  10  11
ENDBRANCH   1  10
TORSDOF 12
ENDMDL
MODEL 2
REMARK VINA RESULT:     0.001     11.112     12.734
REMARK INTER + INTRA:          -2.541
REMARK INTER:                   0.000
REMARK INTRA:                  -2.541
REMARK UNBOUND:                -2.543
REMARK SMILES CCCCCCCCCCCCCC(=O)[O-]
REMARK SMILES IDX 8 1 9 2 10 3 11 4 12 5 13 6 14 7 15 8 16 9 7 10 6 11 5 12
REMARK SMILES IDX 4 13 3 14 2 15 1 16
REMARK H PARENT
REMARK Flexibility Score: inf
ROOT
ATOM      1  C   UNL     1     170.523 192.969 193.944  1.00  0.00     0.000 C 
ENDROOT
BRANCH   1   2
ATOM      2  C   UNL     1     170.537 192.291 195.327  1.00  0.00     0.000 C 
BRANCH   2   3
ATOM      3  C   UNL     1     171.317 193.104 196.374  1.00  0.00     0.000 C 
BRANCH   3   4
ATOM      4  C   UNL     1     170.401 193.710 197.451  1.00  0.00     0.000 C 
BRANCH   4   5
ATOM      5  C   UNL     1     170.789 195.154 197.811  1.00  0.00     0.006 C 
BRANCH   5   6
ATOM      6  C   UNL     1     172.116 195.586 197.171  1.00  0.00     0.053 C 
BRANCH   6   7
ATOM      7  C   UNL     1     172.037 197.012 196.722  1.00  0.00     0.041 C 
ATOM      8  O   UNL     1     171.170 197.783 197.213  1.00  0.00    -0.550 OA
ATOM      9  O   UNL     1     172.951 197.503 195.799  1.00  0.00    -0.550 OA
ENDBRANCH   6   7
ENDBRANCH   5   6
ENDBRANCH   4   5
ENDBRANCH   3   4
ENDBRANCH   2   3
ENDBRANCH   1   2
BRANCH   1  10
ATOM     10  C   UNL     1     171.566 194.091 193.828  1.00  0.00     0.000 C 
BRANCH  10  11
ATOM     11  C   UNL     1     170.936 195.462 193.519  1.00  0.00    -0.000 C 
BRANCH  11  12
ATOM     12  C   UNL     1     169.401 195.443 193.675  1.00  0.00    -0.000 C 
BRANCH  12  13
ATOM     13  C   UNL     1     168.885 196.327 194.824  1.00  0.00    -0.000 C 
BRANCH  13  14
ATOM     14  C   UNL     1     167.783 195.646 195.651  1.00  0.00    -0.000 C 
BRANCH  14  15
ATOM     15  C   UNL     1     167.245 194.373 194.980  1.00  0.00    -0.003 C 
ATOM     16  C   UNL     1     166.990 193.240 195.975  1.00  0.00     0.004 C 
ENDBRANCH  14  15
ENDBRANCH  13  14
ENDBRANCH  12  13
ENDBRANCH  11  12
ENDBRANCH  10  11
ENDBRANCH   1  10
TORSDOF 12
ENDMDL
MODEL 3
REMARK VINA RESULT:     0.002      7.160      9.487
REMARK INTER + INTRA:          -2.541
REMARK INTER:                   0.000
REMARK INTRA:                  -2.541
REMARK UNBOUND:                -2.543
REMARK SMILES CCCCCCCCCCCCCC(=O)[O-]
REMARK SMILES IDX 8 1 9 2 10 3 11 4 12 5 13 6 14 7 15 8 16 9 7 10 6 11 5 12
REMARK SMILES IDX 4 13 3 14 2 15 1 16
REMARK H PARENT
REMARK Flexibility Score: inf
ROOT
ATOM      1  C   UNL     1     176.842 188.732 189.071  1.00  0.00     0.000 C 
ENDROOT
BRANCH   1   2
ATOM      2  C   UNL     1     177.359 189.910 188.225  1.00  0.00     0.000 C 
BRANCH   2   3
ATOM      3  C   UNL     1     178.893 189.929 188.115  1.00  0.00     0.000 C 
BRANCH   3   4
ATOM      4  C   UNL     1     179.385 189.700 186.676  1.00  0.00     0.000 C 
BRANCH   4   5
ATOM      5  C   UNL     1     180.563 188.716 186.604  1.00  0.00     0.006 C 
BRANCH   5   6
ATOM      6  C   UNL     1     181.142 188.385 187.987  1.00  0.00     0.053 C 
BRANCH   6   7
ATOM      7  C   UNL     1     181.600 186.961 188.031  1.00  0.00     0.041 C 
ATOM      8  O   UNL     1     181.721 186.369 189.136  1.00  0.00    -0.550 OA
ATOM      9  O   UNL     1     181.847 186.271 186.851  1.00  0.00    -0.550 OA
ENDBRANCH   6   7
ENDBRANCH   5   6
ENDBRANCH   4   5
ENDBRANCH   3   4
ENDBRANCH   2   3
ENDBRANCH   1   2
BRANCH   1  10
ATOM     10  C   UNL     1     177.959 188.054 189.881  1.00  0.00     0.000 C 
BRANCH  10  11
ATOM     11  C   UNL     1     178.163 186.577 189.498  1.00  0.00    -0.000 C 
BRANCH  11  12
ATOM     12  C   UNL     1     177.371 186.193 188.230  1.00  0.00    -0.000 C 
BRANCH  12  13
ATOM     13  C   UNL     1     178.263 185.768 187.050  1.00  0.00    -0.000 C 
BRANCH  13  14
ATOM     14  C   UNL     1     177.844 186.419 185.722  1.00  0.00    -0.000 C 
BRANCH  14  15
ATOM     15  C   UNL     1     176.456 187.073 185.800  1.00  0.00    -0.003 C 
ATOM     16  C   UNL     1     176.360 188.360 184.980  1.00  0.00     0.004 C 
ENDBRANCH  14  15
ENDBRANCH  13  14
ENDBRANCH  12  13
ENDBRANCH  11  12
ENDBRANCH  10  11
ENDBRANCH   1  10
TORSDOF 12
ENDMDL
MODEL 4
REMARK VINA RESULT:     0.003      7.078      9.106
REMARK INTER + INTRA:          -2.538
REMARK INTER:                   0.000
REMARK INTRA:                  -2.538
REMARK UNBOUND:                -2.543
REMARK SMILES CCCCCCCCCCCCCC(=O)[O-]
REMARK SMILES IDX 8 1 9 2 10 3 11 4 12 5 13 6 14 7 15 8 16 9 7 10 6 11 5 12
REMARK SMILES IDX 4 13 3 14 2 15 1 16
REMARK H PARENT
REMARK Flexibility Score: inf
ROOT
ATOM      1  C   UNL     1     174.716 188.976 191.912  1.00  0.00     0.000 C 
ENDROOT
BRANCH   1   2
ATOM      2  C   UNL     1     173.539 189.613 191.150  1.00  0.00     0.000 C 
BRANCH   2   3
ATOM      3  C   UNL     1     173.880 189.908 189.679  1.00  0.00     0.000 C 
BRANCH   3   4
ATOM      4  C   UNL     1     174.073 191.410 189.408  1.00  0.00     0.000 C 
BRANCH   4   5
ATOM      5  C   UNL     1     175.241 191.691 188.449  1.00  0.00     0.006 C 
BRANCH   5   6
ATOM      6  C   UNL     1     175.878 190.406 187.900  1.00  0.00     0.053 C 
BRANCH   6   7
ATOM      7  C   UNL     1     177.363 190.562 187.803  1.00  0.00     0.041 C 
ATOM      8  O   UNL     1     178.103 189.545 187.730  1.00  0.00    -0.550 OA
ATOM      9  O   UNL     1     177.928 191.829 187.742  1.00  0.00    -0.550 OA
ENDBRANCH   6   7
ENDBRANCH   5   6
ENDBRANCH   4   5
ENDBRANCH   3   4
ENDBRANCH   2   3
ENDBRANCH   1   2
BRANCH   1  10
ATOM     10  C   UNL     1     175.774 188.381 190.970  1.00  0.00     0.000 C 
BRANCH  10  11
ATOM     11  C   UNL     1     177.177 188.976 191.195  1.00  0.00    -0.000 C 
BRANCH  11  12
ATOM     12  C   UNL     1     177.138 190.221 192.106  1.00  0.00    -0.000 C 
BRANCH  12  13
ATOM     13  C   UNL     1     177.492 191.530 191.379  1.00  0.00    -0.000 C 
BRANCH  13  14
ATOM     14  C   UNL     1     176.602 192.709 191.806  1.00  0.00    -0.000 C 
BRANCH  14  15
ATOM     15  C   UNL     1     175.699 192.361 192.999  1.00  0.00    -0.003 C 
ATOM     16  C   UNL     1     174.268 192.873 192.828  1.00  0.00     0.004 C 
ENDBRANCH  14  15
ENDBRANCH  13  14
ENDBRANCH  12  13
ENDBRANCH  11  12
ENDBRANCH  10  11
ENDBRANCH   1  10
TORSDOF 12
ENDMDL
MODEL 5
REMARK VINA RESULT:     0.003      6.195      8.083
REMARK INTER + INTRA:          -2.538
REMARK INTER:                   0.000
REMARK INTRA:                  -2.538
REMARK UNBOUND:                -2.543
REMARK SMILES CCCCCCCCCCCCCC(=O)[O-]
REMARK SMILES IDX 8 1 9 2 10 3 11 4 12 5 13 6 14 7 15 8 16 9 7 10 6 11 5 12
REMARK SMILES IDX 4 13 3 14 2 15 1 16
REMARK H PARENT
REMARK Flexibility Score: inf
ROOT
ATOM      1  C   UNL     1     178.100 192.747 196.927  1.00  0.00     0.000 C 
ENDROOT
BRANCH   1   2
ATOM      2  C   UNL     1     178.216 191.274 196.494  1.00  0.00     0.000 C 
BRANCH   2   3
ATOM      3  C   UNL     1     176.881 190.518 196.613  1.00  0.00     0.000 C 
BRANCH   3   4
ATOM      4  C   UNL     1     176.841 189.581 197.833  1.00  0.00     0.000 C 
BRANCH   4   5
ATOM      5  C   UNL     1     175.472 189.582 198.532  1.00  0.00     0.006 C 
BRANCH   5   6
ATOM      6  C   UNL     1     174.450 190.487 197.830  1.00  0.00     0.053 C 
BRANCH   6   7
ATOM      7  C   UNL     1     173.574 191.161 198.838  1.00  0.00     0.041 C 
ATOM      8  O   UNL     1     173.482 190.701 200.006  1.00  0.00    -0.550 OA
ATOM      9  O   UNL     1     172.896 192.327 198.503  1.00  0.00    -0.550 OA
ENDBRANCH   6   7
ENDBRANCH   5   6
ENDBRANCH   4   5
ENDBRANCH   3   4
ENDBRANCH   2   3
ENDBRANCH   1   2
BRANCH   1  10
ATOM     10  C   UNL     1     176.656 193.269 196.863  1.00  0.00     0.000 C 
BRANCH  10  11
ATOM     11  C   UNL     1     176.158 193.818 198.212  1.00  0.00    -0.000 C 
BRANCH  11  12
ATOM     12  C   UNL     1     177.154 193.535 199.356  1.00  0.00    -0.000 C 
BRANCH  12  13
ATOM     13  C   UNL     1     176.604 192.586 200.435  1.00  0.00    -0.000 C 
BRANCH  13  14
ATOM     14  C   UNL     1     177.635 191.542 200.892  1.00  0.00    -0.000 C 
BRANCH  14  15
ATOM     15  C   UNL     1     179.059 191.875 200.421  1.00  0.00    -0.003 C 
ATOM     16  C   UNL     1     179.787 190.666 199.832  1.00  0.00     0.004 C 
ENDBRANCH  14  15
ENDBRANCH  13  14
ENDBRANCH  12  13
ENDBRANCH  11  12
ENDBRANCH  10  11
ENDBRANCH   1  10
TORSDOF 12
ENDMDL
MODEL 6
REMARK VINA RESULT:     0.018      3.759      5.529
REMARK INTER + INTRA:          -2.512
REMARK INTER:                   0.000
REMARK INTRA:                  -2.512
REMARK UNBOUND:                -2.543
REMARK SMILES CCCCCCCCCCCCCC(=O)[O-]
REMARK SMILES IDX 8 1 9 2 10 3 11 4 12 5 13 6 14 7 15 8 16 9 7 10 6 11 5 12
REMARK SMILES IDX 4 13 3 14 2 15 1 16
REMARK H PARENT
REMARK Flexibility Score: inf
ROOT
ATOM      1  C   UNL     1     178.594 191.821 196.340  1.00  0.00     0.000 C 
ENDROOT
BRANCH   1   2
ATOM      2  C   UNL     1     179.892 190.995 196.294  1.00  0.00     0.000 C 
BRANCH   2   3
ATOM      3  C   UNL     1     180.018 190.027 197.484  1.00  0.00     0.000 C 
BRANCH   3   4
ATOM      4  C   UNL     1     180.060 188.554 197.044  1.00  0.00     0.000 C 
BRANCH   4   5
ATOM      5  C   UNL     1     178.994 187.698 197.747  1.00  0.00     0.006 C 
BRANCH   5   6
ATOM      6  C   UNL     1     178.539 188.300 199.083  1.00  0.00     0.053 C 
BRANCH   6   7
ATOM      7  C   UNL     1     177.129 187.897 199.382  1.00  0.00     0.041 C 
ATOM      8  O   UNL     1     176.651 186.845 198.880  1.00  0.00    -0.550 OA
ATOM      9  O   UNL     1     176.358 188.654 200.254  1.00  0.00    -0.550 OA
ENDBRANCH   6   7
ENDBRANCH   5   6
ENDBRANCH   4   5
ENDBRANCH   3   4
ENDBRANCH   2   3
ENDBRANCH   1   2
BRANCH   1  10
ATOM     10  C   UNL     1     177.854 191.682 197.680  1.00  0.00     0.000 C 
BRANCH  10  11
ATOM     11  C   UNL     1     176.441 191.092 197.524  1.00  0.00    -0.000 C 
BRANCH  11  12
ATOM     12  C   UNL     1     176.203 190.525 196.108  1.00  0.00    -0.000 C 
BRANCH  12  13
ATOM     13  C   UNL     1     175.906 189.015 196.088  1.00  0.00    -0.000 C 
BRANCH  13  14
ATOM     14  C   UNL     1     176.680 188.270 194.989  1.00  0.00    -0.000 C 
BRANCH  14  15
ATOM     15  C   UNL     1     177.407 189.226 194.030  1.00  0.00    -0.003 C 
ATOM     16  C   UNL     1     178.762 188.687 193.571  1.00  0.00     0.004 C 
ENDBRANCH  14  15
ENDBRANCH  13  14
ENDBRANCH  12  13
ENDBRANCH  11  12
ENDBRANCH  10  11
ENDBRANCH   1  10
TORSDOF 12
ENDMDL
MODEL 7
REMARK VINA RESULT:     0.022      8.208     10.319
REMARK INTER + INTRA:          -2.506
REMARK INTER:                   0.000
REMARK INTRA:                  -2.506
REMARK UNBOUND:                -2.543
REMARK SMILES CCCCCCCCCCCCCC(=O)[O-]
REMARK SMILES IDX 8 1 9 2 10 3 11 4 12 5 13 6 14 7 15 8 16 9 7 10 6 11 5 12
REMARK SMILES IDX 4 13 3 14 2 15 1 16
REMARK H PARENT
REMARK Flexibility Score: inf
ROOT
ATOM      1  C   UNL     1     171.565 190.965 195.636  1.00  0.00     0.000 C 
ENDROOT
BRANCH   1   2
ATOM      2  C   UNL     1     170.626 190.974 196.856  1.00  0.00     0.000 C 
BRANCH   2   3
ATOM      3  C   UNL     1     170.068 189.578 197.181  1.00  0.00     0.000 C 
BRANCH   3   4
ATOM      4  C   UNL     1     168.573 189.447 196.843  1.00  0.00     0.000 C 
BRANCH   4   5
ATOM      5  C   UNL     1     168.227 188.090 196.210  1.00  0.00     0.006 C 
BRANCH   5   6
ATOM      6  C   UNL     1     169.439 187.152 196.124  1.00  0.00     0.053 C 
BRANCH   6   7
ATOM      7  C   UNL     1     169.213 186.104 195.080  1.00  0.00     0.041 C 
ATOM      8  O   UNL     1     170.000 186.004 194.102  1.00  0.00    -0.550 OA
ATOM      9  O   UNL     1     168.162 185.205 195.212  1.00  0.00    -0.550 OA
ENDBRANCH   6   7
ENDBRANCH   5   6
ENDBRANCH   4   5
ENDBRANCH   3   4
ENDBRANCH   2   3
ENDBRANCH   1   2
BRANCH   1  10
ATOM     10  C   UNL     1     172.148 189.572 195.351  1.00  0.00     0.000 C 
BRANCH  10  11
ATOM     11  C   UNL     1     171.808 189.059 193.940  1.00  0.00    -0.000 C 
BRANCH  11  12
ATOM     12  C   UNL     1     170.807 189.982 193.213  1.00  0.00    -0.000 C 
BRANCH  12  13
ATOM     13  C   UNL     1     169.443 189.323 192.943  1.00  0.00    -0.000 C 
BRANCH  13  14
ATOM     14  C   UNL     1     168.262 190.275 193.191  1.00  0.00    -0.000 C 
BRANCH  14  15
ATOM     15  C   UNL     1     168.713 191.727 193.412  1.00  0.00    -0.003 C 
ATOM     16  C   UNL     1     168.012 192.392 194.597  1.00  0.00     0.004 C 
ENDBRANCH  14  15
ENDBRANCH  13  14
ENDBRANCH  12  13
ENDBRANCH  11  12
ENDBRANCH  10  11
ENDBRANCH   1  10
TORSDOF 12
ENDMDL
MODEL 8
REMARK VINA RESULT:     0.022      4.232      6.389
REMARK INTER + INTRA:          -2.506
REMARK INTER:                   0.000
REMARK INTRA:                  -2.506
REMARK UNBOUND:                -2.543
REMARK SMILES CCCCCCCCCCCCCC(=O)[O-]
REMARK SMILES IDX 8 1 9 2 10 3 11 4 12 5 13 6 14 7 15 8 16 9 7 10 6 11 5 12
REMARK SMILES IDX 4 13 3 14 2 15 1 16
REMARK H PARENT
REMARK Flexibility Score: inf
ROOT
ATOM      1  C   UNL     1     175.655 191.945 193.070  1.00  0.00     0.000 C 
ENDROOT
BRANCH   1   2
ATOM      2  C   UNL     1     174.756 190.764 193.478  1.00  0.00     0.000 C 
BRANCH   2   3
ATOM      3  C   UNL     1     174.187 190.009 192.264  1.00  0.00     0.000 C 
BRANCH   3   4
ATOM      4  C   UNL     1     174.126 188.489 192.490  1.00  0.00     0.000 C 
BRANCH   4   5
ATOM      5  C   UNL     1     174.702 188.072 193.852  1.00  0.00     0.006 C 
BRANCH   5   6
ATOM      6  C   UNL     1     175.280 186.650 193.840  1.00  0.00     0.053 C 
BRANCH   6   7
ATOM      7  C   UNL     1     176.409 186.538 194.816  1.00  0.00     0.041 C 
ATOM      8  O   UNL     1     177.441 185.881 194.518  1.00  0.00    -0.550 OA
ATOM      9  O   UNL     1     176.343 187.200 196.035  1.00  0.00    -0.550 OA
ENDBRANCH   6   7
ENDBRANCH   5   6
ENDBRANCH   4   5
ENDBRANCH   3   4
ENDBRANCH   2   3
ENDBRANCH   1   2
BRANCH   1  10
ATOM     10  C   UNL     1     177.108 191.770 193.540  1.00  0.00     0.000 C 
BRANCH  10  11
ATOM     11  C   UNL     1     177.281 190.598 194.523  1.00  0.00    -0.000 C 
BRANCH  11  12
ATOM     12  C   UNL     1     178.295 189.554 194.008  1.00  0.00    -0.000 C 
BRANCH  12  13
ATOM     13  C   UNL     1     178.487 189.580 192.482  1.00  0.00    -0.000 C 
BRANCH  13  14
ATOM     14  C   UNL     1     177.856 188.366 191.781  1.00  0.00    -0.000 C 
BRANCH  14  15
ATOM     15  C   UNL     1     177.196 188.737 190.444  1.00  0.00    -0.003 C 
ATOM     16  C   UNL     1     177.287 190.231 190.131  1.00  0.00     0.004 C 
ENDBRANCH  14  15
ENDBRANCH  13  14
ENDBRANCH  12  13
ENDBRANCH  11  12
ENDBRANCH  10  11
ENDBRANCH   1  10
TORSDOF 12
ENDMDL
MODEL 9
REMARK VINA RESULT:     0.024      8.915     11.118
REMARK INTER + INTRA:          -2.503
REMARK INTER:                   0.000
REMARK INTRA:                  -2.503
REMARK UNBOUND:                -2.543
REMARK SMILES CCCCCCCCCCCCCC(=O)[O-]
REMARK SMILES IDX 8 1 9 2 10 3 11 4 12 5 13 6 14 7 15 8 16 9 7 10 6 11 5 12
REMARK SMILES IDX 4 13 3 14 2 15 1 16
REMARK H PARENT
REMARK Flexibility Score: inf
ROOT
ATOM      1  C   UNL     1     170.848 191.599 193.158  1.00  0.00     0.000 C 
ENDROOT
BRANCH   1   2
ATOM      2  C   UNL     1     169.886 192.429 194.027  1.00  0.00     0.000 C 
BRANCH   2   3
ATOM      3  C   UNL     1     170.619 193.244 195.106  1.00  0.00     0.000 C 
BRANCH   3   4
ATOM      4  C   UNL     1     169.849 193.289 196.437  1.00  0.00     0.000 C 
BRANCH   4   5
ATOM      5  C   UNL     1     168.504 192.549 196.365  1.00  0.00     0.006 C 
BRANCH   5   6
ATOM      6  C   UNL     1     168.128 191.876 197.692  1.00  0.00     0.053 C 
BRANCH   6   7
ATOM      7  C   UNL     1     167.390 190.599 197.437  1.00  0.00     0.041 C 
ATOM      8  O   UNL     1     166.581 190.516 196.476  1.00  0.00    -0.550 OA
ATOM      9  O   UNL     1     167.632 189.485 198.232  1.00  0.00    -0.550 OA
ENDBRANCH   6   7
ENDBRANCH   5   6
ENDBRANCH   4   5
ENDBRANCH   3   4
ENDBRANCH   2   3
ENDBRANCH   1   2
BRANCH   1  10
ATOM     10  C   UNL     1     170.541 190.094 193.211  1.00  0.00     0.000 C 
BRANCH  10  11
ATOM     11  C   UNL     1     169.294 189.768 194.053  1.00  0.00    -0.000 C 
BRANCH  11  12
ATOM     12  C   UNL     1     169.603 188.757 195.178  1.00  0.00    -0.000 C 
BRANCH  12  13
ATOM     13  C   UNL     1     171.021 188.891 195.758  1.00  0.00    -0.000 C 
BRANCH  13  14
ATOM     14  C   UNL     1     171.065 189.747 197.034  1.00  0.00    -0.000 C 
BRANCH  14  15
ATOM     15  C   UNL     1     172.324 190.625 197.109  1.00  0.00    -0.003 C 
ATOM     16  C   UNL     1     173.182 190.543 195.846  1.00  0.00     0.004 C 
ENDBRANCH  14  15
ENDBRANCH  13  14
ENDBRANCH  12  13
ENDBRANCH  11  12
ENDBRANCH  10  11
ENDBRANCH   1  10
TORSDOF 12
ENDMDL
