MODEL 1
REMARK VINA RESULT:    -3.418      0.000      0.000
REMARK INTER + INTRA:          -4.724
REMARK INTER:                  -4.617
REMARK INTRA:                  -0.107
REMARK UNBOUND:                -0.107
REMARK SMILES CCCCCCCC=O
REMARK SMILES IDX 5 1 4 2 3 3 2 4 1 5 6 6 7 7 8 8 9 9
REMARK H PARENT
REMARK Flexibility Score: inf
ROOT
ATOM      1  C   UNL     1     165.210 164.597 166.353  1.00  0.00     0.000 C 
ENDROOT
BRANCH   1   2
ATOM      2  C   UNL     1     165.666 165.722 165.404  1.00  0.00     0.000 C 
BRANCH   2   3
ATOM      3  C   UNL     1     166.729 166.677 165.982  1.00  0.00    -0.000 C 
BRANCH   3   4
ATOM      4  C   UNL     1     167.836 167.086 164.994  1.00  0.00    -0.003 C 
ATOM      5  C   UNL     1     169.242 166.857 165.548  1.00  0.00     0.004 C 
ENDBRANCH   3   4
ENDBRANCH   2   3
ENDBRANCH   1   2
BRANCH   1   6
ATOM      6  C   UNL     1     163.687 164.509 166.577  1.00  0.00     0.008 C 
BRANCH   6   7
ATOM      7  C   UNL     1     162.885 164.122 165.324  1.00  0.00     0.072 C 
BRANCH   7   8
ATOM      8  C   UNL     1     161.438 164.502 165.435  1.00  0.00     0.224 C 
ATOM      9  O   UNL     1     160.762 164.100 166.369  1.00  0.00    -0.303 OA
ENDBRANCH   7   8
ENDBRANCH   6   7
ENDBRANCH   1   6
TORSDOF 6
ENDMDL
MODEL 2
REMARK VINA RESULT:    -3.391      3.200      5.663
REMARK INTER + INTRA:          -4.688
REMARK INTER:                  -4.457
REMARK INTRA:                  -0.231
REMARK UNBOUND:                -0.107
REMARK SMILES CCCCCCCC=O
REMARK SMILES IDX 5 1 4 2 3 3 2 4 1 5 6 6 7 7 8 8 9 9
REMARK H PARENT
REMARK Flexibility Score: inf
ROOT
ATOM      1  C   UNL     1     166.031 165.860 166.903  1.00  0.00     0.000 C 
ENDROOT
BRANCH   1   2
ATOM      2  C   UNL     1     164.800 164.953 167.095  1.00  0.00     0.000 C 
BRANCH   2   3
ATOM      3  C   UNL     1     164.678 163.792 166.089  1.00  0.00    -0.000 C 
BRANCH   3   4
ATOM      4  C   UNL     1     163.556 163.954 165.048  1.00  0.00    -0.003 C 
ATOM      5  C   UNL     1     162.186 164.191 165.682  1.00  0.00     0.004 C 
ENDBRANCH   3   4
ENDBRANCH   2   3
ENDBRANCH   1   2
BRANCH   1   6
ATOM      6  C   UNL     1     166.113 166.567 165.536  1.00  0.00     0.008 C 
BRANCH   6   7
ATOM      7  C   UNL     1     167.266 167.576 165.413  1.00  0.00     0.072 C 
BRANCH   7   8
ATOM      8  C   UNL     1     168.559 166.919 165.031  1.00  0.00     0.224 C 
ATOM      9  O   UNL     1     169.521 166.962 165.783  1.00  0.00    -0.303 OA
ENDBRANCH   7   8
ENDBRANCH   6   7
ENDBRANCH   1   6
TORSDOF 6
ENDMDL
MODEL 3
REMARK VINA RESULT:    -3.346      1.801      2.251
REMARK INTER + INTRA:          -4.627
REMARK INTER:                  -4.455
REMARK INTRA:                  -0.171
REMARK UNBOUND:                -0.107
REMARK SMILES CCCCCCCC=O
REMARK SMILES IDX 5 1 4 2 3 3 2 4 1 5 6 6 7 7 8 8 9 9
REMARK H PARENT
REMARK Flexibility Score: inf
ROOT
ATOM      1  C   UNL     1     165.935 165.992 165.953  1.00  0.00     0.000 C 
ENDROOT
BRANCH   1   2
ATOM      2  C   UNL     1     167.022 167.021 166.323  1.00  0.00     0.000 C 
BRANCH   2   3
ATOM      3  C   UNL     1     167.976 167.408 165.175  1.00  0.00    -0.000 C 
BRANCH   3   4
ATOM      4  C   UNL     1     169.337 166.691 165.196  1.00  0.00    -0.003 C 
ATOM      5  C   UNL     1     170.142 166.978 166.463  1.00  0.00     0.004 C 
ENDBRANCH   3   4
ENDBRANCH   2   3
ENDBRANCH   1   2
BRANCH   1   6
ATOM      6  C   UNL     1     165.312 165.244 167.148  1.00  0.00     0.008 C 
BRANCH   6   7
ATOM      7  C   UNL     1     165.077 163.745 166.902  1.00  0.00     0.072 C 
BRANCH   7   8
ATOM      8  C   UNL     1     164.669 163.457 165.487  1.00  0.00     0.224 C 
ATOM      9  O   UNL     1     163.497 163.534 165.153  1.00  0.00    -0.303 OA
ENDBRANCH   7   8
ENDBRANCH   6   7
ENDBRANCH   1   6
TORSDOF 6
ENDMDL
MODEL 4
REMARK VINA RESULT:    -3.323      3.296      5.529
REMARK INTER + INTRA:          -4.595
REMARK INTER:                  -4.356
REMARK INTRA:                  -0.239
REMARK UNBOUND:                -0.107
REMARK SMILES CCCCCCCC=O
REMARK SMILES IDX 5 1 4 2 3 3 2 4 1 5 6 6 7 7 8 8 9 9
REMARK H PARENT
REMARK Flexibility Score: inf
ROOT
ATOM      1  C   UNL     1     165.919 166.174 166.505  1.00  0.00     0.000 C 
ENDROOT
BRANCH   1   2
ATOM      2  C   UNL     1     165.239 164.791 166.462  1.00  0.00     0.000 C 
BRANCH   2   3
ATOM      3  C   UNL     1     164.281 164.570 165.275  1.00  0.00    -0.000 C 
BRANCH   3   4
ATOM      4  C   UNL     1     163.985 163.095 164.950  1.00  0.00    -0.003 C 
ATOM      5  C   UNL     1     165.233 162.214 164.995  1.00  0.00     0.004 C 
ENDBRANCH   3   4
ENDBRANCH   2   3
ENDBRANCH   1   2
BRANCH   1   6
ATOM      6  C   UNL     1     166.281 166.766 165.129  1.00  0.00     0.008 C 
BRANCH   6   7
ATOM      7  C   UNL     1     167.511 167.689 165.141  1.00  0.00     0.072 C 
BRANCH   7   8
ATOM      8  C   UNL     1     168.799 166.921 165.169  1.00  0.00     0.224 C 
ATOM      9  O   UNL     1     169.417 166.786 166.213  1.00  0.00    -0.303 OA
ENDBRANCH   7   8
ENDBRANCH   6   7
ENDBRANCH   1   6
TORSDOF 6
ENDMDL
MODEL 5
REMARK VINA RESULT:    -3.306      1.099      1.544
REMARK INTER + INTRA:          -4.572
REMARK INTER:                  -4.282
REMARK INTRA:                  -0.289
REMARK UNBOUND:                -0.107
REMARK SMILES CCCCCCCC=O
REMARK SMILES IDX 5 1 4 2 3 3 2 4 1 5 6 6 7 7 8 8 9 9
REMARK H PARENT
REMARK Flexibility Score: inf
ROOT
ATOM      1  C   UNL     1     165.653 165.539 167.855  1.00  0.00     0.000 C 
ENDROOT
BRANCH   1   2
ATOM      2  C   UNL     1     166.605 166.663 167.401  1.00  0.00     0.000 C 
BRANCH   2   3
ATOM      3  C   UNL     1     166.401 167.149 165.952  1.00  0.00    -0.000 C 
BRANCH   3   4
ATOM      4  C   UNL     1     167.587 166.884 165.008  1.00  0.00    -0.003 C 
ATOM      5  C   UNL     1     168.930 166.848 165.736  1.00  0.00     0.004 C 
ENDBRANCH   3   4
ENDBRANCH   2   3
ENDBRANCH   1   2
BRANCH   1   6
ATOM      6  C   UNL     1     165.161 164.606 166.731  1.00  0.00     0.008 C 
BRANCH   6   7
ATOM      7  C   UNL     1     163.632 164.480 166.638  1.00  0.00     0.072 C 
BRANCH   7   8
ATOM      8  C   UNL     1     163.172 164.144 165.249  1.00  0.00     0.224 C 
ATOM      9  O   UNL     1     162.052 164.457 164.875  1.00  0.00    -0.303 OA
ENDBRANCH   7   8
ENDBRANCH   6   7
ENDBRANCH   1   6
TORSDOF 6
ENDMDL
MODEL 6
REMARK VINA RESULT:    -3.104      3.412      4.082
REMARK INTER + INTRA:          -4.300
REMARK INTER:                  -4.106
REMARK INTRA:                  -0.193
REMARK UNBOUND:                -0.107
REMARK SMILES CCCCCCCC=O
REMARK SMILES IDX 5 1 4 2 3 3 2 4 1 5 6 6 7 7 8 8 9 9
REMARK H PARENT
REMARK Flexibility Score: inf
ROOT
ATOM      1  C   UNL     1     164.949 163.017 166.116  1.00  0.00     0.000 C 
ENDROOT
BRANCH   1   2
ATOM      2  C   UNL     1     164.946 164.534 165.837  1.00  0.00     0.000 C 
BRANCH   2   3
ATOM      3  C   UNL     1     165.478 165.412 166.986  1.00  0.00    -0.000 C 
BRANCH   3   4
ATOM      4  C   UNL     1     166.195 166.698 166.538  1.00  0.00    -0.003 C 
ATOM      5  C   UNL     1     166.917 166.541 165.200  1.00  0.00     0.004 C 
ENDBRANCH   3   4
ENDBRANCH   2   3
ENDBRANCH   1   2
BRANCH   1   6
ATOM      6  C   UNL     1     165.155 162.126 164.875  1.00  0.00     0.008 C 
BRANCH   6   7
ATOM      7  C   UNL     1     166.000 160.868 165.132  1.00  0.00     0.072 C 
BRANCH   7   8
ATOM      8  C   UNL     1     166.441 160.762 166.562  1.00  0.00     0.224 C 
ATOM      9  O   UNL     1     167.091 159.799 166.939  1.00  0.00    -0.303 OA
ENDBRANCH   7   8
ENDBRANCH   6   7
ENDBRANCH   1   6
TORSDOF 6
ENDMDL
MODEL 7
REMARK VINA RESULT:    -2.987      3.140      3.664
REMARK INTER + INTRA:          -4.141
REMARK INTER:                  -3.807
REMARK INTRA:                  -0.334
REMARK UNBOUND:                -0.107
REMARK SMILES CCCCCCCC=O
REMARK SMILES IDX 5 1 4 2 3 3 2 4 1 5 6 6 7 7 8 8 9 9
REMARK H PARENT
REMARK Flexibility Score: inf
ROOT
ATOM      1  C   UNL     1     165.999 166.032 166.682  1.00  0.00     0.000 C 
ENDROOT
BRANCH   1   2
ATOM      2  C   UNL     1     166.436 166.378 165.244  1.00  0.00     0.000 C 
BRANCH   2   3
ATOM      3  C   UNL     1     167.593 167.392 165.138  1.00  0.00    -0.000 C 
BRANCH   3   4
ATOM      4  C   UNL     1     168.995 166.765 165.045  1.00  0.00    -0.003 C 
ATOM      5  C   UNL     1     169.833 166.991 166.302  1.00  0.00     0.004 C 
ENDBRANCH   3   4
ENDBRANCH   2   3
ENDBRANCH   1   2
BRANCH   1   6
ATOM      6  C   UNL     1     166.074 167.200 167.685  1.00  0.00     0.008 C 
BRANCH   6   7
ATOM      7  C   UNL     1     165.962 166.776 169.159  1.00  0.00     0.072 C 
BRANCH   7   8
ATOM      8  C   UNL     1     165.338 165.420 169.315  1.00  0.00     0.224 C 
ATOM      9  O   UNL     1     165.113 164.967 170.426  1.00  0.00    -0.303 OA
ENDBRANCH   7   8
ENDBRANCH   6   7
ENDBRANCH   1   6
TORSDOF 6
ENDMDL
MODEL 8
REMARK VINA RESULT:    -2.981      3.764      5.809
REMARK INTER + INTRA:          -4.134
REMARK INTER:                  -3.932
REMARK INTRA:                  -0.201
REMARK UNBOUND:                -0.107
REMARK SMILES CCCCCCCC=O
REMARK SMILES IDX 5 1 4 2 3 3 2 4 1 5 6 6 7 7 8 8 9 9
REMARK H PARENT
REMARK Flexibility Score: inf
ROOT
ATOM      1  C   UNL     1     165.867 165.900 165.920  1.00  0.00     0.000 C 
ENDROOT
BRANCH   1   2
ATOM      2  C   UNL     1     165.222 165.199 167.132  1.00  0.00     0.000 C 
BRANCH   2   3
ATOM      3  C   UNL     1     165.670 165.727 168.509  1.00  0.00    -0.000 C 
BRANCH   3   4
ATOM      4  C   UNL     1     165.392 164.777 169.687  1.00  0.00    -0.003 C 
ATOM      5  C   UNL     1     165.394 163.304 169.278  1.00  0.00     0.004 C 
ENDBRANCH   3   4
ENDBRANCH   2   3
ENDBRANCH   1   2
BRANCH   1   6
ATOM      6  C   UNL     1     167.096 166.770 166.248  1.00  0.00     0.008 C 
BRANCH   6   7
ATOM      7  C   UNL     1     167.952 167.142 165.026  1.00  0.00     0.072 C 
BRANCH   7   8
ATOM      8  C   UNL     1     169.381 166.712 165.180  1.00  0.00     0.224 C 
ATOM      9  O   UNL     1     170.041 167.089 166.136  1.00  0.00    -0.303 OA
ENDBRANCH   7   8
ENDBRANCH   6   7
ENDBRANCH   1   6
TORSDOF 6
ENDMDL
