MODEL 1
REMARK VINA RESULT:    -5.391      0.000      0.000
REMARK INTER + INTRA:         -13.103
REMARK INTER:                 -11.693
REMARK INTRA:                  -1.409
REMARK UNBOUND:                -1.409
REMARK SMILES CCCCCCCCCCCCCCCCCCCCCC(=O)[O-]
REMARK SMILES IDX 12 1 11 2 10 3 9 4 8 5 7 6 6 7 5 8 4 9 3 10 2 11 1 12 13 13
REMARK SMILES IDX 14 14 15 15 16 16 17 17 18 18 19 19 20 20 21 21 22 22 23 23
REMARK SMILES IDX 24 24
REMARK H PARENT
REMARK Flexibility Score: inf
ROOT
ATOM      1  C   UNL     1       0.406  -4.867  -2.285  1.00  0.00     0.000 C 
ENDROOT
BRANCH   1   2
ATOM      2  C   UNL     1       0.139  -5.846  -1.124  1.00  0.00     0.000 C 
BRANCH   2   3
ATOM      3  C   UNL     1      -0.098  -7.305  -1.552  1.00  0.00     0.000 C 
BRANCH   3   4
ATOM      4  C   UNL     1       0.671  -8.312  -0.679  1.00  0.00    -0.000 C 
BRANCH   4   5
ATOM      5  C   UNL     1       1.732  -9.096  -1.470  1.00  0.00    -0.000 C 
BRANCH   5   6
ATOM      6  C   UNL     1       1.257  -9.646  -2.830  1.00  0.00    -0.000 C 
BRANCH   6   7
ATOM      7  C   UNL     1       2.361  -9.831  -3.887  1.00  0.00    -0.000 C 
BRANCH   7   8
ATOM      8  C   UNL     1       3.622  -9.004  -3.585  1.00  0.00    -0.000 C 
BRANCH   8   9
ATOM      9  C   UNL     1       4.151  -8.262  -4.823  1.00  0.00    -0.000 C 
BRANCH   9  10
ATOM     10  C   UNL     1       3.038  -7.545  -5.608  1.00  0.00    -0.000 C 
BRANCH  10  11
ATOM     11  C   UNL     1       3.076  -7.871  -7.109  1.00  0.00    -0.003 C 
ATOM     12  C   UNL     1       4.057  -8.993  -7.445  1.00  0.00     0.004 C 
ENDBRANCH  10  11
ENDBRANCH   9  10
ENDBRANCH   8   9
ENDBRANCH   7   8
ENDBRANCH   6   7
ENDBRANCH   5   6
ENDBRANCH   4   5
ENDBRANCH   3   4
ENDBRANCH   2   3
ENDBRANCH   1   2
BRANCH   1  13
ATOM     13  C   UNL     1       0.729  -3.420  -1.861  1.00  0.00     0.000 C 
BRANCH  13  14
ATOM     14  C   UNL     1       0.954  -3.222  -0.352  1.00  0.00     0.000 C 
BRANCH  14  15
ATOM     15  C   UNL     1       0.123  -2.063   0.225  1.00  0.00     0.000 C 
BRANCH  15  16
ATOM     16  C   UNL     1       0.947  -1.146   1.142  1.00  0.00     0.000 C 
BRANCH  16  17
ATOM     17  C   UNL     1       0.440   0.305   1.133  1.00  0.00     0.000 C 
BRANCH  17  18
ATOM     18  C   UNL     1      -0.413   0.633  -0.105  1.00  0.00     0.000 C 
BRANCH  18  19
ATOM     19  C   UNL     1      -1.220   1.941   0.028  1.00  0.00     0.000 C 
BRANCH  19  20
ATOM     20  C   UNL     1      -1.752   2.438  -1.327  1.00  0.00     0.006 C 
BRANCH  20  21
ATOM     21  C   UNL     1      -0.845   2.025  -2.495  1.00  0.00     0.053 C 
BRANCH  21  22
ATOM     22  C   UNL     1       0.092   3.127  -2.887  1.00  0.00     0.041 C 
ATOM     23  O   UNL     1       1.006   2.912  -3.725  1.00  0.00    -0.550 OA
ATOM     24  O   UNL     1      -0.023   4.379  -2.300  1.00  0.00    -0.550 OA
ENDBRANCH  21  22
ENDBRANCH  20  21
ENDBRANCH  19  20
ENDBRANCH  18  19
ENDBRANCH  17  18
ENDBRANCH  16  17
ENDBRANCH  15  16
ENDBRANCH  14  15
ENDBRANCH  13  14
ENDBRANCH   1  13
TORSDOF 20
ENDMDL
MODEL 2
REMARK VINA RESULT:    -5.272      0.890      2.075
REMARK INTER + INTRA:         -12.846
REMARK INTER:                 -11.646
REMARK INTRA:                  -1.200
REMARK UNBOUND:                -1.409
REMARK SMILES CCCCCCCCCCCCCCCCCCCCCC(=O)[O-]
REMARK SMILES IDX 12 1 11 2 10 3 9 4 8 5 7 6 6 7 5 8 4 9 3 10 2 11 1 12 13 13
REMARK SMILES IDX 14 14 15 15 16 16 17 17 18 18 19 19 20 20 21 21 22 22 23 23
REMARK SMILES IDX 24 24
REMARK H PARENT
REMARK Flexibility Score: inf
ROOT
ATOM      1  C   UNL     1       0.729  -3.589  -0.391  1.00  0.00     0.000 C 
ENDROOT
BRANCH   1   2
ATOM      2  C   UNL     1       0.650  -3.911  -1.897  1.00  0.00     0.000 C 
BRANCH   2   3
ATOM      3  C   UNL     1       0.029  -5.279  -2.233  1.00  0.00     0.000 C 
BRANCH   3   4
ATOM      4  C   UNL     1       0.324  -6.343  -1.162  1.00  0.00    -0.000 C 
BRANCH   4   5
ATOM      5  C   UNL     1      -0.714  -7.480  -1.154  1.00  0.00    -0.000 C 
BRANCH   5   6
ATOM      6  C   UNL     1      -0.147  -8.877  -0.828  1.00  0.00    -0.000 C 
BRANCH   6   7
ATOM      7  C   UNL     1       1.335  -9.086  -1.190  1.00  0.00    -0.000 C 
BRANCH   7   8
ATOM      8  C   UNL     1       1.528  -9.685  -2.594  1.00  0.00    -0.000 C 
BRANCH   8   9
ATOM      9  C   UNL     1       2.871  -9.286  -3.226  1.00  0.00    -0.000 C 
BRANCH   9  10
ATOM     10  C   UNL     1       2.703  -8.574  -4.580  1.00  0.00    -0.000 C 
BRANCH  10  11
ATOM     11  C   UNL     1       4.051  -8.250  -5.244  1.00  0.00    -0.003 C 
ATOM     12  C   UNL     1       4.187  -8.867  -6.635  1.00  0.00     0.004 C 
ENDBRANCH  10  11
ENDBRANCH   9  10
ENDBRANCH   8   9
ENDBRANCH   7   8
ENDBRANCH   6   7
ENDBRANCH   5   6
ENDBRANCH   4   5
ENDBRANCH   3   4
ENDBRANCH   2   3
ENDBRANCH   1   2
BRANCH   1  13
ATOM     13  C   UNL     1       0.337  -2.148  -0.007  1.00  0.00     0.000 C 
BRANCH  13  14
ATOM     14  C   UNL     1       1.056  -1.590   1.234  1.00  0.00     0.000 C 
BRANCH  14  15
ATOM     15  C   UNL     1       0.681  -0.128   1.531  1.00  0.00     0.000 C 
BRANCH  15  16
ATOM     16  C   UNL     1       0.195   0.621   0.280  1.00  0.00     0.000 C 
BRANCH  16  17
ATOM     17  C   UNL     1      -0.745   1.789   0.622  1.00  0.00     0.000 C 
BRANCH  17  18
ATOM     18  C   UNL     1      -1.893   1.948  -0.389  1.00  0.00     0.000 C 
BRANCH  18  19
ATOM     19  C   UNL     1      -2.006   3.369  -0.980  1.00  0.00     0.000 C 
BRANCH  19  20
ATOM     20  C   UNL     1      -0.779   3.747  -1.828  1.00  0.00     0.006 C 
BRANCH  20  21
ATOM     21  C   UNL     1      -0.552   2.769  -2.990  1.00  0.00     0.053 C 
BRANCH  21  22
ATOM     22  C   UNL     1       0.787   2.972  -3.631  1.00  0.00     0.041 C 
ATOM     23  O   UNL     1       1.404   1.995  -4.132  1.00  0.00    -0.550 OA
ATOM     24  O   UNL     1       1.369   4.232  -3.645  1.00  0.00    -0.550 OA
ENDBRANCH  21  22
ENDBRANCH  20  21
ENDBRANCH  19  20
ENDBRANCH  18  19
ENDBRANCH  17  18
ENDBRANCH  16  17
ENDBRANCH  15  16
ENDBRANCH  14  15
ENDBRANCH  13  14
ENDBRANCH   1  13
TORSDOF 20
ENDMDL
MODEL 3
REMARK VINA RESULT:    -5.243      3.780     10.285
REMARK INTER + INTRA:         -12.782
REMARK INTER:                 -11.426
REMARK INTRA:                  -1.356
REMARK UNBOUND:                -1.409
REMARK SMILES CCCCCCCCCCCCCCCCCCCCCC(=O)[O-]
REMARK SMILES IDX 12 1 11 2 10 3 9 4 8 5 7 6 6 7 5 8 4 9 3 10 2 11 1 12 13 13
REMARK SMILES IDX 14 14 15 15 16 16 17 17 18 18 19 19 20 20 21 21 22 22 23 23
REMARK SMILES IDX 24 24
REMARK H PARENT
REMARK Flexibility Score: inf
ROOT
ATOM      1  C   UNL     1       0.823  -3.519  -0.382  1.00  0.00     0.000 C 
ENDROOT
BRANCH   1   2
ATOM      2  C   UNL     1       0.364  -2.096  -0.004  1.00  0.00     0.000 C 
BRANCH   2   3
ATOM      3  C   UNL     1       0.993  -1.536   1.284  1.00  0.00     0.000 C 
BRANCH   3   4
ATOM      4  C   UNL     1       0.653  -0.054   1.514  1.00  0.00    -0.000 C 
BRANCH   4   5
ATOM      5  C   UNL     1       0.229   0.666   0.222  1.00  0.00    -0.000 C 
BRANCH   5   6
ATOM      6  C   UNL     1      -0.778   1.818   0.418  1.00  0.00    -0.000 C 
BRANCH   6   7
ATOM      7  C   UNL     1      -2.030   1.755  -0.476  1.00  0.00    -0.000 C 
BRANCH   7   8
ATOM      8  C   UNL     1      -1.913   2.637  -1.731  1.00  0.00    -0.000 C 
BRANCH   8   9
ATOM      9  C   UNL     1      -0.958   3.824  -1.530  1.00  0.00    -0.000 C 
BRANCH   9  10
ATOM     10  C   UNL     1       0.203   3.832  -2.541  1.00  0.00    -0.000 C 
BRANCH  10  11
ATOM     11  C   UNL     1       0.252   2.552  -3.388  1.00  0.00    -0.003 C 
ATOM     12  C   UNL     1       1.072   2.720  -4.666  1.00  0.00     0.004 C 
ENDBRANCH  10  11
ENDBRANCH   9  10
ENDBRANCH   8   9
ENDBRANCH   7   8
ENDBRANCH   6   7
ENDBRANCH   5   6
ENDBRANCH   4   5
ENDBRANCH   3   4
ENDBRANCH   2   3
ENDBRANCH   1   2
BRANCH   1  13
ATOM     13  C   UNL     1       0.748  -3.854  -1.886  1.00  0.00     0.000 C 
BRANCH  13  14
ATOM     14  C   UNL     1       0.133  -5.226  -2.214  1.00  0.00     0.000 C 
BRANCH  14  15
ATOM     15  C   UNL     1      -0.035  -6.114  -0.969  1.00  0.00     0.000 C 
BRANCH  15  16
ATOM     16  C   UNL     1      -0.349  -7.575  -1.325  1.00  0.00     0.000 C 
BRANCH  16  17
ATOM     17  C   UNL     1       0.781  -8.536  -0.919  1.00  0.00     0.000 C 
BRANCH  17  18
ATOM     18  C   UNL     1       0.635  -9.931  -1.549  1.00  0.00     0.000 C 
BRANCH  18  19
ATOM     19  C   UNL     1       1.296 -10.056  -2.937  1.00  0.00     0.000 C 
BRANCH  19  20
ATOM     20  C   UNL     1       2.261  -8.894  -3.231  1.00  0.00     0.006 C 
BRANCH  20  21
ATOM     21  C   UNL     1       3.623  -9.384  -3.742  1.00  0.00     0.053 C 
BRANCH  21  22
ATOM     22  C   UNL     1       4.186  -8.468  -4.786  1.00  0.00     0.041 C 
ATOM     23  O   UNL     1       3.595  -8.328  -5.889  1.00  0.00    -0.550 OA
ATOM     24  O   UNL     1       5.380  -7.799  -4.555  1.00  0.00    -0.550 OA
ENDBRANCH  21  22
ENDBRANCH  20  21
ENDBRANCH  19  20
ENDBRANCH  18  19
ENDBRANCH  17  18
ENDBRANCH  16  17
ENDBRANCH  15  16
ENDBRANCH  14  15
ENDBRANCH  13  14
ENDBRANCH   1  13
TORSDOF 20
ENDMDL
MODEL 4
REMARK VINA RESULT:    -5.082      1.185      3.312
REMARK INTER + INTRA:         -12.434
REMARK INTER:                 -11.007
REMARK INTRA:                  -1.427
REMARK UNBOUND:                -1.409
REMARK SMILES CCCCCCCCCCCCCCCCCCCCCC(=O)[O-]
REMARK SMILES IDX 12 1 11 2 10 3 9 4 8 5 7 6 6 7 5 8 4 9 3 10 2 11 1 12 13 13
REMARK SMILES IDX 14 14 15 15 16 16 17 17 18 18 19 19 20 20 21 21 22 22 23 23
REMARK SMILES IDX 24 24
REMARK H PARENT
REMARK Flexibility Score: inf
ROOT
ATOM      1  C   UNL     1       0.367  -4.574  -2.925  1.00  0.00     0.000 C 
ENDROOT
BRANCH   1   2
ATOM      2  C   UNL     1       0.318  -4.472  -4.462  1.00  0.00     0.000 C 
BRANCH   2   3
ATOM      3  C   UNL     1       1.672  -4.670  -5.166  1.00  0.00     0.000 C 
BRANCH   3   4
ATOM      4  C   UNL     1       1.557  -5.514  -6.447  1.00  0.00    -0.000 C 
BRANCH   4   5
ATOM      5  C   UNL     1       2.577  -6.665  -6.493  1.00  0.00    -0.000 C 
BRANCH   5   6
ATOM      6  C   UNL     1       2.662  -7.512  -5.207  1.00  0.00    -0.000 C 
BRANCH   6   7
ATOM      7  C   UNL     1       3.996  -8.251  -4.994  1.00  0.00    -0.000 C 
BRANCH   7   8
ATOM      8  C   UNL     1       4.007  -9.106  -3.715  1.00  0.00    -0.000 C 
BRANCH   8   9
ATOM      9  C   UNL     1       2.603  -9.593  -3.320  1.00  0.00    -0.000 C 
BRANCH   9  10
ATOM     10  C   UNL     1       2.152  -9.056  -1.949  1.00  0.00    -0.000 C 
BRANCH  10  11
ATOM     11  C   UNL     1       0.622  -8.997  -1.818  1.00  0.00    -0.003 C 
ATOM     12  C   UNL     1       0.137  -7.724  -1.126  1.00  0.00     0.004 C 
ENDBRANCH  10  11
ENDBRANCH   9  10
ENDBRANCH   8   9
ENDBRANCH   7   8
ENDBRANCH   6   7
ENDBRANCH   5   6
ENDBRANCH   4   5
ENDBRANCH   3   4
ENDBRANCH   2   3
ENDBRANCH   1   2
BRANCH   1  13
ATOM     13  C   UNL     1       0.845  -3.300  -2.198  1.00  0.00     0.000 C 
BRANCH  13  14
ATOM     14  C   UNL     1       0.871  -3.402  -0.662  1.00  0.00     0.000 C 
BRANCH  14  15
ATOM     15  C   UNL     1       0.208  -2.196   0.024  1.00  0.00     0.000 C 
BRANCH  15  16
ATOM     16  C   UNL     1       1.100  -1.572   1.109  1.00  0.00     0.000 C 
BRANCH  16  17
ATOM     17  C   UNL     1       0.539  -0.242   1.639  1.00  0.00     0.000 C 
BRANCH  17  18
ATOM     18  C   UNL     1       0.643   0.901   0.615  1.00  0.00     0.000 C 
BRANCH  18  19
ATOM     19  C   UNL     1      -0.706   1.585   0.311  1.00  0.00     0.000 C 
BRANCH  19  20
ATOM     20  C   UNL     1      -1.305   1.123  -1.030  1.00  0.00     0.006 C 
BRANCH  20  21
ATOM     21  C   UNL     1      -1.791   2.301  -1.886  1.00  0.00     0.053 C 
BRANCH  21  22
ATOM     22  C   UNL     1      -0.649   3.136  -2.379  1.00  0.00     0.041 C 
ATOM     23  O   UNL     1      -0.555   4.345  -2.039  1.00  0.00    -0.550 OA
ATOM     24  O   UNL     1       0.291   2.590  -3.243  1.00  0.00    -0.550 OA
ENDBRANCH  21  22
ENDBRANCH  20  21
ENDBRANCH  19  20
ENDBRANCH  18  19
ENDBRANCH  17  18
ENDBRANCH  16  17
ENDBRANCH  15  16
ENDBRANCH  14  15
ENDBRANCH  13  14
ENDBRANCH   1  13
TORSDOF 20
ENDMDL
MODEL 5
REMARK VINA RESULT:    -5.039      3.930     10.201
REMARK INTER + INTRA:         -12.340
REMARK INTER:                 -11.233
REMARK INTRA:                  -1.106
REMARK UNBOUND:                -1.409
REMARK SMILES CCCCCCCCCCCCCCCCCCCCCC(=O)[O-]
REMARK SMILES IDX 12 1 11 2 10 3 9 4 8 5 7 6 6 7 5 8 4 9 3 10 2 11 1 12 13 13
REMARK SMILES IDX 14 14 15 15 16 16 17 17 18 18 19 19 20 20 21 21 22 22 23 23
REMARK SMILES IDX 24 24
REMARK H PARENT
REMARK Flexibility Score: inf
ROOT
ATOM      1  C   UNL     1       0.315  -4.564  -2.087  1.00  0.00     0.000 C 
ENDROOT
BRANCH   1   2
ATOM      2  C   UNL     1       1.089  -3.325  -1.596  1.00  0.00     0.000 C 
BRANCH   2   3
ATOM      3  C   UNL     1       1.053  -3.101  -0.074  1.00  0.00     0.000 C 
BRANCH   3   4
ATOM      4  C   UNL     1       0.169  -1.910   0.330  1.00  0.00    -0.000 C 
BRANCH   4   5
ATOM      5  C   UNL     1       0.918  -0.880   1.194  1.00  0.00    -0.000 C 
BRANCH   5   6
ATOM      6  C   UNL     1       0.345   0.551   1.147  1.00  0.00    -0.000 C 
BRANCH   6   7
ATOM      7  C   UNL     1      -0.259   0.973  -0.205  1.00  0.00    -0.000 C 
BRANCH   7   8
ATOM      8  C   UNL     1      -1.444   1.943  -0.053  1.00  0.00    -0.000 C 
BRANCH   8   9
ATOM      9  C   UNL     1      -1.336   3.155  -0.992  1.00  0.00    -0.000 C 
BRANCH   9  10
ATOM     10  C   UNL     1      -1.008   2.757  -2.442  1.00  0.00    -0.000 C 
BRANCH  10  11
ATOM     11  C   UNL     1       0.359   3.287  -2.900  1.00  0.00    -0.003 C 
ATOM     12  C   UNL     1       0.855   2.615  -4.180  1.00  0.00     0.004 C 
ENDBRANCH  10  11
ENDBRANCH   9  10
ENDBRANCH   8   9
ENDBRANCH   7   8
ENDBRANCH   6   7
ENDBRANCH   5   6
ENDBRANCH   4   5
ENDBRANCH   3   4
ENDBRANCH   2   3
ENDBRANCH   1   2
BRANCH   1  13
ATOM     13  C   UNL     1       0.218  -5.722  -1.073  1.00  0.00     0.000 C 
BRANCH  13  14
ATOM     14  C   UNL     1      -0.017  -7.110  -1.695  1.00  0.00     0.000 C 
BRANCH  14  15
ATOM     15  C   UNL     1      -1.007  -7.963  -0.885  1.00  0.00     0.000 C 
BRANCH  15  16
ATOM     16  C   UNL     1      -0.382  -9.273  -0.382  1.00  0.00     0.000 C 
BRANCH  16  17
ATOM     17  C   UNL     1       1.144  -9.306  -0.566  1.00  0.00     0.000 C 
BRANCH  17  18
ATOM     18  C   UNL     1       1.580 -10.105  -1.806  1.00  0.00     0.000 C 
BRANCH  18  19
ATOM     19  C   UNL     1       2.665  -9.400  -2.646  1.00  0.00     0.000 C 
BRANCH  19  20
ATOM     20  C   UNL     1       2.393  -9.505  -4.157  1.00  0.00     0.006 C 
BRANCH  20  21
ATOM     21  C   UNL     1       2.904  -8.280  -4.927  1.00  0.00     0.053 C 
BRANCH  21  22
ATOM     22  C   UNL     1       4.158  -8.586  -5.689  1.00  0.00     0.041 C 
ATOM     23  O   UNL     1       5.277  -8.526  -5.116  1.00  0.00    -0.550 OA
ATOM     24  O   UNL     1       4.092  -8.903  -7.038  1.00  0.00    -0.550 OA
ENDBRANCH  21  22
ENDBRANCH  20  21
ENDBRANCH  19  20
ENDBRANCH  18  19
ENDBRANCH  17  18
ENDBRANCH  16  17
ENDBRANCH  15  16
ENDBRANCH  14  15
ENDBRANCH  13  14
ENDBRANCH   1  13
TORSDOF 20
ENDMDL
MODEL 6
REMARK VINA RESULT:    -4.929      1.274      3.088
REMARK INTER + INTRA:         -12.101
REMARK INTER:                 -10.797
REMARK INTRA:                  -1.304
REMARK UNBOUND:                -1.409
REMARK SMILES CCCCCCCCCCCCCCCCCCCCCC(=O)[O-]
REMARK SMILES IDX 12 1 11 2 10 3 9 4 8 5 7 6 6 7 5 8 4 9 3 10 2 11 1 12 13 13
REMARK SMILES IDX 14 14 15 15 16 16 17 17 18 18 19 19 20 20 21 21 22 22 23 23
REMARK SMILES IDX 24 24
REMARK H PARENT
REMARK Flexibility Score: inf
ROOT
ATOM      1  C   UNL     1       0.736  -3.460  -2.379  1.00  0.00     0.000 C 
ENDROOT
BRANCH   1   2
ATOM      2  C   UNL     1       0.547  -4.572  -3.431  1.00  0.00     0.000 C 
BRANCH   2   3
ATOM      3  C   UNL     1      -0.152  -4.124  -4.726  1.00  0.00     0.000 C 
BRANCH   3   4
ATOM      4  C   UNL     1       0.544  -4.655  -5.991  1.00  0.00    -0.000 C 
BRANCH   4   5
ATOM      5  C   UNL     1       1.974  -5.153  -5.717  1.00  0.00    -0.000 C 
BRANCH   5   6
ATOM      6  C   UNL     1       2.285  -6.567  -6.248  1.00  0.00    -0.000 C 
BRANCH   6   7
ATOM      7  C   UNL     1       3.134  -7.449  -5.314  1.00  0.00    -0.000 C 
BRANCH   7   8
ATOM      8  C   UNL     1       3.418  -8.842  -5.904  1.00  0.00    -0.000 C 
BRANCH   8   9
ATOM      9  C   UNL     1       3.113  -9.975  -4.911  1.00  0.00    -0.000 C 
BRANCH   9  10
ATOM     10  C   UNL     1       2.982  -9.476  -3.461  1.00  0.00    -0.000 C 
BRANCH  10  11
ATOM     11  C   UNL     1       1.557  -9.639  -2.911  1.00  0.00    -0.003 C 
ATOM     12  C   UNL     1       1.202  -8.582  -1.866  1.00  0.00     0.004 C 
ENDBRANCH  10  11
ENDBRANCH   9  10
ENDBRANCH   8   9
ENDBRANCH   7   8
ENDBRANCH   6   7
ENDBRANCH   5   6
ENDBRANCH   4   5
ENDBRANCH   3   4
ENDBRANCH   2   3
ENDBRANCH   1   2
BRANCH   1  13
ATOM     13  C   UNL     1       0.572  -3.909  -0.913  1.00  0.00     0.000 C 
BRANCH  13  14
ATOM     14  C   UNL     1       1.147  -2.935   0.130  1.00  0.00     0.000 C 
BRANCH  14  15
ATOM     15  C   UNL     1       0.271  -1.685   0.322  1.00  0.00     0.000 C 
BRANCH  15  16
ATOM     16  C   UNL     1       0.913  -0.654   1.264  1.00  0.00     0.000 C 
BRANCH  16  17
ATOM     17  C   UNL     1       0.262   0.734   1.149  1.00  0.00     0.000 C 
BRANCH  17  18
ATOM     18  C   UNL     1      -0.494   0.932  -0.176  1.00  0.00     0.000 C 
BRANCH  18  19
ATOM     19  C   UNL     1      -1.570   2.035  -0.115  1.00  0.00     0.000 C 
BRANCH  19  20
ATOM     20  C   UNL     1      -1.689   2.808  -1.440  1.00  0.00     0.006 C 
BRANCH  20  21
ATOM     21  C   UNL     1      -0.827   2.193  -2.552  1.00  0.00     0.053 C 
BRANCH  21  22
ATOM     22  C   UNL     1       0.279   3.113  -2.971  1.00  0.00     0.041 C 
ATOM     23  O   UNL     1       0.392   4.249  -2.440  1.00  0.00    -0.550 OA
ATOM     24  O   UNL     1       1.161   2.731  -3.972  1.00  0.00    -0.550 OA
ENDBRANCH  21  22
ENDBRANCH  20  21
ENDBRANCH  19  20
ENDBRANCH  18  19
ENDBRANCH  17  18
ENDBRANCH  16  17
ENDBRANCH  15  16
ENDBRANCH  14  15
ENDBRANCH  13  14
ENDBRANCH   1  13
TORSDOF 20
ENDMDL
MODEL 7
REMARK VINA RESULT:    -4.481      3.780     10.236
REMARK INTER + INTRA:         -11.129
REMARK INTER:                  -9.672
REMARK INTRA:                  -1.457
REMARK UNBOUND:                -1.409
REMARK SMILES CCCCCCCCCCCCCCCCCCCCCC(=O)[O-]
REMARK SMILES IDX 12 1 11 2 10 3 9 4 8 5 7 6 6 7 5 8 4 9 3 10 2 11 1 12 13 13
REMARK SMILES IDX 14 14 15 15 16 16 17 17 18 18 19 19 20 20 21 21 22 22 23 23
REMARK SMILES IDX 24 24
REMARK H PARENT
REMARK Flexibility Score: inf
ROOT
ATOM      1  C   UNL     1       0.558  -4.625  -2.925  1.00  0.00     0.000 C 
ENDROOT
BRANCH   1   2
ATOM      2  C   UNL     1       0.781  -3.279  -2.207  1.00  0.00     0.000 C 
BRANCH   2   3
ATOM      3  C   UNL     1       0.855  -3.369  -0.673  1.00  0.00     0.000 C 
BRANCH   3   4
ATOM      4  C   UNL     1       0.156  -2.191   0.026  1.00  0.00    -0.000 C 
BRANCH   4   5
ATOM      5  C   UNL     1       1.024  -1.551   1.124  1.00  0.00    -0.000 C 
BRANCH   5   6
ATOM      6  C   UNL     1       0.731  -0.063   1.402  1.00  0.00    -0.000 C 
BRANCH   6   7
ATOM      7  C   UNL     1       0.191   0.737   0.202  1.00  0.00    -0.000 C 
BRANCH   7   8
ATOM      8  C   UNL     1      -0.862   1.784   0.607  1.00  0.00    -0.000 C 
BRANCH   8   9
ATOM      9  C   UNL     1      -1.495   2.482  -0.607  1.00  0.00    -0.000 C 
BRANCH   9  10
ATOM     10  C   UNL     1      -1.180   1.770  -1.935  1.00  0.00    -0.000 C 
BRANCH  10  11
ATOM     11  C   UNL     1      -0.500   2.699  -2.952  1.00  0.00    -0.003 C 
ATOM     12  C   UNL     1       0.179   3.899  -2.294  1.00  0.00     0.004 C 
ENDBRANCH  10  11
ENDBRANCH   9  10
ENDBRANCH   8   9
ENDBRANCH   7   8
ENDBRANCH   6   7
ENDBRANCH   5   6
ENDBRANCH   4   5
ENDBRANCH   3   4
ENDBRANCH   2   3
ENDBRANCH   1   2
BRANCH   1  13
ATOM     13  C   UNL     1       0.065  -4.518  -4.382  1.00  0.00     0.000 C 
BRANCH  13  14
ATOM     14  C   UNL     1       1.178  -4.535  -5.445  1.00  0.00     0.000 C 
BRANCH  14  15
ATOM     15  C   UNL     1       2.219  -5.641  -5.198  1.00  0.00     0.000 C 
BRANCH  15  16
ATOM     16  C   UNL     1       2.324  -6.625  -6.373  1.00  0.00     0.000 C 
BRANCH  16  17
ATOM     17  C   UNL     1       3.130  -7.884  -6.017  1.00  0.00     0.000 C 
BRANCH  17  18
ATOM     18  C   UNL     1       3.087  -8.217  -4.516  1.00  0.00     0.000 C 
BRANCH  18  19
ATOM     19  C   UNL     1       2.920  -9.722  -4.220  1.00  0.00     0.000 C 
BRANCH  19  20
ATOM     20  C   UNL     1       2.064  -9.979  -2.968  1.00  0.00     0.006 C 
BRANCH  20  21
ATOM     21  C   UNL     1       1.530  -8.679  -2.351  1.00  0.00     0.053 C 
BRANCH  21  22
ATOM     22  C   UNL     1       0.674  -8.945  -1.150  1.00  0.00     0.041 C 
ATOM     23  O   UNL     1       1.193  -9.368  -0.084  1.00  0.00    -0.550 OA
ATOM     24  O   UNL     1      -0.699  -8.758  -1.219  1.00  0.00    -0.550 OA
ENDBRANCH  21  22
ENDBRANCH  20  21
ENDBRANCH  19  20
ENDBRANCH  18  19
ENDBRANCH  17  18
ENDBRANCH  16  17
ENDBRANCH  15  16
ENDBRANCH  14  15
ENDBRANCH  13  14
ENDBRANCH   1  13
TORSDOF 20
ENDMDL
MODEL 8
REMARK VINA RESULT:    -4.161      3.526      5.923
REMARK INTER + INTRA:         -10.435
REMARK INTER:                  -8.263
REMARK INTRA:                  -2.173
REMARK UNBOUND:                -1.409
REMARK SMILES CCCCCCCCCCCCCCCCCCCCCC(=O)[O-]
REMARK SMILES IDX 12 1 11 2 10 3 9 4 8 5 7 6 6 7 5 8 4 9 3 10 2 11 1 12 13 13
REMARK SMILES IDX 14 14 15 15 16 16 17 17 18 18 19 19 20 20 21 21 22 22 23 23
REMARK SMILES IDX 24 24
REMARK H PARENT
REMARK Flexibility Score: inf
ROOT
ATOM      1  C   UNL     1       1.171  -9.442   0.039  1.00  0.00     0.000 C 
ENDROOT
BRANCH   1   2
ATOM      2  C   UNL     1       1.331 -10.022  -1.381  1.00  0.00     0.000 C 
BRANCH   2   3
ATOM      3  C   UNL     1       1.861  -9.027  -2.429  1.00  0.00     0.000 C 
BRANCH   3   4
ATOM      4  C   UNL     1       2.885  -9.662  -3.385  1.00  0.00    -0.000 C 
BRANCH   4   5
ATOM      5  C   UNL     1       4.243  -8.939  -3.366  1.00  0.00    -0.000 C 
BRANCH   5   6
ATOM      6  C   UNL     1       4.867  -8.688  -4.754  1.00  0.00    -0.000 C 
BRANCH   6   7
ATOM      7  C   UNL     1       3.965  -9.034  -5.953  1.00  0.00    -0.000 C 
BRANCH   7   8
ATOM      8  C   UNL     1       3.408  -7.787  -6.661  1.00  0.00    -0.000 C 
BRANCH   8   9
ATOM      9  C   UNL     1       2.374  -7.037  -5.806  1.00  0.00    -0.000 C 
BRANCH   9  10
ATOM     10  C   UNL     1       1.991  -5.669  -6.399  1.00  0.00    -0.000 C 
BRANCH  10  11
ATOM     11  C   UNL     1       1.450  -4.700  -5.337  1.00  0.00    -0.003 C 
ATOM     12  C   UNL     1      -0.035  -4.392  -5.520  1.00  0.00     0.004 C 
ENDBRANCH  10  11
ENDBRANCH   9  10
ENDBRANCH   8   9
ENDBRANCH   7   8
ENDBRANCH   6   7
ENDBRANCH   5   6
ENDBRANCH   4   5
ENDBRANCH   3   4
ENDBRANCH   2   3
ENDBRANCH   1   2
BRANCH   1  13
ATOM     13  C   UNL     1       0.097 -10.125   0.910  1.00  0.00     0.000 C 
BRANCH  13  14
ATOM     14  C   UNL     1      -1.319 -10.125   0.309  1.00  0.00     0.000 C 
BRANCH  14  15
ATOM     15  C   UNL     1      -2.154  -8.912   0.756  1.00  0.00     0.000 C 
BRANCH  15  16
ATOM     16  C   UNL     1      -1.790  -7.632  -0.011  1.00  0.00     0.000 C 
BRANCH  16  17
ATOM     17  C   UNL     1      -1.476  -7.901  -1.492  1.00  0.00     0.000 C 
BRANCH  17  18
ATOM     18  C   UNL     1      -1.027  -6.639  -2.247  1.00  0.00     0.000 C 
BRANCH  18  19
ATOM     19  C   UNL     1      -0.023  -5.772  -1.460  1.00  0.00     0.000 C 
BRANCH  19  20
ATOM     20  C   UNL     1       0.083  -4.344  -2.025  1.00  0.00     0.006 C 
BRANCH  20  21
ATOM     21  C   UNL     1       1.300  -3.589  -1.474  1.00  0.00     0.053 C 
BRANCH  21  22
ATOM     22  C   UNL     1       1.053  -3.074  -0.089  1.00  0.00     0.041 C 
ATOM     23  O   UNL     1      -0.001  -2.438   0.172  1.00  0.00    -0.550 OA
ATOM     24  O   UNL     1       2.004  -3.266   0.905  1.00  0.00    -0.550 OA
ENDBRANCH  21  22
ENDBRANCH  20  21
ENDBRANCH  19  20
ENDBRANCH  18  19
ENDBRANCH  17  18
ENDBRANCH  16  17
ENDBRANCH  15  16
ENDBRANCH  14  15
ENDBRANCH  13  14
ENDBRANCH   1  13
TORSDOF 20
ENDMDL
MODEL 9
REMARK VINA RESULT:    -4.131      4.101     10.387
REMARK INTER + INTRA:         -10.370
REMARK INTER:                  -9.783
REMARK INTRA:                  -0.587
REMARK UNBOUND:                -1.409
REMARK SMILES CCCCCCCCCCCCCCCCCCCCCC(=O)[O-]
REMARK SMILES IDX 12 1 11 2 10 3 9 4 8 5 7 6 6 7 5 8 4 9 3 10 2 11 1 12 13 13
REMARK SMILES IDX 14 14 15 15 16 16 17 17 18 18 19 19 20 20 21 21 22 22 23 23
REMARK SMILES IDX 24 24
REMARK H PARENT
REMARK Flexibility Score: inf
ROOT
ATOM      1  C   UNL     1       0.402  -3.678  -0.799  1.00  0.00     0.000 C 
ENDROOT
BRANCH   1   2
ATOM      2  C   UNL     1       1.509  -3.234   0.178  1.00  0.00     0.000 C 
BRANCH   2   3
ATOM      3  C   UNL     1       1.107  -2.102   1.139  1.00  0.00     0.000 C 
BRANCH   3   4
ATOM      4  C   UNL     1       0.322  -0.979   0.438  1.00  0.00    -0.000 C 
BRANCH   4   5
ATOM      5  C   UNL     1       0.657   0.416   0.994  1.00  0.00    -0.000 C 
BRANCH   5   6
ATOM      6  C   UNL     1      -0.441   1.479   0.790  1.00  0.00    -0.000 C 
BRANCH   6   7
ATOM      7  C   UNL     1      -1.132   1.457  -0.586  1.00  0.00    -0.000 C 
BRANCH   7   8
ATOM      8  C   UNL     1      -1.890   2.759  -0.894  1.00  0.00    -0.000 C 
BRANCH   8   9
ATOM      9  C   UNL     1      -0.966   3.870  -1.417  1.00  0.00    -0.000 C 
BRANCH   9  10
ATOM     10  C   UNL     1       0.366   3.326  -1.966  1.00  0.00    -0.000 C 
BRANCH  10  11
ATOM     11  C   UNL     1       0.480   3.480  -3.490  1.00  0.00    -0.003 C 
ATOM     12  C   UNL     1       1.037   2.230  -4.170  1.00  0.00     0.004 C 
ENDBRANCH  10  11
ENDBRANCH   9  10
ENDBRANCH   8   9
ENDBRANCH   7   8
ENDBRANCH   6   7
ENDBRANCH   5   6
ENDBRANCH   4   5
ENDBRANCH   3   4
ENDBRANCH   2   3
ENDBRANCH   1   2
BRANCH   1  13
ATOM     13  C   UNL     1       0.746  -3.527  -2.294  1.00  0.00     0.000 C 
BRANCH  13  14
ATOM     14  C   UNL     1       0.307  -4.705  -3.182  1.00  0.00     0.000 C 
BRANCH  14  15
ATOM     15  C   UNL     1       0.424  -4.392  -4.684  1.00  0.00     0.000 C 
BRANCH  15  16
ATOM     16  C   UNL     1       1.843  -4.620  -5.225  1.00  0.00     0.000 C 
BRANCH  16  17
ATOM     17  C   UNL     1       1.874  -5.619  -6.393  1.00  0.00     0.000 C 
BRANCH  17  18
ATOM     18  C   UNL     1       2.472  -6.981  -6.001  1.00  0.00     0.000 C 
BRANCH  18  19
ATOM     19  C   UNL     1       3.026  -7.782  -7.198  1.00  0.00     0.000 C 
BRANCH  19  20
ATOM     20  C   UNL     1       4.132  -8.766  -6.779  1.00  0.00     0.006 C 
BRANCH  20  21
ATOM     21  C   UNL     1       3.758  -9.561  -5.520  1.00  0.00     0.053 C 
BRANCH  21  22
ATOM     22  C   UNL     1       4.182  -8.854  -4.270  1.00  0.00     0.041 C 
ATOM     23  O   UNL     1       5.206  -8.122  -4.273  1.00  0.00    -0.550 OA
ATOM     24  O   UNL     1       3.467  -9.031  -3.093  1.00  0.00    -0.550 OA
ENDBRANCH  21  22
ENDBRANCH  20  21
ENDBRANCH  19  20
ENDBRANCH  18  19
ENDBRANCH  17  18
ENDBRANCH  16  17
ENDBRANCH  15  16
ENDBRANCH  14  15
ENDBRANCH  13  14
ENDBRANCH   1  13
TORSDOF 20
ENDMDL
