MODEL 1
REMARK VINA RESULT:    -2.836      0.000      0.000
REMARK INTER + INTRA:          -5.371
REMARK INTER:                  -4.329
REMARK INTRA:                  -1.042
REMARK UNBOUND:                -1.042
REMARK SMILES OC[C@@H]1O[C@](CO)(O[C@@H]2O[C@H](CO)[C@H](O)[C@H](O)[C@H]2O)[C@@H](O)[C@H]1O
REMARK SMILES IDX 8 1 9 2 11 3 14 4 10 5 16 6 18 7 12 8 13 9 15 11 17 13 19 15
REMARK SMILES IDX 5 17 20 18 4 19 22 20 3 21 6 22 7 23 21 25 23 27 2 29 1 30
REMARK H PARENT 13 10 15 12 17 14 19 16 7 24 21 26 23 28 1 31
REMARK Flexibility Score: inf
ROOT
ATOM      1  O   UNL     1      17.276  -8.452   5.640  1.00  0.00    -0.313 OA
ENDROOT
BRANCH   1   2
ATOM      2  C   UNL     1      16.644  -7.187   5.447  1.00  0.00     0.285 C 
ATOM      3  C   UNL     1      14.570  -7.770   6.505  1.00  0.00     0.178 C 
ATOM      4  C   UNL     1      13.809  -7.717   5.155  1.00  0.00     0.177 C 
ATOM      5  O   UNL     1      15.730  -6.943   6.511  1.00  0.00    -0.341 OA
ATOM      6  C   UNL     1      14.734  -7.954   3.947  1.00  0.00     0.179 C 
ATOM      7  C   UNL     1      15.965  -7.044   4.062  1.00  0.00     0.202 C 
BRANCH   3   8
ATOM      8  C   UNL     1      14.846  -9.187   7.051  1.00  0.00     0.191 C 
BRANCH   8   9
ATOM      9  O   UNL     1      14.813 -10.115   6.002  1.00  0.00    -0.394 OA
ATOM     10  H   UNL     1      14.583 -10.987   6.415  1.00  0.00     0.210 HD
ENDBRANCH   8   9
ENDBRANCH   3   8
BRANCH   4  11
ATOM     11  O   UNL     1      12.683  -8.561   5.145  1.00  0.00    -0.387 OA
ATOM     12  H   UNL     1      12.848  -9.298   4.505  1.00  0.00     0.211 HD
ENDBRANCH   4  11
BRANCH   6  13
ATOM     13  O   UNL     1      15.135  -9.299   3.875  1.00  0.00    -0.387 OA
ATOM     14  H   UNL     1      15.142  -9.555   2.916  1.00  0.00     0.211 HD
ENDBRANCH   6  13
BRANCH   7  15
ATOM     15  O   UNL     1      15.560  -5.710   3.875  1.00  0.00    -0.385 OA
ATOM     16  H   UNL     1      14.889  -5.709   3.142  1.00  0.00     0.211 HD
ENDBRANCH   7  15
ENDBRANCH   1   2
BRANCH   1  17
ATOM     17  C   UNL     1      18.705  -8.514   5.793  1.00  0.00     0.224 C 
ATOM     18  C   UNL     1      19.045  -9.619   6.825  1.00  0.00     0.208 C 
ATOM     19  O   UNL     1      19.086  -7.275   6.370  1.00  0.00    -0.337 OA
ATOM     20  C   UNL     1      18.915  -8.876   8.129  1.00  0.00     0.180 C 
ATOM     21  C   UNL     1      19.374  -7.481   7.737  1.00  0.00     0.179 C 
BRANCH  17  22
ATOM     22  C   UNL     1      19.521  -8.650   4.473  1.00  0.00     0.225 C 
BRANCH  22  23
ATOM     23  O   UNL     1      20.592  -7.744   4.455  1.00  0.00    -0.391 OA
ATOM     24  H   UNL     1      20.321  -6.980   5.026  1.00  0.00     0.210 HD
ENDBRANCH  22  23
ENDBRANCH  17  22
BRANCH  18  25
ATOM     25  O   UNL     1      20.356 -10.106   6.661  1.00  0.00    -0.385 OA
ATOM     26  H   UNL     1      20.303 -10.883   6.046  1.00  0.00     0.211 HD
ENDBRANCH  18  25
BRANCH  20  27
ATOM     27  O   UNL     1      19.729  -9.410   9.142  1.00  0.00    -0.387 OA
ATOM     28  H   UNL     1      19.142  -9.535   9.933  1.00  0.00     0.211 HD
ENDBRANCH  20  27
BRANCH  21  29
ATOM     29  C   UNL     1      18.725  -6.386   8.591  1.00  0.00     0.191 C 
BRANCH  29  30
ATOM     30  O   UNL     1      17.354  -6.636   8.750  1.00  0.00    -0.394 OA
ATOM     31  H   UNL     1      17.105  -7.286   8.041  1.00  0.00     0.210 HD
ENDBRANCH  29  30
ENDBRANCH  21  29
ENDBRANCH   1  17
TORSDOF 13
ENDMDL
MODEL 2
REMARK VINA RESULT:    -2.421      1.186      2.937
REMARK INTER + INTRA:          -4.737
REMARK INTER:                  -4.070
REMARK INTRA:                  -0.667
REMARK UNBOUND:                -1.042
REMARK SMILES OC[C@@H]1O[C@](CO)(O[C@@H]2O[C@H](CO)[C@H](O)[C@H](O)[C@H]2O)[C@@H](O)[C@H]1O
REMARK SMILES IDX 8 1 9 2 11 3 14 4 10 5 16 6 18 7 12 8 13 9 15 11 17 13 19 15
REMARK SMILES IDX 5 17 20 18 4 19 22 20 3 21 6 22 7 23 21 25 23 27 2 29 1 30
REMARK H PARENT 13 10 15 12 17 14 19 16 7 24 21 26 23 28 1 31
REMARK Flexibility Score: inf
ROOT
ATOM      1  O   UNL     1      17.447  -7.907   6.424  1.00  0.00    -0.313 OA
ENDROOT
BRANCH   1   2
ATOM      2  C   UNL     1      16.719  -6.804   5.884  1.00  0.00     0.285 C 
ATOM      3  C   UNL     1      14.535  -7.714   6.283  1.00  0.00     0.178 C 
ATOM      4  C   UNL     1      14.278  -7.893   4.765  1.00  0.00     0.177 C 
ATOM      5  O   UNL     1      15.473  -6.678   6.559  1.00  0.00    -0.341 OA
ATOM      6  C   UNL     1      15.582  -8.020   3.957  1.00  0.00     0.179 C 
ATOM      7  C   UNL     1      16.536  -6.882   4.348  1.00  0.00     0.202 C 
BRANCH   3   8
ATOM      8  C   UNL     1      14.837  -9.013   7.059  1.00  0.00     0.191 C 
BRANCH   8   9
ATOM      9  O   UNL     1      14.568 -10.123   6.248  1.00  0.00    -0.394 OA
ATOM     10  H   UNL     1      15.440 -10.396   5.860  1.00  0.00     0.210 HD
ENDBRANCH   8   9
ENDBRANCH   3   8
BRANCH   4  11
ATOM     11  O   UNL     1      13.375  -8.939   4.497  1.00  0.00    -0.387 OA
ATOM     12  H   UNL     1      13.583  -9.696   5.102  1.00  0.00     0.211 HD
ENDBRANCH   4  11
BRANCH   6  13
ATOM     13  O   UNL     1      16.198  -9.263   4.184  1.00  0.00    -0.387 OA
ATOM     14  H   UNL     1      16.496  -9.277   5.130  1.00  0.00     0.211 HD
ENDBRANCH   6  13
BRANCH   7  15
ATOM     15  O   UNL     1      16.006  -5.667   3.878  1.00  0.00    -0.385 OA
ATOM     16  H   UNL     1      15.890  -5.760   2.895  1.00  0.00     0.211 HD
ENDBRANCH   7  15
ENDBRANCH   1   2
BRANCH   1  17
ATOM     17  C   UNL     1      18.800  -7.713   6.871  1.00  0.00     0.224 C 
ATOM     18  C   UNL     1      19.406  -6.510   6.104  1.00  0.00     0.208 C 
ATOM     19  O   UNL     1      19.512  -8.869   6.462  1.00  0.00    -0.337 OA
ATOM     20  C   UNL     1      19.895  -7.165   4.838  1.00  0.00     0.180 C 
ATOM     21  C   UNL     1      20.304  -8.540   5.339  1.00  0.00     0.179 C 
BRANCH  17  22
ATOM     22  C   UNL     1      18.993  -7.604   8.413  1.00  0.00     0.225 C 
BRANCH  22  23
ATOM     23  O   UNL     1      19.926  -8.549   8.865  1.00  0.00    -0.391 OA
ATOM     24  H   UNL     1      20.698  -8.498   8.244  1.00  0.00     0.210 HD
ENDBRANCH  22  23
ENDBRANCH  17  22
BRANCH  18  25
ATOM     25  O   UNL     1      20.479  -5.926   6.806  1.00  0.00    -0.385 OA
ATOM     26  H   UNL     1      20.460  -4.954   6.610  1.00  0.00     0.211 HD
ENDBRANCH  18  25
BRANCH  20  27
ATOM     27  O   UNL     1      20.986  -6.491   4.265  1.00  0.00    -0.387 OA
ATOM     28  H   UNL     1      20.673  -5.568   4.073  1.00  0.00     0.211 HD
ENDBRANCH  20  27
BRANCH  21  29
ATOM     29  C   UNL     1      20.177  -9.621   4.260  1.00  0.00     0.191 C 
BRANCH  29  30
ATOM     30  O   UNL     1      18.832  -9.974   4.074  1.00  0.00    -0.394 OA
ATOM     31  H   UNL     1      18.803 -10.546   3.262  1.00  0.00     0.210 HD
ENDBRANCH  29  30
ENDBRANCH  21  29
ENDBRANCH   1  17
TORSDOF 13
ENDMDL
MODEL 3
REMARK VINA RESULT:    -2.383      1.511      2.132
REMARK INTER + INTRA:          -4.679
REMARK INTER:                  -4.996
REMARK INTRA:                   0.317
REMARK UNBOUND:                -1.042
REMARK SMILES OC[C@@H]1O[C@](CO)(O[C@@H]2O[C@H](CO)[C@H](O)[C@H](O)[C@H]2O)[C@@H](O)[C@H]1O
REMARK SMILES IDX 8 1 9 2 11 3 14 4 10 5 16 6 18 7 12 8 13 9 15 11 17 13 19 15
REMARK SMILES IDX 5 17 20 18 4 19 22 20 3 21 6 22 7 23 21 25 23 27 2 29 1 30
REMARK H PARENT 13 10 15 12 17 14 19 16 7 24 21 26 23 28 1 31
REMARK Flexibility Score: inf
ROOT
ATOM      1  O   UNL     1      17.461  -7.638   5.200  1.00  0.00    -0.313 OA
ENDROOT
BRANCH   1   2
ATOM      2  C   UNL     1      16.743  -8.055   6.361  1.00  0.00     0.285 C 
ATOM      3  C   UNL     1      15.542  -9.838   5.297  1.00  0.00     0.178 C 
ATOM      4  C   UNL     1      14.196  -9.081   5.433  1.00  0.00     0.177 C 
ATOM      5  O   UNL     1      16.488  -9.453   6.289  1.00  0.00    -0.341 OA
ATOM      6  C   UNL     1      14.386  -7.557   5.536  1.00  0.00     0.179 C 
ATOM      7  C   UNL     1      15.444  -7.246   6.604  1.00  0.00     0.202 C 
BRANCH   3   8
ATOM      8  C   UNL     1      16.144  -9.863   3.876  1.00  0.00     0.191 C 
BRANCH   8   9
ATOM      9  O   UNL     1      17.519 -10.125   3.949  1.00  0.00    -0.394 OA
ATOM     10  H   UNL     1      17.970  -9.323   3.578  1.00  0.00     0.210 HD
ENDBRANCH   8   9
ENDBRANCH   3   8
BRANCH   4  11
ATOM     11  O   UNL     1      13.277  -9.443   4.431  1.00  0.00    -0.387 OA
ATOM     12  H   UNL     1      13.062  -8.638   3.896  1.00  0.00     0.211 HD
ENDBRANCH   4  11
BRANCH   6  13
ATOM     13  O   UNL     1      14.774  -7.012   4.300  1.00  0.00    -0.387 OA
ATOM     14  H   UNL     1      14.036  -6.426   3.989  1.00  0.00     0.211 HD
ENDBRANCH   6  13
BRANCH   7  15
ATOM     15  O   UNL     1      14.919  -7.571   7.868  1.00  0.00    -0.385 OA
ATOM     16  H   UNL     1      13.945  -7.723   7.749  1.00  0.00     0.211 HD
ENDBRANCH   7  15
ENDBRANCH   1   2
BRANCH   1  17
ATOM     17  C   UNL     1      18.861  -7.328   5.307  1.00  0.00     0.224 C 
ATOM     18  C   UNL     1      19.612  -8.593   5.794  1.00  0.00     0.208 C 
ATOM     19  O   UNL     1      18.965  -6.358   6.336  1.00  0.00    -0.337 OA
ATOM     20  C   UNL     1      19.454  -8.489   7.290  1.00  0.00     0.180 C 
ATOM     21  C   UNL     1      19.468  -6.984   7.498  1.00  0.00     0.179 C 
BRANCH  17  22
ATOM     22  C   UNL     1      19.510  -6.692   4.041  1.00  0.00     0.225 C 
BRANCH  22  23
ATOM     23  O   UNL     1      20.503  -5.769   4.402  1.00  0.00    -0.391 OA
ATOM     24  H   UNL     1      20.351  -4.962   3.846  1.00  0.00     0.210 HD
ENDBRANCH  22  23
ENDBRANCH  17  22
BRANCH  18  25
ATOM     25  O   UNL     1      20.974  -8.565   5.438  1.00  0.00    -0.385 OA
ATOM     26  H   UNL     1      21.066  -9.086   4.599  1.00  0.00     0.211 HD
ENDBRANCH  18  25
BRANCH  20  27
ATOM     27  O   UNL     1      20.502  -9.107   7.990  1.00  0.00    -0.387 OA
ATOM     28  H   UNL     1      20.391 -10.084   7.852  1.00  0.00     0.211 HD
ENDBRANCH  20  27
BRANCH  21  29
ATOM     29  C   UNL     1      18.662  -6.553   8.729  1.00  0.00     0.191 C 
BRANCH  29  30
ATOM     30  O   UNL     1      19.253  -5.434   9.336  1.00  0.00    -0.394 OA
ATOM     31  H   UNL     1      20.136  -5.735   9.676  1.00  0.00     0.210 HD
ENDBRANCH  29  30
ENDBRANCH  21  29
ENDBRANCH   1  17
TORSDOF 13
ENDMDL
MODEL 4
REMARK VINA RESULT:    -1.902      1.621      3.038
REMARK INTER + INTRA:          -3.945
REMARK INTER:                  -3.409
REMARK INTRA:                  -0.536
REMARK UNBOUND:                -1.042
REMARK SMILES OC[C@@H]1O[C@](CO)(O[C@@H]2O[C@H](CO)[C@H](O)[C@H](O)[C@H]2O)[C@@H](O)[C@H]1O
REMARK SMILES IDX 8 1 9 2 11 3 14 4 10 5 16 6 18 7 12 8 13 9 15 11 17 13 19 15
REMARK SMILES IDX 5 17 20 18 4 19 22 20 3 21 6 22 7 23 21 25 23 27 2 29 1 30
REMARK H PARENT 13 10 15 12 17 14 19 16 7 24 21 26 23 28 1 31
REMARK Flexibility Score: inf
ROOT
ATOM      1  O   UNL     1      17.183  -8.650   6.212  1.00  0.00    -0.313 OA
ENDROOT
BRANCH   1   2
ATOM      2  C   UNL     1      16.001  -9.004   6.929  1.00  0.00     0.285 C 
ATOM      3  C   UNL     1      14.754  -9.751   5.020  1.00  0.00     0.178 C 
ATOM      4  C   UNL     1      13.776  -8.553   5.127  1.00  0.00     0.177 C 
ATOM      5  O   UNL     1      15.349 -10.084   6.271  1.00  0.00    -0.341 OA
ATOM      6  C   UNL     1      14.402  -7.344   5.846  1.00  0.00     0.179 C 
ATOM      7  C   UNL     1      15.042  -7.809   7.162  1.00  0.00     0.202 C 
BRANCH   3   8
ATOM      8  C   UNL     1      15.785  -9.661   3.875  1.00  0.00     0.191 C 
BRANCH   8   9
ATOM      9  O   UNL     1      17.030 -10.125   4.321  1.00  0.00    -0.394 OA
ATOM     10  H   UNL     1      16.925 -10.297   5.293  1.00  0.00     0.210 HD
ENDBRANCH   8   9
ENDBRANCH   3   8
BRANCH   4  11
ATOM     11  O   UNL     1      13.217  -8.209   3.882  1.00  0.00    -0.387 OA
ATOM     12  H   UNL     1      12.506  -8.863   3.665  1.00  0.00     0.211 HD
ENDBRANCH   4  11
BRANCH   6  13
ATOM     13  O   UNL     1      15.365  -6.718   5.036  1.00  0.00    -0.387 OA
ATOM     14  H   UNL     1      16.112  -6.438   5.627  1.00  0.00     0.211 HD
ENDBRANCH   6  13
BRANCH   7  15
ATOM     15  O   UNL     1      14.022  -8.194   8.050  1.00  0.00    -0.385 OA
ATOM     16  H   UNL     1      14.384  -8.932   8.608  1.00  0.00     0.211 HD
ENDBRANCH   7  15
ENDBRANCH   1   2
BRANCH   1  17
ATOM     17  C   UNL     1      18.456  -8.693   6.880  1.00  0.00     0.224 C 
ATOM     18  C   UNL     1      18.493  -7.569   7.947  1.00  0.00     0.208 C 
ATOM     19  O   UNL     1      19.422  -8.364   5.894  1.00  0.00    -0.337 OA
ATOM     20  C   UNL     1      18.938  -6.383   7.130  1.00  0.00     0.180 C 
ATOM     21  C   UNL     1      19.852  -7.036   6.108  1.00  0.00     0.179 C 
BRANCH  17  22
ATOM     22  C   UNL     1      18.872 -10.081   7.452  1.00  0.00     0.225 C 
BRANCH  22  23
ATOM     23  O   UNL     1      20.241 -10.103   7.757  1.00  0.00    -0.391 OA
ATOM     24  H   UNL     1      20.670 -10.686   7.078  1.00  0.00     0.210 HD
ENDBRANCH  22  23
ENDBRANCH  17  22
BRANCH  18  25
ATOM     25  O   UNL     1      19.424  -7.844   8.967  1.00  0.00    -0.385 OA
ATOM     26  H   UNL     1      18.962  -8.409   9.638  1.00  0.00     0.211 HD
ENDBRANCH  18  25
BRANCH  20  27
ATOM     27  O   UNL     1      19.631  -5.429   7.893  1.00  0.00    -0.387 OA
ATOM     28  H   UNL     1      19.412  -5.619   8.842  1.00  0.00     0.211 HD
ENDBRANCH  20  27
BRANCH  21  29
ATOM     29  C   UNL     1      19.895  -6.268   4.781  1.00  0.00     0.191 C 
BRANCH  29  30
ATOM     30  O   UNL     1      20.588  -5.058   4.937  1.00  0.00    -0.394 OA
ATOM     31  H   UNL     1      21.503  -5.298   5.240  1.00  0.00     0.210 HD
ENDBRANCH  29  30
ENDBRANCH  21  29
ENDBRANCH   1  17
TORSDOF 13
ENDMDL
MODEL 5
REMARK VINA RESULT:    -1.695      1.812      3.735
REMARK INTER + INTRA:          -3.629
REMARK INTER:                  -3.664
REMARK INTRA:                   0.035
REMARK UNBOUND:                -1.042
REMARK SMILES OC[C@@H]1O[C@](CO)(O[C@@H]2O[C@H](CO)[C@H](O)[C@H](O)[C@H]2O)[C@@H](O)[C@H]1O
REMARK SMILES IDX 8 1 9 2 11 3 14 4 10 5 16 6 18 7 12 8 13 9 15 11 17 13 19 15
REMARK SMILES IDX 5 17 20 18 4 19 22 20 3 21 6 22 7 23 21 25 23 27 2 29 1 30
REMARK H PARENT 13 10 15 12 17 14 19 16 7 24 21 26 23 28 1 31
REMARK Flexibility Score: inf
ROOT
ATOM      1  O   UNL     1      17.808  -7.128   6.014  1.00  0.00    -0.313 OA
ENDROOT
BRANCH   1   2
ATOM      2  C   UNL     1      17.758  -7.905   4.817  1.00  0.00     0.285 C 
ATOM      3  C   UNL     1      15.460  -7.445   4.306  1.00  0.00     0.178 C 
ATOM      4  C   UNL     1      15.049  -8.911   4.598  1.00  0.00     0.177 C 
ATOM      5  O   UNL     1      16.824  -7.328   3.912  1.00  0.00    -0.341 OA
ATOM      6  C   UNL     1      16.024  -9.615   5.560  1.00  0.00     0.179 C 
ATOM      7  C   UNL     1      17.464  -9.405   5.070  1.00  0.00     0.202 C 
BRANCH   3   8
ATOM      8  C   UNL     1      15.062  -6.420   5.389  1.00  0.00     0.191 C 
BRANCH   8   9
ATOM      9  O   UNL     1      14.814  -7.080   6.599  1.00  0.00    -0.394 OA
ATOM     10  H   UNL     1      14.095  -7.737   6.409  1.00  0.00     0.210 HD
ENDBRANCH   8   9
ENDBRANCH   3   8
BRANCH   4  11
ATOM     11  O   UNL     1      13.710  -9.016   5.017  1.00  0.00    -0.387 OA
ATOM     12  H   UNL     1      13.171  -8.354   4.515  1.00  0.00     0.211 HD
ENDBRANCH   4  11
BRANCH   6  13
ATOM     13  O   UNL     1      15.884  -9.124   6.869  1.00  0.00    -0.387 OA
ATOM     14  H   UNL     1      14.913  -9.080   7.067  1.00  0.00     0.211 HD
ENDBRANCH   6  13
BRANCH   7  15
ATOM     15  O   UNL     1      17.644 -10.125   3.875  1.00  0.00    -0.385 OA
ATOM     16  H   UNL     1      16.760 -10.167   3.424  1.00  0.00     0.211 HD
ENDBRANCH   7  15
ENDBRANCH   1   2
BRANCH   1  17
ATOM     17  C   UNL     1      19.060  -6.970   6.704  1.00  0.00     0.224 C 
ATOM     18  C   UNL     1      19.655  -5.586   6.340  1.00  0.00     0.208 C 
ATOM     19  O   UNL     1      19.928  -7.952   6.162  1.00  0.00    -0.337 OA
ATOM     20  C   UNL     1      20.378  -5.889   5.053  1.00  0.00     0.180 C 
ATOM     21  C   UNL     1      20.837  -7.319   5.286  1.00  0.00     0.179 C 
BRANCH  17  22
ATOM     22  C   UNL     1      19.021  -7.224   8.241  1.00  0.00     0.225 C 
BRANCH  22  23
ATOM     23  O   UNL     1      18.491  -6.113   8.914  1.00  0.00    -0.391 OA
ATOM     24  H   UNL     1      18.500  -5.363   8.265  1.00  0.00     0.210 HD
ENDBRANCH  22  23
ENDBRANCH  17  22
BRANCH  18  25
ATOM     25  O   UNL     1      20.558  -5.128   7.319  1.00  0.00    -0.385 OA
ATOM     26  H   UNL     1      20.024  -4.658   8.010  1.00  0.00     0.211 HD
ENDBRANCH  18  25
BRANCH  20  27
ATOM     27  O   UNL     1      21.472  -5.037   4.832  1.00  0.00    -0.387 OA
ATOM     28  H   UNL     1      22.269  -5.623   4.749  1.00  0.00     0.211 HD
ENDBRANCH  20  27
BRANCH  21  29
ATOM     29  C   UNL     1      20.967  -8.115   3.982  1.00  0.00     0.191 C 
BRANCH  29  30
ATOM     30  O   UNL     1      20.728  -9.478   4.213  1.00  0.00    -0.394 OA
ATOM     31  H   UNL     1      21.620  -9.912   4.263  1.00  0.00     0.210 HD
ENDBRANCH  29  30
ENDBRANCH  21  29
ENDBRANCH   1  17
TORSDOF 13
ENDMDL
MODEL 6
REMARK VINA RESULT:    -1.509      2.039      3.197
REMARK INTER + INTRA:          -3.345
REMARK INTER:                  -2.923
REMARK INTRA:                  -0.422
REMARK UNBOUND:                -1.042
REMARK SMILES OC[C@@H]1O[C@](CO)(O[C@@H]2O[C@H](CO)[C@H](O)[C@H](O)[C@H]2O)[C@@H](O)[C@H]1O
REMARK SMILES IDX 8 1 9 2 11 3 14 4 10 5 16 6 18 7 12 8 13 9 15 11 17 13 19 15
REMARK SMILES IDX 5 17 20 18 4 19 22 20 3 21 6 22 7 23 21 25 23 27 2 29 1 30
REMARK H PARENT 13 10 15 12 17 14 19 16 7 24 21 26 23 28 1 31
REMARK Flexibility Score: inf
ROOT
ATOM      1  O   UNL     1      18.353  -7.699   5.754  1.00  0.00    -0.313 OA
ENDROOT
BRANCH   1   2
ATOM      2  C   UNL     1      17.196  -7.123   5.147  1.00  0.00     0.285 C 
ATOM      3  C   UNL     1      15.991  -6.750   7.188  1.00  0.00     0.178 C 
ATOM      4  C   UNL     1      14.942  -7.833   6.825  1.00  0.00     0.177 C 
ATOM      5  O   UNL     1      16.609  -6.181   6.037  1.00  0.00    -0.341 OA
ATOM      6  C   UNL     1      15.496  -8.885   5.846  1.00  0.00     0.179 C 
ATOM      7  C   UNL     1      16.168  -8.175   4.662  1.00  0.00     0.202 C 
BRANCH   3   8
ATOM      8  C   UNL     1      17.011  -7.157   8.272  1.00  0.00     0.191 C 
BRANCH   8   9
ATOM      9  O   UNL     1      18.123  -6.306   8.220  1.00  0.00    -0.394 OA
ATOM     10  H   UNL     1      17.778  -5.395   8.406  1.00  0.00     0.210 HD
ENDBRANCH   8   9
ENDBRANCH   3   8
BRANCH   4  11
ATOM     11  O   UNL     1      14.359  -8.413   7.966  1.00  0.00    -0.387 OA
ATOM     12  H   UNL     1      13.379  -8.462   7.828  1.00  0.00     0.211 HD
ENDBRANCH   4  11
BRANCH   6  13
ATOM     13  O   UNL     1      16.416  -9.733   6.484  1.00  0.00    -0.387 OA
ATOM     14  H   UNL     1      16.388  -9.524   7.454  1.00  0.00     0.211 HD
ENDBRANCH   6  13
BRANCH   7  15
ATOM     15  O   UNL     1      15.176  -7.539   3.894  1.00  0.00    -0.385 OA
ATOM     16  H   UNL     1      14.870  -8.195   3.212  1.00  0.00     0.211 HD
ENDBRANCH   7  15
ENDBRANCH   1   2
BRANCH   1  17
ATOM     17  C   UNL     1      19.464  -8.092   4.930  1.00  0.00     0.224 C 
ATOM     18  C   UNL     1      20.769  -7.933   5.751  1.00  0.00     0.208 C 
ATOM     19  O   UNL     1      19.517  -7.145   3.875  1.00  0.00    -0.337 OA
ATOM     20  C   UNL     1      21.095  -6.477   5.535  1.00  0.00     0.180 C 
ATOM     21  C   UNL     1      20.585  -6.253   4.121  1.00  0.00     0.179 C 
BRANCH  17  22
ATOM     22  C   UNL     1      19.344  -9.491   4.254  1.00  0.00     0.225 C 
BRANCH  22  23
ATOM     23  O   UNL     1      20.613 -10.044   4.029  1.00  0.00    -0.391 OA
ATOM     24  H   UNL     1      21.114  -9.382   3.486  1.00  0.00     0.210 HD
ENDBRANCH  22  23
ENDBRANCH  17  22
BRANCH  18  25
ATOM     25  O   UNL     1      21.804  -8.750   5.257  1.00  0.00    -0.385 OA
ATOM     26  H   UNL     1      21.868  -8.580   4.282  1.00  0.00     0.211 HD
ENDBRANCH  18  25
BRANCH  20  27
ATOM     27  O   UNL     1      22.471  -6.210   5.624  1.00  0.00    -0.387 OA
ATOM     28  H   UNL     1      22.782  -6.633   6.467  1.00  0.00     0.211 HD
ENDBRANCH  20  27
BRANCH  21  29
ATOM     29  C   UNL     1      20.139  -4.806   3.879  1.00  0.00     0.191 C 
BRANCH  29  30
ATOM     30  O   UNL     1      20.873  -3.925   4.687  1.00  0.00    -0.394 OA
ATOM     31  H   UNL     1      20.362  -3.073   4.705  1.00  0.00     0.210 HD
ENDBRANCH  29  30
ENDBRANCH  21  29
ENDBRANCH   1  17
TORSDOF 13
ENDMDL
