MODEL 1
REMARK VINA RESULT:    -4.647      0.000      0.000
REMARK INTER + INTRA:          -9.689
REMARK INTER:                  -7.907
REMARK INTRA:                  -1.782
REMARK UNBOUND:                -1.782
REMARK SMILES CCCCCCCCCCCCCC(=O)[O-]
REMARK SMILES IDX 8 1 9 2 10 3 11 4 12 5 13 6 14 7 15 8 16 9 7 10 6 11 5 12
REMARK SMILES IDX 4 13 3 14 2 15 1 16
REMARK H PARENT
REMARK Flexibility Score: inf
ROOT
ATOM      1  C   UNL     1     159.418 166.120 161.275  1.00  0.00     0.000 C 
ENDROOT
BRANCH   1   2
ATOM      2  C   UNL     1     159.176 164.665 160.848  1.00  0.00     0.000 C 
BRANCH   2   3
ATOM      3  C   UNL     1     159.437 164.481 159.348  1.00  0.00     0.000 C 
BRANCH   3   4
ATOM      4  C   UNL     1     159.543 162.993 158.986  1.00  0.00     0.000 C 
BRANCH   4   5
ATOM      5  C   UNL     1     160.859 162.638 158.268  1.00  0.00     0.006 C 
BRANCH   5   6
ATOM      6  C   UNL     1     162.065 162.488 159.213  1.00  0.00     0.053 C 
BRANCH   6   7
ATOM      7  C   UNL     1     163.304 162.036 158.504  1.00  0.00     0.041 C 
ATOM      8  O   UNL     1     163.575 160.809 158.416  1.00  0.00    -0.550 OA
ATOM      9  O   UNL     1     164.179 162.973 157.967  1.00  0.00    -0.550 OA
ENDBRANCH   6   7
ENDBRANCH   5   6
ENDBRANCH   4   5
ENDBRANCH   3   4
ENDBRANCH   2   3
ENDBRANCH   1   2
BRANCH   1  10
ATOM     10  C   UNL     1     159.994 166.991 160.143  1.00  0.00     0.000 C 
BRANCH  10  11
ATOM     11  C   UNL     1     161.453 167.438 160.345  1.00  0.00    -0.000 C 
BRANCH  11  12
ATOM     12  C   UNL     1     162.427 166.260 160.491  1.00  0.00    -0.000 C 
BRANCH  12  13
ATOM     13  C   UNL     1     163.552 166.345 159.453  1.00  0.00    -0.000 C 
BRANCH  13  14
ATOM     14  C   UNL     1     163.038 166.934 158.131  1.00  0.00    -0.000 C 
BRANCH  14  15
ATOM     15  C   UNL     1     162.382 165.877 157.229  1.00  0.00    -0.003 C 
ATOM     16  C   UNL     1     161.186 166.424 156.451  1.00  0.00     0.004 C 
ENDBRANCH  14  15
ENDBRANCH  13  14
ENDBRANCH  12  13
ENDBRANCH  11  12
ENDBRANCH  10  11
ENDBRANCH   1  10
TORSDOF 12
ENDMDL
MODEL 2
REMARK VINA RESULT:    -4.563      0.973      3.088
REMARK INTER + INTRA:          -9.546
REMARK INTER:                  -7.627
REMARK INTRA:                  -1.918
REMARK UNBOUND:                -1.782
REMARK SMILES CCCCCCCCCCCCCC(=O)[O-]
REMARK SMILES IDX 8 1 9 2 10 3 11 4 12 5 13 6 14 7 15 8 16 9 7 10 6 11 5 12
REMARK SMILES IDX 4 13 3 14 2 15 1 16
REMARK H PARENT
REMARK Flexibility Score: inf
ROOT
ATOM      1  C   UNL     1     162.373 166.383 156.777  1.00  0.00     0.000 C 
ENDROOT
BRANCH   1   2
ATOM      2  C   UNL     1     160.971 166.140 157.355  1.00  0.00     0.000 C 
BRANCH   2   3
ATOM      3  C   UNL     1     160.671 164.639 157.456  1.00  0.00     0.000 C 
BRANCH   3   4
ATOM      4  C   UNL     1     160.351 164.238 158.903  1.00  0.00     0.000 C 
BRANCH   4   5
ATOM      5  C   UNL     1     161.439 163.354 159.540  1.00  0.00     0.006 C 
BRANCH   5   6
ATOM      6  C   UNL     1     161.717 162.051 158.767  1.00  0.00     0.053 C 
BRANCH   6   7
ATOM      7  C   UNL     1     163.149 161.920 158.347  1.00  0.00     0.041 C 
ATOM      8  O   UNL     1     163.752 160.823 158.479  1.00  0.00    -0.550 OA
ATOM      9  O   UNL     1     163.828 163.021 157.839  1.00  0.00    -0.550 OA
ENDBRANCH   6   7
ENDBRANCH   5   6
ENDBRANCH   4   5
ENDBRANCH   3   4
ENDBRANCH   2   3
ENDBRANCH   1   2
BRANCH   1  10
ATOM     10  C   UNL     1     163.323 167.071 157.775  1.00  0.00     0.000 C 
BRANCH  10  11
ATOM     11  C   UNL     1     163.679 166.235 159.018  1.00  0.00    -0.000 C 
BRANCH  11  12
ATOM     12  C   UNL     1     163.287 166.921 160.334  1.00  0.00    -0.000 C 
BRANCH  12  13
ATOM     13  C   UNL     1     162.377 168.127 160.076  1.00  0.00    -0.000 C 
BRANCH  13  14
ATOM     14  C   UNL     1     160.981 167.901 160.675  1.00  0.00    -0.000 C 
BRANCH  14  15
ATOM     15  C   UNL     1     160.883 166.589 161.467  1.00  0.00    -0.003 C 
ATOM     16  C   UNL     1     159.444 166.222 161.827  1.00  0.00     0.004 C 
ENDBRANCH  14  15
ENDBRANCH  13  14
ENDBRANCH  12  13
ENDBRANCH  11  12
ENDBRANCH  10  11
ENDBRANCH   1  10
TORSDOF 12
ENDMDL
MODEL 3
REMARK VINA RESULT:    -4.543      2.537      4.466
REMARK INTER + INTRA:          -9.512
REMARK INTER:                  -7.767
REMARK INTRA:                  -1.746
REMARK UNBOUND:                -1.782
REMARK SMILES CCCCCCCCCCCCCC(=O)[O-]
REMARK SMILES IDX 8 1 9 2 10 3 11 4 12 5 13 6 14 7 15 8 16 9 7 10 6 11 5 12
REMARK SMILES IDX 4 13 3 14 2 15 1 16
REMARK H PARENT
REMARK Flexibility Score: inf
ROOT
ATOM      1  C   UNL     1     163.043 166.915 159.612  1.00  0.00     0.000 C 
ENDROOT
BRANCH   1   2
ATOM      2  C   UNL     1     162.990 166.827 158.080  1.00  0.00     0.000 C 
BRANCH   2   3
ATOM      3  C   UNL     1     162.446 165.468 157.626  1.00  0.00     0.000 C 
BRANCH   3   4
ATOM      4  C   UNL     1     162.715 164.386 158.682  1.00  0.00     0.000 C 
BRANCH   4   5
ATOM      5  C   UNL     1     161.527 163.426 158.880  1.00  0.00     0.006 C 
BRANCH   5   6
ATOM      6  C   UNL     1     160.256 163.839 158.116  1.00  0.00     0.053 C 
BRANCH   6   7
ATOM      7  C   UNL     1     159.015 163.208 158.669  1.00  0.00     0.041 C 
ATOM      8  O   UNL     1     158.654 163.447 159.852  1.00  0.00    -0.550 OA
ATOM      9  O   UNL     1     158.274 162.330 157.888  1.00  0.00    -0.550 OA
ENDBRANCH   6   7
ENDBRANCH   5   6
ENDBRANCH   4   5
ENDBRANCH   3   4
ENDBRANCH   2   3
ENDBRANCH   1   2
BRANCH   1  10
ATOM     10  C   UNL     1     161.997 167.883 160.196  1.00  0.00     0.000 C 
BRANCH  10  11
ATOM     11  C   UNL     1     160.551 167.635 159.731  1.00  0.00    -0.000 C 
BRANCH  11  12
ATOM     12  C   UNL     1     159.804 166.619 160.608  1.00  0.00    -0.000 C 
BRANCH  12  13
ATOM     13  C   UNL     1     160.201 166.768 162.081  1.00  0.00    -0.000 C 
BRANCH  13  14
ATOM     14  C   UNL     1     160.147 165.415 162.805  1.00  0.00    -0.000 C 
BRANCH  14  15
ATOM     15  C   UNL     1     161.355 164.522 162.482  1.00  0.00    -0.003 C 
ATOM     16  C   UNL     1     161.820 163.699 163.682  1.00  0.00     0.004 C 
ENDBRANCH  14  15
ENDBRANCH  13  14
ENDBRANCH  12  13
ENDBRANCH  11  12
ENDBRANCH  10  11
ENDBRANCH   1  10
TORSDOF 12
ENDMDL
MODEL 4
REMARK VINA RESULT:    -4.505      2.254      4.610
REMARK INTER + INTRA:          -9.448
REMARK INTER:                  -7.802
REMARK INTRA:                  -1.646
REMARK UNBOUND:                -1.782
REMARK SMILES CCCCCCCCCCCCCC(=O)[O-]
REMARK SMILES IDX 8 1 9 2 10 3 11 4 12 5 13 6 14 7 15 8 16 9 7 10 6 11 5 12
REMARK SMILES IDX 4 13 3 14 2 15 1 16
REMARK H PARENT
REMARK Flexibility Score: inf
ROOT
ATOM      1  C   UNL     1     163.468 166.639 160.038  1.00  0.00     0.000 C 
ENDROOT
BRANCH   1   2
ATOM      2  C   UNL     1     162.578 167.789 159.544  1.00  0.00     0.000 C 
BRANCH   2   3
ATOM      3  C   UNL     1     161.438 168.065 160.531  1.00  0.00     0.000 C 
BRANCH   3   4
ATOM      4  C   UNL     1     160.085 167.637 159.945  1.00  0.00     0.000 C 
BRANCH   4   5
ATOM      5  C   UNL     1     159.865 166.113 159.985  1.00  0.00     0.006 C 
BRANCH   5   6
ATOM      6  C   UNL     1     159.435 165.579 161.363  1.00  0.00     0.053 C 
BRANCH   6   7
ATOM      7  C   UNL     1     160.561 164.934 162.112  1.00  0.00     0.041 C 
ATOM      8  O   UNL     1     160.639 165.048 163.364  1.00  0.00    -0.550 OA
ATOM      9  O   UNL     1     161.542 164.233 161.424  1.00  0.00    -0.550 OA
ENDBRANCH   6   7
ENDBRANCH   5   6
ENDBRANCH   4   5
ENDBRANCH   3   4
ENDBRANCH   2   3
ENDBRANCH   1   2
BRANCH   1  10
ATOM     10  C   UNL     1     163.985 165.745 158.896  1.00  0.00     0.000 C 
BRANCH  10  11
ATOM     11  C   UNL     1     163.092 165.710 157.642  1.00  0.00    -0.000 C 
BRANCH  11  12
ATOM     12  C   UNL     1     162.070 164.564 157.666  1.00  0.00    -0.000 C 
BRANCH  12  13
ATOM     13  C   UNL     1     162.694 163.282 158.231  1.00  0.00    -0.000 C 
BRANCH  13  14
ATOM     14  C   UNL     1     161.608 162.273 158.635  1.00  0.00    -0.000 C 
BRANCH  14  15
ATOM     15  C   UNL     1     160.246 162.583 157.994  1.00  0.00    -0.003 C 
ATOM     16  C   UNL     1     159.106 162.605 159.012  1.00  0.00     0.004 C 
ENDBRANCH  14  15
ENDBRANCH  13  14
ENDBRANCH  12  13
ENDBRANCH  11  12
ENDBRANCH  10  11
ENDBRANCH   1  10
TORSDOF 12
ENDMDL
MODEL 5
REMARK VINA RESULT:    -4.505      2.399      4.498
REMARK INTER + INTRA:          -9.448
REMARK INTER:                  -8.023
REMARK INTRA:                  -1.425
REMARK UNBOUND:                -1.782
REMARK SMILES CCCCCCCCCCCCCC(=O)[O-]
REMARK SMILES IDX 8 1 9 2 10 3 11 4 12 5 13 6 14 7 15 8 16 9 7 10 6 11 5 12
REMARK SMILES IDX 4 13 3 14 2 15 1 16
REMARK H PARENT
REMARK Flexibility Score: inf
ROOT
ATOM      1  C   UNL     1     159.286 163.271 158.246  1.00  0.00     0.000 C 
ENDROOT
BRANCH   1   2
ATOM      2  C   UNL     1     160.201 162.095 158.616  1.00  0.00     0.000 C 
BRANCH   2   3
ATOM      3  C   UNL     1     161.466 162.586 159.330  1.00  0.00     0.000 C 
BRANCH   3   4
ATOM      4  C   UNL     1     161.792 164.035 158.939  1.00  0.00     0.000 C 
BRANCH   4   5
ATOM      5  C   UNL     1     162.992 164.147 157.981  1.00  0.00     0.006 C 
BRANCH   5   6
ATOM      6  C   UNL     1     164.090 165.112 158.464  1.00  0.00     0.053 C 
BRANCH   6   7
ATOM      7  C   UNL     1     163.539 166.407 158.977  1.00  0.00     0.041 C 
ATOM      8  O   UNL     1     163.599 166.682 160.204  1.00  0.00    -0.550 OA
ATOM      9  O   UNL     1     162.930 167.298 158.102  1.00  0.00    -0.550 OA
ENDBRANCH   6   7
ENDBRANCH   5   6
ENDBRANCH   4   5
ENDBRANCH   3   4
ENDBRANCH   2   3
ENDBRANCH   1   2
BRANCH   1  10
ATOM     10  C   UNL     1     158.137 163.479 159.249  1.00  0.00     0.000 C 
BRANCH  10  11
ATOM     11  C   UNL     1     158.515 164.268 160.517  1.00  0.00    -0.000 C 
BRANCH  11  12
ATOM     12  C   UNL     1     158.768 165.757 160.243  1.00  0.00    -0.000 C 
BRANCH  12  13
ATOM     13  C   UNL     1     159.857 166.310 161.170  1.00  0.00    -0.000 C 
BRANCH  13  14
ATOM     14  C   UNL     1     160.032 165.416 162.407  1.00  0.00    -0.000 C 
BRANCH  14  15
ATOM     15  C   UNL     1     161.430 164.784 162.486  1.00  0.00    -0.003 C 
ATOM     16  C   UNL     1     161.587 163.846 163.682  1.00  0.00     0.004 C 
ENDBRANCH  14  15
ENDBRANCH  13  14
ENDBRANCH  12  13
ENDBRANCH  11  12
ENDBRANCH  10  11
ENDBRANCH   1  10
TORSDOF 12
ENDMDL
MODEL 6
REMARK VINA RESULT:    -4.416      2.719      4.557
REMARK INTER + INTRA:          -9.296
REMARK INTER:                  -7.903
REMARK INTRA:                  -1.393
REMARK UNBOUND:                -1.782
REMARK SMILES CCCCCCCCCCCCCC(=O)[O-]
REMARK SMILES IDX 8 1 9 2 10 3 11 4 12 5 13 6 14 7 15 8 16 9 7 10 6 11 5 12
REMARK SMILES IDX 4 13 3 14 2 15 1 16
REMARK H PARENT
REMARK Flexibility Score: inf
ROOT
ATOM      1  C   UNL     1     163.159 164.705 157.915  1.00  0.00     0.000 C 
ENDROOT
BRANCH   1   2
ATOM      2  C   UNL     1     163.739 163.291 158.065  1.00  0.00     0.000 C 
BRANCH   2   3
ATOM      3  C   UNL     1     162.728 162.350 158.732  1.00  0.00     0.000 C 
BRANCH   3   4
ATOM      4  C   UNL     1     161.382 162.376 157.995  1.00  0.00     0.000 C 
BRANCH   4   5
ATOM      5  C   UNL     1     160.179 162.134 158.925  1.00  0.00     0.006 C 
BRANCH   5   6
ATOM      6  C   UNL     1     159.344 163.396 159.208  1.00  0.00     0.053 C 
BRANCH   6   7
ATOM      7  C   UNL     1     157.872 163.164 159.054  1.00  0.00     0.041 C 
ATOM      8  O   UNL     1     157.447 162.276 158.269  1.00  0.00    -0.550 OA
ATOM      9  O   UNL     1     156.967 163.953 159.754  1.00  0.00    -0.550 OA
ENDBRANCH   6   7
ENDBRANCH   5   6
ENDBRANCH   4   5
ENDBRANCH   3   4
ENDBRANCH   2   3
ENDBRANCH   1   2
BRANCH   1  10
ATOM     10  C   UNL     1     163.828 165.731 158.849  1.00  0.00     0.000 C 
BRANCH  10  11
ATOM     11  C   UNL     1     162.854 166.584 159.682  1.00  0.00    -0.000 C 
BRANCH  11  12
ATOM     12  C   UNL     1     161.530 166.865 158.955  1.00  0.00    -0.000 C 
BRANCH  12  13
ATOM     13  C   UNL     1     160.332 166.618 159.879  1.00  0.00    -0.000 C 
BRANCH  13  14
ATOM     14  C   UNL     1     160.677 166.969 161.334  1.00  0.00    -0.000 C 
BRANCH  14  15
ATOM     15  C   UNL     1     160.297 165.852 162.318  1.00  0.00    -0.003 C 
ATOM     16  C   UNL     1     161.209 164.631 162.208  1.00  0.00     0.004 C 
ENDBRANCH  14  15
ENDBRANCH  13  14
ENDBRANCH  12  13
ENDBRANCH  11  12
ENDBRANCH  10  11
ENDBRANCH   1  10
TORSDOF 12
ENDMDL
MODEL 7
REMARK VINA RESULT:    -4.414      2.875      5.531
REMARK INTER + INTRA:          -9.292
REMARK INTER:                  -7.520
REMARK INTRA:                  -1.771
REMARK UNBOUND:                -1.782
REMARK SMILES CCCCCCCCCCCCCC(=O)[O-]
REMARK SMILES IDX 8 1 9 2 10 3 11 4 12 5 13 6 14 7 15 8 16 9 7 10 6 11 5 12
REMARK SMILES IDX 4 13 3 14 2 15 1 16
REMARK H PARENT
REMARK Flexibility Score: inf
ROOT
ATOM      1  C   UNL     1     163.028 163.975 157.830  1.00  0.00     0.000 C 
ENDROOT
BRANCH   1   2
ATOM      2  C   UNL     1     163.400 165.119 158.785  1.00  0.00     0.000 C 
BRANCH   2   3
ATOM      3  C   UNL     1     162.924 166.470 158.236  1.00  0.00     0.000 C 
BRANCH   3   4
ATOM      4  C   UNL     1     161.697 166.295 157.330  1.00  0.00     0.000 C 
BRANCH   4   5
ATOM      5  C   UNL     1     161.918 166.830 155.903  1.00  0.00     0.006 C 
BRANCH   5   6
ATOM      6  C   UNL     1     160.762 166.523 154.935  1.00  0.00     0.053 C 
BRANCH   6   7
ATOM      7  C   UNL     1     161.043 166.973 153.534  1.00  0.00     0.041 C 
ATOM      8  O   UNL     1     162.230 167.088 153.130  1.00  0.00    -0.550 OA
ATOM      9  O   UNL     1     159.993 167.297 152.684  1.00  0.00    -0.550 OA
ENDBRANCH   6   7
ENDBRANCH   5   6
ENDBRANCH   4   5
ENDBRANCH   3   4
ENDBRANCH   2   3
ENDBRANCH   1   2
BRANCH   1  10
ATOM     10  C   UNL     1     162.829 162.630 158.552  1.00  0.00     0.000 C 
BRANCH  10  11
ATOM     11  C   UNL     1     161.506 162.498 159.329  1.00  0.00    -0.000 C 
BRANCH  11  12
ATOM     12  C   UNL     1     160.291 162.997 158.534  1.00  0.00    -0.000 C 
BRANCH  12  13
ATOM     13  C   UNL     1     159.490 164.025 159.341  1.00  0.00    -0.000 C 
BRANCH  13  14
ATOM     14  C   UNL     1     160.178 164.332 160.680  1.00  0.00    -0.000 C 
BRANCH  14  15
ATOM     15  C   UNL     1     160.341 165.838 160.929  1.00  0.00    -0.003 C 
ATOM     16  C   UNL     1     159.226 166.667 160.294  1.00  0.00     0.004 C 
ENDBRANCH  14  15
ENDBRANCH  13  14
ENDBRANCH  12  13
ENDBRANCH  11  12
ENDBRANCH  10  11
ENDBRANCH   1  10
TORSDOF 12
ENDMDL
MODEL 8
REMARK VINA RESULT:    -4.403      2.601      4.319
REMARK INTER + INTRA:          -9.274
REMARK INTER:                  -7.838
REMARK INTRA:                  -1.435
REMARK UNBOUND:                -1.782
REMARK SMILES CCCCCCCCCCCCCC(=O)[O-]
REMARK SMILES IDX 8 1 9 2 10 3 11 4 12 5 13 6 14 7 15 8 16 9 7 10 6 11 5 12
REMARK SMILES IDX 4 13 3 14 2 15 1 16
REMARK H PARENT
REMARK Flexibility Score: inf
ROOT
ATOM      1  C   UNL     1     161.056 162.086 158.173  1.00  0.00     0.000 C 
ENDROOT
BRANCH   1   2
ATOM      2  C   UNL     1     159.792 162.373 158.997  1.00  0.00     0.000 C 
BRANCH   2   3
ATOM      3  C   UNL     1     159.490 163.876 159.034  1.00  0.00     0.000 C 
BRANCH   3   4
ATOM      4  C   UNL     1     159.159 164.336 160.461  1.00  0.00     0.000 C 
BRANCH   4   5
ATOM      5  C   UNL     1     158.551 165.750 160.514  1.00  0.00     0.006 C 
BRANCH   5   6
ATOM      6  C   UNL     1     159.504 166.859 160.035  1.00  0.00     0.053 C 
BRANCH   6   7
ATOM      7  C   UNL     1     160.561 167.192 161.042  1.00  0.00     0.041 C 
ATOM      8  O   UNL     1     161.654 167.696 160.673  1.00  0.00    -0.550 OA
ATOM      9  O   UNL     1     160.350 166.916 162.387  1.00  0.00    -0.550 OA
ENDBRANCH   6   7
ENDBRANCH   5   6
ENDBRANCH   4   5
ENDBRANCH   3   4
ENDBRANCH   2   3
ENDBRANCH   1   2
BRANCH   1  10
ATOM     10  C   UNL     1     162.353 162.461 158.912  1.00  0.00     0.000 C 
BRANCH  10  11
ATOM     11  C   UNL     1     163.214 163.530 158.214  1.00  0.00    -0.000 C 
BRANCH  11  12
ATOM     12  C   UNL     1     162.932 164.952 158.720  1.00  0.00    -0.000 C 
BRANCH  12  13
ATOM     13  C   UNL     1     163.488 166.001 157.750  1.00  0.00    -0.000 C 
BRANCH  13  14
ATOM     14  C   UNL     1     162.374 166.934 157.251  1.00  0.00    -0.000 C 
BRANCH  14  15
ATOM     15  C   UNL     1     161.178 166.168 156.667  1.00  0.00    -0.003 C 
ATOM     16  C   UNL     1     160.868 166.566 155.225  1.00  0.00     0.004 C 
ENDBRANCH  14  15
ENDBRANCH  13  14
ENDBRANCH  12  13
ENDBRANCH  11  12
ENDBRANCH  10  11
ENDBRANCH   1  10
TORSDOF 12
ENDMDL
MODEL 9
REMARK VINA RESULT:    -4.335      2.092      4.542
REMARK INTER + INTRA:          -9.158
REMARK INTER:                  -7.655
REMARK INTRA:                  -1.503
REMARK UNBOUND:                -1.782
REMARK SMILES CCCCCCCCCCCCCC(=O)[O-]
REMARK SMILES IDX 8 1 9 2 10 3 11 4 12 5 13 6 14 7 15 8 16 9 7 10 6 11 5 12
REMARK SMILES IDX 4 13 3 14 2 15 1 16
REMARK H PARENT
REMARK Flexibility Score: inf
ROOT
ATOM      1  C   UNL     1     161.259 165.784 161.388  1.00  0.00     0.000 C 
ENDROOT
BRANCH   1   2
ATOM      2  C   UNL     1     161.168 166.885 160.322  1.00  0.00     0.000 C 
BRANCH   2   3
ATOM      3  C   UNL     1     162.551 167.204 159.741  1.00  0.00     0.000 C 
BRANCH   3   4
ATOM      4  C   UNL     1     163.307 165.917 159.380  1.00  0.00     0.000 C 
BRANCH   4   5
ATOM      5  C   UNL     1     163.503 165.737 157.863  1.00  0.00     0.006 C 
BRANCH   5   6
ATOM      6  C   UNL     1     162.965 166.907 157.021  1.00  0.00     0.053 C 
BRANCH   6   7
ATOM      7  C   UNL     1     161.757 166.537 156.217  1.00  0.00     0.041 C 
ATOM      8  O   UNL     1     160.822 165.877 156.743  1.00  0.00    -0.550 OA
ATOM      9  O   UNL     1     161.677 166.894 154.877  1.00  0.00    -0.550 OA
ENDBRANCH   6   7
ENDBRANCH   5   6
ENDBRANCH   4   5
ENDBRANCH   3   4
ENDBRANCH   2   3
ENDBRANCH   1   2
BRANCH   1  10
ATOM     10  C   UNL     1     160.346 164.581 161.090  1.00  0.00     0.000 C 
BRANCH  10  11
ATOM     11  C   UNL     1     159.750 164.552 159.670  1.00  0.00    -0.000 C 
BRANCH  11  12
ATOM     12  C   UNL     1     158.976 163.260 159.371  1.00  0.00    -0.000 C 
BRANCH  12  13
ATOM     13  C   UNL     1     159.803 162.315 158.492  1.00  0.00    -0.000 C 
BRANCH  13  14
ATOM     14  C   UNL     1     161.238 162.835 158.322  1.00  0.00    -0.000 C 
BRANCH  14  15
ATOM     15  C   UNL     1     162.274 161.958 159.040  1.00  0.00    -0.003 C 
ATOM     16  C   UNL     1     163.629 161.944 158.334  1.00  0.00     0.004 C 
ENDBRANCH  14  15
ENDBRANCH  13  14
ENDBRANCH  12  13
ENDBRANCH  11  12
ENDBRANCH  10  11
ENDBRANCH   1  10
TORSDOF 12
ENDMDL
