MODEL 1
REMARK VINA RESULT:    -3.364      0.000      0.000
REMARK INTER + INTRA:          -8.086
REMARK INTER:                  -5.921
REMARK INTRA:                  -2.165
REMARK UNBOUND:                -2.165
REMARK SMILES CCCCCCC=CCCCCCCCC(=O)[O-]
REMARK SMILES IDX 10 1 11 2 12 3 13 4 14 5 15 6 16 7 17 8 18 9 9 10 8 11 7 12
REMARK SMILES IDX 6 13 5 14 4 15 3 16 2 17 1 18
REMARK H PARENT
REMARK Flexibility Score: inf
ROOT
ATOM      1  C   UNL     1      61.054  31.808  59.249  1.00  0.00     0.004 C 
ENDROOT
BRANCH   1   2
ATOM      2  C   UNL     1      61.233  32.018  60.762  1.00  0.00     0.000 C 
BRANCH   2   3
ATOM      3  C   UNL     1      60.762  30.802  61.579  1.00  0.00     0.000 C 
BRANCH   3   4
ATOM      4  C   UNL     1      60.914  29.480  60.811  1.00  0.00     0.000 C 
BRANCH   4   5
ATOM      5  C   UNL     1      62.205  28.729  61.172  1.00  0.00     0.006 C 
BRANCH   5   6
ATOM      6  C   UNL     1      63.039  28.443  59.920  1.00  0.00     0.053 C 
BRANCH   6   7
ATOM      7  C   UNL     1      64.467  28.186  60.289  1.00  0.00     0.041 C 
ATOM      8  O   UNL     1      64.940  27.021  60.219  1.00  0.00    -0.550 OA
ATOM      9  O   UNL     1      65.262  29.224  60.757  1.00  0.00    -0.550 OA
ENDBRANCH   6   7
ENDBRANCH   5   6
ENDBRANCH   4   5
ENDBRANCH   3   4
ENDBRANCH   2   3
ENDBRANCH   1   2
BRANCH   1  10
ATOM     10  C   UNL     1      62.202  32.419  58.432  1.00  0.00     0.027 C 
BRANCH  10  11
ATOM     11  C   UNL     1      63.513  31.762  58.780  1.00  0.00    -0.031 C 
ATOM     12  C   UNL     1      64.568  32.403  59.316  1.00  0.00    -0.031 C 
BRANCH  12  13
ATOM     13  C   UNL     1      64.636  33.891  59.563  1.00  0.00     0.027 C 
BRANCH  13  14
ATOM     14  C   UNL     1      64.281  34.254  61.015  1.00  0.00     0.004 C 
BRANCH  14  15
ATOM     15  C   UNL     1      64.025  35.756  61.251  1.00  0.00     0.000 C 
BRANCH  15  16
ATOM     16  C   UNL     1      62.880  36.366  60.417  1.00  0.00    -0.000 C 
BRANCH  16  17
ATOM     17  C   UNL     1      61.506  35.705  60.622  1.00  0.00    -0.003 C 
ATOM     18  C   UNL     1      60.685  35.624  59.337  1.00  0.00     0.004 C 
ENDBRANCH  16  17
ENDBRANCH  15  16
ENDBRANCH  14  15
ENDBRANCH  13  14
ENDBRANCH  12  13
ENDBRANCH  10  11
ENDBRANCH   1  10
TORSDOF 13
ENDMDL
MODEL 2
REMARK VINA RESULT:    -3.308      1.199      1.711
REMARK INTER + INTRA:          -7.988
REMARK INTER:                  -6.166
REMARK INTRA:                  -1.822
REMARK UNBOUND:                -2.165
REMARK SMILES CCCCCCC=CCCCCCCCC(=O)[O-]
REMARK SMILES IDX 10 1 11 2 12 3 13 4 14 5 15 6 16 7 17 8 18 9 9 10 8 11 7 12
REMARK SMILES IDX 6 13 5 14 4 15 3 16 2 17 1 18
REMARK H PARENT
REMARK Flexibility Score: inf
ROOT
ATOM      1  C   UNL     1      60.752  31.338  60.066  1.00  0.00     0.004 C 
ENDROOT
BRANCH   1   2
ATOM      2  C   UNL     1      60.765  30.552  61.387  1.00  0.00     0.000 C 
BRANCH   2   3
ATOM      3  C   UNL     1      62.026  29.681  61.536  1.00  0.00     0.000 C 
BRANCH   3   4
ATOM      4  C   UNL     1      62.339  28.875  60.266  1.00  0.00     0.000 C 
BRANCH   4   5
ATOM      5  C   UNL     1      63.751  29.147  59.724  1.00  0.00     0.006 C 
BRANCH   5   6
ATOM      6  C   UNL     1      64.767  28.178  60.338  1.00  0.00     0.053 C 
BRANCH   6   7
ATOM      7  C   UNL     1      66.150  28.746  60.255  1.00  0.00     0.041 C 
ATOM      8  O   UNL     1      67.013  28.442  61.119  1.00  0.00    -0.550 OA
ATOM      9  O   UNL     1      66.470  29.650  59.250  1.00  0.00    -0.550 OA
ENDBRANCH   6   7
ENDBRANCH   5   6
ENDBRANCH   4   5
ENDBRANCH   3   4
ENDBRANCH   2   3
ENDBRANCH   1   2
BRANCH   1  10
ATOM     10  C   UNL     1      61.366  32.738  60.209  1.00  0.00     0.027 C 
BRANCH  10  11
ATOM     11  C   UNL     1      62.183  33.089  58.992  1.00  0.00    -0.031 C 
ATOM     12  C   UNL     1      63.528  33.060  58.943  1.00  0.00    -0.031 C 
BRANCH  12  13
ATOM     13  C   UNL     1      64.425  32.766  60.121  1.00  0.00     0.027 C 
BRANCH  13  14
ATOM     14  C   UNL     1      64.342  33.858  61.201  1.00  0.00     0.004 C 
BRANCH  14  15
ATOM     15  C   UNL     1      65.019  35.189  60.814  1.00  0.00     0.000 C 
BRANCH  15  16
ATOM     16  C   UNL     1      64.167  36.452  61.050  1.00  0.00    -0.000 C 
BRANCH  16  17
ATOM     17  C   UNL     1      62.986  36.628  60.079  1.00  0.00    -0.003 C 
ATOM     18  C   UNL     1      61.630  36.386  60.739  1.00  0.00     0.004 C 
ENDBRANCH  16  17
ENDBRANCH  15  16
ENDBRANCH  14  15
ENDBRANCH  13  14
ENDBRANCH  12  13
ENDBRANCH  10  11
ENDBRANCH   1  10
TORSDOF 13
ENDMDL
MODEL 3
REMARK VINA RESULT:    -3.269      1.629      3.142
REMARK INTER + INTRA:          -7.918
REMARK INTER:                  -5.867
REMARK INTRA:                  -2.051
REMARK UNBOUND:                -2.165
REMARK SMILES CCCCCCC=CCCCCCCCC(=O)[O-]
REMARK SMILES IDX 10 1 11 2 12 3 13 4 14 5 15 6 16 7 17 8 18 9 9 10 8 11 7 12
REMARK SMILES IDX 6 13 5 14 4 15 3 16 2 17 1 18
REMARK H PARENT
REMARK Flexibility Score: inf
ROOT
ATOM      1  C   UNL     1      60.257  32.571  58.630  1.00  0.00     0.004 C 
ENDROOT
BRANCH   1   2
ATOM      2  C   UNL     1      61.028  31.413  59.283  1.00  0.00     0.000 C 
BRANCH   2   3
ATOM      3  C   UNL     1      61.040  31.513  60.819  1.00  0.00     0.000 C 
BRANCH   3   4
ATOM      4  C   UNL     1      61.215  30.146  61.498  1.00  0.00     0.000 C 
BRANCH   4   5
ATOM      5  C   UNL     1      62.662  29.631  61.430  1.00  0.00     0.006 C 
BRANCH   5   6
ATOM      6  C   UNL     1      62.776  28.449  60.462  1.00  0.00     0.053 C 
BRANCH   6   7
ATOM      7  C   UNL     1      61.739  27.415  60.774  1.00  0.00     0.041 C 
ATOM      8  O   UNL     1      60.794  27.202  59.969  1.00  0.00    -0.550 OA
ATOM      9  O   UNL     1      61.789  26.721  61.976  1.00  0.00    -0.550 OA
ENDBRANCH   6   7
ENDBRANCH   5   6
ENDBRANCH   4   5
ENDBRANCH   3   4
ENDBRANCH   2   3
ENDBRANCH   1   2
BRANCH   1  10
ATOM     10  C   UNL     1      61.190  33.632  58.027  1.00  0.00     0.027 C 
BRANCH  10  11
ATOM     11  C   UNL     1      60.718  35.019  58.381  1.00  0.00    -0.031 C 
ATOM     12  C   UNL     1      61.039  35.668  59.515  1.00  0.00    -0.031 C 
BRANCH  12  13
ATOM     13  C   UNL     1      61.841  35.074  60.648  1.00  0.00     0.027 C 
BRANCH  13  14
ATOM     14  C   UNL     1      63.240  35.702  60.759  1.00  0.00     0.004 C 
BRANCH  14  15
ATOM     15  C   UNL     1      64.360  34.704  61.116  1.00  0.00     0.000 C 
BRANCH  15  16
ATOM     16  C   UNL     1      64.105  33.247  60.681  1.00  0.00    -0.000 C 
BRANCH  16  17
ATOM     17  C   UNL     1      64.521  32.921  59.235  1.00  0.00    -0.003 C 
ATOM     18  C   UNL     1      64.897  31.453  59.040  1.00  0.00     0.004 C 
ENDBRANCH  16  17
ENDBRANCH  15  16
ENDBRANCH  14  15
ENDBRANCH  13  14
ENDBRANCH  12  13
ENDBRANCH  10  11
ENDBRANCH   1  10
TORSDOF 13
ENDMDL
MODEL 4
REMARK VINA RESULT:    -3.256      2.953      6.703
REMARK INTER + INTRA:          -7.896
REMARK INTER:                  -5.865
REMARK INTRA:                  -2.031
REMARK UNBOUND:                -2.165
REMARK SMILES CCCCCCC=CCCCCCCCC(=O)[O-]
REMARK SMILES IDX 10 1 11 2 12 3 13 4 14 5 15 6 16 7 17 8 18 9 9 10 8 11 7 12
REMARK SMILES IDX 6 13 5 14 4 15 3 16 2 17 1 18
REMARK H PARENT
REMARK Flexibility Score: inf
ROOT
ATOM      1  C   UNL     1      62.653  32.302  59.049  1.00  0.00     0.004 C 
ENDROOT
BRANCH   1   2
ATOM      2  C   UNL     1      63.624  32.563  60.211  1.00  0.00     0.000 C 
BRANCH   2   3
ATOM      3  C   UNL     1      64.381  33.894  60.051  1.00  0.00     0.000 C 
BRANCH   3   4
ATOM      4  C   UNL     1      64.017  34.915  61.140  1.00  0.00     0.000 C 
BRANCH   4   5
ATOM      5  C   UNL     1      63.064  36.008  60.634  1.00  0.00     0.006 C 
BRANCH   5   6
ATOM      6  C   UNL     1      61.608  35.534  60.690  1.00  0.00     0.053 C 
BRANCH   6   7
ATOM      7  C   UNL     1      60.948  35.711  59.358  1.00  0.00     0.041 C 
ATOM      8  O   UNL     1      61.608  35.554  58.297  1.00  0.00    -0.550 OA
ATOM      9  O   UNL     1      59.616  36.097  59.289  1.00  0.00    -0.550 OA
ENDBRANCH   6   7
ENDBRANCH   5   6
ENDBRANCH   4   5
ENDBRANCH   3   4
ENDBRANCH   2   3
ENDBRANCH   1   2
BRANCH   1  10
ATOM     10  C   UNL     1      61.251  31.903  59.534  1.00  0.00     0.027 C 
BRANCH  10  11
ATOM     11  C   UNL     1      61.284  31.502  60.987  1.00  0.00    -0.031 C 
ATOM     12  C   UNL     1      60.805  30.340  61.469  1.00  0.00    -0.031 C 
BRANCH  12  13
ATOM     13  C   UNL     1      60.079  29.303  60.647  1.00  0.00     0.027 C 
BRANCH  13  14
ATOM     14  C   UNL     1      61.035  28.237  60.084  1.00  0.00     0.004 C 
BRANCH  14  15
ATOM     15  C   UNL     1      62.074  27.715  61.097  1.00  0.00     0.000 C 
BRANCH  15  16
ATOM     16  C   UNL     1      63.524  27.650  60.576  1.00  0.00    -0.000 C 
BRANCH  16  17
ATOM     17  C   UNL     1      64.096  28.991  60.084  1.00  0.00    -0.003 C 
ATOM     18  C   UNL     1      65.577  29.164  60.415  1.00  0.00     0.004 C 
ENDBRANCH  16  17
ENDBRANCH  15  16
ENDBRANCH  14  15
ENDBRANCH  13  14
ENDBRANCH  12  13
ENDBRANCH  10  11
ENDBRANCH   1  10
TORSDOF 13
ENDMDL
MODEL 5
REMARK VINA RESULT:    -3.239     10.873     12.484
REMARK INTER + INTRA:          -7.865
REMARK INTER:                  -5.432
REMARK INTRA:                  -2.433
REMARK UNBOUND:                -2.165
REMARK SMILES CCCCCCC=CCCCCCCCC(=O)[O-]
REMARK SMILES IDX 10 1 11 2 12 3 13 4 14 5 15 6 16 7 17 8 18 9 9 10 8 11 7 12
REMARK SMILES IDX 6 13 5 14 4 15 3 16 2 17 1 18
REMARK H PARENT
REMARK Flexibility Score: inf
ROOT
ATOM      1  C   UNL     1      58.873  25.588  52.592  1.00  0.00     0.004 C 
ENDROOT
BRANCH   1   2
ATOM      2  C   UNL     1      57.831  26.609  53.077  1.00  0.00     0.000 C 
BRANCH   2   3
ATOM      3  C   UNL     1      56.561  26.606  52.207  1.00  0.00     0.000 C 
BRANCH   3   4
ATOM      4  C   UNL     1      56.760  25.861  50.877  1.00  0.00     0.000 C 
BRANCH   4   5
ATOM      5  C   UNL     1      55.929  26.461  49.732  1.00  0.00     0.006 C 
BRANCH   5   6
ATOM      6  C   UNL     1      55.443  27.869  50.088  1.00  0.00     0.053 C 
BRANCH   6   7
ATOM      7  C   UNL     1      54.026  28.062  49.648  1.00  0.00     0.041 C 
ATOM      8  O   UNL     1      53.461  29.177  49.800  1.00  0.00    -0.550 OA
ATOM      9  O   UNL     1      53.312  26.996  49.116  1.00  0.00    -0.550 OA
ENDBRANCH   6   7
ENDBRANCH   5   6
ENDBRANCH   4   5
ENDBRANCH   3   4
ENDBRANCH   2   3
ENDBRANCH   1   2
BRANCH   1  10
ATOM     10  C   UNL     1      60.215  26.244  52.237  1.00  0.00     0.027 C 
BRANCH  10  11
ATOM     11  C   UNL     1      60.885  25.507  51.105  1.00  0.00    -0.031 C 
ATOM     12  C   UNL     1      60.727  25.805  49.802  1.00  0.00    -0.031 C 
BRANCH  12  13
ATOM     13  C   UNL     1      59.787  26.859  49.269  1.00  0.00     0.027 C 
BRANCH  13  14
ATOM     14  C   UNL     1      60.522  28.159  48.902  1.00  0.00     0.004 C 
BRANCH  14  15
ATOM     15  C   UNL     1      59.811  29.446  49.368  1.00  0.00     0.000 C 
BRANCH  15  16
ATOM     16  C   UNL     1      58.649  29.233  50.358  1.00  0.00    -0.000 C 
BRANCH  16  17
ATOM     17  C   UNL     1      58.897  29.780  51.775  1.00  0.00    -0.003 C 
ATOM     18  C   UNL     1      57.642  30.372  52.414  1.00  0.00     0.004 C 
ENDBRANCH  16  17
ENDBRANCH  15  16
ENDBRANCH  14  15
ENDBRANCH  13  14
ENDBRANCH  12  13
ENDBRANCH  10  11
ENDBRANCH   1  10
TORSDOF 13
ENDMDL
MODEL 6
REMARK VINA RESULT:    -3.223      2.816      5.648
REMARK INTER + INTRA:          -7.838
REMARK INTER:                  -5.470
REMARK INTRA:                  -2.369
REMARK UNBOUND:                -2.165
REMARK SMILES CCCCCCC=CCCCCCCCC(=O)[O-]
REMARK SMILES IDX 10 1 11 2 12 3 13 4 14 5 15 6 16 7 17 8 18 9 9 10 8 11 7 12
REMARK SMILES IDX 6 13 5 14 4 15 3 16 2 17 1 18
REMARK H PARENT
REMARK Flexibility Score: inf
ROOT
ATOM      1  C   UNL     1      63.935  32.629  59.384  1.00  0.00     0.004 C 
ENDROOT
BRANCH   1   2
ATOM      2  C   UNL     1      63.175  33.393  58.288  1.00  0.00     0.000 C 
BRANCH   2   3
ATOM      3  C   UNL     1      62.011  34.225  58.856  1.00  0.00     0.000 C 
BRANCH   3   4
ATOM      4  C   UNL     1      62.131  34.449  60.372  1.00  0.00     0.000 C 
BRANCH   4   5
ATOM      5  C   UNL     1      62.594  35.870  60.727  1.00  0.00     0.006 C 
BRANCH   5   6
ATOM      6  C   UNL     1      63.985  35.847  61.370  1.00  0.00     0.053 C 
BRANCH   6   7
ATOM      7  C   UNL     1      65.045  36.048  60.332  1.00  0.00     0.041 C 
ATOM      8  O   UNL     1      64.751  36.544  59.213  1.00  0.00    -0.550 OA
ATOM      9  O   UNL     1      66.349  35.641  60.584  1.00  0.00    -0.550 OA
ENDBRANCH   6   7
ENDBRANCH   5   6
ENDBRANCH   4   5
ENDBRANCH   3   4
ENDBRANCH   2   3
ENDBRANCH   1   2
BRANCH   1  10
ATOM     10  C   UNL     1      64.068  31.132  59.071  1.00  0.00     0.027 C 
BRANCH  10  11
ATOM     11  C   UNL     1      64.685  30.397  60.234  1.00  0.00    -0.031 C 
ATOM     12  C   UNL     1      64.040  29.492  60.993  1.00  0.00    -0.031 C 
BRANCH  12  13
ATOM     13  C   UNL     1      62.578  29.140  60.856  1.00  0.00     0.027 C 
BRANCH  13  14
ATOM     14  C   UNL     1      61.677  30.084  61.670  1.00  0.00     0.004 C 
BRANCH  14  15
ATOM     15  C   UNL     1      60.768  30.991  60.816  1.00  0.00     0.000 C 
BRANCH  15  16
ATOM     16  C   UNL     1      60.395  30.429  59.430  1.00  0.00    -0.000 C 
BRANCH  16  17
ATOM     17  C   UNL     1      59.745  31.444  58.473  1.00  0.00    -0.003 C 
ATOM     18  C   UNL     1      60.296  31.361  57.052  1.00  0.00     0.004 C 
ENDBRANCH  16  17
ENDBRANCH  15  16
ENDBRANCH  14  15
ENDBRANCH  13  14
ENDBRANCH  12  13
ENDBRANCH  10  11
ENDBRANCH   1  10
TORSDOF 13
ENDMDL
MODEL 7
REMARK VINA RESULT:    -3.214     11.410     13.568
REMARK INTER + INTRA:          -7.821
REMARK INTER:                  -6.107
REMARK INTRA:                  -1.714
REMARK UNBOUND:                -2.165
REMARK SMILES CCCCCCC=CCCCCCCCC(=O)[O-]
REMARK SMILES IDX 10 1 11 2 12 3 13 4 14 5 15 6 16 7 17 8 18 9 9 10 8 11 7 12
REMARK SMILES IDX 6 13 5 14 4 15 3 16 2 17 1 18
REMARK H PARENT
REMARK Flexibility Score: inf
ROOT
ATOM      1  C   UNL     1      58.965  29.619  50.856  1.00  0.00     0.004 C 
ENDROOT
BRANCH   1   2
ATOM      2  C   UNL     1      57.592  29.154  51.370  1.00  0.00     0.000 C 
BRANCH   2   3
ATOM      3  C   UNL     1      56.725  28.550  50.252  1.00  0.00     0.000 C 
BRANCH   3   4
ATOM      4  C   UNL     1      55.307  29.140  50.220  1.00  0.00     0.000 C 
BRANCH   4   5
ATOM      5  C   UNL     1      54.217  28.061  50.124  1.00  0.00     0.006 C 
BRANCH   5   6
ATOM      6  C   UNL     1      54.810  26.726  49.662  1.00  0.00     0.053 C 
BRANCH   6   7
ATOM      7  C   UNL     1      53.881  25.599  49.991  1.00  0.00     0.041 C 
ATOM      8  O   UNL     1      53.874  24.557  49.284  1.00  0.00    -0.550 OA
ATOM      9  O   UNL     1      52.990  25.719  51.049  1.00  0.00    -0.550 OA
ENDBRANCH   6   7
ENDBRANCH   5   6
ENDBRANCH   4   5
ENDBRANCH   3   4
ENDBRANCH   2   3
ENDBRANCH   1   2
BRANCH   1  10
ATOM     10  C   UNL     1      59.242  29.154  49.419  1.00  0.00     0.027 C 
BRANCH  10  11
ATOM     11  C   UNL     1      60.471  28.282  49.370  1.00  0.00    -0.031 C 
ATOM     12  C   UNL     1      60.451  26.937  49.338  1.00  0.00    -0.031 C 
BRANCH  12  13
ATOM     13  C   UNL     1      59.203  26.093  49.440  1.00  0.00     0.027 C 
BRANCH  13  14
ATOM     14  C   UNL     1      58.921  25.648  50.886  1.00  0.00     0.004 C 
BRANCH  14  15
ATOM     15  C   UNL     1      60.160  25.137  51.648  1.00  0.00     0.000 C 
BRANCH  15  16
ATOM     16  C   UNL     1      60.396  23.616  51.574  1.00  0.00    -0.000 C 
BRANCH  16  17
ATOM     17  C   UNL     1      61.651  23.193  50.790  1.00  0.00    -0.003 C 
ATOM     18  C   UNL     1      61.357  22.853  49.331  1.00  0.00     0.004 C 
ENDBRANCH  16  17
ENDBRANCH  15  16
ENDBRANCH  14  15
ENDBRANCH  13  14
ENDBRANCH  12  13
ENDBRANCH  10  11
ENDBRANCH   1  10
TORSDOF 13
ENDMDL
MODEL 8
REMARK VINA RESULT:    -3.206     11.084     12.987
REMARK INTER + INTRA:          -7.808
REMARK INTER:                  -5.417
REMARK INTRA:                  -2.391
REMARK UNBOUND:                -2.165
REMARK SMILES CCCCCCC=CCCCCCCCC(=O)[O-]
REMARK SMILES IDX 10 1 11 2 12 3 13 4 14 5 15 6 16 7 17 8 18 9 9 10 8 11 7 12
REMARK SMILES IDX 6 13 5 14 4 15 3 16 2 17 1 18
REMARK H PARENT
REMARK Flexibility Score: inf
ROOT
ATOM      1  C   UNL     1      55.085  25.858  49.550  1.00  0.00     0.004 C 
ENDROOT
BRANCH   1   2
ATOM      2  C   UNL     1      53.980  26.674  50.241  1.00  0.00     0.000 C 
BRANCH   2   3
ATOM      3  C   UNL     1      53.610  27.941  49.449  1.00  0.00     0.000 C 
BRANCH   3   4
ATOM      4  C   UNL     1      53.673  29.213  50.308  1.00  0.00     0.000 C 
BRANCH   4   5
ATOM      5  C   UNL     1      53.550  28.920  51.811  1.00  0.00     0.006 C 
BRANCH   5   6
ATOM      6  C   UNL     1      53.273  30.205  52.598  1.00  0.00     0.053 C 
BRANCH   6   7
ATOM      7  C   UNL     1      54.551  30.931  52.884  1.00  0.00     0.041 C 
ATOM      8  O   UNL     1      54.845  31.974  52.243  1.00  0.00    -0.550 OA
ATOM      9  O   UNL     1      55.440  30.427  53.825  1.00  0.00    -0.550 OA
ENDBRANCH   6   7
ENDBRANCH   5   6
ENDBRANCH   4   5
ENDBRANCH   3   4
ENDBRANCH   2   3
ENDBRANCH   1   2
BRANCH   1  10
ATOM     10  C   UNL     1      56.473  26.496  49.709  1.00  0.00     0.027 C 
BRANCH  10  11
ATOM     11  C   UNL     1      56.782  26.741  51.164  1.00  0.00    -0.031 C 
ATOM     12  C   UNL     1      57.103  27.940  51.684  1.00  0.00    -0.031 C 
BRANCH  12  13
ATOM     13  C   UNL     1      57.295  29.203  50.879  1.00  0.00     0.027 C 
BRANCH  13  14
ATOM     14  C   UNL     1      58.781  29.554  50.696  1.00  0.00     0.004 C 
BRANCH  14  15
ATOM     15  C   UNL     1      59.276  29.489  49.237  1.00  0.00     0.000 C 
BRANCH  15  16
ATOM     16  C   UNL     1      60.141  28.261  48.890  1.00  0.00    -0.000 C 
BRANCH  16  17
ATOM     17  C   UNL     1      60.451  27.332  50.077  1.00  0.00    -0.003 C 
ATOM     18  C   UNL     1      60.176  25.861  49.771  1.00  0.00     0.004 C 
ENDBRANCH  16  17
ENDBRANCH  15  16
ENDBRANCH  14  15
ENDBRANCH  13  14
ENDBRANCH  12  13
ENDBRANCH  10  11
ENDBRANCH   1  10
TORSDOF 13
ENDMDL
MODEL 9
REMARK VINA RESULT:    -3.142     10.500     12.315
REMARK INTER + INTRA:          -7.696
REMARK INTER:                  -5.632
REMARK INTRA:                  -2.064
REMARK UNBOUND:                -2.165
REMARK SMILES CCCCCCC=CCCCCCCCC(=O)[O-]
REMARK SMILES IDX 10 1 11 2 12 3 13 4 14 5 15 6 16 7 17 8 18 9 9 10 8 11 7 12
REMARK SMILES IDX 6 13 5 14 4 15 3 16 2 17 1 18
REMARK H PARENT
REMARK Flexibility Score: inf
ROOT
ATOM      1  C   UNL     1      56.936  26.354  51.105  1.00  0.00     0.004 C 
ENDROOT
BRANCH   1   2
ATOM      2  C   UNL     1      57.380  27.774  51.492  1.00  0.00     0.000 C 
BRANCH   2   3
ATOM      3  C   UNL     1      57.704  28.639  50.261  1.00  0.00     0.000 C 
BRANCH   3   4
ATOM      4  C   UNL     1      58.853  29.626  50.520  1.00  0.00     0.000 C 
BRANCH   4   5
ATOM      5  C   UNL     1      60.003  29.474  49.513  1.00  0.00     0.006 C 
BRANCH   5   6
ATOM      6  C   UNL     1      60.091  28.034  48.996  1.00  0.00     0.053 C 
BRANCH   6   7
ATOM      7  C   UNL     1      61.096  27.254  49.785  1.00  0.00     0.041 C 
ATOM      8  O   UNL     1      60.773  26.735  50.885  1.00  0.00    -0.550 OA
ATOM      9  O   UNL     1      62.403  27.143  49.327  1.00  0.00    -0.550 OA
ENDBRANCH   6   7
ENDBRANCH   5   6
ENDBRANCH   4   5
ENDBRANCH   3   4
ENDBRANCH   2   3
ENDBRANCH   1   2
BRANCH   1  10
ATOM     10  C   UNL     1      56.404  26.276  49.666  1.00  0.00     0.027 C 
BRANCH  10  11
ATOM     11  C   UNL     1      54.940  25.919  49.659  1.00  0.00    -0.031 C 
ATOM     12  C   UNL     1      53.937  26.814  49.610  1.00  0.00    -0.031 C 
BRANCH  12  13
ATOM     13  C   UNL     1      54.119  28.313  49.650  1.00  0.00     0.027 C 
BRANCH  13  14
ATOM     14  C   UNL     1      53.828  28.895  51.044  1.00  0.00     0.004 C 
BRANCH  14  15
ATOM     15  C   UNL     1      54.340  30.334  51.252  1.00  0.00     0.000 C 
BRANCH  15  16
ATOM     16  C   UNL     1      54.785  30.672  52.690  1.00  0.00    -0.000 C 
BRANCH  16  17
ATOM     17  C   UNL     1      56.273  31.037  52.838  1.00  0.00    -0.003 C 
ATOM     18  C   UNL     1      56.691  31.255  54.291  1.00  0.00     0.004 C 
ENDBRANCH  16  17
ENDBRANCH  15  16
ENDBRANCH  14  15
ENDBRANCH  13  14
ENDBRANCH  12  13
ENDBRANCH  10  11
ENDBRANCH   1  10
TORSDOF 13
ENDMDL
