MODEL 1
REMARK VINA RESULT:   140.438      0.000      0.000
REMARK INTER + INTRA:         165.937
REMARK INTER:                 165.069
REMARK INTRA:                   0.868
REMARK UNBOUND:                 0.868
REMARK SMILES CC1(C)CC[C@@]2(C(=O)[O-])CC[C@]3(C)C(=CC[C@@H]4[C@@]5(C)CC[C@@H](O)[C@@](C)(CO)[C@@H]5CC[C@@]43C)[C@@H]2C1
REMARK SMILES IDX 6 1 5 2 10 3 33 4 4 5 11 6 14 7 34 8 2 9 12 10 15 11 1 12
REMARK SMILES IDX 3 13 13 14 31 15 16 16 17 17 30 18 32 19 18 20 29 21 28 22
REMARK SMILES IDX 20 23 19 24 24 25 21 26 22 27 25 28 7 29 8 30 9 31 26 32
REMARK SMILES IDX 27 33 23 35
REMARK H PARENT 27 34 23 36
REMARK Flexibility Score: inf
ROOT
ATOM      1  C   UNL     1     -31.356  29.297 -17.201  1.00  0.00     0.017 C 
ATOM      2  C   UNL     1     -32.287  29.636 -18.395  1.00  0.00     0.014 C 
ATOM      3  C   UNL     1     -32.196  28.714 -16.056  1.00  0.00     0.014 C 
ATOM      4  C   UNL     1     -30.364  28.194 -17.666  1.00  0.00     0.028 C 
ATOM      5  C   UNL     1     -31.494  30.163 -19.604  1.00  0.00     0.007 C 
ATOM      6  C   UNL     1     -31.338  28.466 -14.810  1.00  0.00     0.013 C 
ATOM      7  C   UNL     1     -29.572  27.545 -16.514  1.00  0.00    -0.064 C 
ATOM      8  C   UNL     1     -29.509  28.710 -18.865  1.00  0.00     0.015 C 
ATOM      9  C   UNL     1     -30.374  29.193 -20.070  1.00  0.00    -0.035 C 
ATOM     10  C   UNL     1     -30.027  27.602 -15.024  1.00  0.00    -0.006 C 
ATOM     11  C   UNL     1     -28.609  26.649 -16.830  1.00  0.00    -0.027 C 
ATOM     12  C   UNL     1     -30.991  27.988 -20.822  1.00  0.00     0.011 C 
ATOM     13  C   UNL     1     -29.457  29.944 -21.060  1.00  0.00     0.011 C 
ATOM     14  C   UNL     1     -28.885  28.311 -14.206  1.00  0.00     0.017 C 
ATOM     15  C   UNL     1     -30.238  26.089 -14.500  1.00  0.00    -0.020 C 
ATOM     16  C   UNL     1     -27.923  25.831 -15.786  1.00  0.00     0.032 C 
ATOM     17  C   UNL     1     -28.944  25.176 -14.806  1.00  0.00     0.006 C 
ATOM     18  C   UNL     1     -31.485  25.462 -15.209  1.00  0.00     0.008 C 
ATOM     19  C   UNL     1     -30.537  26.111 -12.949  1.00  0.00     0.012 C 
ATOM     20  C   UNL     1     -29.234  23.640 -15.172  1.00  0.00    -0.025 C 
ATOM     21  C   UNL     1     -31.768  23.981 -14.881  1.00  0.00     0.005 C 
ATOM     22  C   UNL     1     -30.530  23.177 -14.416  1.00  0.00     0.006 C 
ATOM     23  C   UNL     1     -28.023  22.790 -14.668  1.00  0.00     0.010 C 
ATOM     24  C   UNL     1     -29.379  23.456 -16.719  1.00  0.00     0.012 C 
ATOM     25  C   UNL     1     -30.789  21.611 -14.243  1.00  0.00     0.020 C 
ATOM     26  C   UNL     1     -28.278  21.282 -14.688  1.00  0.00     0.033 C 
ATOM     27  C   UNL     1     -29.467  20.904 -13.791  1.00  0.00     0.123 C 
ATOM     28  C   UNL     1     -31.310  20.885 -15.521  1.00  0.00     0.017 C 
ENDROOT
BRANCH   1  29
ATOM     29  C   UNL     1     -30.682  30.588 -16.727  1.00  0.00     0.048 C 
ATOM     30  O   UNL     1     -31.300  31.684 -16.714  1.00  0.00    -0.550 OA
ATOM     31  O   UNL     1     -29.339  30.576 -16.368  1.00  0.00    -0.550 OA
ENDBRANCH   1  29
BRANCH  25  32
ATOM     32  C   UNL     1     -31.898  21.371 -13.163  1.00  0.00     0.165 C 
BRANCH  32  33
ATOM     33  O   UNL     1     -31.373  20.875 -11.960  1.00  0.00    -0.396 OA
ATOM     34  H   UNL     1     -30.942  21.646 -11.506  1.00  0.00     0.210 HD
ENDBRANCH  32  33
ENDBRANCH  25  32
BRANCH  27  35
ATOM     35  O   UNL     1     -29.143  21.233 -12.459  1.00  0.00    -0.392 OA
ATOM     36  H   UNL     1     -29.978  21.174 -11.926  1.00  0.00     0.210 HD
ENDBRANCH  27  35
TORSDOF 4
ENDMDL
