MODEL 1
REMARK VINA RESULT:    -5.555      0.000      0.000
REMARK INTER + INTRA:          -5.976
REMARK INTER:                  -5.879
REMARK INTRA:                  -0.096
REMARK UNBOUND:                -0.096
REMARK SMILES C=C(C)[C@H]1CC=C(C)C(=O)C1
REMARK SMILES IDX 8 1 7 2 6 3 5 4 4 5 11 6 9 7 10 8 2 9 1 10 3 11
REMARK H PARENT
REMARK Flexibility Score: inf
ROOT
ATOM      1  C   UNL     1      16.581  18.907  27.820  1.00  0.00     0.048 C 
ATOM      2  C   UNL     1      15.614  17.894  27.274  1.00  0.00    -0.012 C 
ATOM      3  C   UNL     1      14.981  17.052  28.110  1.00  0.00    -0.019 C 
ATOM      4  C   UNL     1      14.017  16.007  27.614  1.00  0.00     0.036 C 
ATOM      5  C   UNL     1      13.268  16.495  26.360  1.00  0.00     0.025 C 
ATOM      6  C   UNL     1      14.270  16.927  25.274  1.00  0.00     0.089 C 
ATOM      7  C   UNL     1      15.265  17.907  25.831  1.00  0.00     0.158 C 
ATOM      8  O   UNL     1      15.830  18.719  25.050  1.00  0.00    -0.295 OA
ENDROOT
BRANCH   5   9
ATOM      9  C   UNL     1      12.304  15.437  25.840  1.00  0.00    -0.077 C 
ATOM     10  C   UNL     1      11.637  15.639  24.693  1.00  0.00     0.008 C 
ATOM     11  C   UNL     1      12.078  14.146  26.587  1.00  0.00     0.039 C 
ENDBRANCH   5   9
TORSDOF 1
ENDMDL
MODEL 2
REMARK VINA RESULT:    -5.291      2.044      4.648
REMARK INTER + INTRA:          -5.697
REMARK INTER:                  -5.598
REMARK INTRA:                  -0.098
REMARK UNBOUND:                -0.096
REMARK SMILES C=C(C)[C@H]1CC=C(C)C(=O)C1
REMARK SMILES IDX 8 1 7 2 6 3 5 4 4 5 11 6 9 7 10 8 2 9 1 10 3 11
REMARK H PARENT
REMARK Flexibility Score: inf
ROOT
ATOM      1  C   UNL     1      11.280  14.291  25.591  1.00  0.00     0.048 C 
ATOM      2  C   UNL     1      12.473  15.198  25.708  1.00  0.00    -0.012 C 
ATOM      3  C   UNL     1      12.521  16.337  24.995  1.00  0.00    -0.019 C 
ATOM      4  C   UNL     1      13.700  17.272  25.061  1.00  0.00     0.036 C 
ATOM      5  C   UNL     1      14.343  17.254  26.461  1.00  0.00     0.025 C 
ATOM      6  C   UNL     1      14.717  15.815  26.858  1.00  0.00     0.089 C 
ATOM      7  C   UNL     1      13.536  14.899  26.700  1.00  0.00     0.158 C 
ATOM      8  O   UNL     1      13.475  13.849  27.396  1.00  0.00    -0.295 OA
ENDROOT
BRANCH   5   9
ATOM      9  C   UNL     1      15.548  18.183  26.531  1.00  0.00    -0.077 C 
ATOM     10  C   UNL     1      16.085  18.676  25.403  1.00  0.00     0.008 C 
ATOM     11  C   UNL     1      16.164  18.573  27.852  1.00  0.00     0.039 C 
ENDBRANCH   5   9
TORSDOF 1
ENDMDL
MODEL 3
REMARK VINA RESULT:    -5.184      1.744      2.901
REMARK INTER + INTRA:          -5.583
REMARK INTER:                  -5.487
REMARK INTRA:                  -0.096
REMARK UNBOUND:                -0.096
REMARK SMILES C=C(C)[C@H]1CC=C(C)C(=O)C1
REMARK SMILES IDX 8 1 7 2 6 3 5 4 4 5 11 6 9 7 10 8 2 9 1 10 3 11
REMARK H PARENT
REMARK Flexibility Score: inf
ROOT
ATOM      1  C   UNL     1      15.377  19.009  24.266  1.00  0.00     0.048 C 
ATOM      2  C   UNL     1      15.022  17.839  25.142  1.00  0.00    -0.012 C 
ATOM      3  C   UNL     1      14.468  16.741  24.599  1.00  0.00    -0.019 C 
ATOM      4  C   UNL     1      14.078  15.549  25.432  1.00  0.00     0.036 C 
ATOM      5  C   UNL     1      15.028  15.376  26.632  1.00  0.00     0.025 C 
ATOM      6  C   UNL     1      15.085  16.672  27.460  1.00  0.00     0.089 C 
ATOM      7  C   UNL     1      15.397  17.849  26.578  1.00  0.00     0.158 C 
ATOM      8  O   UNL     1      15.949  18.864  27.081  1.00  0.00    -0.295 OA
ENDROOT
BRANCH   5   9
ATOM      9  C   UNL     1      14.629  14.183  27.491  1.00  0.00    -0.077 C 
ATOM     10  C   UNL     1      13.428  14.156  28.089  1.00  0.00     0.008 C 
ATOM     11  C   UNL     1      15.558  13.011  27.689  1.00  0.00     0.039 C 
ENDBRANCH   5   9
TORSDOF 1
ENDMDL
MODEL 4
REMARK VINA RESULT:    -5.137      1.821      4.280
REMARK INTER + INTRA:          -5.533
REMARK INTER:                  -5.435
REMARK INTRA:                  -0.098
REMARK UNBOUND:                -0.096
REMARK SMILES C=C(C)[C@H]1CC=C(C)C(=O)C1
REMARK SMILES IDX 8 1 7 2 6 3 5 4 4 5 11 6 9 7 10 8 2 9 1 10 3 11
REMARK H PARENT
REMARK Flexibility Score: inf
ROOT
ATOM      1  C   UNL     1      11.279  14.066  27.209  1.00  0.00     0.048 C 
ATOM      2  C   UNL     1      12.235  15.218  27.068  1.00  0.00    -0.012 C 
ATOM      3  C   UNL     1      12.970  15.611  28.124  1.00  0.00    -0.019 C 
ATOM      4  C   UNL     1      13.929  16.769  28.042  1.00  0.00     0.036 C 
ATOM      5  C   UNL     1      14.547  16.878  26.635  1.00  0.00     0.025 C 
ATOM      6  C   UNL     1      13.439  16.962  25.570  1.00  0.00     0.089 C 
ATOM      7  C   UNL     1      12.458  15.836  25.737  1.00  0.00     0.158 C 
ATOM      8  O   UNL     1      11.796  15.444  24.739  1.00  0.00    -0.295 OA
ENDROOT
BRANCH   5   9
ATOM      9  C   UNL     1      15.504  18.059  26.538  1.00  0.00    -0.077 C 
ATOM     10  C   UNL     1      15.757  18.625  25.348  1.00  0.00     0.008 C 
ATOM     11  C   UNL     1      16.185  18.621  27.762  1.00  0.00     0.039 C 
ENDBRANCH   5   9
TORSDOF 1
ENDMDL
MODEL 5
REMARK VINA RESULT:    -4.744      1.510      2.216
REMARK INTER + INTRA:          -5.117
REMARK INTER:                  -5.019
REMARK INTRA:                  -0.098
REMARK UNBOUND:                -0.096
REMARK SMILES C=C(C)[C@H]1CC=C(C)C(=O)C1
REMARK SMILES IDX 8 1 7 2 6 3 5 4 4 5 11 6 9 7 10 8 2 9 1 10 3 11
REMARK H PARENT
REMARK Flexibility Score: inf
ROOT
ATOM      1  C   UNL     1      16.110  18.616  25.497  1.00  0.00     0.048 C 
ATOM      2  C   UNL     1      14.874  17.779  25.675  1.00  0.00    -0.012 C 
ATOM      3  C   UNL     1      14.263  17.250  24.601  1.00  0.00    -0.019 C 
ATOM      4  C   UNL     1      13.013  16.419  24.722  1.00  0.00     0.036 C 
ATOM      5  C   UNL     1      13.003  15.620  26.039  1.00  0.00     0.025 C 
ATOM      6  C   UNL     1      13.193  16.566  27.239  1.00  0.00     0.089 C 
ATOM      7  C   UNL     1      14.404  17.435  27.041  1.00  0.00     0.158 C 
ATOM      8  O   UNL     1      14.998  17.900  28.051  1.00  0.00    -0.295 OA
ENDROOT
BRANCH   5   9
ATOM      9  C   UNL     1      11.733  14.792  26.179  1.00  0.00    -0.077 C 
ATOM     10  C   UNL     1      10.924  14.618  25.122  1.00  0.00     0.008 C 
ATOM     11  C   UNL     1      11.355  14.148  27.490  1.00  0.00     0.039 C 
ENDBRANCH   5   9
TORSDOF 1
ENDMDL
MODEL 6
REMARK VINA RESULT:    -4.544      1.394      1.957
REMARK INTER + INTRA:          -4.906
REMARK INTER:                  -4.819
REMARK INTRA:                  -0.088
REMARK UNBOUND:                -0.096
REMARK SMILES C=C(C)[C@H]1CC=C(C)C(=O)C1
REMARK SMILES IDX 8 1 7 2 6 3 5 4 4 5 11 6 9 7 10 8 2 9 1 10 3 11
REMARK H PARENT
REMARK Flexibility Score: inf
ROOT
ATOM      1  C   UNL     1      16.094  18.998  25.257  1.00  0.00     0.048 C 
ATOM      2  C   UNL     1      15.359  17.847  25.886  1.00  0.00    -0.012 C 
ATOM      3  C   UNL     1      15.384  17.685  27.221  1.00  0.00    -0.019 C 
ATOM      4  C   UNL     1      14.680  16.540  27.900  1.00  0.00     0.036 C 
ATOM      5  C   UNL     1      13.402  16.144  27.136  1.00  0.00     0.025 C 
ATOM      6  C   UNL     1      13.733  15.835  25.665  1.00  0.00     0.089 C 
ATOM      7  C   UNL     1      14.506  16.967  25.048  1.00  0.00     0.158 C 
ATOM      8  O   UNL     1      14.452  17.139  23.800  1.00  0.00    -0.295 OA
ENDROOT
BRANCH   5   9
ATOM      9  C   UNL     1      12.694  14.974  27.806  1.00  0.00    -0.077 C 
ATOM     10  C   UNL     1      11.393  15.068  28.125  1.00  0.00     0.008 C 
ATOM     11  C   UNL     1      13.423  13.692  28.124  1.00  0.00     0.039 C 
ENDBRANCH   5   9
TORSDOF 1
ENDMDL
MODEL 7
REMARK VINA RESULT:    -4.512      2.183      4.319
REMARK INTER + INTRA:          -4.872
REMARK INTER:                  -4.773
REMARK INTRA:                  -0.099
REMARK UNBOUND:                -0.096
REMARK SMILES C=C(C)[C@H]1CC=C(C)C(=O)C1
REMARK SMILES IDX 8 1 7 2 6 3 5 4 4 5 11 6 9 7 10 8 2 9 1 10 3 11
REMARK H PARENT
REMARK Flexibility Score: inf
ROOT
ATOM      1  C   UNL     1      13.864  15.802  27.743  1.00  0.00     0.048 C 
ATOM      2  C   UNL     1      14.462  16.606  26.622  1.00  0.00    -0.012 C 
ATOM      3  C   UNL     1      14.070  16.383  25.355  1.00  0.00    -0.019 C 
ATOM      4  C   UNL     1      14.649  17.146  24.193  1.00  0.00     0.036 C 
ATOM      5  C   UNL     1      15.019  18.584  24.604  1.00  0.00     0.025 C 
ATOM      6  C   UNL     1      15.964  18.565  25.819  1.00  0.00     0.089 C 
ATOM      7  C   UNL     1      15.388  17.726  26.925  1.00  0.00     0.158 C 
ATOM      8  O   UNL     1      15.729  17.961  28.116  1.00  0.00    -0.295 OA
ENDROOT
BRANCH   5   9
ATOM      9  C   UNL     1      15.623  19.357  23.440  1.00  0.00    -0.077 C 
ATOM     10  C   UNL     1      16.743  20.075  23.617  1.00  0.00     0.008 C 
ATOM     11  C   UNL     1      14.990  19.337  22.070  1.00  0.00     0.039 C 
ENDBRANCH   5   9
TORSDOF 1
ENDMDL
MODEL 8
REMARK VINA RESULT:    -4.161      2.196      4.210
REMARK INTER + INTRA:          -4.500
REMARK INTER:                  -4.404
REMARK INTRA:                  -0.097
REMARK UNBOUND:                -0.096
REMARK SMILES C=C(C)[C@H]1CC=C(C)C(=O)C1
REMARK SMILES IDX 8 1 7 2 6 3 5 4 4 5 11 6 9 7 10 8 2 9 1 10 3 11
REMARK H PARENT
REMARK Flexibility Score: inf
ROOT
ATOM      1  C   UNL     1      14.006  15.711  28.125  1.00  0.00     0.048 C 
ATOM      2  C   UNL     1      14.340  16.724  27.064  1.00  0.00    -0.012 C 
ATOM      3  C   UNL     1      15.369  17.570  27.246  1.00  0.00    -0.019 C 
ATOM      4  C   UNL     1      15.734  18.614  26.224  1.00  0.00     0.036 C 
ATOM      5  C   UNL     1      15.432  18.121  24.796  1.00  0.00     0.025 C 
ATOM      6  C   UNL     1      13.961  17.684  24.682  1.00  0.00     0.089 C 
ATOM      7  C   UNL     1      13.614  16.705  25.769  1.00  0.00     0.158 C 
ATOM      8  O   UNL     1      12.673  15.888  25.582  1.00  0.00    -0.295 OA
ENDROOT
BRANCH   5   9
ATOM      9  C   UNL     1      15.782  19.179  23.758  1.00  0.00    -0.077 C 
ATOM     10  C   UNL     1      16.797  20.029  23.978  1.00  0.00     0.008 C 
ATOM     11  C   UNL     1      15.009  19.298  22.467  1.00  0.00     0.039 C 
ENDBRANCH   5   9
TORSDOF 1
ENDMDL
MODEL 9
REMARK VINA RESULT:    -3.748      2.839      4.340
REMARK INTER + INTRA:          -4.063
REMARK INTER:                  -3.969
REMARK INTRA:                  -0.094
REMARK UNBOUND:                -0.096
REMARK SMILES C=C(C)[C@H]1CC=C(C)C(=O)C1
REMARK SMILES IDX 8 1 7 2 6 3 5 4 4 5 11 6 9 7 10 8 2 9 1 10 3 11
REMARK H PARENT
REMARK Flexibility Score: inf
ROOT
ATOM      1  C   UNL     1      14.929  12.015  28.125  1.00  0.00     0.048 C 
ATOM      2  C   UNL     1      14.771  13.459  27.737  1.00  0.00    -0.012 C 
ATOM      3  C   UNL     1      15.855  14.248  27.636  1.00  0.00    -0.019 C 
ATOM      4  C   UNL     1      15.751  15.704  27.269  1.00  0.00     0.036 C 
ATOM      5  C   UNL     1      14.572  15.951  26.309  1.00  0.00     0.025 C 
ATOM      6  C   UNL     1      13.266  15.409  26.917  1.00  0.00     0.089 C 
ATOM      7  C   UNL     1      13.436  13.978  27.345  1.00  0.00     0.158 C 
ATOM      8  O   UNL     1      12.424  13.229  27.404  1.00  0.00    -0.295 OA
ENDROOT
BRANCH   5   9
ATOM      9  C   UNL     1      14.448  17.425  25.948  1.00  0.00    -0.077 C 
ATOM     10  C   UNL     1      15.522  18.105  25.517  1.00  0.00     0.008 C 
ATOM     11  C   UNL     1      13.131  18.154  26.058  1.00  0.00     0.039 C 
ENDBRANCH   5   9
TORSDOF 1
ENDMDL
