MODEL 1
REMARK VINA RESULT:    -4.488      0.000      0.000
REMARK INTER + INTRA:          -5.847
REMARK INTER:                  -5.800
REMARK INTRA:                  -0.048
REMARK UNBOUND:                -0.048
REMARK SMILES CCCCCCC(=O)[O-]
REMARK SMILES IDX 5 1 6 2 7 3 8 4 9 5 4 6 3 7 2 8 1 9
REMARK H PARENT
REMARK Flexibility Score: inf
ROOT
ATOM      1  C   UNL     1       7.724  -8.599  22.604  1.00  0.00     0.006 C 
ENDROOT
BRANCH   1   2
ATOM      2  C   UNL     1       8.867  -8.574  23.627  1.00  0.00     0.053 C 
BRANCH   2   3
ATOM      3  C   UNL     1      10.155  -9.056  23.034  1.00  0.00     0.041 C 
ATOM      4  O   UNL     1      10.618 -10.183  23.351  1.00  0.00    -0.550 OA
ATOM      5  O   UNL     1      10.831  -8.270  22.109  1.00  0.00    -0.550 OA
ENDBRANCH   2   3
ENDBRANCH   1   2
BRANCH   1   6
ATOM      6  C   UNL     1       7.871  -9.753  21.597  1.00  0.00     0.000 C 
BRANCH   6   7
ATOM      7  C   UNL     1       6.551 -10.093  20.890  1.00  0.00    -0.000 C 
BRANCH   7   8
ATOM      8  C   UNL     1       6.739 -10.400  19.397  1.00  0.00    -0.003 C 
ATOM      9  C   UNL     1       8.080  -9.874  18.892  1.00  0.00     0.004 C 
ENDBRANCH   7   8
ENDBRANCH   6   7
ENDBRANCH   1   6
TORSDOF 5
ENDMDL
MODEL 2
REMARK VINA RESULT:    -4.366      9.962     11.385
REMARK INTER + INTRA:          -5.689
REMARK INTER:                  -5.532
REMARK INTRA:                  -0.157
REMARK UNBOUND:                -0.048
REMARK SMILES CCCCCCC(=O)[O-]
REMARK SMILES IDX 5 1 6 2 7 3 8 4 9 5 4 6 3 7 2 8 1 9
REMARK H PARENT
REMARK Flexibility Score: inf
ROOT
ATOM      1  C   UNL     1      13.764  -3.436  16.626  1.00  0.00     0.006 C 
ENDROOT
BRANCH   1   2
ATOM      2  C   UNL     1      13.840  -3.319  15.098  1.00  0.00     0.053 C 
BRANCH   2   3
ATOM      3  C   UNL     1      12.621  -2.660  14.529  1.00  0.00     0.041 C 
ATOM      4  O   UNL     1      11.473  -3.021  14.900  1.00  0.00    -0.550 OA
ATOM      5  O   UNL     1      12.754  -1.628  13.610  1.00  0.00    -0.550 OA
ENDBRANCH   2   3
ENDBRANCH   1   2
BRANCH   1   6
ATOM      6  C   UNL     1      15.085  -3.036  17.306  1.00  0.00     0.000 C 
BRANCH   6   7
ATOM      7  C   UNL     1      16.314  -3.639  16.610  1.00  0.00    -0.000 C 
BRANCH   7   8
ATOM      8  C   UNL     1      17.631  -3.282  17.316  1.00  0.00    -0.003 C 
ATOM      9  C   UNL     1      17.388  -2.908  18.776  1.00  0.00     0.004 C 
ENDBRANCH   7   8
ENDBRANCH   6   7
ENDBRANCH   1   6
TORSDOF 5
ENDMDL
MODEL 3
REMARK VINA RESULT:    -4.322      9.783     10.815
REMARK INTER + INTRA:          -5.633
REMARK INTER:                  -5.380
REMARK INTRA:                  -0.253
REMARK UNBOUND:                -0.048
REMARK SMILES CCCCCCC(=O)[O-]
REMARK SMILES IDX 5 1 6 2 7 3 8 4 9 5 4 6 3 7 2 8 1 9
REMARK H PARENT
REMARK Flexibility Score: inf
ROOT
ATOM      1  C   UNL     1      15.240  -4.087  15.841  1.00  0.00     0.006 C 
ENDROOT
BRANCH   1   2
ATOM      2  C   UNL     1      14.726  -5.527  15.719  1.00  0.00     0.053 C 
BRANCH   2   3
ATOM      3  C   UNL     1      15.848  -6.520  15.722  1.00  0.00     0.041 C 
ATOM      4  O   UNL     1      15.769  -7.570  15.032  1.00  0.00    -0.550 OA
ATOM      5  O   UNL     1      16.994  -6.272  16.467  1.00  0.00    -0.550 OA
ENDBRANCH   2   3
ENDBRANCH   1   2
BRANCH   1   6
ATOM      6  C   UNL     1      14.513  -3.302  16.947  1.00  0.00     0.000 C 
BRANCH   6   7
ATOM      7  C   UNL     1      15.482  -2.586  17.899  1.00  0.00    -0.000 C 
BRANCH   7   8
ATOM      8  C   UNL     1      16.948  -2.982  17.662  1.00  0.00    -0.003 C 
ATOM      9  C   UNL     1      17.735  -2.987  18.969  1.00  0.00     0.004 C 
ENDBRANCH   7   8
ENDBRANCH   6   7
ENDBRANCH   1   6
TORSDOF 5
ENDMDL
MODEL 4
REMARK VINA RESULT:    -4.252     11.092     12.157
REMARK INTER + INTRA:          -5.543
REMARK INTER:                  -5.306
REMARK INTRA:                  -0.237
REMARK UNBOUND:                -0.048
REMARK SMILES CCCCCCC(=O)[O-]
REMARK SMILES IDX 5 1 6 2 7 3 8 4 9 5 4 6 3 7 2 8 1 9
REMARK H PARENT
REMARK Flexibility Score: inf
ROOT
ATOM      1  C   UNL     1      17.786  -3.800  17.422  1.00  0.00     0.006 C 
ENDROOT
BRANCH   1   2
ATOM      2  C   UNL     1      18.942  -3.164  16.640  1.00  0.00     0.053 C 
BRANCH   2   3
ATOM      3  C   UNL     1      18.922  -3.561  15.196  1.00  0.00     0.041 C 
ATOM      4  O   UNL     1      18.186  -2.949  14.378  1.00  0.00    -0.550 OA
ATOM      5  O   UNL     1      19.739  -4.591  14.748  1.00  0.00    -0.550 OA
ENDBRANCH   2   3
ENDBRANCH   1   2
BRANCH   1   6
ATOM      6  C   UNL     1      17.061  -2.782  18.319  1.00  0.00     0.000 C 
BRANCH   6   7
ATOM      7  C   UNL     1      15.590  -2.587  17.923  1.00  0.00    -0.000 C 
BRANCH   7   8
ATOM      8  C   UNL     1      15.191  -3.420  16.696  1.00  0.00    -0.003 C 
ATOM      9  C   UNL     1      13.678  -3.613  16.630  1.00  0.00     0.004 C 
ENDBRANCH   7   8
ENDBRANCH   6   7
ENDBRANCH   1   6
TORSDOF 5
ENDMDL
MODEL 5
REMARK VINA RESULT:    -4.249     12.755     13.617
REMARK INTER + INTRA:          -5.539
REMARK INTER:                  -5.372
REMARK INTRA:                  -0.167
REMARK UNBOUND:                -0.048
REMARK SMILES CCCCCCC(=O)[O-]
REMARK SMILES IDX 5 1 6 2 7 3 8 4 9 5 4 6 3 7 2 8 1 9
REMARK H PARENT
REMARK Flexibility Score: inf
ROOT
ATOM      1  C   UNL     1      16.043  -5.571  11.152  1.00  0.00     0.006 C 
ENDROOT
BRANCH   1   2
ATOM      2  C   UNL     1      17.495  -5.961  11.458  1.00  0.00     0.053 C 
BRANCH   2   3
ATOM      3  C   UNL     1      18.058  -5.160  12.592  1.00  0.00     0.041 C 
ATOM      4  O   UNL     1      19.297  -4.948  12.665  1.00  0.00    -0.550 OA
ATOM      5  O   UNL     1      17.211  -4.625  13.553  1.00  0.00    -0.550 OA
ENDBRANCH   2   3
ENDBRANCH   1   2
BRANCH   1   6
ATOM      6  C   UNL     1      15.738  -5.603   9.644  1.00  0.00     0.000 C 
BRANCH   6   7
ATOM      7  C   UNL     1      14.232  -5.608   9.345  1.00  0.00    -0.000 C 
BRANCH   7   8
ATOM      8  C   UNL     1      13.375  -5.469  10.614  1.00  0.00    -0.003 C 
ATOM      9  C   UNL     1      12.310  -4.390  10.442  1.00  0.00     0.004 C 
ENDBRANCH   7   8
ENDBRANCH   6   7
ENDBRANCH   1   6
TORSDOF 5
ENDMDL
MODEL 6
REMARK VINA RESULT:    -4.220      9.896     10.775
REMARK INTER + INTRA:          -5.501
REMARK INTER:                  -5.369
REMARK INTRA:                  -0.131
REMARK UNBOUND:                -0.048
REMARK SMILES CCCCCCC(=O)[O-]
REMARK SMILES IDX 5 1 6 2 7 3 8 4 9 5 4 6 3 7 2 8 1 9
REMARK H PARENT
REMARK Flexibility Score: inf
ROOT
ATOM      1  C   UNL     1      14.913  -2.981  17.372  1.00  0.00     0.006 C 
ENDROOT
BRANCH   1   2
ATOM      2  C   UNL     1      16.300  -3.135  16.733  1.00  0.00     0.053 C 
BRANCH   2   3
ATOM      3  C   UNL     1      17.396  -3.007  17.747  1.00  0.00     0.041 C 
ATOM      4  O   UNL     1      17.119  -2.870  18.967  1.00  0.00    -0.550 OA
ATOM      5  O   UNL     1      18.724  -3.069  17.345  1.00  0.00    -0.550 OA
ENDBRANCH   2   3
ENDBRANCH   1   2
BRANCH   1   6
ATOM      6  C   UNL     1      13.823  -3.721  16.578  1.00  0.00     0.000 C 
BRANCH   6   7
ATOM      7  C   UNL     1      13.772  -3.294  15.103  1.00  0.00    -0.000 C 
BRANCH   7   8
ATOM      8  C   UNL     1      12.420  -2.678  14.710  1.00  0.00    -0.003 C 
ATOM      9  C   UNL     1      12.572  -1.734  13.520  1.00  0.00     0.004 C 
ENDBRANCH   7   8
ENDBRANCH   6   7
ENDBRANCH   1   6
TORSDOF 5
ENDMDL
MODEL 7
REMARK VINA RESULT:    -4.189      9.683     10.590
REMARK INTER + INTRA:          -5.461
REMARK INTER:                  -5.208
REMARK INTRA:                  -0.253
REMARK UNBOUND:                -0.048
REMARK SMILES CCCCCCC(=O)[O-]
REMARK SMILES IDX 5 1 6 2 7 3 8 4 9 5 4 6 3 7 2 8 1 9
REMARK H PARENT
REMARK Flexibility Score: inf
ROOT
ATOM      1  C   UNL     1      15.136  -2.853  17.494  1.00  0.00     0.006 C 
ENDROOT
BRANCH   1   2
ATOM      2  C   UNL     1      16.489  -2.912  16.773  1.00  0.00     0.053 C 
BRANCH   2   3
ATOM      3  C   UNL     1      17.630  -3.003  17.740  1.00  0.00     0.041 C 
ATOM      4  O   UNL     1      18.804  -3.183  17.321  1.00  0.00    -0.550 OA
ATOM      5  O   UNL     1      17.399  -2.862  19.102  1.00  0.00    -0.550 OA
ENDBRANCH   2   3
ENDBRANCH   1   2
BRANCH   1   6
ATOM      6  C   UNL     1      14.031  -3.590  16.716  1.00  0.00     0.000 C 
BRANCH   6   7
ATOM      7  C   UNL     1      14.581  -4.400  15.533  1.00  0.00    -0.000 C 
BRANCH   7   8
ATOM      8  C   UNL     1      14.597  -5.912  15.806  1.00  0.00    -0.003 C 
ATOM      9  C   UNL     1      16.025  -6.428  15.958  1.00  0.00     0.004 C 
ENDBRANCH   7   8
ENDBRANCH   6   7
ENDBRANCH   1   6
TORSDOF 5
ENDMDL
MODEL 8
REMARK VINA RESULT:    -4.135     10.224     11.607
REMARK INTER + INTRA:          -5.391
REMARK INTER:                  -5.002
REMARK INTRA:                  -0.389
REMARK UNBOUND:                -0.048
REMARK SMILES CCCCCCC(=O)[O-]
REMARK SMILES IDX 5 1 6 2 7 3 8 4 9 5 4 6 3 7 2 8 1 9
REMARK H PARENT
REMARK Flexibility Score: inf
ROOT
ATOM      1  C   UNL     1      18.122  -4.890  15.838  1.00  0.00     0.006 C 
ENDROOT
BRANCH   1   2
ATOM      2  C   UNL     1      17.021  -5.864  16.279  1.00  0.00     0.053 C 
BRANCH   2   3
ATOM      3  C   UNL     1      15.751  -5.651  15.514  1.00  0.00     0.041 C 
ATOM      4  O   UNL     1      14.647  -5.606  16.116  1.00  0.00    -0.550 OA
ATOM      5  O   UNL     1      15.792  -5.475  14.137  1.00  0.00    -0.550 OA
ENDBRANCH   2   3
ENDBRANCH   1   2
BRANCH   1   6
ATOM      6  C   UNL     1      17.900  -3.473  16.396  1.00  0.00     0.000 C 
BRANCH   6   7
ATOM      7  C   UNL     1      18.144  -3.388  17.910  1.00  0.00    -0.000 C 
BRANCH   7   8
ATOM      8  C   UNL     1      16.996  -2.695  18.658  1.00  0.00    -0.003 C 
ATOM      9  C   UNL     1      15.728  -2.661  17.809  1.00  0.00     0.004 C 
ENDBRANCH   7   8
ENDBRANCH   6   7
ENDBRANCH   1   6
TORSDOF 5
ENDMDL
MODEL 9
REMARK VINA RESULT:    -4.120     10.610     11.688
REMARK INTER + INTRA:          -5.371
REMARK INTER:                  -5.035
REMARK INTRA:                  -0.337
REMARK UNBOUND:                -0.048
REMARK SMILES CCCCCCC(=O)[O-]
REMARK SMILES IDX 5 1 6 2 7 3 8 4 9 5 4 6 3 7 2 8 1 9
REMARK H PARENT
REMARK Flexibility Score: inf
ROOT
ATOM      1  C   UNL     1      15.034  -4.599  16.243  1.00  0.00     0.006 C 
ENDROOT
BRANCH   1   2
ATOM      2  C   UNL     1      14.662  -4.578  14.755  1.00  0.00     0.053 C 
BRANCH   2   3
ATOM      3  C   UNL     1      15.404  -3.510  14.011  1.00  0.00     0.041 C 
ATOM      4  O   UNL     1      14.778  -2.563  13.466  1.00  0.00    -0.550 OA
ATOM      5  O   UNL     1      16.790  -3.546  13.944  1.00  0.00    -0.550 OA
ENDBRANCH   2   3
ENDBRANCH   1   2
BRANCH   1   6
ATOM      6  C   UNL     1      14.493  -3.371  16.995  1.00  0.00     0.000 C 
BRANCH   6   7
ATOM      7  C   UNL     1      15.587  -2.626  17.775  1.00  0.00    -0.000 C 
BRANCH   7   8
ATOM      8  C   UNL     1      16.982  -3.237  17.571  1.00  0.00    -0.003 C 
ATOM      9  C   UNL     1      17.842  -3.075  18.821  1.00  0.00     0.004 C 
ENDBRANCH   7   8
ENDBRANCH   6   7
ENDBRANCH   1   6
TORSDOF 5
ENDMDL
