MODEL 1
REMARK VINA RESULT:    -5.489      0.000      0.000
REMARK INTER + INTRA:          -9.261
REMARK INTER:                  -7.414
REMARK INTRA:                  -1.847
REMARK UNBOUND:                -1.847
REMARK SMILES CC[C@H](CC[C@@H](C)[C@H]1CC[C@@H]2[C@H]3CC(=O)C4=CC(=O)CC[C@]4(C)[C@@H]3CC[C@]21C)C(C)C
REMARK SMILES IDX 4 1 3 2 2 3 1 4 29 5 30 6 31 7 5 8 6 9 7 10 8 11 9 12 27 13
REMARK SMILES IDX 10 14 11 15 26 16 28 17 12 18 25 19 24 20 13 21 22 22 14 23
REMARK SMILES IDX 16 24 21 25 23 26 15 27 17 28 20 29 18 30 19 31
REMARK H PARENT
REMARK Flexibility Score: inf
ROOT
ATOM      1  C   UNL     1       6.418   7.786  -7.031  1.00  0.00     0.004 C 
ENDROOT
BRANCH   1   2
ATOM      2  C   UNL     1       7.218   7.656  -5.705  1.00  0.00    -0.009 C 
BRANCH   2   3
ATOM      3  C   UNL     1       6.397   6.827  -4.668  1.00  0.00     0.000 C 
ATOM      4  C   UNL     1       5.993   7.647  -3.439  1.00  0.00     0.004 C 
ENDBRANCH   2   3
BRANCH   2   5
ATOM      5  C   UNL     1       8.675   7.110  -5.926  1.00  0.00    -0.014 C 
ATOM      6  C   UNL     1       9.715   8.246  -5.931  1.00  0.00     0.007 C 
ATOM      7  C   UNL     1       9.085   6.086  -4.854  1.00  0.00     0.007 C 
ENDBRANCH   2   5
ENDBRANCH   1   2
BRANCH   1   8
ATOM      8  C   UNL     1       7.243   7.488  -8.316  1.00  0.00     0.004 C 
BRANCH   8   9
ATOM      9  C   UNL     1       6.574   6.419  -9.227  1.00  0.00    -0.011 C 
ATOM     10  C   UNL     1       7.597   5.641 -10.073  1.00  0.00     0.008 C 
BRANCH   9  11
ATOM     11  C   UNL     1       5.515   5.542  -8.468  1.00  0.00    -0.002 C 
ATOM     12  C   UNL     1       4.308   5.197  -9.395  1.00  0.00     0.005 C 
ATOM     13  C   UNL     1       5.906   4.163  -7.807  1.00  0.00    -0.026 C 
ATOM     14  C   UNL     1       4.191   3.672  -9.468  1.00  0.00     0.005 C 
ATOM     15  C   UNL     1       5.513   3.167  -8.916  1.00  0.00    -0.001 C 
ATOM     16  C   UNL     1       7.379   3.894  -7.339  1.00  0.00     0.007 C 
ATOM     17  C   UNL     1       5.005   4.023  -6.531  1.00  0.00     0.012 C 
ATOM     18  C   UNL     1       5.581   1.718  -8.416  1.00  0.00     0.004 C 
ATOM     19  C   UNL     1       8.017   2.552  -7.801  1.00  0.00     0.005 C 
ATOM     20  C   UNL     1       7.068   1.353  -8.163  1.00  0.00     0.003 C 
ATOM     21  C   UNL     1       4.992   0.677  -9.386  1.00  0.00     0.085 C 
ATOM     22  C   UNL     1       7.185   0.060  -7.272  1.00  0.00    -0.000 C 
ATOM     23  C   UNL     1       5.247  -0.718  -8.864  1.00  0.00     0.159 C 
ATOM     24  C   UNL     1       6.059  -0.925  -7.632  1.00  0.00     0.005 C 
ATOM     25  C   UNL     1       7.076   0.391  -5.753  1.00  0.00     0.020 C 
ATOM     26  C   UNL     1       8.542  -0.629  -7.571  1.00  0.00     0.017 C 
ATOM     27  O   UNL     1       4.753  -1.704  -9.475  1.00  0.00    -0.295 OA
ATOM     28  C   UNL     1       5.729  -1.919  -6.789  1.00  0.00     0.055 C 
ATOM     29  C   UNL     1       7.128  -0.869  -4.871  1.00  0.00     0.081 C 
ATOM     30  C   UNL     1       6.294  -1.988  -5.430  1.00  0.00     0.156 C 
ATOM     31  O   UNL     1       6.052  -2.993  -4.715  1.00  0.00    -0.295 OA
ENDBRANCH   9  11
ENDBRANCH   8   9
ENDBRANCH   1   8
TORSDOF 6
ENDMDL
MODEL 2
REMARK VINA RESULT:    -5.074      1.674      3.668
REMARK INTER + INTRA:          -8.701
REMARK INTER:                  -6.374
REMARK INTRA:                  -2.327
REMARK UNBOUND:                -1.847
REMARK SMILES CC[C@H](CC[C@@H](C)[C@H]1CC[C@@H]2[C@H]3CC(=O)C4=CC(=O)CC[C@]4(C)[C@@H]3CC[C@]21C)C(C)C
REMARK SMILES IDX 4 1 3 2 2 3 1 4 29 5 30 6 31 7 5 8 6 9 7 10 8 11 9 12 27 13
REMARK SMILES IDX 10 14 11 15 26 16 28 17 12 18 25 19 24 20 13 21 22 22 14 23
REMARK SMILES IDX 16 24 21 25 23 26 15 27 17 28 20 29 18 30 19 31
REMARK H PARENT
REMARK Flexibility Score: inf
ROOT
ATOM      1  C   UNL     1       6.492   7.257  -5.074  1.00  0.00     0.004 C 
ENDROOT
BRANCH   1   2
ATOM      2  C   UNL     1       7.513   6.749  -4.018  1.00  0.00    -0.009 C 
BRANCH   2   3
ATOM      3  C   UNL     1       8.958   6.806  -4.606  1.00  0.00     0.000 C 
ATOM      4  C   UNL     1       9.830   5.631  -4.152  1.00  0.00     0.004 C 
ENDBRANCH   2   3
BRANCH   2   5
ATOM      5  C   UNL     1       7.373   7.484  -2.636  1.00  0.00    -0.014 C 
ATOM      6  C   UNL     1       8.440   8.581  -2.463  1.00  0.00     0.007 C 
ATOM      7  C   UNL     1       5.987   8.126  -2.453  1.00  0.00     0.007 C 
ENDBRANCH   2   5
ENDBRANCH   1   2
BRANCH   1   8
ATOM      8  C   UNL     1       7.093   8.200  -6.155  1.00  0.00     0.004 C 
BRANCH   8   9
ATOM      9  C   UNL     1       6.368   8.086  -7.526  1.00  0.00    -0.011 C 
ATOM     10  C   UNL     1       6.000   9.459  -8.115  1.00  0.00     0.008 C 
BRANCH   9  11
ATOM     11  C   UNL     1       7.077   7.092  -8.514  1.00  0.00    -0.002 C 
ATOM     12  C   UNL     1       8.629   7.185  -8.384  1.00  0.00     0.005 C 
ATOM     13  C   UNL     1       6.775   5.543  -8.485  1.00  0.00    -0.026 C 
ATOM     14  C   UNL     1       9.157   5.792  -8.028  1.00  0.00     0.005 C 
ATOM     15  C   UNL     1       7.922   5.022  -7.594  1.00  0.00    -0.001 C 
ATOM     16  C   UNL     1       5.398   5.009  -7.956  1.00  0.00     0.007 C 
ATOM     17  C   UNL     1       6.899   5.049  -9.968  1.00  0.00     0.012 C 
ATOM     18  C   UNL     1       7.985   3.489  -7.604  1.00  0.00     0.004 C 
ATOM     19  C   UNL     1       5.458   3.860  -6.909  1.00  0.00     0.005 C 
ATOM     20  C   UNL     1       6.731   2.939  -6.874  1.00  0.00     0.003 C 
ATOM     21  C   UNL     1       9.233   2.895  -6.923  1.00  0.00     0.085 C 
ATOM     22  C   UNL     1       6.514   1.415  -7.202  1.00  0.00    -0.000 C 
ATOM     23  C   UNL     1       9.118   1.391  -6.857  1.00  0.00     0.159 C 
ATOM     24  C   UNL     1       7.877   0.708  -7.320  1.00  0.00     0.005 C 
ATOM     25  C   UNL     1       5.743   1.213  -8.541  1.00  0.00     0.020 C 
ATOM     26  C   UNL     1       5.732   0.760  -6.033  1.00  0.00     0.017 C 
ATOM     27  O   UNL     1      10.090   0.717  -6.419  1.00  0.00    -0.295 OA
ATOM     28  C   UNL     1       7.974  -0.484  -7.934  1.00  0.00     0.055 C 
ATOM     29  C   UNL     1       5.576  -0.273  -8.906  1.00  0.00     0.081 C 
ATOM     30  C   UNL     1       6.835  -1.060  -8.670  1.00  0.00     0.156 C 
ATOM     31  O   UNL     1       6.928  -2.226  -9.131  1.00  0.00    -0.295 OA
ENDBRANCH   9  11
ENDBRANCH   8   9
ENDBRANCH   1   8
TORSDOF 6
ENDMDL
MODEL 3
REMARK VINA RESULT:    -3.817      3.534      7.735
REMARK INTER + INTRA:          -7.003
REMARK INTER:                  -5.377
REMARK INTRA:                  -1.626
REMARK UNBOUND:                -1.847
REMARK SMILES CC[C@H](CC[C@@H](C)[C@H]1CC[C@@H]2[C@H]3CC(=O)C4=CC(=O)CC[C@]4(C)[C@@H]3CC[C@]21C)C(C)C
REMARK SMILES IDX 4 1 3 2 2 3 1 4 29 5 30 6 31 7 5 8 6 9 7 10 8 11 9 12 27 13
REMARK SMILES IDX 10 14 11 15 26 16 28 17 12 18 25 19 24 20 13 21 22 22 14 23
REMARK SMILES IDX 16 24 21 25 23 26 15 27 17 28 20 29 18 30 19 31
REMARK H PARENT
REMARK Flexibility Score: inf
ROOT
ATOM      1  C   UNL     1       5.601   0.056  -8.586  1.00  0.00     0.004 C 
ENDROOT
BRANCH   1   2
ATOM      2  C   UNL     1       6.715  -0.424  -7.614  1.00  0.00    -0.009 C 
BRANCH   2   3
ATOM      3  C   UNL     1       6.120  -1.429  -6.578  1.00  0.00     0.000 C 
ATOM      4  C   UNL     1       6.879  -1.427  -5.247  1.00  0.00     0.004 C 
ENDBRANCH   2   3
BRANCH   2   5
ATOM      5  C   UNL     1       7.979  -0.979  -8.366  1.00  0.00    -0.014 C 
ATOM      6  C   UNL     1       7.833  -0.856  -9.893  1.00  0.00     0.007 C 
ATOM      7  C   UNL     1       9.272  -0.260  -7.945  1.00  0.00     0.007 C 
ENDBRANCH   2   5
ENDBRANCH   1   2
BRANCH   1   8
ATOM      8  C   UNL     1       5.275   1.575  -8.497  1.00  0.00     0.004 C 
BRANCH   8   9
ATOM      9  C   UNL     1       6.111   2.430  -9.491  1.00  0.00    -0.011 C 
ATOM     10  C   UNL     1       5.292   3.569 -10.123  1.00  0.00     0.008 C 
BRANCH   9  11
ATOM     11  C   UNL     1       7.514   2.842  -8.917  1.00  0.00    -0.002 C 
ATOM     12  C   UNL     1       8.420   3.447 -10.035  1.00  0.00     0.005 C 
ATOM     13  C   UNL     1       7.649   3.854  -7.714  1.00  0.00    -0.026 C 
ATOM     14  C   UNL     1       8.829   4.856  -9.596  1.00  0.00     0.005 C 
ATOM     15  C   UNL     1       7.883   5.186  -8.456  1.00  0.00    -0.001 C 
ATOM     16  C   UNL     1       6.487   4.015  -6.673  1.00  0.00     0.007 C 
ATOM     17  C   UNL     1       8.909   3.395  -6.900  1.00  0.00     0.012 C 
ATOM     18  C   UNL     1       8.282   6.305  -7.485  1.00  0.00     0.004 C 
ATOM     19  C   UNL     1       6.038   5.470  -6.357  1.00  0.00     0.005 C 
ATOM     20  C   UNL     1       7.060   6.641  -6.589  1.00  0.00     0.003 C 
ATOM     21  C   UNL     1       8.749   7.606  -8.164  1.00  0.00     0.085 C 
ATOM     22  C   UNL     1       7.502   7.461  -5.321  1.00  0.00    -0.000 C 
ATOM     23  C   UNL     1       8.971   8.680  -7.125  1.00  0.00     0.159 C 
ATOM     24  C   UNL     1       8.644   8.424  -5.694  1.00  0.00     0.005 C 
ATOM     25  C   UNL     1       8.003   6.531  -4.175  1.00  0.00     0.020 C 
ATOM     26  C   UNL     1       6.299   8.308  -4.831  1.00  0.00     0.017 C 
ATOM     27  O   UNL     1       9.450   9.791  -7.480  1.00  0.00    -0.295 OA
ATOM     28  C   UNL     1       9.422   8.959  -4.737  1.00  0.00     0.055 C 
ATOM     29  C   UNL     1       8.495   7.321  -2.949  1.00  0.00     0.081 C 
ATOM     30  C   UNL     1       9.334   8.507  -3.338  1.00  0.00     0.156 C 
ATOM     31  O   UNL     1       9.993   9.112  -2.454  1.00  0.00    -0.295 OA
ENDBRANCH   9  11
ENDBRANCH   8   9
ENDBRANCH   1   8
TORSDOF 6
ENDMDL
MODEL 4
REMARK VINA RESULT:    -3.481      2.646      5.633
REMARK INTER + INTRA:          -6.548
REMARK INTER:                  -5.360
REMARK INTRA:                  -1.189
REMARK UNBOUND:                -1.847
REMARK SMILES CC[C@H](CC[C@@H](C)[C@H]1CC[C@@H]2[C@H]3CC(=O)C4=CC(=O)CC[C@]4(C)[C@@H]3CC[C@]21C)C(C)C
REMARK SMILES IDX 4 1 3 2 2 3 1 4 29 5 30 6 31 7 5 8 6 9 7 10 8 11 9 12 27 13
REMARK SMILES IDX 10 14 11 15 26 16 28 17 12 18 25 19 24 20 13 21 22 22 14 23
REMARK SMILES IDX 16 24 21 25 23 26 15 27 17 28 20 29 18 30 19 31
REMARK H PARENT
REMARK Flexibility Score: inf
ROOT
ATOM      1  C   UNL     1       6.988   8.133  -1.936  1.00  0.00     0.004 C 
ENDROOT
BRANCH   1   2
ATOM      2  C   UNL     1       6.758   9.624  -1.560  1.00  0.00    -0.009 C 
BRANCH   2   3
ATOM      3  C   UNL     1       5.291  10.037  -1.897  1.00  0.00     0.000 C 
ATOM      4  C   UNL     1       4.995   9.998  -3.400  1.00  0.00     0.004 C 
ENDBRANCH   2   3
BRANCH   2   5
ATOM      5  C   UNL     1       7.171   9.947  -0.078  1.00  0.00    -0.014 C 
ATOM      6  C   UNL     1       6.267   9.225   0.936  1.00  0.00     0.007 C 
ATOM      7  C   UNL     1       8.631   9.563   0.218  1.00  0.00     0.007 C 
ENDBRANCH   2   5
ENDBRANCH   1   2
BRANCH   1   8
ATOM      8  C   UNL     1       8.251   7.872  -2.806  1.00  0.00     0.004 C 
BRANCH   8   9
ATOM      9  C   UNL     1       8.599   9.069  -3.736  1.00  0.00    -0.011 C 
ATOM     10  C   UNL     1       9.791   9.893  -3.218  1.00  0.00     0.008 C 
BRANCH   9  11
ATOM     11  C   UNL     1       8.661   8.668  -5.254  1.00  0.00    -0.002 C 
ATOM     12  C   UNL     1      10.090   8.176  -5.645  1.00  0.00     0.005 C 
ATOM     13  C   UNL     1       7.693   7.579  -5.861  1.00  0.00    -0.026 C 
ATOM     14  C   UNL     1       9.962   6.755  -6.202  1.00  0.00     0.005 C 
ATOM     15  C   UNL     1       8.570   6.312  -5.787  1.00  0.00    -0.001 C 
ATOM     16  C   UNL     1       6.294   7.304  -5.207  1.00  0.00     0.007 C 
ATOM     17  C   UNL     1       7.410   8.025  -7.338  1.00  0.00     0.012 C 
ATOM     18  C   UNL     1       7.927   5.143  -6.544  1.00  0.00     0.004 C 
ATOM     19  C   UNL     1       5.942   5.815  -4.928  1.00  0.00     0.005 C 
ATOM     20  C   UNL     1       6.651   4.700  -5.780  1.00  0.00     0.003 C 
ATOM     21  C   UNL     1       8.836   3.910  -6.710  1.00  0.00     0.085 C 
ATOM     22  C   UNL     1       5.730   3.809  -6.692  1.00  0.00    -0.000 C 
ATOM     23  C   UNL     1       8.058   2.774  -7.331  1.00  0.00     0.159 C 
ATOM     24  C   UNL     1       6.598   2.917  -7.598  1.00  0.00     0.005 C 
ATOM     25  C   UNL     1       4.806   4.674  -7.603  1.00  0.00     0.020 C 
ATOM     26  C   UNL     1       4.873   2.887  -5.787  1.00  0.00     0.017 C 
ATOM     27  O   UNL     1       8.659   1.709  -7.635  1.00  0.00    -0.295 OA
ATOM     28  C   UNL     1       6.073   2.344  -8.694  1.00  0.00     0.055 C 
ATOM     29  C   UNL     1       3.941   3.818  -8.545  1.00  0.00     0.081 C 
ATOM     30  C   UNL     1       4.722   2.693  -9.166  1.00  0.00     0.156 C 
ATOM     31  O   UNL     1       4.221   2.051 -10.125  1.00  0.00    -0.295 OA
ENDBRANCH   9  11
ENDBRANCH   8   9
ENDBRANCH   1   8
TORSDOF 6
ENDMDL
MODEL 5
REMARK VINA RESULT:    -3.056      3.358      8.140
REMARK INTER + INTRA:          -5.975
REMARK INTER:                  -4.836
REMARK INTRA:                  -1.139
REMARK UNBOUND:                -1.847
REMARK SMILES CC[C@H](CC[C@@H](C)[C@H]1CC[C@@H]2[C@H]3CC(=O)C4=CC(=O)CC[C@]4(C)[C@@H]3CC[C@]21C)C(C)C
REMARK SMILES IDX 4 1 3 2 2 3 1 4 29 5 30 6 31 7 5 8 6 9 7 10 8 11 9 12 27 13
REMARK SMILES IDX 10 14 11 15 26 16 28 17 12 18 25 19 24 20 13 21 22 22 14 23
REMARK SMILES IDX 16 24 21 25 23 26 15 27 17 28 20 29 18 30 19 31
REMARK H PARENT
REMARK Flexibility Score: inf
ROOT
ATOM      1  C   UNL     1       7.332  -1.271  -7.791  1.00  0.00     0.004 C 
ENDROOT
BRANCH   1   2
ATOM      2  C   UNL     1       7.043  -1.196  -9.317  1.00  0.00    -0.009 C 
BRANCH   2   3
ATOM      3  C   UNL     1       8.069  -2.076 -10.096  1.00  0.00     0.000 C 
ATOM      4  C   UNL     1       9.512  -1.585  -9.939  1.00  0.00     0.004 C 
ENDBRANCH   2   3
BRANCH   2   5
ATOM      5  C   UNL     1       5.547  -1.523  -9.668  1.00  0.00    -0.014 C 
ATOM      6  C   UNL     1       4.813  -2.178  -8.484  1.00  0.00     0.007 C 
ATOM      7  C   UNL     1       4.758  -0.273 -10.093  1.00  0.00     0.007 C 
ENDBRANCH   2   5
ENDBRANCH   1   2
BRANCH   1   8
ATOM      8  C   UNL     1       7.375   0.107  -7.072  1.00  0.00     0.004 C 
BRANCH   8   9
ATOM      9  C   UNL     1       6.027   0.474  -6.389  1.00  0.00    -0.011 C 
ATOM     10  C   UNL     1       6.138   0.533  -4.855  1.00  0.00     0.008 C 
BRANCH   9  11
ATOM     11  C   UNL     1       5.309   1.696  -7.064  1.00  0.00    -0.002 C 
ATOM     12  C   UNL     1       4.251   2.324  -6.104  1.00  0.00     0.005 C 
ATOM     13  C   UNL     1       6.123   2.934  -7.609  1.00  0.00    -0.026 C 
ATOM     14  C   UNL     1       4.613   3.798  -5.902  1.00  0.00     0.005 C 
ATOM     15  C   UNL     1       6.037   3.909  -6.417  1.00  0.00    -0.001 C 
ATOM     16  C   UNL     1       7.616   2.768  -8.062  1.00  0.00     0.007 C 
ATOM     17  C   UNL     1       5.337   3.452  -8.863  1.00  0.00     0.012 C 
ATOM     18  C   UNL     1       6.564   5.300  -6.794  1.00  0.00     0.004 C 
ATOM     19  C   UNL     1       8.630   3.801  -7.493  1.00  0.00     0.005 C 
ATOM     20  C   UNL     1       8.095   5.203  -7.025  1.00  0.00     0.003 C 
ATOM     21  C   UNL     1       6.308   6.390  -5.736  1.00  0.00     0.085 C 
ATOM     22  C   UNL     1       8.627   6.462  -7.804  1.00  0.00    -0.000 C 
ATOM     23  C   UNL     1       6.996   7.673  -6.140  1.00  0.00     0.159 C 
ATOM     24  C   UNL     1       7.857   7.717  -7.355  1.00  0.00     0.005 C 
ATOM     25  C   UNL     1       8.451   6.308  -9.345  1.00  0.00     0.020 C 
ATOM     26  C   UNL     1      10.125   6.668  -7.457  1.00  0.00     0.017 C 
ATOM     27  O   UNL     1       6.821   8.711  -5.445  1.00  0.00    -0.295 OA
ATOM     28  C   UNL     1       7.870   8.830  -8.110  1.00  0.00     0.055 C 
ATOM     29  C   UNL     1       8.911   7.556 -10.119  1.00  0.00     0.081 C 
ATOM     30  C   UNL     1       8.455   8.830  -9.462  1.00  0.00     0.156 C 
ATOM     31  O   UNL     1       8.553   9.916 -10.088  1.00  0.00    -0.295 OA
ENDBRANCH   9  11
ENDBRANCH   8   9
ENDBRANCH   1   8
TORSDOF 6
ENDMDL
MODEL 6
REMARK VINA RESULT:    -2.997      2.216      4.952
REMARK INTER + INTRA:          -5.895
REMARK INTER:                  -3.915
REMARK INTRA:                  -1.980
REMARK UNBOUND:                -1.847
REMARK SMILES CC[C@H](CC[C@@H](C)[C@H]1CC[C@@H]2[C@H]3CC(=O)C4=CC(=O)CC[C@]4(C)[C@@H]3CC[C@]21C)C(C)C
REMARK SMILES IDX 4 1 3 2 2 3 1 4 29 5 30 6 31 7 5 8 6 9 7 10 8 11 9 12 27 13
REMARK SMILES IDX 10 14 11 15 26 16 28 17 12 18 25 19 24 20 13 21 22 22 14 23
REMARK SMILES IDX 16 24 21 25 23 26 15 27 17 28 20 29 18 30 19 31
REMARK H PARENT
REMARK Flexibility Score: inf
ROOT
ATOM      1  C   UNL     1       8.605   9.219  -7.434  1.00  0.00     0.004 C 
ENDROOT
BRANCH   1   2
ATOM      2  C   UNL     1       7.595   9.883  -8.411  1.00  0.00    -0.009 C 
BRANCH   2   3
ATOM      3  C   UNL     1       8.156   9.837  -9.867  1.00  0.00     0.000 C 
ATOM      4  C   UNL     1       9.675  10.031  -9.924  1.00  0.00     0.004 C 
ENDBRANCH   2   3
BRANCH   2   5
ATOM      5  C   UNL     1       6.146   9.288  -8.283  1.00  0.00    -0.014 C 
ATOM      6  C   UNL     1       5.178   9.920  -9.299  1.00  0.00     0.007 C 
ATOM      7  C   UNL     1       6.121   7.762  -8.477  1.00  0.00     0.007 C 
ENDBRANCH   2   5
ENDBRANCH   1   2
BRANCH   1   8
ATOM      8  C   UNL     1       8.445   9.648  -5.947  1.00  0.00     0.004 C 
BRANCH   8   9
ATOM      9  C   UNL     1       9.561   9.074  -5.030  1.00  0.00    -0.011 C 
ATOM     10  C   UNL     1      10.123  10.123  -4.055  1.00  0.00     0.008 C 
BRANCH   9  11
ATOM     11  C   UNL     1       9.179   7.691  -4.391  1.00  0.00    -0.002 C 
ATOM     12  C   UNL     1       7.760   7.748  -3.742  1.00  0.00     0.005 C 
ATOM     13  C   UNL     1       9.165   6.363  -5.243  1.00  0.00    -0.026 C 
ATOM     14  C   UNL     1       6.899   6.665  -4.399  1.00  0.00     0.005 C 
ATOM     15  C   UNL     1       7.678   6.265  -5.639  1.00  0.00    -0.001 C 
ATOM     16  C   UNL     1      10.071   6.224  -6.516  1.00  0.00     0.007 C 
ATOM     17  C   UNL     1       9.599   5.216  -4.266  1.00  0.00     0.012 C 
ATOM     18  C   UNL     1       7.359   4.913  -6.289  1.00  0.00     0.004 C 
ATOM     19  C   UNL     1       9.374   5.710  -7.808  1.00  0.00     0.005 C 
ATOM     20  C   UNL     1       8.068   4.847  -7.668  1.00  0.00     0.003 C 
ATOM     21  C   UNL     1       5.859   4.645  -6.510  1.00  0.00     0.085 C 
ATOM     22  C   UNL     1       8.135   3.366  -8.196  1.00  0.00    -0.000 C 
ATOM     23  C   UNL     1       5.671   3.363  -7.286  1.00  0.00     0.159 C 
ATOM     24  C   UNL     1       6.852   2.613  -7.800  1.00  0.00     0.005 C 
ATOM     25  C   UNL     1       9.354   2.595  -7.605  1.00  0.00     0.020 C 
ATOM     26  C   UNL     1       8.220   3.392  -9.744  1.00  0.00     0.017 C 
ATOM     27  O   UNL     1       4.505   2.926  -7.481  1.00  0.00    -0.295 OA
ATOM     28  C   UNL     1       6.820   1.269  -7.815  1.00  0.00     0.055 C 
ATOM     29  C   UNL     1       9.400   1.126  -8.065  1.00  0.00     0.081 C 
ATOM     30  C   UNL     1       8.044   0.477  -8.025  1.00  0.00     0.156 C 
ATOM     31  O   UNL     1       7.954  -0.771  -8.149  1.00  0.00    -0.295 OA
ENDBRANCH   9  11
ENDBRANCH   8   9
ENDBRANCH   1   8
TORSDOF 6
ENDMDL
MODEL 7
REMARK VINA RESULT:    -2.783      2.877      5.884
REMARK INTER + INTRA:          -5.606
REMARK INTER:                  -4.705
REMARK INTRA:                  -0.901
REMARK UNBOUND:                -1.847
REMARK SMILES CC[C@H](CC[C@@H](C)[C@H]1CC[C@@H]2[C@H]3CC(=O)C4=CC(=O)CC[C@]4(C)[C@@H]3CC[C@]21C)C(C)C
REMARK SMILES IDX 4 1 3 2 2 3 1 4 29 5 30 6 31 7 5 8 6 9 7 10 8 11 9 12 27 13
REMARK SMILES IDX 10 14 11 15 26 16 28 17 12 18 25 19 24 20 13 21 22 22 14 23
REMARK SMILES IDX 16 24 21 25 23 26 15 27 17 28 20 29 18 30 19 31
REMARK H PARENT
REMARK Flexibility Score: inf
ROOT
ATOM      1  C   UNL     1       8.573   9.667  -1.459  1.00  0.00     0.004 C 
ENDROOT
BRANCH   1   2
ATOM      2  C   UNL     1       7.644   9.439  -0.234  1.00  0.00    -0.009 C 
BRANCH   2   3
ATOM      3  C   UNL     1       6.173   9.233  -0.714  1.00  0.00     0.000 C 
ATOM      4  C   UNL     1       5.144   9.803   0.267  1.00  0.00     0.004 C 
ENDBRANCH   2   3
BRANCH   2   5
ATOM      5  C   UNL     1       8.157   8.294   0.712  1.00  0.00    -0.014 C 
ATOM      6  C   UNL     1       7.134   7.149   0.828  1.00  0.00     0.007 C 
ATOM      7  C   UNL     1       9.495   7.700   0.239  1.00  0.00     0.007 C 
ENDBRANCH   2   5
ENDBRANCH   1   2
BRANCH   1   8
ATOM      8  C   UNL     1       7.826   9.884  -2.807  1.00  0.00     0.004 C 
BRANCH   8   9
ATOM      9  C   UNL     1       8.779   9.852  -4.035  1.00  0.00    -0.011 C 
ATOM     10  C   UNL     1       9.960   8.885  -3.842  1.00  0.00     0.008 C 
BRANCH   9  11
ATOM     11  C   UNL     1       8.014   9.724  -5.401  1.00  0.00    -0.002 C 
ATOM     12  C   UNL     1       8.934  10.122  -6.597  1.00  0.00     0.005 C 
ATOM     13  C   UNL     1       7.354   8.363  -5.854  1.00  0.00    -0.026 C 
ATOM     14  C   UNL     1       9.006   8.929  -7.555  1.00  0.00     0.005 C 
ATOM     15  C   UNL     1       8.461   7.765  -6.746  1.00  0.00    -0.001 C 
ATOM     16  C   UNL     1       6.894   7.308  -4.788  1.00  0.00     0.007 C 
ATOM     17  C   UNL     1       6.074   8.752  -6.670  1.00  0.00     0.012 C 
ATOM     18  C   UNL     1       7.961   6.529  -7.504  1.00  0.00     0.004 C 
ATOM     19  C   UNL     1       7.359   5.842  -5.020  1.00  0.00     0.005 C 
ATOM     20  C   UNL     1       7.715   5.387  -6.482  1.00  0.00     0.003 C 
ATOM     21  C   UNL     1       8.927   6.004  -8.583  1.00  0.00     0.085 C 
ATOM     22  C   UNL     1       6.825   4.252  -7.110  1.00  0.00    -0.000 C 
ATOM     23  C   UNL     1       8.406   4.707  -9.157  1.00  0.00     0.159 C 
ATOM     24  C   UNL     1       7.178   4.075  -8.598  1.00  0.00     0.005 C 
ATOM     25  C   UNL     1       5.305   4.583  -7.007  1.00  0.00     0.020 C 
ATOM     26  C   UNL     1       7.130   2.918  -6.381  1.00  0.00     0.017 C 
ATOM     27  O   UNL     1       9.014   4.174 -10.124  1.00  0.00    -0.295 OA
ATOM     28  C   UNL     1       6.333   3.439  -9.427  1.00  0.00     0.055 C 
ATOM     29  C   UNL     1       4.422   3.511  -7.670  1.00  0.00     0.081 C 
ATOM     30  C   UNL     1       4.977   3.060  -8.993  1.00  0.00     0.156 C 
ATOM     31  O   UNL     1       4.260   2.364  -9.757  1.00  0.00    -0.295 OA
ENDBRANCH   9  11
ENDBRANCH   8   9
ENDBRANCH   1   8
TORSDOF 6
ENDMDL
MODEL 8
REMARK VINA RESULT:    -2.689      3.548      7.778
REMARK INTER + INTRA:          -5.479
REMARK INTER:                  -3.921
REMARK INTRA:                  -1.558
REMARK UNBOUND:                -1.847
REMARK SMILES CC[C@H](CC[C@@H](C)[C@H]1CC[C@@H]2[C@H]3CC(=O)C4=CC(=O)CC[C@]4(C)[C@@H]3CC[C@]21C)C(C)C
REMARK SMILES IDX 4 1 3 2 2 3 1 4 29 5 30 6 31 7 5 8 6 9 7 10 8 11 9 12 27 13
REMARK SMILES IDX 10 14 11 15 26 16 28 17 12 18 25 19 24 20 13 21 22 22 14 23
REMARK SMILES IDX 16 24 21 25 23 26 15 27 17 28 20 29 18 30 19 31
REMARK H PARENT
REMARK Flexibility Score: inf
ROOT
ATOM      1  C   UNL     1       6.446   0.721  -8.413  1.00  0.00     0.004 C 
ENDROOT
BRANCH   1   2
ATOM      2  C   UNL     1       5.926  -0.131  -7.221  1.00  0.00    -0.009 C 
BRANCH   2   3
ATOM      3  C   UNL     1       5.524  -1.554  -7.721  1.00  0.00     0.000 C 
ATOM      4  C   UNL     1       6.198  -1.930  -9.045  1.00  0.00     0.004 C 
ENDBRANCH   2   3
BRANCH   2   5
ATOM      5  C   UNL     1       6.928  -0.156  -6.011  1.00  0.00    -0.014 C 
ATOM      6  C   UNL     1       6.814  -1.462  -5.203  1.00  0.00     0.007 C 
ATOM      7  C   UNL     1       8.390   0.009  -6.458  1.00  0.00     0.007 C 
ENDBRANCH   2   5
ENDBRANCH   1   2
BRANCH   1   8
ATOM      8  C   UNL     1       5.418   1.746  -8.973  1.00  0.00     0.004 C 
BRANCH   8   9
ATOM      9  C   UNL     1       6.095   2.944  -9.698  1.00  0.00    -0.011 C 
ATOM     10  C   UNL     1       5.124   4.114  -9.937  1.00  0.00     0.008 C 
BRANCH   9  11
ATOM     11  C   UNL     1       7.484   3.332  -9.077  1.00  0.00    -0.002 C 
ATOM     12  C   UNL     1       8.367   4.094 -10.113  1.00  0.00     0.005 C 
ATOM     13  C   UNL     1       7.588   4.200  -7.762  1.00  0.00    -0.026 C 
ATOM     14  C   UNL     1       8.730   5.455  -9.512  1.00  0.00     0.005 C 
ATOM     15  C   UNL     1       7.775   5.617  -8.342  1.00  0.00    -0.001 C 
ATOM     16  C   UNL     1       6.422   4.198  -6.712  1.00  0.00     0.007 C 
ATOM     17  C   UNL     1       8.864   3.691  -7.006  1.00  0.00     0.012 C 
ATOM     18  C   UNL     1       8.138   6.626  -7.246  1.00  0.00     0.004 C 
ATOM     19  C   UNL     1       5.925   5.590  -6.228  1.00  0.00     0.005 C 
ATOM     20  C   UNL     1       6.907   6.814  -6.320  1.00  0.00     0.003 C 
ATOM     21  C   UNL     1       8.560   8.013  -7.766  1.00  0.00     0.085 C 
ATOM     22  C   UNL     1       7.323   7.494  -4.963  1.00  0.00    -0.000 C 
ATOM     23  C   UNL     1       8.748   8.964  -6.608  1.00  0.00     0.159 C 
ATOM     24  C   UNL     1       8.432   8.531  -5.218  1.00  0.00     0.005 C 
ATOM     25  C   UNL     1       7.858   6.453  -3.933  1.00  0.00     0.020 C 
ATOM     26  C   UNL     1       6.093   8.237  -4.380  1.00  0.00     0.017 C 
ATOM     27  O   UNL     1       9.188  10.125  -6.829  1.00  0.00    -0.295 OA
ATOM     28  C   UNL     1       9.193   8.976  -4.203  1.00  0.00     0.055 C 
ATOM     29  C   UNL     1       8.325   7.109  -2.622  1.00  0.00     0.081 C 
ATOM     30  C   UNL     1       9.123   8.360  -2.867  1.00  0.00     0.156 C 
ATOM     31  O   UNL     1       9.763   8.879  -1.917  1.00  0.00    -0.295 OA
ENDBRANCH   9  11
ENDBRANCH   8   9
ENDBRANCH   1   8
TORSDOF 6
ENDMDL
