MODEL 1
REMARK VINA RESULT:    -3.782      0.000      0.000
REMARK INTER + INTRA:         -11.236
REMARK INTER:                  -8.204
REMARK INTRA:                  -3.031
REMARK UNBOUND:                -3.031
REMARK SMILES CCCCCCCCCCCCCCCCCCCCCC(=O)[O-]
REMARK SMILES IDX 12 1 11 2 10 3 9 4 8 5 7 6 6 7 5 8 4 9 3 10 2 11 1 12 13 13
REMARK SMILES IDX 14 14 15 15 16 16 17 17 18 18 19 19 20 20 21 21 22 22 23 23
REMARK SMILES IDX 24 24
REMARK H PARENT
REMARK Flexibility Score: inf
ROOT
ATOM      1  C   UNL     1     -17.423  42.925  -8.087  1.00  0.00     0.000 C 
ENDROOT
BRANCH   1   2
ATOM      2  C   UNL     1     -17.981  42.783  -9.515  1.00  0.00     0.000 C 
BRANCH   2   3
ATOM      3  C   UNL     1     -19.283  41.968  -9.633  1.00  0.00     0.000 C 
BRANCH   3   4
ATOM      4  C   UNL     1     -20.221  42.493 -10.732  1.00  0.00    -0.000 C 
BRANCH   4   5
ATOM      5  C   UNL     1     -20.003  43.987 -11.036  1.00  0.00    -0.000 C 
BRANCH   5   6
ATOM      6  C   UNL     1     -20.961  44.951 -10.306  1.00  0.00    -0.000 C 
BRANCH   6   7
ATOM      7  C   UNL     1     -20.434  45.510  -8.970  1.00  0.00    -0.000 C 
BRANCH   7   8
ATOM      8  C   UNL     1     -20.772  44.661  -7.731  1.00  0.00    -0.000 C 
BRANCH   8   9
ATOM      9  C   UNL     1     -19.940  45.048  -6.499  1.00  0.00    -0.000 C 
BRANCH   9  10
ATOM     10  C   UNL     1     -19.860  43.883  -5.501  1.00  0.00    -0.000 C 
BRANCH  10  11
ATOM     11  C   UNL     1     -21.138  43.736  -4.660  1.00  0.00    -0.003 C 
ATOM     12  C   UNL     1     -21.087  42.541  -3.709  1.00  0.00     0.004 C 
ENDBRANCH  10  11
ENDBRANCH   9  10
ENDBRANCH   8   9
ENDBRANCH   7   8
ENDBRANCH   6   7
ENDBRANCH   5   6
ENDBRANCH   4   5
ENDBRANCH   3   4
ENDBRANCH   2   3
ENDBRANCH   1   2
BRANCH   1  13
ATOM     13  C   UNL     1     -16.313  43.981  -7.979  1.00  0.00     0.000 C 
BRANCH  13  14
ATOM     14  C   UNL     1     -16.119  44.722  -9.311  1.00  0.00     0.000 C 
BRANCH  14  15
ATOM     15  C   UNL     1     -16.889  46.059  -9.356  1.00  0.00     0.000 C 
BRANCH  15  16
ATOM     16  C   UNL     1     -16.026  47.286  -9.014  1.00  0.00     0.000 C 
BRANCH  16  17
ATOM     17  C   UNL     1     -14.568  46.923  -8.695  1.00  0.00     0.000 C 
BRANCH  17  18
ATOM     18  C   UNL     1     -14.127  47.384  -7.296  1.00  0.00     0.000 C 
BRANCH  18  19
ATOM     19  C   UNL     1     -14.462  46.376  -6.176  1.00  0.00     0.000 C 
BRANCH  19  20
ATOM     20  C   UNL     1     -15.486  46.937  -5.178  1.00  0.00     0.006 C 
BRANCH  20  21
ATOM     21  C   UNL     1     -16.890  46.396  -5.467  1.00  0.00     0.053 C 
BRANCH  21  22
ATOM     22  C   UNL     1     -17.883  47.513  -5.506  1.00  0.00     0.041 C 
ATOM     23  O   UNL     1     -18.314  48.017  -4.435  1.00  0.00    -0.550 OA
ATOM     24  O   UNL     1     -18.363  47.972  -6.725  1.00  0.00    -0.550 OA
ENDBRANCH  21  22
ENDBRANCH  20  21
ENDBRANCH  19  20
ENDBRANCH  18  19
ENDBRANCH  17  18
ENDBRANCH  16  17
ENDBRANCH  15  16
ENDBRANCH  14  15
ENDBRANCH  13  14
ENDBRANCH   1  13
TORSDOF 20
ENDMDL
MODEL 2
REMARK VINA RESULT:    -3.775      2.321      4.547
REMARK INTER + INTRA:         -11.220
REMARK INTER:                  -7.989
REMARK INTRA:                  -3.232
REMARK UNBOUND:                -3.031
REMARK SMILES CCCCCCCCCCCCCCCCCCCCCC(=O)[O-]
REMARK SMILES IDX 12 1 11 2 10 3 9 4 8 5 7 6 6 7 5 8 4 9 3 10 2 11 1 12 13 13
REMARK SMILES IDX 14 14 15 15 16 16 17 17 18 18 19 19 20 20 21 21 22 22 23 23
REMARK SMILES IDX 24 24
REMARK H PARENT
REMARK Flexibility Score: inf
ROOT
ATOM      1  C   UNL     1     -19.009  47.286  -5.502  1.00  0.00     0.000 C 
ENDROOT
BRANCH   1   2
ATOM      2  C   UNL     1     -18.928  46.767  -6.949  1.00  0.00     0.000 C 
BRANCH   2   3
ATOM      3  C   UNL     1     -20.223  46.137  -7.495  1.00  0.00     0.000 C 
BRANCH   3   4
ATOM      4  C   UNL     1     -20.290  44.617  -7.274  1.00  0.00    -0.000 C 
BRANCH   4   5
ATOM      5  C   UNL     1     -20.538  43.837  -8.578  1.00  0.00    -0.000 C 
BRANCH   5   6
ATOM      6  C   UNL     1     -20.465  44.678  -9.869  1.00  0.00    -0.000 C 
BRANCH   6   7
ATOM      7  C   UNL     1     -19.204  44.454 -10.726  1.00  0.00    -0.000 C 
BRANCH   7   8
ATOM      8  C   UNL     1     -17.884  44.896 -10.068  1.00  0.00    -0.000 C 
BRANCH   8   9
ATOM      9  C   UNL     1     -16.763  43.856 -10.224  1.00  0.00    -0.000 C 
BRANCH   9  10
ATOM     10  C   UNL     1     -16.082  43.575  -8.877  1.00  0.00    -0.000 C 
BRANCH  10  11
ATOM     11  C   UNL     1     -16.973  42.765  -7.922  1.00  0.00    -0.003 C 
ATOM     12  C   UNL     1     -17.223  43.481  -6.595  1.00  0.00     0.004 C 
ENDBRANCH  10  11
ENDBRANCH   9  10
ENDBRANCH   8   9
ENDBRANCH   7   8
ENDBRANCH   6   7
ENDBRANCH   5   6
ENDBRANCH   4   5
ENDBRANCH   3   4
ENDBRANCH   2   3
ENDBRANCH   1   2
BRANCH   1  13
ATOM     13  C   UNL     1     -17.630  47.470  -4.852  1.00  0.00     0.000 C 
BRANCH  13  14
ATOM     14  C   UNL     1     -16.550  46.679  -5.604  1.00  0.00     0.000 C 
BRANCH  14  15
ATOM     15  C   UNL     1     -15.163  46.804  -4.940  1.00  0.00     0.000 C 
BRANCH  15  16
ATOM     16  C   UNL     1     -13.989  46.516  -5.893  1.00  0.00     0.000 C 
BRANCH  16  17
ATOM     17  C   UNL     1     -13.917  47.501  -7.069  1.00  0.00     0.000 C 
BRANCH  17  18
ATOM     18  C   UNL     1     -14.268  46.852  -8.418  1.00  0.00     0.000 C 
BRANCH  18  19
ATOM     19  C   UNL     1     -15.577  47.385  -9.041  1.00  0.00     0.000 C 
BRANCH  19  20
ATOM     20  C   UNL     1     -15.423  47.694 -10.537  1.00  0.00     0.006 C 
BRANCH  20  21
ATOM     21  C   UNL     1     -14.449  48.855 -10.763  1.00  0.00     0.053 C 
BRANCH  21  22
ATOM     22  C   UNL     1     -15.021  50.129 -10.228  1.00  0.00     0.041 C 
ATOM     23  O   UNL     1     -14.488  50.698  -9.238  1.00  0.00    -0.550 OA
ATOM     24  O   UNL     1     -16.168  50.668 -10.797  1.00  0.00    -0.550 OA
ENDBRANCH  21  22
ENDBRANCH  20  21
ENDBRANCH  19  20
ENDBRANCH  18  19
ENDBRANCH  17  18
ENDBRANCH  16  17
ENDBRANCH  15  16
ENDBRANCH  14  15
ENDBRANCH  13  14
ENDBRANCH   1  13
TORSDOF 20
ENDMDL
MODEL 3
REMARK VINA RESULT:    -3.741      1.641      5.561
REMARK INTER + INTRA:         -11.147
REMARK INTER:                  -7.809
REMARK INTRA:                  -3.338
REMARK UNBOUND:                -3.031
REMARK SMILES CCCCCCCCCCCCCCCCCCCCCC(=O)[O-]
REMARK SMILES IDX 12 1 11 2 10 3 9 4 8 5 7 6 6 7 5 8 4 9 3 10 2 11 1 12 13 13
REMARK SMILES IDX 14 14 15 15 16 16 17 17 18 18 19 19 20 20 21 21 22 22 23 23
REMARK SMILES IDX 24 24
REMARK H PARENT
REMARK Flexibility Score: inf
ROOT
ATOM      1  C   UNL     1     -17.000  45.556  -9.348  1.00  0.00     0.000 C 
ENDROOT
BRANCH   1   2
ATOM      2  C   UNL     1     -16.674  46.445 -10.562  1.00  0.00     0.000 C 
BRANCH   2   3
ATOM      3  C   UNL     1     -16.955  47.948 -10.370  1.00  0.00     0.000 C 
BRANCH   3   4
ATOM      4  C   UNL     1     -15.678  48.803 -10.385  1.00  0.00    -0.000 C 
BRANCH   4   5
ATOM      5  C   UNL     1     -14.465  48.071  -9.781  1.00  0.00    -0.000 C 
BRANCH   5   6
ATOM      6  C   UNL     1     -14.341  48.164  -8.247  1.00  0.00    -0.000 C 
BRANCH   6   7
ATOM      7  C   UNL     1     -14.176  46.815  -7.520  1.00  0.00    -0.000 C 
BRANCH   7   8
ATOM      8  C   UNL     1     -14.695  46.788  -6.072  1.00  0.00    -0.000 C 
BRANCH   8   9
ATOM      9  C   UNL     1     -16.164  46.350  -5.973  1.00  0.00    -0.000 C 
BRANCH   9  10
ATOM     10  C   UNL     1     -16.917  47.181  -4.924  1.00  0.00    -0.000 C 
BRANCH  10  11
ATOM     11  C   UNL     1     -18.284  47.671  -5.428  1.00  0.00    -0.003 C 
ATOM     12  C   UNL     1     -18.288  47.975  -6.926  1.00  0.00     0.004 C 
ENDBRANCH  10  11
ENDBRANCH   9  10
ENDBRANCH   8   9
ENDBRANCH   7   8
ENDBRANCH   6   7
ENDBRANCH   5   6
ENDBRANCH   4   5
ENDBRANCH   3   4
ENDBRANCH   2   3
ENDBRANCH   1   2
BRANCH   1  13
ATOM     13  C   UNL     1     -16.290  44.195  -9.393  1.00  0.00     0.000 C 
BRANCH  13  14
ATOM     14  C   UNL     1     -16.600  43.364  -8.139  1.00  0.00     0.000 C 
BRANCH  14  15
ATOM     15  C   UNL     1     -17.716  42.326  -8.385  1.00  0.00     0.000 C 
BRANCH  15  16
ATOM     16  C   UNL     1     -18.459  42.517  -9.719  1.00  0.00     0.000 C 
BRANCH  16  17
ATOM     17  C   UNL     1     -19.935  42.898  -9.534  1.00  0.00     0.000 C 
BRANCH  17  18
ATOM     18  C   UNL     1     -20.270  44.293 -10.090  1.00  0.00     0.000 C 
BRANCH  18  19
ATOM     19  C   UNL     1     -20.875  45.250  -9.040  1.00  0.00     0.000 C 
BRANCH  19  20
ATOM     20  C   UNL     1     -20.926  44.619  -7.641  1.00  0.00     0.006 C 
BRANCH  20  21
ATOM     21  C   UNL     1     -19.743  45.081  -6.784  1.00  0.00     0.053 C 
BRANCH  21  22
ATOM     22  C   UNL     1     -19.622  44.234  -5.559  1.00  0.00     0.041 C 
ATOM     23  O   UNL     1     -18.494  43.818  -5.183  1.00  0.00    -0.550 OA
ATOM     24  O   UNL     1     -20.761  43.869  -4.852  1.00  0.00    -0.550 OA
ENDBRANCH  21  22
ENDBRANCH  20  21
ENDBRANCH  19  20
ENDBRANCH  18  19
ENDBRANCH  17  18
ENDBRANCH  16  17
ENDBRANCH  15  16
ENDBRANCH  14  15
ENDBRANCH  13  14
ENDBRANCH   1  13
TORSDOF 20
ENDMDL
MODEL 4
REMARK VINA RESULT:    -3.728      2.396      5.033
REMARK INTER + INTRA:         -11.118
REMARK INTER:                  -7.860
REMARK INTRA:                  -3.258
REMARK UNBOUND:                -3.031
REMARK SMILES CCCCCCCCCCCCCCCCCCCCCC(=O)[O-]
REMARK SMILES IDX 12 1 11 2 10 3 9 4 8 5 7 6 6 7 5 8 4 9 3 10 2 11 1 12 13 13
REMARK SMILES IDX 14 14 15 15 16 16 17 17 18 18 19 19 20 20 21 21 22 22 23 23
REMARK SMILES IDX 24 24
REMARK H PARENT
REMARK Flexibility Score: inf
ROOT
ATOM      1  C   UNL     1     -17.928  47.112  -5.321  1.00  0.00     0.000 C 
ENDROOT
BRANCH   1   2
ATOM      2  C   UNL     1     -18.129  46.529  -6.731  1.00  0.00     0.000 C 
BRANCH   2   3
ATOM      3  C   UNL     1     -19.480  45.825  -6.965  1.00  0.00     0.000 C 
BRANCH   3   4
ATOM      4  C   UNL     1     -19.452  44.335  -6.588  1.00  0.00    -0.000 C 
BRANCH   4   5
ATOM      5  C   UNL     1     -18.037  43.834  -6.245  1.00  0.00    -0.000 C 
BRANCH   5   6
ATOM      6  C   UNL     1     -17.364  42.977  -7.336  1.00  0.00    -0.000 C 
BRANCH   6   7
ATOM      7  C   UNL     1     -16.264  43.692  -8.145  1.00  0.00    -0.000 C 
BRANCH   7   8
ATOM      8  C   UNL     1     -16.506  43.748  -9.664  1.00  0.00    -0.000 C 
BRANCH   8   9
ATOM      9  C   UNL     1     -17.566  44.787 -10.061  1.00  0.00    -0.000 C 
BRANCH   9  10
ATOM     10  C   UNL     1     -18.675  44.146 -10.908  1.00  0.00    -0.000 C 
BRANCH  10  11
ATOM     11  C   UNL     1     -19.878  43.697 -10.063  1.00  0.00    -0.003 C 
ATOM     12  C   UNL     1     -20.062  42.180 -10.055  1.00  0.00     0.004 C 
ENDBRANCH  10  11
ENDBRANCH   9  10
ENDBRANCH   8   9
ENDBRANCH   7   8
ENDBRANCH   6   7
ENDBRANCH   5   6
ENDBRANCH   4   5
ENDBRANCH   3   4
ENDBRANCH   2   3
ENDBRANCH   1   2
BRANCH   1  13
ATOM     13  C   UNL     1     -16.449  47.259  -4.937  1.00  0.00     0.000 C 
BRANCH  13  14
ATOM     14  C   UNL     1     -15.609  46.107  -5.508  1.00  0.00     0.000 C 
BRANCH  14  15
ATOM     15  C   UNL     1     -14.137  46.512  -5.737  1.00  0.00     0.000 C 
BRANCH  15  16
ATOM     16  C   UNL     1     -13.913  47.348  -7.010  1.00  0.00     0.000 C 
BRANCH  16  17
ATOM     17  C   UNL     1     -14.684  46.809  -8.224  1.00  0.00     0.000 C 
BRANCH  17  18
ATOM     18  C   UNL     1     -14.263  47.474  -9.545  1.00  0.00     0.000 C 
BRANCH  18  19
ATOM     19  C   UNL     1     -15.446  47.788 -10.486  1.00  0.00     0.000 C 
BRANCH  19  20
ATOM     20  C   UNL     1     -15.443  49.250 -10.954  1.00  0.00     0.006 C 
BRANCH  20  21
ATOM     21  C   UNL     1     -15.876  50.191  -9.825  1.00  0.00     0.053 C 
BRANCH  21  22
ATOM     22  C   UNL     1     -14.905  51.318  -9.681  1.00  0.00     0.041 C 
ATOM     23  O   UNL     1     -14.548  51.708  -8.538  1.00  0.00    -0.550 OA
ATOM     24  O   UNL     1     -14.422  51.965 -10.811  1.00  0.00    -0.550 OA
ENDBRANCH  21  22
ENDBRANCH  20  21
ENDBRANCH  19  20
ENDBRANCH  18  19
ENDBRANCH  17  18
ENDBRANCH  16  17
ENDBRANCH  15  16
ENDBRANCH  14  15
ENDBRANCH  13  14
ENDBRANCH   1  13
TORSDOF 20
ENDMDL
MODEL 5
REMARK VINA RESULT:    -3.664      1.813      3.765
REMARK INTER + INTRA:         -10.979
REMARK INTER:                  -7.150
REMARK INTRA:                  -3.829
REMARK UNBOUND:                -3.031
REMARK SMILES CCCCCCCCCCCCCCCCCCCCCC(=O)[O-]
REMARK SMILES IDX 12 1 11 2 10 3 9 4 8 5 7 6 6 7 5 8 4 9 3 10 2 11 1 12 13 13
REMARK SMILES IDX 14 14 15 15 16 16 17 17 18 18 19 19 20 20 21 21 22 22 23 23
REMARK SMILES IDX 24 24
REMARK H PARENT
REMARK Flexibility Score: inf
ROOT
ATOM      1  C   UNL     1     -14.123  47.459  -9.935  1.00  0.00     0.000 C 
ENDROOT
BRANCH   1   2
ATOM      2  C   UNL     1     -14.272  45.944  -9.701  1.00  0.00     0.000 C 
BRANCH   2   3
ATOM      3  C   UNL     1     -14.723  45.131 -10.929  1.00  0.00     0.000 C 
BRANCH   3   4
ATOM      4  C   UNL     1     -15.864  44.152 -10.613  1.00  0.00    -0.000 C 
BRANCH   4   5
ATOM      5  C   UNL     1     -15.929  43.776  -9.120  1.00  0.00    -0.000 C 
BRANCH   5   6
ATOM      6  C   UNL     1     -17.311  43.305  -8.623  1.00  0.00    -0.000 C 
BRANCH   6   7
ATOM      7  C   UNL     1     -18.382  43.144  -9.721  1.00  0.00    -0.000 C 
BRANCH   7   8
ATOM      8  C   UNL     1     -19.834  43.105  -9.212  1.00  0.00    -0.000 C 
BRANCH   8   9
ATOM      9  C   UNL     1     -20.544  44.462  -9.332  1.00  0.00    -0.000 C 
BRANCH   9  10
ATOM     10  C   UNL     1     -20.530  45.212  -7.993  1.00  0.00    -0.000 C 
BRANCH  10  11
ATOM     11  C   UNL     1     -20.910  44.311  -6.807  1.00  0.00    -0.003 C 
ATOM     12  C   UNL     1     -19.859  44.319  -5.697  1.00  0.00     0.004 C 
ENDBRANCH  10  11
ENDBRANCH   9  10
ENDBRANCH   8   9
ENDBRANCH   7   8
ENDBRANCH   6   7
ENDBRANCH   5   6
ENDBRANCH   4   5
ENDBRANCH   3   4
ENDBRANCH   2   3
ENDBRANCH   1   2
BRANCH   1  13
ATOM     13  C   UNL     1     -14.950  47.966 -11.124  1.00  0.00     0.000 C 
BRANCH  13  14
ATOM     14  C   UNL     1     -16.267  48.603 -10.655  1.00  0.00     0.000 C 
BRANCH  14  15
ATOM     15  C   UNL     1     -17.452  47.616 -10.723  1.00  0.00     0.000 C 
BRANCH  15  16
ATOM     16  C   UNL     1     -17.804  46.974  -9.370  1.00  0.00     0.000 C 
BRANCH  16  17
ATOM     17  C   UNL     1     -17.333  47.807  -8.170  1.00  0.00     0.000 C 
BRANCH  17  18
ATOM     18  C   UNL     1     -18.210  47.613  -6.922  1.00  0.00     0.000 C 
BRANCH  18  19
ATOM     19  C   UNL     1     -17.478  46.923  -5.750  1.00  0.00     0.000 C 
BRANCH  19  20
ATOM     20  C   UNL     1     -16.548  45.799  -6.229  1.00  0.00     0.006 C 
BRANCH  20  21
ATOM     21  C   UNL     1     -15.352  45.635  -5.286  1.00  0.00     0.053 C 
BRANCH  21  22
ATOM     22  C   UNL     1     -14.533  46.885  -5.258  1.00  0.00     0.041 C 
ATOM     23  O   UNL     1     -14.430  47.553  -4.195  1.00  0.00    -0.550 OA
ATOM     24  O   UNL     1     -13.914  47.336  -6.417  1.00  0.00    -0.550 OA
ENDBRANCH  21  22
ENDBRANCH  20  21
ENDBRANCH  19  20
ENDBRANCH  18  19
ENDBRANCH  17  18
ENDBRANCH  16  17
ENDBRANCH  15  16
ENDBRANCH  14  15
ENDBRANCH  13  14
ENDBRANCH   1  13
TORSDOF 20
ENDMDL
MODEL 6
REMARK VINA RESULT:    -3.663      1.426      2.000
REMARK INTER + INTRA:         -10.976
REMARK INTER:                  -7.440
REMARK INTRA:                  -3.536
REMARK UNBOUND:                -3.031
REMARK SMILES CCCCCCCCCCCCCCCCCCCCCC(=O)[O-]
REMARK SMILES IDX 12 1 11 2 10 3 9 4 8 5 7 6 6 7 5 8 4 9 3 10 2 11 1 12 13 13
REMARK SMILES IDX 14 14 15 15 16 16 17 17 18 18 19 19 20 20 21 21 22 22 23 23
REMARK SMILES IDX 24 24
REMARK H PARENT
REMARK Flexibility Score: inf
ROOT
ATOM      1  C   UNL     1     -17.429  43.140  -8.420  1.00  0.00     0.000 C 
ENDROOT
BRANCH   1   2
ATOM      2  C   UNL     1     -18.125  42.738  -9.734  1.00  0.00     0.000 C 
BRANCH   2   3
ATOM      3  C   UNL     1     -19.563  42.208  -9.581  1.00  0.00     0.000 C 
BRANCH   3   4
ATOM      4  C   UNL     1     -20.594  43.037 -10.364  1.00  0.00    -0.000 C 
BRANCH   4   5
ATOM      5  C   UNL     1     -20.151  44.499 -10.566  1.00  0.00    -0.000 C 
BRANCH   5   6
ATOM      6  C   UNL     1     -20.764  45.511  -9.577  1.00  0.00    -0.000 C 
BRANCH   6   7
ATOM      7  C   UNL     1     -20.679  45.109  -8.092  1.00  0.00    -0.000 C 
BRANCH   7   8
ATOM      8  C   UNL     1     -19.853  46.060  -7.207  1.00  0.00    -0.000 C 
BRANCH   8   9
ATOM      9  C   UNL     1     -19.316  45.379  -5.940  1.00  0.00    -0.000 C 
BRANCH   9  10
ATOM     10  C   UNL     1     -19.964  44.002  -5.736  1.00  0.00    -0.000 C 
BRANCH  10  11
ATOM     11  C   UNL     1     -20.749  43.907  -4.419  1.00  0.00    -0.003 C 
ATOM     12  C   UNL     1     -21.107  42.468  -4.045  1.00  0.00     0.004 C 
ENDBRANCH  10  11
ENDBRANCH   9  10
ENDBRANCH   8   9
ENDBRANCH   7   8
ENDBRANCH   6   7
ENDBRANCH   5   6
ENDBRANCH   4   5
ENDBRANCH   3   4
ENDBRANCH   2   3
ENDBRANCH   1   2
BRANCH   1  13
ATOM     13  C   UNL     1     -16.552  44.392  -8.564  1.00  0.00     0.000 C 
BRANCH  13  14
ATOM     14  C   UNL     1     -16.202  44.660 -10.035  1.00  0.00     0.000 C 
BRANCH  14  15
ATOM     15  C   UNL     1     -16.660  46.059 -10.500  1.00  0.00     0.000 C 
BRANCH  15  16
ATOM     16  C   UNL     1     -17.339  46.890  -9.397  1.00  0.00     0.000 C 
BRANCH  16  17
ATOM     17  C   UNL     1     -16.539  48.143  -9.012  1.00  0.00     0.000 C 
BRANCH  17  18
ATOM     18  C   UNL     1     -15.215  48.272  -9.785  1.00  0.00     0.000 C 
BRANCH  18  19
ATOM     19  C   UNL     1     -13.972  47.890  -8.954  1.00  0.00     0.000 C 
BRANCH  19  20
ATOM     20  C   UNL     1     -14.252  47.920  -7.444  1.00  0.00     0.006 C 
BRANCH  20  21
ATOM     21  C   UNL     1     -14.078  46.530  -6.823  1.00  0.00     0.053 C 
BRANCH  21  22
ATOM     22  C   UNL     1     -14.895  46.408  -5.578  1.00  0.00     0.041 C 
ATOM     23  O   UNL     1     -15.801  45.537  -5.495  1.00  0.00    -0.550 OA
ATOM     24  O   UNL     1     -14.684  47.284  -4.520  1.00  0.00    -0.550 OA
ENDBRANCH  21  22
ENDBRANCH  20  21
ENDBRANCH  19  20
ENDBRANCH  18  19
ENDBRANCH  17  18
ENDBRANCH  16  17
ENDBRANCH  15  16
ENDBRANCH  14  15
ENDBRANCH  13  14
ENDBRANCH   1  13
TORSDOF 20
ENDMDL
MODEL 7
REMARK VINA RESULT:    -3.641      2.499      4.778
REMARK INTER + INTRA:         -10.928
REMARK INTER:                  -8.132
REMARK INTRA:                  -2.796
REMARK UNBOUND:                -3.031
REMARK SMILES CCCCCCCCCCCCCCCCCCCCCC(=O)[O-]
REMARK SMILES IDX 12 1 11 2 10 3 9 4 8 5 7 6 6 7 5 8 4 9 3 10 2 11 1 12 13 13
REMARK SMILES IDX 14 14 15 15 16 16 17 17 18 18 19 19 20 20 21 21 22 22 23 23
REMARK SMILES IDX 24 24
REMARK H PARENT
REMARK Flexibility Score: inf
ROOT
ATOM      1  C   UNL     1     -20.226  44.588  -6.654  1.00  0.00     0.000 C 
ENDROOT
BRANCH   1   2
ATOM      2  C   UNL     1     -21.101  45.151  -7.788  1.00  0.00     0.000 C 
BRANCH   2   3
ATOM      3  C   UNL     1     -20.743  44.655  -9.202  1.00  0.00     0.000 C 
BRANCH   3   4
ATOM      4  C   UNL     1     -20.449  43.147  -9.252  1.00  0.00    -0.000 C 
BRANCH   4   5
ATOM      5  C   UNL     1     -19.242  42.806 -10.147  1.00  0.00    -0.000 C 
BRANCH   5   6
ATOM      6  C   UNL     1     -17.867  43.192  -9.565  1.00  0.00    -0.000 C 
BRANCH   6   7
ATOM      7  C   UNL     1     -17.625  42.753  -8.107  1.00  0.00    -0.000 C 
BRANCH   7   8
ATOM      8  C   UNL     1     -16.250  43.136  -7.532  1.00  0.00    -0.000 C 
BRANCH   8   9
ATOM      9  C   UNL     1     -15.998  44.651  -7.548  1.00  0.00    -0.000 C 
BRANCH   9  10
ATOM     10  C   UNL     1     -15.796  45.192  -6.126  1.00  0.00    -0.000 C 
BRANCH  10  11
ATOM     11  C   UNL     1     -15.018  46.517  -6.102  1.00  0.00    -0.003 C 
ATOM     12  C   UNL     1     -14.123  46.656  -4.870  1.00  0.00     0.004 C 
ENDBRANCH  10  11
ENDBRANCH   9  10
ENDBRANCH   8   9
ENDBRANCH   7   8
ENDBRANCH   6   7
ENDBRANCH   5   6
ENDBRANCH   4   5
ENDBRANCH   3   4
ENDBRANCH   2   3
ENDBRANCH   1   2
BRANCH   1  13
ATOM     13  C   UNL     1     -19.210  45.607  -6.118  1.00  0.00     0.000 C 
BRANCH  13  14
ATOM     14  C   UNL     1     -19.502  47.017  -6.652  1.00  0.00     0.000 C 
BRANCH  14  15
ATOM     15  C   UNL     1     -18.302  47.612  -7.421  1.00  0.00     0.000 C 
BRANCH  15  16
ATOM     16  C   UNL     1     -17.869  46.778  -8.639  1.00  0.00     0.000 C 
BRANCH  16  17
ATOM     17  C   UNL     1     -17.226  47.624  -9.747  1.00  0.00     0.000 C 
BRANCH  17  18
ATOM     18  C   UNL     1     -15.970  46.972 -10.349  1.00  0.00     0.000 C 
BRANCH  18  19
ATOM     19  C   UNL     1     -14.722  47.880 -10.316  1.00  0.00     0.000 C 
BRANCH  19  20
ATOM     20  C   UNL     1     -15.089  49.364 -10.171  1.00  0.00     0.006 C 
BRANCH  20  21
ATOM     21  C   UNL     1     -14.249  50.036  -9.079  1.00  0.00     0.053 C 
BRANCH  21  22
ATOM     22  C   UNL     1     -14.357  51.523  -9.178  1.00  0.00     0.041 C 
ATOM     23  O   UNL     1     -14.455  52.080 -10.304  1.00  0.00    -0.550 OA
ATOM     24  O   UNL     1     -14.308  52.300  -8.028  1.00  0.00    -0.550 OA
ENDBRANCH  21  22
ENDBRANCH  20  21
ENDBRANCH  19  20
ENDBRANCH  18  19
ENDBRANCH  17  18
ENDBRANCH  16  17
ENDBRANCH  15  16
ENDBRANCH  14  15
ENDBRANCH  13  14
ENDBRANCH   1  13
TORSDOF 20
ENDMDL
MODEL 8
REMARK VINA RESULT:    -3.609      1.868      4.521
REMARK INTER + INTRA:         -10.859
REMARK INTER:                  -7.600
REMARK INTRA:                  -3.260
REMARK UNBOUND:                -3.031
REMARK SMILES CCCCCCCCCCCCCCCCCCCCCC(=O)[O-]
REMARK SMILES IDX 12 1 11 2 10 3 9 4 8 5 7 6 6 7 5 8 4 9 3 10 2 11 1 12 13 13
REMARK SMILES IDX 14 14 15 15 16 16 17 17 18 18 19 19 20 20 21 21 22 22 23 23
REMARK SMILES IDX 24 24
REMARK H PARENT
REMARK Flexibility Score: inf
ROOT
ATOM      1  C   UNL     1     -20.555  45.100  -7.033  1.00  0.00     0.000 C 
ENDROOT
BRANCH   1   2
ATOM      2  C   UNL     1     -19.982  44.685  -5.666  1.00  0.00     0.000 C 
BRANCH   2   3
ATOM      3  C   UNL     1     -19.020  43.481  -5.695  1.00  0.00     0.000 C 
BRANCH   3   4
ATOM      4  C   UNL     1     -17.568  43.882  -6.001  1.00  0.00    -0.000 C 
BRANCH   4   5
ATOM      5  C   UNL     1     -17.081  43.359  -7.365  1.00  0.00    -0.000 C 
BRANCH   5   6
ATOM      6  C   UNL     1     -17.239  44.348  -8.539  1.00  0.00    -0.000 C 
BRANCH   6   7
ATOM      7  C   UNL     1     -16.962  43.756  -9.935  1.00  0.00    -0.000 C 
BRANCH   7   8
ATOM      8  C   UNL     1     -18.154  43.029 -10.582  1.00  0.00    -0.000 C 
BRANCH   8   9
ATOM      9  C   UNL     1     -19.146  42.474  -9.549  1.00  0.00    -0.000 C 
BRANCH   9  10
ATOM     10  C   UNL     1     -20.559  43.024  -9.791  1.00  0.00    -0.000 C 
BRANCH  10  11
ATOM     11  C   UNL     1     -20.680  43.777 -11.125  1.00  0.00    -0.003 C 
ATOM     12  C   UNL     1     -20.692  45.295 -10.948  1.00  0.00     0.004 C 
ENDBRANCH  10  11
ENDBRANCH   9  10
ENDBRANCH   8   9
ENDBRANCH   7   8
ENDBRANCH   6   7
ENDBRANCH   5   6
ENDBRANCH   4   5
ENDBRANCH   3   4
ENDBRANCH   2   3
ENDBRANCH   1   2
BRANCH   1  13
ATOM     13  C   UNL     1     -19.843  46.320  -7.637  1.00  0.00     0.000 C 
BRANCH  13  14
ATOM     14  C   UNL     1     -19.338  47.269  -6.539  1.00  0.00     0.000 C 
BRANCH  14  15
ATOM     15  C   UNL     1     -17.799  47.388  -6.531  1.00  0.00     0.000 C 
BRANCH  15  16
ATOM     16  C   UNL     1     -17.175  47.267  -5.130  1.00  0.00     0.000 C 
BRANCH  16  17
ATOM     17  C   UNL     1     -15.690  46.879  -5.167  1.00  0.00     0.000 C 
BRANCH  17  18
ATOM     18  C   UNL     1     -15.190  46.548  -6.584  1.00  0.00     0.000 C 
BRANCH  18  19
ATOM     19  C   UNL     1     -13.960  47.375  -7.017  1.00  0.00     0.000 C 
BRANCH  19  20
ATOM     20  C   UNL     1     -14.182  48.085  -8.360  1.00  0.00     0.006 C 
BRANCH  20  21
ATOM     21  C   UNL     1     -15.192  47.324  -9.226  1.00  0.00     0.053 C 
BRANCH  21  22
ATOM     22  C   UNL     1     -16.184  48.269  -9.824  1.00  0.00     0.041 C 
ATOM     23  O   UNL     1     -15.994  49.513  -9.762  1.00  0.00    -0.550 OA
ATOM     24  O   UNL     1     -17.340  47.778 -10.417  1.00  0.00    -0.550 OA
ENDBRANCH  21  22
ENDBRANCH  20  21
ENDBRANCH  19  20
ENDBRANCH  18  19
ENDBRANCH  17  18
ENDBRANCH  16  17
ENDBRANCH  15  16
ENDBRANCH  14  15
ENDBRANCH  13  14
ENDBRANCH   1  13
TORSDOF 20
ENDMDL
MODEL 9
REMARK VINA RESULT:    -2.606      2.448      4.436
REMARK INTER + INTRA:          -8.683
REMARK INTER:                  -4.771
REMARK INTRA:                  -3.912
REMARK UNBOUND:                -3.031
REMARK SMILES CCCCCCCCCCCCCCCCCCCCCC(=O)[O-]
REMARK SMILES IDX 12 1 11 2 10 3 9 4 8 5 7 6 6 7 5 8 4 9 3 10 2 11 1 12 13 13
REMARK SMILES IDX 14 14 15 15 16 16 17 17 18 18 19 19 20 20 21 21 22 22 23 23
REMARK SMILES IDX 24 24
REMARK H PARENT
REMARK Flexibility Score: inf
ROOT
ATOM      1  C   UNL     1     -19.141  44.202  -5.804  1.00  0.00     0.000 C 
ENDROOT
BRANCH   1   2
ATOM      2  C   UNL     1     -17.640  43.941  -6.029  1.00  0.00     0.000 C 
BRANCH   2   3
ATOM      3  C   UNL     1     -17.295  43.152  -7.306  1.00  0.00     0.000 C 
BRANCH   3   4
ATOM      4  C   UNL     1     -16.483  43.975  -8.319  1.00  0.00    -0.000 C 
BRANCH   4   5
ATOM      5  C   UNL     1     -16.467  43.343  -9.723  1.00  0.00    -0.000 C 
BRANCH   5   6
ATOM      6  C   UNL     1     -16.610  44.339 -10.892  1.00  0.00    -0.000 C 
BRANCH   6   7
ATOM      7  C   UNL     1     -17.645  45.460 -10.673  1.00  0.00    -0.000 C 
BRANCH   7   8
ATOM      8  C   UNL     1     -19.116  45.013 -10.752  1.00  0.00    -0.000 C 
BRANCH   8   9
ATOM      9  C   UNL     1     -19.854  45.153  -9.413  1.00  0.00    -0.000 C 
BRANCH   9  10
ATOM     10  C   UNL     1     -20.580  43.850  -9.045  1.00  0.00    -0.000 C 
BRANCH  10  11
ATOM     11  C   UNL     1     -20.419  42.761 -10.117  1.00  0.00    -0.003 C 
ATOM     12  C   UNL     1     -19.574  41.580  -9.639  1.00  0.00     0.004 C 
ENDBRANCH  10  11
ENDBRANCH   9  10
ENDBRANCH   8   9
ENDBRANCH   7   8
ENDBRANCH   6   7
ENDBRANCH   5   6
ENDBRANCH   4   5
ENDBRANCH   3   4
ENDBRANCH   2   3
ENDBRANCH   1   2
BRANCH   1  13
ATOM     13  C   UNL     1     -19.502  45.694  -5.834  1.00  0.00     0.000 C 
BRANCH  13  14
ATOM     14  C   UNL     1     -18.245  46.568  -5.964  1.00  0.00     0.000 C 
BRANCH  14  15
ATOM     15  C   UNL     1     -18.381  47.628  -7.079  1.00  0.00     0.000 C 
BRANCH  15  16
ATOM     16  C   UNL     1     -17.202  47.643  -8.068  1.00  0.00     0.000 C 
BRANCH  16  17
ATOM     17  C   UNL     1     -15.952  46.937  -7.522  1.00  0.00     0.000 C 
BRANCH  17  18
ATOM     18  C   UNL     1     -14.650  47.434  -8.172  1.00  0.00     0.000 C 
BRANCH  18  19
ATOM     19  C   UNL     1     -14.328  46.749  -9.518  1.00  0.00     0.000 C 
BRANCH  19  20
ATOM     20  C   UNL     1     -14.210  47.759 -10.669  1.00  0.00     0.006 C 
BRANCH  20  21
ATOM     21  C   UNL     1     -15.474  48.617 -10.782  1.00  0.00     0.053 C 
BRANCH  21  22
ATOM     22  C   UNL     1     -15.123  50.070 -10.759  1.00  0.00     0.041 C 
ATOM     23  O   UNL     1     -13.983  50.442 -10.374  1.00  0.00    -0.550 OA
ATOM     24  O   UNL     1     -16.070  51.019 -11.125  1.00  0.00    -0.550 OA
ENDBRANCH  21  22
ENDBRANCH  20  21
ENDBRANCH  19  20
ENDBRANCH  18  19
ENDBRANCH  17  18
ENDBRANCH  16  17
ENDBRANCH  15  16
ENDBRANCH  14  15
ENDBRANCH  13  14
ENDBRANCH   1  13
TORSDOF 20
ENDMDL
