MODEL 1
REMARK VINA RESULT:    -1.709      0.000      0.000
REMARK INTER + INTRA:          -3.440
REMARK INTER:                  -2.708
REMARK INTRA:                  -0.732
REMARK UNBOUND:                -0.732
REMARK SMILES C=CCCCCCCCCCCC
REMARK SMILES IDX 7 1 8 2 9 3 10 4 11 5 12 6 13 7 6 8 5 9 4 10 3 11 2 12 1 13
REMARK H PARENT
REMARK Flexibility Score: inf
ROOT
ATOM      1  C   UNL     1     135.793 140.100 164.143  1.00  0.00     0.000 C 
ENDROOT
BRANCH   1   2
ATOM      2  C   UNL     1     135.555 140.992 162.908  1.00  0.00     0.000 C 
BRANCH   2   3
ATOM      3  C   UNL     1     136.800 141.243 162.039  1.00  0.00    -0.000 C 
BRANCH   3   4
ATOM      4  C   UNL     1     136.659 142.475 161.133  1.00  0.00    -0.000 C 
BRANCH   4   5
ATOM      5  C   UNL     1     137.943 142.710 160.323  1.00  0.00    -0.000 C 
BRANCH   5   6
ATOM      6  C   UNL     1     137.926 144.046 159.565  1.00  0.00    -0.003 C 
ATOM      7  C   UNL     1     136.947 144.048 158.391  1.00  0.00     0.004 C 
ENDBRANCH   5   6
ENDBRANCH   4   5
ENDBRANCH   3   4
ENDBRANCH   2   3
ENDBRANCH   1   2
BRANCH   1   8
ATOM      8  C   UNL     1     135.935 138.595 163.842  1.00  0.00     0.000 C 
BRANCH   8   9
ATOM      9  C   UNL     1     134.902 138.027 162.848  1.00  0.00     0.000 C 
BRANCH   9  10
ATOM     10  C   UNL     1     135.478 137.614 161.482  1.00  0.00     0.004 C 
BRANCH  10  11
ATOM     11  C   UNL     1     136.977 137.284 161.542  1.00  0.00     0.027 C 
BRANCH  11  12
ATOM     12  C   UNL     1     137.199 135.825 161.834  1.00  0.00    -0.035 C 
ATOM     13  C   UNL     1     136.272 134.904 161.556  1.00  0.00     0.004 C 
ENDBRANCH  11  12
ENDBRANCH  10  11
ENDBRANCH   9  10
ENDBRANCH   8   9
ENDBRANCH   1   8
TORSDOF 10
ENDMDL
MODEL 2
REMARK VINA RESULT:    -1.327      0.662      6.308
REMARK INTER + INTRA:          -2.835
REMARK INTER:                  -2.266
REMARK INTRA:                  -0.569
REMARK UNBOUND:                -0.732
REMARK SMILES C=CCCCCCCCCCCC
REMARK SMILES IDX 7 1 8 2 9 3 10 4 11 5 12 6 13 7 6 8 5 9 4 10 3 11 2 12 1 13
REMARK H PARENT
REMARK Flexibility Score: inf
ROOT
ATOM      1  C   UNL     1     135.025 140.408 162.789  1.00  0.00     0.000 C 
ENDROOT
BRANCH   1   2
ATOM      2  C   UNL     1     135.380 139.153 163.612  1.00  0.00     0.000 C 
BRANCH   2   3
ATOM      3  C   UNL     1     134.938 137.819 162.985  1.00  0.00    -0.000 C 
BRANCH   3   4
ATOM      4  C   UNL     1     135.484 137.615 161.564  1.00  0.00    -0.000 C 
BRANCH   4   5
ATOM      5  C   UNL     1     136.993 137.329 161.593  1.00  0.00    -0.000 C 
BRANCH   5   6
ATOM      6  C   UNL     1     137.311 135.876 161.976  1.00  0.00    -0.003 C 
ATOM      7  C   UNL     1     136.226 134.895 161.530  1.00  0.00     0.004 C 
ENDBRANCH   5   6
ENDBRANCH   4   5
ENDBRANCH   3   4
ENDBRANCH   2   3
ENDBRANCH   1   2
BRANCH   1   8
ATOM      8  C   UNL     1     136.113 141.499 162.763  1.00  0.00     0.000 C 
BRANCH   8   9
ATOM      9  C   UNL     1     136.427 142.075 161.367  1.00  0.00     0.000 C 
BRANCH   9  10
ATOM     10  C   UNL     1     137.922 142.308 161.084  1.00  0.00     0.004 C 
BRANCH  10  11
ATOM     11  C   UNL     1     138.170 143.477 160.121  1.00  0.00     0.027 C 
BRANCH  11  12
ATOM     12  C   UNL     1     137.197 143.452 158.974  1.00  0.00    -0.035 C 
ATOM     13  C   UNL     1     137.031 144.507 158.171  1.00  0.00     0.004 C 
ENDBRANCH  11  12
ENDBRANCH  10  11
ENDBRANCH   9  10
ENDBRANCH   8   9
ENDBRANCH   1   8
TORSDOF 10
ENDMDL
MODEL 3
REMARK VINA RESULT:    -0.329      2.683      5.367
REMARK INTER + INTRA:          -1.254
REMARK INTER:                  -0.740
REMARK INTRA:                  -0.513
REMARK UNBOUND:                -0.732
REMARK SMILES C=CCCCCCCCCCCC
REMARK SMILES IDX 7 1 8 2 9 3 10 4 11 5 12 6 13 7 6 8 5 9 4 10 3 11 2 12 1 13
REMARK H PARENT
REMARK Flexibility Score: inf
ROOT
ATOM      1  C   UNL     1     135.855 140.281 162.583  1.00  0.00     0.000 C 
ENDROOT
BRANCH   1   2
ATOM      2  C   UNL     1     135.379 140.684 163.993  1.00  0.00     0.000 C 
BRANCH   2   3
ATOM      3  C   UNL     1     136.388 140.411 165.122  1.00  0.00    -0.000 C 
BRANCH   3   4
ATOM      4  C   UNL     1     136.577 138.913 165.406  1.00  0.00    -0.000 C 
BRANCH   4   5
ATOM      5  C   UNL     1     137.096 138.688 166.835  1.00  0.00    -0.000 C 
BRANCH   5   6
ATOM      6  C   UNL     1     137.380 137.208 167.133  1.00  0.00    -0.003 C 
ATOM      7  C   UNL     1     136.762 136.740 168.450  1.00  0.00     0.004 C 
ENDBRANCH   5   6
ENDBRANCH   4   5
ENDBRANCH   3   4
ENDBRANCH   2   3
ENDBRANCH   1   2
BRANCH   1   8
ATOM      8  C   UNL     1     135.011 139.189 161.897  1.00  0.00     0.000 C 
BRANCH   8   9
ATOM      9  C   UNL     1     134.974 137.834 162.631  1.00  0.00     0.000 C 
BRANCH   9  10
ATOM     10  C   UNL     1     135.089 136.599 161.719  1.00  0.00     0.004 C 
BRANCH  10  11
ATOM     11  C   UNL     1     136.491 136.434 161.115  1.00  0.00     0.027 C 
BRANCH  11  12
ATOM     12  C   UNL     1     137.100 135.116 161.509  1.00  0.00    -0.035 C 
ATOM     13  C   UNL     1     137.507 134.876 162.759  1.00  0.00     0.004 C 
ENDBRANCH  11  12
ENDBRANCH  10  11
ENDBRANCH   9  10
ENDBRANCH   8   9
ENDBRANCH   1   8
TORSDOF 10
ENDMDL
