MODEL 1
REMARK VINA RESULT:    -4.744      0.000      0.000
REMARK INTER + INTRA:          -7.928
REMARK INTER:                  -7.240
REMARK INTRA:                  -0.688
REMARK UNBOUND:                -0.688
REMARK SMILES O=C([O-])CCCCCCCCC(=O)[O-]
REMARK SMILES IDX 7 1 6 2 5 3 4 4 2 5 1 6 3 7 8 8 9 9 10 10 11 11 12 12 13 13
REMARK SMILES IDX 14 14
REMARK H PARENT
REMARK Flexibility Score: inf
ROOT
ATOM      1  C   UNL     1     -16.230   3.084 -19.914  1.00  0.00     0.000 C 
ENDROOT
BRANCH   1   2
ATOM      2  C   UNL     1     -14.972   2.291 -19.516  1.00  0.00     0.000 C 
BRANCH   2   3
ATOM      3  C   UNL     1     -14.887   0.922 -20.215  1.00  0.00     0.006 C 
BRANCH   3   4
ATOM      4  C   UNL     1     -13.781   0.823 -21.277  1.00  0.00     0.053 C 
BRANCH   4   5
ATOM      5  C   UNL     1     -14.227   1.363 -22.602  1.00  0.00     0.041 C 
ATOM      6  O   UNL     1     -15.053   0.720 -23.303  1.00  0.00    -0.550 OA
ATOM      7  O   UNL     1     -13.756   2.591 -23.046  1.00  0.00    -0.550 OA
ENDBRANCH   4   5
ENDBRANCH   3   4
ENDBRANCH   2   3
ENDBRANCH   1   2
BRANCH   1   8
ATOM      8  C   UNL     1     -15.894   4.481 -20.461  1.00  0.00     0.000 C 
BRANCH   8   9
ATOM      9  C   UNL     1     -14.381   4.760 -20.474  1.00  0.00     0.000 C 
BRANCH   9  10
ATOM     10  C   UNL     1     -13.997   5.953 -21.369  1.00  0.00     0.006 C 
BRANCH  10  11
ATOM     11  C   UNL     1     -13.357   7.126 -20.605  1.00  0.00     0.053 C 
BRANCH  11  12
ATOM     12  C   UNL     1     -14.336   8.218 -20.298  1.00  0.00     0.041 C 
ATOM     13  O   UNL     1     -15.354   7.982 -19.595  1.00  0.00    -0.550 OA
ATOM     14  O   UNL     1     -14.142   9.493 -20.816  1.00  0.00    -0.550 OA
ENDBRANCH  11  12
ENDBRANCH  10  11
ENDBRANCH   9  10
ENDBRANCH   8   9
ENDBRANCH   1   8
TORSDOF 9
ENDMDL
MODEL 2
REMARK VINA RESULT:    -4.744      4.461      6.624
REMARK INTER + INTRA:          -7.928
REMARK INTER:                  -7.171
REMARK INTRA:                  -0.757
REMARK UNBOUND:                -0.688
REMARK SMILES O=C([O-])CCCCCCCCC(=O)[O-]
REMARK SMILES IDX 7 1 6 2 5 3 4 4 2 5 1 6 3 7 8 8 9 9 10 10 11 11 12 12 13 13
REMARK SMILES IDX 14 14
REMARK H PARENT
REMARK Flexibility Score: inf
ROOT
ATOM      1  C   UNL     1     -16.274   3.056 -20.034  1.00  0.00     0.000 C 
ENDROOT
BRANCH   1   2
ATOM      2  C   UNL     1     -16.219   2.982 -21.571  1.00  0.00     0.000 C 
BRANCH   2   3
ATOM      3  C   UNL     1     -17.577   2.616 -22.197  1.00  0.00     0.006 C 
BRANCH   3   4
ATOM      4  C   UNL     1     -17.475   1.791 -23.489  1.00  0.00     0.053 C 
BRANCH   4   5
ATOM      5  C   UNL     1     -16.894   0.433 -23.241  1.00  0.00     0.041 C 
ATOM      6  O   UNL     1     -17.512  -0.400 -22.526  1.00  0.00    -0.550 OA
ATOM      7  O   UNL     1     -15.687   0.074 -23.828  1.00  0.00    -0.550 OA
ENDBRANCH   4   5
ENDBRANCH   3   4
ENDBRANCH   2   3
ENDBRANCH   1   2
BRANCH   1   8
ATOM      8  C   UNL     1     -15.277   2.098 -19.364  1.00  0.00     0.000 C 
BRANCH   8   9
ATOM      9  C   UNL     1     -14.694   1.071 -20.351  1.00  0.00     0.000 C 
BRANCH   9  10
ATOM     10  C   UNL     1     -14.729  -0.371 -19.810  1.00  0.00     0.006 C 
BRANCH  10  11
ATOM     11  C   UNL     1     -14.504  -1.447 -20.886  1.00  0.00     0.053 C 
BRANCH  11  12
ATOM     12  C   UNL     1     -13.715  -2.616 -20.380  1.00  0.00     0.041 C 
ATOM     13  O   UNL     1     -13.469  -3.593 -21.136  1.00  0.00    -0.550 OA
ATOM     14  O   UNL     1     -13.276  -2.641 -19.062  1.00  0.00    -0.550 OA
ENDBRANCH  11  12
ENDBRANCH  10  11
ENDBRANCH   9  10
ENDBRANCH   8   9
ENDBRANCH   1   8
TORSDOF 9
ENDMDL
MODEL 3
REMARK VINA RESULT:    -4.682      4.242      5.633
REMARK INTER + INTRA:          -7.834
REMARK INTER:                  -7.056
REMARK INTRA:                  -0.778
REMARK UNBOUND:                -0.688
REMARK SMILES O=C([O-])CCCCCCCCC(=O)[O-]
REMARK SMILES IDX 7 1 6 2 5 3 4 4 2 5 1 6 3 7 8 8 9 9 10 10 11 11 12 12 13 13
REMARK SMILES IDX 14 14
REMARK H PARENT
REMARK Flexibility Score: inf
ROOT
ATOM      1  C   UNL     1     -15.356   2.007 -19.451  1.00  0.00     0.000 C 
ENDROOT
BRANCH   1   2
ATOM      2  C   UNL     1     -14.505   1.082 -20.340  1.00  0.00     0.000 C 
BRANCH   2   3
ATOM      3  C   UNL     1     -14.931  -0.394 -20.240  1.00  0.00     0.006 C 
BRANCH   3   4
ATOM      4  C   UNL     1     -14.089  -1.229 -19.262  1.00  0.00     0.053 C 
BRANCH   4   5
ATOM      5  C   UNL     1     -13.561  -2.476 -19.902  1.00  0.00     0.041 C 
ATOM      6  O   UNL     1     -13.877  -2.764 -21.087  1.00  0.00    -0.550 OA
ATOM      7  O   UNL     1     -12.694  -3.304 -19.201  1.00  0.00    -0.550 OA
ENDBRANCH   4   5
ENDBRANCH   3   4
ENDBRANCH   2   3
ENDBRANCH   1   2
BRANCH   1   8
ATOM      8  C   UNL     1     -15.952   3.188 -20.234  1.00  0.00     0.000 C 
BRANCH   8   9
ATOM      9  C   UNL     1     -16.077   2.894 -21.739  1.00  0.00     0.000 C 
BRANCH   9  10
ATOM     10  C   UNL     1     -17.487   2.424 -22.145  1.00  0.00     0.006 C 
BRANCH  10  11
ATOM     11  C   UNL     1     -17.537   0.977 -22.666  1.00  0.00     0.053 C 
BRANCH  11  12
ATOM     12  C   UNL     1     -16.571   0.731 -23.785  1.00  0.00     0.041 C 
ATOM     13  O   UNL     1     -15.622  -0.084 -23.638  1.00  0.00    -0.550 OA
ATOM     14  O   UNL     1     -16.698   1.427 -24.980  1.00  0.00    -0.550 OA
ENDBRANCH  11  12
ENDBRANCH  10  11
ENDBRANCH   9  10
ENDBRANCH   8   9
ENDBRANCH   1   8
TORSDOF 9
ENDMDL
MODEL 4
REMARK VINA RESULT:    -4.667      2.515      6.267
REMARK INTER + INTRA:          -7.811
REMARK INTER:                  -6.998
REMARK INTRA:                  -0.813
REMARK UNBOUND:                -0.688
REMARK SMILES O=C([O-])CCCCCCCCC(=O)[O-]
REMARK SMILES IDX 7 1 6 2 5 3 4 4 2 5 1 6 3 7 8 8 9 9 10 10 11 11 12 12 13 13
REMARK SMILES IDX 14 14
REMARK H PARENT
REMARK Flexibility Score: inf
ROOT
ATOM      1  C   UNL     1     -15.105   2.041 -19.506  1.00  0.00     0.000 C 
ENDROOT
BRANCH   1   2
ATOM      2  C   UNL     1     -15.326   2.780 -20.838  1.00  0.00     0.000 C 
BRANCH   2   3
ATOM      3  C   UNL     1     -16.812   3.071 -21.116  1.00  0.00     0.006 C 
BRANCH   3   4
ATOM      4  C   UNL     1     -17.438   4.114 -20.176  1.00  0.00     0.053 C 
BRANCH   4   5
ATOM      5  C   UNL     1     -17.100   5.514 -20.587  1.00  0.00     0.041 C 
ATOM      6  O   UNL     1     -17.738   6.073 -21.517  1.00  0.00    -0.550 OA
ATOM      7  O   UNL     1     -16.101   6.212 -19.920  1.00  0.00    -0.550 OA
ENDBRANCH   4   5
ENDBRANCH   3   4
ENDBRANCH   2   3
ENDBRANCH   1   2
BRANCH   1   8
ATOM      8  C   UNL     1     -14.853   0.538 -19.703  1.00  0.00     0.000 C 
BRANCH   8   9
ATOM      9  C   UNL     1     -14.045   0.240 -20.978  1.00  0.00     0.000 C 
BRANCH   9  10
ATOM     10  C   UNL     1     -14.473  -1.068 -21.670  1.00  0.00     0.006 C 
BRANCH  10  11
ATOM     11  C   UNL     1     -14.976  -0.877 -23.111  1.00  0.00     0.053 C 
BRANCH  11  12
ATOM     12  C   UNL     1     -16.266  -0.118 -23.178  1.00  0.00     0.041 C 
ATOM     13  O   UNL     1     -17.246  -0.465 -22.467  1.00  0.00    -0.550 OA
ATOM     14  O   UNL     1     -16.398   0.954 -24.051  1.00  0.00    -0.550 OA
ENDBRANCH  11  12
ENDBRANCH  10  11
ENDBRANCH   9  10
ENDBRANCH   8   9
ENDBRANCH   1   8
TORSDOF 9
ENDMDL
MODEL 5
REMARK VINA RESULT:    -4.631      2.166      2.771
REMARK INTER + INTRA:          -7.755
REMARK INTER:                  -7.018
REMARK INTRA:                  -0.737
REMARK UNBOUND:                -0.688
REMARK SMILES O=C([O-])CCCCCCCCC(=O)[O-]
REMARK SMILES IDX 7 1 6 2 5 3 4 4 2 5 1 6 3 7 8 8 9 9 10 10 11 11 12 12 13 13
REMARK SMILES IDX 14 14
REMARK H PARENT
REMARK Flexibility Score: inf
ROOT
ATOM      1  C   UNL     1     -15.590   2.571 -21.126  1.00  0.00     0.000 C 
ENDROOT
BRANCH   1   2
ATOM      2  C   UNL     1     -15.241   2.225 -19.667  1.00  0.00     0.000 C 
BRANCH   2   3
ATOM      3  C   UNL     1     -14.943   0.728 -19.467  1.00  0.00     0.006 C 
BRANCH   3   4
ATOM      4  C   UNL     1     -14.241   0.059 -20.660  1.00  0.00     0.053 C 
BRANCH   4   5
ATOM      5  C   UNL     1     -14.992  -1.140 -21.151  1.00  0.00     0.041 C 
ATOM      6  O   UNL     1     -16.114  -1.001 -21.707  1.00  0.00    -0.550 OA
ATOM      7  O   UNL     1     -14.438  -2.407 -21.024  1.00  0.00    -0.550 OA
ENDBRANCH   4   5
ENDBRANCH   3   4
ENDBRANCH   2   3
ENDBRANCH   1   2
BRANCH   1   8
ATOM      8  C   UNL     1     -16.994   3.181 -21.265  1.00  0.00     0.000 C 
BRANCH   8   9
ATOM      9  C   UNL     1     -17.329   4.154 -20.120  1.00  0.00     0.000 C 
BRANCH   9  10
ATOM     10  C   UNL     1     -17.286   5.631 -20.554  1.00  0.00     0.006 C 
BRANCH  10  11
ATOM     11  C   UNL     1     -16.052   6.396 -20.046  1.00  0.00     0.053 C 
BRANCH  11  12
ATOM     12  C   UNL     1     -14.817   6.095 -20.840  1.00  0.00     0.041 C 
ATOM     13  O   UNL     1     -13.769   5.704 -20.261  1.00  0.00    -0.550 OA
ATOM     14  O   UNL     1     -14.813   6.276 -22.217  1.00  0.00    -0.550 OA
ENDBRANCH  11  12
ENDBRANCH  10  11
ENDBRANCH   9  10
ENDBRANCH   8   9
ENDBRANCH   1   8
TORSDOF 9
ENDMDL
MODEL 6
REMARK VINA RESULT:    -4.627      2.048      6.015
REMARK INTER + INTRA:          -7.749
REMARK INTER:                  -6.754
REMARK INTRA:                  -0.995
REMARK UNBOUND:                -0.688
REMARK SMILES O=C([O-])CCCCCCCCC(=O)[O-]
REMARK SMILES IDX 7 1 6 2 5 3 4 4 2 5 1 6 3 7 8 8 9 9 10 10 11 11 12 12 13 13
REMARK SMILES IDX 14 14
REMARK H PARENT
REMARK Flexibility Score: inf
ROOT
ATOM      1  C   UNL     1     -16.234   2.722 -20.458  1.00  0.00     0.000 C 
ENDROOT
BRANCH   1   2
ATOM      2  C   UNL     1     -16.059   3.306 -21.872  1.00  0.00     0.000 C 
BRANCH   2   3
ATOM      3  C   UNL     1     -14.614   3.190 -22.388  1.00  0.00     0.006 C 
BRANCH   3   4
ATOM      4  C   UNL     1     -14.005   4.519 -22.862  1.00  0.00     0.053 C 
BRANCH   4   5
ATOM      5  C   UNL     1     -14.281   5.636 -21.902  1.00  0.00     0.041 C 
ATOM      6  O   UNL     1     -15.028   6.591 -22.239  1.00  0.00    -0.550 OA
ATOM      7  O   UNL     1     -13.738   5.603 -20.624  1.00  0.00    -0.550 OA
ENDBRANCH   4   5
ENDBRANCH   3   4
ENDBRANCH   2   3
ENDBRANCH   1   2
BRANCH   1   8
ATOM      8  C   UNL     1     -14.907   2.231 -19.858  1.00  0.00     0.000 C 
BRANCH   8   9
ATOM      9  C   UNL     1     -14.924   0.724 -19.547  1.00  0.00     0.000 C 
BRANCH   9  10
ATOM     10  C   UNL     1     -14.371  -0.134 -20.700  1.00  0.00     0.006 C 
BRANCH  10  11
ATOM     11  C   UNL     1     -15.407  -1.088 -21.321  1.00  0.00     0.053 C 
BRANCH  11  12
ATOM     12  C   UNL     1     -16.074  -0.508 -22.531  1.00  0.00     0.041 C 
ATOM     13  O   UNL     1     -17.319  -0.311 -22.538  1.00  0.00    -0.550 OA
ATOM     14  O   UNL     1     -15.328  -0.215 -23.665  1.00  0.00    -0.550 OA
ENDBRANCH  11  12
ENDBRANCH  10  11
ENDBRANCH   9  10
ENDBRANCH   8   9
ENDBRANCH   1   8
TORSDOF 9
ENDMDL
MODEL 7
REMARK VINA RESULT:    -4.616      3.731      5.282
REMARK INTER + INTRA:          -7.732
REMARK INTER:                  -7.282
REMARK INTRA:                  -0.451
REMARK UNBOUND:                -0.688
REMARK SMILES O=C([O-])CCCCCCCCC(=O)[O-]
REMARK SMILES IDX 7 1 6 2 5 3 4 4 2 5 1 6 3 7 8 8 9 9 10 10 11 11 12 12 13 13
REMARK SMILES IDX 14 14
REMARK H PARENT
REMARK Flexibility Score: inf
ROOT
ATOM      1  C   UNL     1     -14.154  -0.269 -20.961  1.00  0.00     0.000 C 
ENDROOT
BRANCH   1   2
ATOM      2  C   UNL     1     -14.601  -0.713 -19.557  1.00  0.00     0.000 C 
BRANCH   2   3
ATOM      3  C   UNL     1     -13.849  -1.961 -19.061  1.00  0.00     0.006 C 
BRANCH   3   4
ATOM      4  C   UNL     1     -13.140  -2.754 -20.171  1.00  0.00     0.053 C 
BRANCH   4   5
ATOM      5  C   UNL     1     -12.247  -3.819 -19.615  1.00  0.00     0.041 C 
ATOM      6  O   UNL     1     -12.667  -4.594 -18.716  1.00  0.00    -0.550 OA
ATOM      7  O   UNL     1     -10.960  -3.977 -20.114  1.00  0.00    -0.550 OA
ENDBRANCH   4   5
ENDBRANCH   3   4
ENDBRANCH   2   3
ENDBRANCH   1   2
BRANCH   1   8
ATOM      8  C   UNL     1     -14.215   1.256 -21.142  1.00  0.00     0.000 C 
BRANCH   8   9
ATOM      9  C   UNL     1     -14.828   1.969 -19.924  1.00  0.00     0.000 C 
BRANCH   9  10
ATOM     10  C   UNL     1     -15.291   3.404 -20.237  1.00  0.00     0.006 C 
BRANCH  10  11
ATOM     11  C   UNL     1     -16.819   3.560 -20.337  1.00  0.00     0.053 C 
BRANCH  11  12
ATOM     12  C   UNL     1     -17.329   3.376 -21.733  1.00  0.00     0.041 C 
ATOM     13  O   UNL     1     -17.476   4.371 -22.493  1.00  0.00    -0.550 OA
ATOM     14  O   UNL     1     -17.675   2.110 -22.187  1.00  0.00    -0.550 OA
ENDBRANCH  11  12
ENDBRANCH  10  11
ENDBRANCH   9  10
ENDBRANCH   8   9
ENDBRANCH   1   8
TORSDOF 9
ENDMDL
MODEL 8
REMARK VINA RESULT:    -4.595      2.577      5.535
REMARK INTER + INTRA:          -7.701
REMARK INTER:                  -6.615
REMARK INTRA:                  -1.086
REMARK UNBOUND:                -0.688
REMARK SMILES O=C([O-])CCCCCCCCC(=O)[O-]
REMARK SMILES IDX 7 1 6 2 5 3 4 4 2 5 1 6 3 7 8 8 9 9 10 10 11 11 12 12 13 13
REMARK SMILES IDX 14 14
REMARK H PARENT
REMARK Flexibility Score: inf
ROOT
ATOM      1  C   UNL     1     -14.105   0.859 -21.247  1.00  0.00     0.000 C 
ENDROOT
BRANCH   1   2
ATOM      2  C   UNL     1     -14.737   0.787 -19.845  1.00  0.00     0.000 C 
BRANCH   2   3
ATOM      3  C   UNL     1     -15.364   2.123 -19.407  1.00  0.00     0.006 C 
BRANCH   3   4
ATOM      4  C   UNL     1     -14.917   3.333 -20.242  1.00  0.00     0.053 C 
BRANCH   4   5
ATOM      5  C   UNL     1     -16.067   4.226 -20.593  1.00  0.00     0.041 C 
ATOM      6  O   UNL     1     -15.919   5.147 -21.440  1.00  0.00    -0.550 OA
ATOM      7  O   UNL     1     -17.310   4.021 -20.010  1.00  0.00    -0.550 OA
ENDBRANCH   4   5
ENDBRANCH   3   4
ENDBRANCH   2   3
ENDBRANCH   1   2
BRANCH   1   8
ATOM      8  C   UNL     1     -14.667  -0.209 -22.199  1.00  0.00     0.000 C 
BRANCH   8   9
ATOM      9  C   UNL     1     -16.097  -0.637 -21.826  1.00  0.00     0.000 C 
BRANCH   9  10
ATOM     10  C   UNL     1     -17.158  -0.118 -22.815  1.00  0.00     0.006 C 
BRANCH  10  11
ATOM     11  C   UNL     1     -17.474   1.380 -22.662  1.00  0.00     0.053 C 
BRANCH  11  12
ATOM     12  C   UNL     1     -16.991   2.195 -23.823  1.00  0.00     0.041 C 
ATOM     13  O   UNL     1     -17.722   2.353 -24.836  1.00  0.00    -0.550 OA
ATOM     14  O   UNL     1     -15.720   2.753 -23.801  1.00  0.00    -0.550 OA
ENDBRANCH  11  12
ENDBRANCH  10  11
ENDBRANCH   9  10
ENDBRANCH   8   9
ENDBRANCH   1   8
TORSDOF 9
ENDMDL
MODEL 9
REMARK VINA RESULT:    -4.594      2.334      2.864
REMARK INTER + INTRA:          -7.699
REMARK INTER:                  -6.960
REMARK INTRA:                  -0.739
REMARK UNBOUND:                -0.688
REMARK SMILES O=C([O-])CCCCCCCCC(=O)[O-]
REMARK SMILES IDX 7 1 6 2 5 3 4 4 2 5 1 6 3 7 8 8 9 9 10 10 11 11 12 12 13 13
REMARK SMILES IDX 14 14
REMARK H PARENT
REMARK Flexibility Score: inf
ROOT
ATOM      1  C   UNL     1     -16.351   2.784 -20.971  1.00  0.00     0.000 C 
ENDROOT
BRANCH   1   2
ATOM      2  C   UNL     1     -15.122   2.545 -20.076  1.00  0.00     0.000 C 
BRANCH   2   3
ATOM      3  C   UNL     1     -15.016   1.089 -19.588  1.00  0.00     0.006 C 
BRANCH   3   4
ATOM      4  C   UNL     1     -14.272   0.152 -20.552  1.00  0.00     0.053 C 
BRANCH   4   5
ATOM      5  C   UNL     1     -14.342  -1.278 -20.110  1.00  0.00     0.041 C 
ATOM      6  O   UNL     1     -14.557  -2.191 -20.950  1.00  0.00    -0.550 OA
ATOM      7  O   UNL     1     -14.138  -1.604 -18.776  1.00  0.00    -0.550 OA
ENDBRANCH   4   5
ENDBRANCH   3   4
ENDBRANCH   2   3
ENDBRANCH   1   2
BRANCH   1   8
ATOM      8  C   UNL     1     -15.967   3.207 -22.397  1.00  0.00     0.000 C 
BRANCH   8   9
ATOM      9  C   UNL     1     -14.443   3.287 -22.596  1.00  0.00     0.000 C 
BRANCH   9  10
ATOM     10  C   UNL     1     -13.955   4.705 -22.948  1.00  0.00     0.006 C 
BRANCH  10  11
ATOM     11  C   UNL     1     -14.785   5.829 -22.303  1.00  0.00     0.053 C 
BRANCH  11  12
ATOM     12  C   UNL     1     -14.297   6.196 -20.935  1.00  0.00     0.041 C 
ATOM     13  O   UNL     1     -13.063   6.299 -20.706  1.00  0.00    -0.550 OA
ATOM     14  O   UNL     1     -15.205   6.393 -19.902  1.00  0.00    -0.550 OA
ENDBRANCH  11  12
ENDBRANCH  10  11
ENDBRANCH   9  10
ENDBRANCH   8   9
ENDBRANCH   1   8
TORSDOF 9
ENDMDL
