MODEL 1
REMARK VINA RESULT:    -5.260      0.000      0.000
REMARK INTER + INTRA:         -10.073
REMARK INTER:                  -7.105
REMARK INTRA:                  -2.968
REMARK UNBOUND:                -2.968
REMARK SMILES CC[C@@H](CC[C@@H](C)[C@@H]1CC[C@H]2[C@@H]3CC(=O)C4=CC(=O)CC[C@@]4(C)[C@H]3CC[C@]21C)C(C)C
REMARK SMILES IDX 4 1 3 2 2 3 1 4 29 5 30 6 31 7 5 8 6 9 7 10 8 11 9 12 27 13
REMARK SMILES IDX 10 14 11 15 26 16 28 17 12 18 25 19 24 20 13 21 22 22 14 23
REMARK SMILES IDX 16 24 21 25 23 26 15 27 17 28 20 29 18 30 19 31
REMARK H PARENT
REMARK Flexibility Score: inf
ROOT
ATOM      1  C   UNL     1      21.888 -15.180  45.322  1.00  0.00     0.004 C 
ENDROOT
BRANCH   1   2
ATOM      2  C   UNL     1      22.227 -16.407  44.422  1.00  0.00    -0.009 C 
BRANCH   2   3
ATOM      3  C   UNL     1      23.424 -17.228  44.984  1.00  0.00     0.000 C 
ATOM      4  C   UNL     1      24.745 -16.986  44.254  1.00  0.00     0.004 C 
ENDBRANCH   2   3
BRANCH   2   5
ATOM      5  C   UNL     1      22.519 -16.003  42.936  1.00  0.00    -0.014 C 
ATOM      6  C   UNL     1      22.116 -14.556  42.602  1.00  0.00     0.007 C 
ATOM      7  C   UNL     1      21.892 -16.977  41.927  1.00  0.00     0.007 C 
ENDBRANCH   2   5
ENDBRANCH   1   2
BRANCH   1   8
ATOM      8  C   UNL     1      22.678 -15.135  46.657  1.00  0.00     0.004 C 
BRANCH   8   9
ATOM      9  C   UNL     1      23.704 -13.973  46.748  1.00  0.00    -0.011 C 
ATOM     10  C   UNL     1      25.125 -14.545  46.940  1.00  0.00     0.008 C 
BRANCH   9  11
ATOM     11  C   UNL     1      23.546 -13.006  45.513  1.00  0.00    -0.002 C 
ATOM     12  C   UNL     1      24.762 -12.877  44.581  1.00  0.00     0.005 C 
ATOM     13  C   UNL     1      23.098 -11.544  45.798  1.00  0.00    -0.026 C 
ATOM     14  C   UNL     1      24.638 -11.509  43.901  1.00  0.00     0.005 C 
ATOM     15  C   UNL     1      23.348 -10.844  44.434  1.00  0.00    -0.001 C 
ATOM     16  C   UNL     1      21.628 -11.406  46.274  1.00  0.00     0.007 C 
ATOM     17  C   UNL     1      23.989 -10.875  46.879  1.00  0.00     0.012 C 
ATOM     18  C   UNL     1      22.197 -10.984  43.371  1.00  0.00     0.004 C 
ATOM     19  C   UNL     1      20.599 -11.743  45.205  1.00  0.00     0.005 C 
ATOM     20  C   UNL     1      20.768 -10.853  43.959  1.00  0.00     0.003 C 
ATOM     21  C   UNL     1      22.390  -9.885  42.296  1.00  0.00     0.085 C 
ATOM     22  C   UNL     1      19.624 -11.078  42.869  1.00  0.00    -0.000 C 
ATOM     23  C   UNL     1      21.308  -9.893  41.268  1.00  0.00     0.159 C 
ATOM     24  C   UNL     1      20.105 -10.725  41.454  1.00  0.00     0.005 C 
ATOM     25  C   UNL     1      19.110 -12.555  42.843  1.00  0.00     0.020 C 
ATOM     26  C   UNL     1      18.445 -10.133  43.217  1.00  0.00     0.017 C 
ATOM     27  O   UNL     1      21.439  -9.178  40.238  1.00  0.00    -0.295 OA
ATOM     28  C   UNL     1      19.461 -11.184  40.364  1.00  0.00     0.055 C 
ATOM     29  C   UNL     1      18.034 -12.812  41.775  1.00  0.00     0.081 C 
ATOM     30  C   UNL     1      18.381 -12.175  40.464  1.00  0.00     0.156 C 
ATOM     31  O   UNL     1      17.737 -12.495  39.430  1.00  0.00    -0.295 OA
ENDBRANCH   9  11
ENDBRANCH   8   9
ENDBRANCH   1   8
TORSDOF 6
ENDMDL
MODEL 2
REMARK VINA RESULT:    -5.236      1.559      4.583
REMARK INTER + INTRA:         -10.041
REMARK INTER:                  -6.988
REMARK INTRA:                  -3.052
REMARK UNBOUND:                -2.968
REMARK SMILES CC[C@@H](CC[C@@H](C)[C@@H]1CC[C@H]2[C@@H]3CC(=O)C4=CC(=O)CC[C@@]4(C)[C@H]3CC[C@]21C)C(C)C
REMARK SMILES IDX 4 1 3 2 2 3 1 4 29 5 30 6 31 7 5 8 6 9 7 10 8 11 9 12 27 13
REMARK SMILES IDX 10 14 11 15 26 16 28 17 12 18 25 19 24 20 13 21 22 22 14 23
REMARK SMILES IDX 16 24 21 25 23 26 15 27 17 28 20 29 18 30 19 31
REMARK H PARENT
REMARK Flexibility Score: inf
ROOT
ATOM      1  C   UNL     1      24.812 -12.862  44.583  1.00  0.00     0.004 C 
ENDROOT
BRANCH   1   2
ATOM      2  C   UNL     1      24.645 -11.529  45.374  1.00  0.00    -0.009 C 
BRANCH   2   3
ATOM      3  C   UNL     1      24.251 -11.779  46.859  1.00  0.00     0.000 C 
ATOM      4  C   UNL     1      25.124 -11.036  47.870  1.00  0.00     0.004 C 
ENDBRANCH   2   3
BRANCH   2   5
ATOM      5  C   UNL     1      23.606 -10.560  44.711  1.00  0.00    -0.014 C 
ATOM      6  C   UNL     1      24.072  -9.095  44.669  1.00  0.00     0.007 C 
ATOM      7  C   UNL     1      22.215 -10.658  45.355  1.00  0.00     0.007 C 
ENDBRANCH   2   5
ENDBRANCH   1   2
BRANCH   1   8
ATOM      8  C   UNL     1      25.052 -14.106  45.479  1.00  0.00     0.004 C 
BRANCH   8   9
ATOM      9  C   UNL     1      23.869 -15.110  45.501  1.00  0.00    -0.011 C 
ATOM     10  C   UNL     1      23.786 -15.791  46.884  1.00  0.00     0.008 C 
BRANCH   9  11
ATOM     11  C   UNL     1      22.540 -14.400  45.038  1.00  0.00    -0.002 C 
ATOM     12  C   UNL     1      21.492 -14.123  46.129  1.00  0.00     0.005 C 
ATOM     13  C   UNL     1      21.744 -15.052  43.871  1.00  0.00    -0.026 C 
ATOM     14  C   UNL     1      20.138 -14.049  45.414  1.00  0.00     0.005 C 
ATOM     15  C   UNL     1      20.398 -14.279  43.907  1.00  0.00    -0.001 C 
ATOM     16  C   UNL     1      22.444 -14.959  42.488  1.00  0.00     0.007 C 
ATOM     17  C   UNL     1      21.471 -16.557  44.138  1.00  0.00     0.012 C 
ATOM     18  C   UNL     1      20.376 -12.903  43.146  1.00  0.00     0.004 C 
ATOM     19  C   UNL     1      22.523 -13.544  41.932  1.00  0.00     0.005 C 
ATOM     20  C   UNL     1      21.124 -12.916  41.787  1.00  0.00     0.003 C 
ATOM     21  C   UNL     1      18.899 -12.510  42.891  1.00  0.00     0.085 C 
ATOM     22  C   UNL     1      21.152 -11.486  41.079  1.00  0.00    -0.000 C 
ATOM     23  C   UNL     1      18.770 -11.242  42.116  1.00  0.00     0.159 C 
ATOM     24  C   UNL     1      19.954 -10.619  41.496  1.00  0.00     0.005 C 
ATOM     25  C   UNL     1      22.456 -10.686  41.403  1.00  0.00     0.020 C 
ATOM     26  C   UNL     1      21.058 -11.714  39.548  1.00  0.00     0.017 C 
ATOM     27  O   UNL     1      17.633 -10.710  42.000  1.00  0.00    -0.295 OA
ATOM     28  C   UNL     1      19.972  -9.282  41.332  1.00  0.00     0.055 C 
ATOM     29  C   UNL     1      22.492  -9.287  40.765  1.00  0.00     0.081 C 
ATOM     30  C   UNL     1      21.185  -8.570  40.910  1.00  0.00     0.156 C 
ATOM     31  O   UNL     1      21.125  -7.336  40.667  1.00  0.00    -0.295 OA
ENDBRANCH   9  11
ENDBRANCH   8   9
ENDBRANCH   1   8
TORSDOF 6
ENDMDL
MODEL 3
REMARK VINA RESULT:    -5.100      1.800      5.020
REMARK INTER + INTRA:          -9.857
REMARK INTER:                  -6.936
REMARK INTRA:                  -2.921
REMARK UNBOUND:                -2.968
REMARK SMILES CC[C@@H](CC[C@@H](C)[C@@H]1CC[C@H]2[C@@H]3CC(=O)C4=CC(=O)CC[C@@]4(C)[C@H]3CC[C@]21C)C(C)C
REMARK SMILES IDX 4 1 3 2 2 3 1 4 29 5 30 6 31 7 5 8 6 9 7 10 8 11 9 12 27 13
REMARK SMILES IDX 10 14 11 15 26 16 28 17 12 18 25 19 24 20 13 21 22 22 14 23
REMARK SMILES IDX 16 24 21 25 23 26 15 27 17 28 20 29 18 30 19 31
REMARK H PARENT
REMARK Flexibility Score: inf
ROOT
ATOM      1  C   UNL     1      23.372 -10.166  44.865  1.00  0.00     0.004 C 
ENDROOT
BRANCH   1   2
ATOM      2  C   UNL     1      22.630 -10.838  43.670  1.00  0.00    -0.009 C 
BRANCH   2   3
ATOM      3  C   UNL     1      22.716  -9.978  42.375  1.00  0.00     0.000 C 
ATOM      4  C   UNL     1      23.652 -10.547  41.309  1.00  0.00     0.004 C 
ENDBRANCH   2   3
BRANCH   2   5
ATOM      5  C   UNL     1      21.129 -11.153  43.992  1.00  0.00    -0.014 C 
ATOM      6  C   UNL     1      20.151 -10.657  42.913  1.00  0.00     0.007 C 
ATOM      7  C   UNL     1      20.702 -10.637  45.374  1.00  0.00     0.007 C 
ENDBRANCH   2   5
ENDBRANCH   1   2
BRANCH   1   8
ATOM      8  C   UNL     1      24.797 -10.724  45.122  1.00  0.00     0.004 C 
BRANCH   8   9
ATOM      9  C   UNL     1      24.848 -11.878  46.159  1.00  0.00    -0.011 C 
ATOM     10  C   UNL     1      24.900 -11.294  47.588  1.00  0.00     0.008 C 
BRANCH   9  11
ATOM     11  C   UNL     1      23.669 -12.894  45.908  1.00  0.00    -0.002 C 
ATOM     12  C   UNL     1      22.640 -13.047  47.040  1.00  0.00     0.005 C 
ATOM     13  C   UNL     1      24.046 -14.348  45.505  1.00  0.00    -0.026 C 
ATOM     14  C   UNL     1      22.025 -14.441  46.874  1.00  0.00     0.005 C 
ATOM     15  C   UNL     1      22.693 -15.098  45.644  1.00  0.00    -0.001 C 
ATOM     16  C   UNL     1      24.654 -14.482  44.083  1.00  0.00     0.007 C 
ATOM     17  C   UNL     1      25.070 -14.966  46.495  1.00  0.00     0.012 C 
ATOM     18  C   UNL     1      21.730 -15.010  44.404  1.00  0.00     0.004 C 
ATOM     19  C   UNL     1      23.667 -14.195  42.961  1.00  0.00     0.005 C 
ATOM     20  C   UNL     1      22.445 -15.132  43.033  1.00  0.00     0.003 C 
ATOM     21  C   UNL     1      20.684 -16.147  44.517  1.00  0.00     0.085 C 
ATOM     22  C   UNL     1      21.452 -14.959  41.795  1.00  0.00    -0.000 C 
ATOM     23  C   UNL     1      19.755 -16.189  43.349  1.00  0.00     0.159 C 
ATOM     24  C   UNL     1      20.014 -15.362  42.156  1.00  0.00     0.005 C 
ATOM     25  C   UNL     1      21.416 -13.489  41.262  1.00  0.00     0.020 C 
ATOM     26  C   UNL     1      21.936 -15.902  40.664  1.00  0.00     0.017 C 
ATOM     27  O   UNL     1      18.745 -16.942  43.400  1.00  0.00    -0.295 OA
ATOM     28  C   UNL     1      18.969 -14.951  41.414  1.00  0.00     0.055 C 
ATOM     29  C   UNL     1      20.436 -13.284  40.094  1.00  0.00     0.081 C 
ATOM     30  C   UNL     1      19.125 -13.967  40.334  1.00  0.00     0.156 C 
ATOM     31  O   UNL     1      18.140 -13.693  39.599  1.00  0.00    -0.295 OA
ENDBRANCH   9  11
ENDBRANCH   8   9
ENDBRANCH   1   8
TORSDOF 6
ENDMDL
MODEL 4
REMARK VINA RESULT:    -5.085      1.440      1.829
REMARK INTER + INTRA:          -9.836
REMARK INTER:                  -6.783
REMARK INTRA:                  -3.053
REMARK UNBOUND:                -2.968
REMARK SMILES CC[C@@H](CC[C@@H](C)[C@@H]1CC[C@H]2[C@@H]3CC(=O)C4=CC(=O)CC[C@@]4(C)[C@H]3CC[C@]21C)C(C)C
REMARK SMILES IDX 4 1 3 2 2 3 1 4 29 5 30 6 31 7 5 8 6 9 7 10 8 11 9 12 27 13
REMARK SMILES IDX 10 14 11 15 26 16 28 17 12 18 25 19 24 20 13 21 22 22 14 23
REMARK SMILES IDX 16 24 21 25 23 26 15 27 17 28 20 29 18 30 19 31
REMARK H PARENT
REMARK Flexibility Score: inf
ROOT
ATOM      1  C   UNL     1      20.133 -14.430  45.578  1.00  0.00     0.004 C 
ENDROOT
BRANCH   1   2
ATOM      2  C   UNL     1      20.017 -15.490  44.441  1.00  0.00    -0.009 C 
BRANCH   2   3
ATOM      3  C   UNL     1      21.364 -16.232  44.197  1.00  0.00     0.000 C 
ATOM      4  C   UNL     1      21.214 -17.733  43.952  1.00  0.00     0.004 C 
ENDBRANCH   2   3
BRANCH   2   5
ATOM      5  C   UNL     1      19.504 -14.876  43.094  1.00  0.00    -0.014 C 
ATOM      6  C   UNL     1      18.433 -15.733  42.396  1.00  0.00     0.007 C 
ATOM      7  C   UNL     1      20.647 -14.556  42.119  1.00  0.00     0.007 C 
ENDBRANCH   2   5
ENDBRANCH   1   2
BRANCH   1   8
ATOM      8  C   UNL     1      21.356 -14.633  46.512  1.00  0.00     0.004 C 
BRANCH   8   9
ATOM      9  C   UNL     1      22.407 -13.493  46.436  1.00  0.00    -0.011 C 
ATOM     10  C   UNL     1      23.790 -14.028  46.868  1.00  0.00     0.008 C 
BRANCH   9  11
ATOM     11  C   UNL     1      22.380 -12.817  45.012  1.00  0.00    -0.002 C 
ATOM     12  C   UNL     1      23.523 -13.188  44.052  1.00  0.00     0.005 C 
ATOM     13  C   UNL     1      22.293 -11.265  44.955  1.00  0.00    -0.026 C 
ATOM     14  C   UNL     1      23.658 -12.017  43.073  1.00  0.00     0.005 C 
ATOM     15  C   UNL     1      22.592 -10.966  43.460  1.00  0.00    -0.001 C 
ATOM     16  C   UNL     1      20.929 -10.683  45.414  1.00  0.00     0.007 C 
ATOM     17  C   UNL     1      23.387 -10.599  45.832  1.00  0.00     0.012 C 
ATOM     18  C   UNL     1      21.364 -11.066  42.482  1.00  0.00     0.004 C 
ATOM     19  C   UNL     1      19.775 -11.000  44.474  1.00  0.00     0.005 C 
ATOM     20  C   UNL     1      20.047 -10.475  43.051  1.00  0.00     0.003 C 
ATOM     21  C   UNL     1      21.719 -10.312  41.176  1.00  0.00     0.085 C 
ATOM     22  C   UNL     1      18.805 -10.664  42.067  1.00  0.00    -0.000 C 
ATOM     23  C   UNL     1      20.590 -10.295  40.200  1.00  0.00     0.159 C 
ATOM     24  C   UNL     1      19.247 -10.758  40.599  1.00  0.00     0.005 C 
ATOM     25  C   UNL     1      17.973 -11.947  42.398  1.00  0.00     0.020 C 
ATOM     26  C   UNL     1      17.897  -9.415  42.206  1.00  0.00     0.017 C 
ATOM     27  O   UNL     1      20.801  -9.880  39.029  1.00  0.00    -0.295 OA
ATOM     28  C   UNL     1      18.439 -11.285  39.660  1.00  0.00     0.055 C 
ATOM     29  C   UNL     1      16.792 -12.176  41.440  1.00  0.00     0.081 C 
ATOM     30  C   UNL     1      17.175 -11.947  40.011  1.00  0.00     0.156 C 
ATOM     31  O   UNL     1      16.402 -12.330  39.093  1.00  0.00    -0.295 OA
ENDBRANCH   9  11
ENDBRANCH   8   9
ENDBRANCH   1   8
TORSDOF 6
ENDMDL
MODEL 5
REMARK VINA RESULT:    -5.045     11.807     15.517
REMARK INTER + INTRA:          -9.782
REMARK INTER:                  -8.716
REMARK INTRA:                  -1.066
REMARK UNBOUND:                -2.968
REMARK SMILES CC[C@@H](CC[C@@H](C)[C@@H]1CC[C@H]2[C@@H]3CC(=O)C4=CC(=O)CC[C@@]4(C)[C@H]3CC[C@]21C)C(C)C
REMARK SMILES IDX 4 1 3 2 2 3 1 4 29 5 30 6 31 7 5 8 6 9 7 10 8 11 9 12 27 13
REMARK SMILES IDX 10 14 11 15 26 16 28 17 12 18 25 19 24 20 13 21 22 22 14 23
REMARK SMILES IDX 16 24 21 25 23 26 15 27 17 28 20 29 18 30 19 31
REMARK H PARENT
REMARK Flexibility Score: inf
ROOT
ATOM      1  C   UNL     1       7.133  -9.308  41.527  1.00  0.00     0.004 C 
ENDROOT
BRANCH   1   2
ATOM      2  C   UNL     1       8.260  -8.795  42.473  1.00  0.00    -0.009 C 
BRANCH   2   3
ATOM      3  C   UNL     1       7.811  -8.790  43.964  1.00  0.00     0.000 C 
ATOM      4  C   UNL     1       7.341 -10.150  44.479  1.00  0.00     0.004 C 
ENDBRANCH   2   3
BRANCH   2   5
ATOM      5  C   UNL     1       8.779  -7.371  42.076  1.00  0.00    -0.014 C 
ATOM      6  C   UNL     1       7.660  -6.406  41.647  1.00  0.00     0.007 C 
ATOM      7  C   UNL     1       9.878  -7.422  41.005  1.00  0.00     0.007 C 
ENDBRANCH   2   5
ENDBRANCH   1   2
BRANCH   1   8
ATOM      8  C   UNL     1       7.347 -10.756  41.011  1.00  0.00     0.004 C 
BRANCH   8   9
ATOM      9  C   UNL     1       6.287 -11.772  41.517  1.00  0.00    -0.011 C 
ATOM     10  C   UNL     1       4.878 -11.149  41.419  1.00  0.00     0.008 C 
BRANCH   9  11
ATOM     11  C   UNL     1       6.449 -13.150  40.770  1.00  0.00    -0.002 C 
ATOM     12  C   UNL     1       5.336 -13.530  39.779  1.00  0.00     0.005 C 
ATOM     13  C   UNL     1       6.664 -14.420  41.642  1.00  0.00    -0.026 C 
ATOM     14  C   UNL     1       5.352 -15.060  39.683  1.00  0.00     0.005 C 
ATOM     15  C   UNL     1       6.475 -15.570  40.615  1.00  0.00    -0.001 C 
ATOM     16  C   UNL     1       8.042 -14.482  42.353  1.00  0.00     0.007 C 
ATOM     17  C   UNL     1       5.579 -14.545  42.745  1.00  0.00     0.012 C 
ATOM     18  C   UNL     1       7.744 -15.945  39.764  1.00  0.00     0.004 C 
ATOM     19  C   UNL     1       9.218 -14.668  41.405  1.00  0.00     0.005 C 
ATOM     20  C   UNL     1       9.070 -15.954  40.569  1.00  0.00     0.003 C 
ATOM     21  C   UNL     1       7.526 -17.354  39.159  1.00  0.00     0.085 C 
ATOM     22  C   UNL     1      10.347 -16.260  39.662  1.00  0.00    -0.000 C 
ATOM     23  C   UNL     1       8.706 -17.831  38.379  1.00  0.00     0.159 C 
ATOM     24  C   UNL     1       9.982 -17.092  38.424  1.00  0.00     0.005 C 
ATOM     25  C   UNL     1      11.052 -14.954  39.168  1.00  0.00     0.020 C 
ATOM     26  C   UNL     1      11.344 -17.090  40.511  1.00  0.00     0.017 C 
ATOM     27  O   UNL     1       8.595 -18.875  37.681  1.00  0.00    -0.295 OA
ATOM     28  C   UNL     1      10.797 -17.143  37.353  1.00  0.00     0.055 C 
ATOM     29  C   UNL     1      12.264 -15.218  38.258  1.00  0.00     0.081 C 
ATOM     30  C   UNL     1      11.981 -16.281  37.241  1.00  0.00     0.156 C 
ATOM     31  O   UNL     1      12.771 -16.438  36.273  1.00  0.00    -0.295 OA
ENDBRANCH   9  11
ENDBRANCH   8   9
ENDBRANCH   1   8
TORSDOF 6
ENDMDL
MODEL 6
REMARK VINA RESULT:    -4.997      2.114      5.328
REMARK INTER + INTRA:          -9.718
REMARK INTER:                  -7.421
REMARK INTRA:                  -2.297
REMARK UNBOUND:                -2.968
REMARK SMILES CC[C@@H](CC[C@@H](C)[C@@H]1CC[C@H]2[C@@H]3CC(=O)C4=CC(=O)CC[C@@]4(C)[C@H]3CC[C@]21C)C(C)C
REMARK SMILES IDX 4 1 3 2 2 3 1 4 29 5 30 6 31 7 5 8 6 9 7 10 8 11 9 12 27 13
REMARK SMILES IDX 10 14 11 15 26 16 28 17 12 18 25 19 24 20 13 21 22 22 14 23
REMARK SMILES IDX 16 24 21 25 23 26 15 27 17 28 20 29 18 30 19 31
REMARK H PARENT
REMARK Flexibility Score: inf
ROOT
ATOM      1  C   UNL     1      22.926 -14.971  45.937  1.00  0.00     0.004 C 
ENDROOT
BRANCH   1   2
ATOM      2  C   UNL     1      22.046 -13.783  46.431  1.00  0.00    -0.009 C 
BRANCH   2   3
ATOM      3  C   UNL     1      21.341 -13.052  45.252  1.00  0.00     0.000 C 
ATOM      4  C   UNL     1      19.820 -13.207  45.241  1.00  0.00     0.004 C 
ENDBRANCH   2   3
BRANCH   2   5
ATOM      5  C   UNL     1      22.855 -12.747  47.283  1.00  0.00    -0.014 C 
ATOM      6  C   UNL     1      22.609 -11.285  46.869  1.00  0.00     0.007 C 
ATOM      7  C   UNL     1      24.361 -13.048  47.303  1.00  0.00     0.007 C 
ENDBRANCH   2   5
ENDBRANCH   1   2
BRANCH   1   8
ATOM      8  C   UNL     1      23.138 -15.008  44.400  1.00  0.00     0.004 C 
BRANCH   8   9
ATOM      9  C   UNL     1      22.534 -16.258  43.707  1.00  0.00    -0.011 C 
ATOM     10  C   UNL     1      22.738 -17.501  44.600  1.00  0.00     0.008 C 
BRANCH   9  11
ATOM     11  C   UNL     1      21.037 -15.985  43.293  1.00  0.00    -0.002 C 
ATOM     12  C   UNL     1      19.961 -16.796  44.033  1.00  0.00     0.005 C 
ATOM     13  C   UNL     1      20.673 -16.112  41.786  1.00  0.00    -0.026 C 
ATOM     14  C   UNL     1      18.750 -16.858  43.095  1.00  0.00     0.005 C 
ATOM     15  C   UNL     1      19.121 -16.081  41.811  1.00  0.00    -0.001 C 
ATOM     16  C   UNL     1      21.274 -14.999  40.887  1.00  0.00     0.007 C 
ATOM     17  C   UNL     1      21.142 -17.470  41.198  1.00  0.00     0.012 C 
ATOM     18  C   UNL     1      18.464 -14.652  41.844  1.00  0.00     0.004 C 
ATOM     19  C   UNL     1      20.684 -13.618  41.137  1.00  0.00     0.005 C 
ATOM     20  C   UNL     1      19.158 -13.611  40.926  1.00  0.00     0.003 C 
ATOM     21  C   UNL     1      16.984 -14.785  41.407  1.00  0.00     0.085 C 
ATOM     22  C   UNL     1      18.518 -12.154  41.044  1.00  0.00    -0.000 C 
ATOM     23  C   UNL     1      16.284 -13.468  41.346  1.00  0.00     0.159 C 
ATOM     24  C   UNL     1      17.044 -12.210  41.471  1.00  0.00     0.005 C 
ATOM     25  C   UNL     1      19.278 -11.251  42.070  1.00  0.00     0.020 C 
ATOM     26  C   UNL     1      18.577 -11.496  39.641  1.00  0.00     0.017 C 
ATOM     27  O   UNL     1      15.034 -13.448  41.186  1.00  0.00    -0.295 OA
ATOM     28  C   UNL     1      16.427 -11.131  41.990  1.00  0.00     0.055 C 
ATOM     29  C   UNL     1      18.659  -9.852  42.233  1.00  0.00     0.081 C 
ATOM     30  C   UNL     1      17.165  -9.908  42.331  1.00  0.00     0.156 C 
ATOM     31  O   UNL     1      16.531  -8.889  42.713  1.00  0.00    -0.295 OA
ENDBRANCH   9  11
ENDBRANCH   8   9
ENDBRANCH   1   8
TORSDOF 6
ENDMDL
MODEL 7
REMARK VINA RESULT:    -4.967      2.153      3.171
REMARK INTER + INTRA:          -9.677
REMARK INTER:                  -6.761
REMARK INTRA:                  -2.916
REMARK UNBOUND:                -2.968
REMARK SMILES CC[C@@H](CC[C@@H](C)[C@@H]1CC[C@H]2[C@@H]3CC(=O)C4=CC(=O)CC[C@@]4(C)[C@H]3CC[C@]21C)C(C)C
REMARK SMILES IDX 4 1 3 2 2 3 1 4 29 5 30 6 31 7 5 8 6 9 7 10 8 11 9 12 27 13
REMARK SMILES IDX 10 14 11 15 26 16 28 17 12 18 25 19 24 20 13 21 22 22 14 23
REMARK SMILES IDX 16 24 21 25 23 26 15 27 17 28 20 29 18 30 19 31
REMARK H PARENT
REMARK Flexibility Score: inf
ROOT
ATOM      1  C   UNL     1      22.351 -14.099  46.498  1.00  0.00     0.004 C 
ENDROOT
BRANCH   1   2
ATOM      2  C   UNL     1      23.100 -15.435  46.206  1.00  0.00    -0.009 C 
BRANCH   2   3
ATOM      3  C   UNL     1      24.520 -15.456  46.843  1.00  0.00     0.000 C 
ATOM      4  C   UNL     1      24.869 -16.768  47.546  1.00  0.00     0.004 C 
ENDBRANCH   2   3
BRANCH   2   5
ATOM      5  C   UNL     1      23.207 -15.745  44.674  1.00  0.00    -0.014 C 
ATOM      6  C   UNL     1      22.710 -17.150  44.294  1.00  0.00     0.007 C 
ATOM      7  C   UNL     1      24.622 -15.514  44.124  1.00  0.00     0.007 C 
ENDBRANCH   2   5
ENDBRANCH   1   2
BRANCH   1   8
ATOM      8  C   UNL     1      23.127 -13.125  47.423  1.00  0.00     0.004 C 
BRANCH   8   9
ATOM      9  C   UNL     1      23.600 -11.824  46.720  1.00  0.00    -0.011 C 
ATOM     10  C   UNL     1      24.904 -11.319  47.377  1.00  0.00     0.008 C 
BRANCH   9  11
ATOM     11  C   UNL     1      23.693 -12.046  45.162  1.00  0.00    -0.002 C 
ATOM     12  C   UNL     1      25.106 -12.126  44.562  1.00  0.00     0.005 C 
ATOM     13  C   UNL     1      22.921 -11.052  44.247  1.00  0.00    -0.026 C 
ATOM     14  C   UNL     1      24.972 -11.708  43.093  1.00  0.00     0.005 C 
ATOM     15  C   UNL     1      23.481 -11.388  42.838  1.00  0.00    -0.001 C 
ATOM     16  C   UNL     1      21.376 -11.185  44.318  1.00  0.00     0.007 C 
ATOM     17  C   UNL     1      23.265  -9.577  44.590  1.00  0.00     0.012 C 
ATOM     18  C   UNL     1      22.796 -12.594  42.097  1.00  0.00     0.004 C 
ATOM     19  C   UNL     1      20.841 -12.482  43.729  1.00  0.00     0.005 C 
ATOM     20  C   UNL     1      21.253 -12.643  42.253  1.00  0.00     0.003 C 
ATOM     21  C   UNL     1      23.136 -12.497  40.589  1.00  0.00     0.085 C 
ATOM     22  C   UNL     1      20.598 -13.922  41.557  1.00  0.00    -0.000 C 
ATOM     23  C   UNL     1      22.478 -13.567  39.784  1.00  0.00     0.159 C 
ATOM     24  C   UNL     1      21.452 -14.436  40.389  1.00  0.00     0.005 C 
ATOM     25  C   UNL     1      20.396 -15.106  42.558  1.00  0.00     0.020 C 
ATOM     26  C   UNL     1      19.222 -13.496  40.984  1.00  0.00     0.017 C 
ATOM     27  O   UNL     1      22.815 -13.718  38.578  1.00  0.00    -0.295 OA
ATOM     28  C   UNL     1      21.302 -15.688  39.915  1.00  0.00     0.055 C 
ATOM     29  C   UNL     1      19.803 -16.366  41.906  1.00  0.00     0.081 C 
ATOM     30  C   UNL     1      20.447 -16.673  40.589  1.00  0.00     0.156 C 
ATOM     31  O   UNL     1      20.253 -17.796  40.052  1.00  0.00    -0.295 OA
ENDBRANCH   9  11
ENDBRANCH   8   9
ENDBRANCH   1   8
TORSDOF 6
ENDMDL
MODEL 8
REMARK VINA RESULT:    -4.951      1.561      2.896
REMARK INTER + INTRA:          -9.655
REMARK INTER:                  -6.537
REMARK INTRA:                  -3.118
REMARK UNBOUND:                -2.968
REMARK SMILES CC[C@@H](CC[C@@H](C)[C@@H]1CC[C@H]2[C@@H]3CC(=O)C4=CC(=O)CC[C@@]4(C)[C@H]3CC[C@]21C)C(C)C
REMARK SMILES IDX 4 1 3 2 2 3 1 4 29 5 30 6 31 7 5 8 6 9 7 10 8 11 9 12 27 13
REMARK SMILES IDX 10 14 11 15 26 16 28 17 12 18 25 19 24 20 13 21 22 22 14 23
REMARK SMILES IDX 16 24 21 25 23 26 15 27 17 28 20 29 18 30 19 31
REMARK H PARENT
REMARK Flexibility Score: inf
ROOT
ATOM      1  C   UNL     1      21.983 -17.615  42.694  1.00  0.00     0.004 C 
ENDROOT
BRANCH   1   2
ATOM      2  C   UNL     1      21.050 -16.421  42.328  1.00  0.00    -0.009 C 
BRANCH   2   3
ATOM      3  C   UNL     1      19.559 -16.856  42.229  1.00  0.00     0.000 C 
ATOM      4  C   UNL     1      18.733 -16.544  43.477  1.00  0.00     0.004 C 
ENDBRANCH   2   3
BRANCH   2   5
ATOM      5  C   UNL     1      21.478 -15.706  41.001  1.00  0.00    -0.014 C 
ATOM      6  C   UNL     1      22.352 -14.460  41.227  1.00  0.00     0.007 C 
ATOM      7  C   UNL     1      20.279 -15.360  40.106  1.00  0.00     0.007 C 
ENDBRANCH   2   5
ENDBRANCH   1   2
BRANCH   1   8
ATOM      8  C   UNL     1      22.039 -17.934  44.212  1.00  0.00     0.004 C 
BRANCH   8   9
ATOM      9  C   UNL     1      23.267 -17.326  44.942  1.00  0.00    -0.011 C 
ATOM     10  C   UNL     1      24.516 -18.194  44.676  1.00  0.00     0.008 C 
BRANCH   9  11
ATOM     11  C   UNL     1      23.432 -15.805  44.562  1.00  0.00    -0.002 C 
ATOM     12  C   UNL     1      24.744 -15.407  43.866  1.00  0.00     0.005 C 
ATOM     13  C   UNL     1      23.242 -14.756  45.695  1.00  0.00    -0.026 C 
ATOM     14  C   UNL     1      24.957 -13.920  44.169  1.00  0.00     0.005 C 
ATOM     15  C   UNL     1      23.766 -13.450  45.037  1.00  0.00    -0.001 C 
ATOM     16  C   UNL     1      21.781 -14.618  46.201  1.00  0.00     0.007 C 
ATOM     17  C   UNL     1      24.120 -15.087  46.932  1.00  0.00     0.012 C 
ATOM     18  C   UNL     1      22.733 -12.668  44.146  1.00  0.00     0.004 C 
ATOM     19  C   UNL     1      20.829 -14.010  45.181  1.00  0.00     0.005 C 
ATOM     20  C   UNL     1      21.299 -12.612  44.735  1.00  0.00     0.003 C 
ATOM     21  C   UNL     1      23.247 -11.218  43.963  1.00  0.00     0.085 C 
ATOM     22  C   UNL     1      20.258 -11.881  43.771  1.00  0.00    -0.000 C 
ATOM     23  C   UNL     1      22.301 -10.371  43.178  1.00  0.00     0.159 C 
ATOM     24  C   UNL     1      20.948 -10.861  42.854  1.00  0.00     0.005 C 
ATOM     25  C   UNL     1      19.479 -12.889  42.864  1.00  0.00     0.020 C 
ATOM     26  C   UNL     1      19.250 -11.109  44.661  1.00  0.00     0.017 C 
ATOM     27  O   UNL     1      22.677  -9.229  42.797  1.00  0.00    -0.295 OA
ATOM     28  C   UNL     1      20.351 -10.418  41.731  1.00  0.00     0.055 C 
ATOM     29  C   UNL     1      18.496 -12.209  41.895  1.00  0.00     0.081 C 
ATOM     30  C   UNL     1      19.099 -11.005  41.237  1.00  0.00     0.156 C 
ATOM     31  O   UNL     1      18.522 -10.489  40.244  1.00  0.00    -0.295 OA
ENDBRANCH   9  11
ENDBRANCH   8   9
ENDBRANCH   1   8
TORSDOF 6
ENDMDL
