MODEL 1
REMARK VINA RESULT:    -3.462      0.000      0.000
REMARK INTER + INTRA:          -7.837
REMARK INTER:                  -6.094
REMARK INTRA:                  -1.744
REMARK UNBOUND:                -1.744
REMARK SMILES CCCCCCCCCCCCCCC(=O)[O-]
REMARK SMILES IDX 9 1 10 2 11 3 12 4 13 5 14 6 15 7 16 8 17 9 8 10 7 11 6 12
REMARK SMILES IDX 5 13 4 14 3 15 2 16 1 17
REMARK H PARENT
REMARK Flexibility Score: inf
ROOT
ATOM      1  C   UNL     1      56.763  28.764  50.198  1.00  0.00     0.000 C 
ENDROOT
BRANCH   1   2
ATOM      2  C   UNL     1      58.193  29.329  50.231  1.00  0.00     0.000 C 
BRANCH   2   3
ATOM      3  C   UNL     1      59.035  28.875  49.027  1.00  0.00     0.000 C 
BRANCH   3   4
ATOM      4  C   UNL     1      60.136  27.875  49.418  1.00  0.00     0.000 C 
BRANCH   4   5
ATOM      5  C   UNL     1      59.655  26.417  49.373  1.00  0.00     0.006 C 
BRANCH   5   6
ATOM      6  C   UNL     1      60.127  25.647  50.610  1.00  0.00     0.053 C 
BRANCH   6   7
ATOM      7  C   UNL     1      60.952  24.465  50.210  1.00  0.00     0.041 C 
ATOM      8  O   UNL     1      62.208  24.554  50.169  1.00  0.00    -0.550 OA
ATOM      9  O   UNL     1      60.339  23.252  49.929  1.00  0.00    -0.550 OA
ENDBRANCH   6   7
ENDBRANCH   5   6
ENDBRANCH   4   5
ENDBRANCH   3   4
ENDBRANCH   2   3
ENDBRANCH   1   2
BRANCH   1  10
ATOM     10  C   UNL     1      56.594  27.527  51.098  1.00  0.00     0.000 C 
BRANCH  10  11
ATOM     11  C   UNL     1      56.233  26.262  50.304  1.00  0.00    -0.000 C 
BRANCH  11  12
ATOM     12  C   UNL     1      54.891  26.392  49.561  1.00  0.00    -0.000 C 
BRANCH  12  13
ATOM     13  C   UNL     1      53.685  26.085  50.464  1.00  0.00    -0.000 C 
BRANCH  13  14
ATOM     14  C   UNL     1      52.875  27.340  50.823  1.00  0.00    -0.000 C 
BRANCH  14  15
ATOM     15  C   UNL     1      53.020  28.416  49.736  1.00  0.00    -0.000 C 
BRANCH  15  16
ATOM     16  C   UNL     1      53.240  29.819  50.320  1.00  0.00    -0.003 C 
ATOM     17  C   UNL     1      53.595  29.795  51.806  1.00  0.00     0.004 C 
ENDBRANCH  15  16
ENDBRANCH  14  15
ENDBRANCH  13  14
ENDBRANCH  12  13
ENDBRANCH  11  12
ENDBRANCH  10  11
ENDBRANCH   1  10
TORSDOF 13
ENDMDL
MODEL 2
REMARK VINA RESULT:    -3.278      1.685      3.336
REMARK INTER + INTRA:          -7.512
REMARK INTER:                  -5.318
REMARK INTRA:                  -2.194
REMARK UNBOUND:                -1.744
REMARK SMILES CCCCCCCCCCCCCCC(=O)[O-]
REMARK SMILES IDX 9 1 10 2 11 3 12 4 13 5 14 6 15 7 16 8 17 9 8 10 7 11 6 12
REMARK SMILES IDX 5 13 4 14 3 15 2 16 1 17
REMARK H PARENT
REMARK Flexibility Score: inf
ROOT
ATOM      1  C   UNL     1      56.467  29.360  53.280  1.00  0.00     0.000 C 
ENDROOT
BRANCH   1   2
ATOM      2  C   UNL     1      57.573  28.830  52.350  1.00  0.00     0.000 C 
BRANCH   2   3
ATOM      3  C   UNL     1      57.960  29.841  51.258  1.00  0.00     0.000 C 
BRANCH   3   4
ATOM      4  C   UNL     1      57.755  29.285  49.839  1.00  0.00     0.000 C 
BRANCH   4   5
ATOM      5  C   UNL     1      59.079  28.989  49.121  1.00  0.00     0.006 C 
BRANCH   5   6
ATOM      6  C   UNL     1      59.485  27.523  49.304  1.00  0.00     0.053 C 
BRANCH   6   7
ATOM      7  C   UNL     1      60.825  27.427  49.961  1.00  0.00     0.041 C 
ATOM      8  O   UNL     1      61.545  26.409  49.786  1.00  0.00    -0.550 OA
ATOM      9  O   UNL     1      61.301  28.482  50.729  1.00  0.00    -0.550 OA
ENDBRANCH   6   7
ENDBRANCH   5   6
ENDBRANCH   4   5
ENDBRANCH   3   4
ENDBRANCH   2   3
ENDBRANCH   1   2
BRANCH   1  10
ATOM     10  C   UNL     1      55.484  30.295  52.554  1.00  0.00     0.000 C 
BRANCH  10  11
ATOM     11  C   UNL     1      54.248  29.554  52.019  1.00  0.00    -0.000 C 
BRANCH  11  12
ATOM     12  C   UNL     1      54.077  29.710  50.497  1.00  0.00    -0.000 C 
BRANCH  12  13
ATOM     13  C   UNL     1      53.646  28.401  49.815  1.00  0.00    -0.000 C 
BRANCH  13  14
ATOM     14  C   UNL     1      54.138  27.151  50.560  1.00  0.00    -0.000 C 
BRANCH  14  15
ATOM     15  C   UNL     1      55.319  26.503  49.822  1.00  0.00    -0.000 C 
BRANCH  15  16
ATOM     16  C   UNL     1      56.386  25.954  50.782  1.00  0.00    -0.003 C 
ATOM     17  C   UNL     1      55.842  25.690  52.185  1.00  0.00     0.004 C 
ENDBRANCH  15  16
ENDBRANCH  14  15
ENDBRANCH  13  14
ENDBRANCH  12  13
ENDBRANCH  11  12
ENDBRANCH  10  11
ENDBRANCH   1  10
TORSDOF 13
ENDMDL
MODEL 3
REMARK VINA RESULT:    -3.199      3.062      5.019
REMARK INTER + INTRA:          -7.373
REMARK INTER:                  -5.938
REMARK INTRA:                  -1.435
REMARK UNBOUND:                -1.744
REMARK SMILES CCCCCCCCCCCCCCC(=O)[O-]
REMARK SMILES IDX 9 1 10 2 11 3 12 4 13 5 14 6 15 7 16 8 17 9 8 10 7 11 6 12
REMARK SMILES IDX 5 13 4 14 3 15 2 16 1 17
REMARK H PARENT
REMARK Flexibility Score: inf
ROOT
ATOM      1  C   UNL     1      60.610  26.115  50.123  1.00  0.00     0.000 C 
ENDROOT
BRANCH   1   2
ATOM      2  C   UNL     1      61.881  26.966  50.290  1.00  0.00     0.000 C 
BRANCH   2   3
ATOM      3  C   UNL     1      63.154  26.213  49.868  1.00  0.00     0.000 C 
BRANCH   3   4
ATOM      4  C   UNL     1      64.129  27.098  49.076  1.00  0.00     0.000 C 
BRANCH   4   5
ATOM      5  C   UNL     1      63.415  28.194  48.271  1.00  0.00     0.006 C 
BRANCH   5   6
ATOM      6  C   UNL     1      64.088  29.554  48.480  1.00  0.00     0.053 C 
BRANCH   6   7
ATOM      7  C   UNL     1      63.455  30.283  49.623  1.00  0.00     0.041 C 
ATOM      8  O   UNL     1      62.421  30.977  49.437  1.00  0.00    -0.550 OA
ATOM      9  O   UNL     1      63.979  30.157  50.903  1.00  0.00    -0.550 OA
ENDBRANCH   6   7
ENDBRANCH   5   6
ENDBRANCH   4   5
ENDBRANCH   3   4
ENDBRANCH   2   3
ENDBRANCH   1   2
BRANCH   1  10
ATOM     10  C   UNL     1      59.512  26.844  49.329  1.00  0.00     0.000 C 
BRANCH  10  11
ATOM     11  C   UNL     1      59.790  28.348  49.178  1.00  0.00    -0.000 C 
BRANCH  11  12
ATOM     12  C   UNL     1      58.517  29.203  49.320  1.00  0.00    -0.000 C 
BRANCH  12  13
ATOM     13  C   UNL     1      58.184  29.526  50.786  1.00  0.00    -0.000 C 
BRANCH  13  14
ATOM     14  C   UNL     1      57.063  28.642  51.351  1.00  0.00    -0.000 C 
BRANCH  14  15
ATOM     15  C   UNL     1      56.079  28.229  50.245  1.00  0.00    -0.000 C 
BRANCH  15  16
ATOM     16  C   UNL     1      55.864  26.710  50.183  1.00  0.00    -0.003 C 
ATOM     17  C   UNL     1      54.554  26.324  49.497  1.00  0.00     0.004 C 
ENDBRANCH  15  16
ENDBRANCH  14  15
ENDBRANCH  13  14
ENDBRANCH  12  13
ENDBRANCH  11  12
ENDBRANCH  10  11
ENDBRANCH   1  10
TORSDOF 13
ENDMDL
MODEL 4
REMARK VINA RESULT:    -3.183     11.801     13.247
REMARK INTER + INTRA:          -7.346
REMARK INTER:                  -5.639
REMARK INTRA:                  -1.706
REMARK UNBOUND:                -1.744
REMARK SMILES CCCCCCCCCCCCCCC(=O)[O-]
REMARK SMILES IDX 9 1 10 2 11 3 12 4 13 5 14 6 15 7 16 8 17 9 8 10 7 11 6 12
REMARK SMILES IDX 5 13 4 14 3 15 2 16 1 17
REMARK H PARENT
REMARK Flexibility Score: inf
ROOT
ATOM      1  C   UNL     1      63.595  31.195  58.587  1.00  0.00     0.000 C 
ENDROOT
BRANCH   1   2
ATOM      2  C   UNL     1      64.565  31.798  59.618  1.00  0.00     0.000 C 
BRANCH   2   3
ATOM      3  C   UNL     1      64.036  31.696  61.058  1.00  0.00     0.000 C 
BRANCH   3   4
ATOM      4  C   UNL     1      63.736  30.247  61.475  1.00  0.00     0.000 C 
BRANCH   4   5
ATOM      5  C   UNL     1      62.244  30.005  61.747  1.00  0.00     0.006 C 
BRANCH   5   6
ATOM      6  C   UNL     1      61.849  28.568  61.391  1.00  0.00     0.053 C 
BRANCH   6   7
ATOM      7  C   UNL     1      60.466  28.529  60.821  1.00  0.00     0.041 C 
ATOM      8  O   UNL     1      59.703  29.524  60.941  1.00  0.00    -0.550 OA
ATOM      9  O   UNL     1      60.035  27.413  60.117  1.00  0.00    -0.550 OA
ENDBRANCH   6   7
ENDBRANCH   5   6
ENDBRANCH   4   5
ENDBRANCH   3   4
ENDBRANCH   2   3
ENDBRANCH   1   2
BRANCH   1  10
ATOM     10  C   UNL     1      62.570  32.219  58.070  1.00  0.00     0.000 C 
BRANCH  10  11
ATOM     11  C   UNL     1      61.191  32.061  58.731  1.00  0.00    -0.000 C 
BRANCH  11  12
ATOM     12  C   UNL     1      60.928  33.126  59.811  1.00  0.00    -0.000 C 
BRANCH  12  13
ATOM     13  C   UNL     1      61.847  34.351  59.669  1.00  0.00    -0.000 C 
BRANCH  13  14
ATOM     14  C   UNL     1      61.304  35.591  60.394  1.00  0.00    -0.000 C 
BRANCH  14  15
ATOM     15  C   UNL     1      62.387  36.225  61.281  1.00  0.00    -0.000 C 
BRANCH  15  16
ATOM     16  C   UNL     1      63.681  35.400  61.315  1.00  0.00    -0.003 C 
ATOM     17  C   UNL     1      64.852  36.157  61.941  1.00  0.00     0.004 C 
ENDBRANCH  15  16
ENDBRANCH  14  15
ENDBRANCH  13  14
ENDBRANCH  12  13
ENDBRANCH  11  12
ENDBRANCH  10  11
ENDBRANCH   1  10
TORSDOF 13
ENDMDL
MODEL 5
REMARK VINA RESULT:    -3.174     12.581     14.276
REMARK INTER + INTRA:          -7.329
REMARK INTER:                  -5.543
REMARK INTRA:                  -1.786
REMARK UNBOUND:                -1.744
REMARK SMILES CCCCCCCCCCCCCCC(=O)[O-]
REMARK SMILES IDX 9 1 10 2 11 3 12 4 13 5 14 6 15 7 16 8 17 9 8 10 7 11 6 12
REMARK SMILES IDX 5 13 4 14 3 15 2 16 1 17
REMARK H PARENT
REMARK Flexibility Score: inf
ROOT
ATOM      1  C   UNL     1      63.844  33.866  61.113  1.00  0.00     0.000 C 
ENDROOT
BRANCH   1   2
ATOM      2  C   UNL     1      64.410  35.260  61.432  1.00  0.00     0.000 C 
BRANCH   2   3
ATOM      3  C   UNL     1      63.647  36.386  60.714  1.00  0.00     0.000 C 
BRANCH   3   4
ATOM      4  C   UNL     1      62.345  36.771  61.436  1.00  0.00     0.000 C 
BRANCH   4   5
ATOM      5  C   UNL     1      61.159  36.934  60.474  1.00  0.00     0.006 C 
BRANCH   5   6
ATOM      6  C   UNL     1      61.633  36.937  59.017  1.00  0.00     0.053 C 
BRANCH   6   7
ATOM      7  C   UNL     1      60.558  36.420  58.114  1.00  0.00     0.041 C 
ATOM      8  O   UNL     1      60.615  36.634  56.874  1.00  0.00    -0.550 OA
ATOM      9  O   UNL     1      59.518  35.661  58.634  1.00  0.00    -0.550 OA
ENDBRANCH   6   7
ENDBRANCH   5   6
ENDBRANCH   4   5
ENDBRANCH   3   4
ENDBRANCH   2   3
ENDBRANCH   1   2
BRANCH   1  10
ATOM     10  C   UNL     1      63.502  33.694  59.623  1.00  0.00     0.000 C 
BRANCH  10  11
ATOM     11  C   UNL     1      62.047  33.253  59.397  1.00  0.00    -0.000 C 
BRANCH  11  12
ATOM     12  C   UNL     1      61.308  32.952  60.714  1.00  0.00    -0.000 C 
BRANCH  12  13
ATOM     13  C   UNL     1      60.882  31.479  60.828  1.00  0.00    -0.000 C 
BRANCH  13  14
ATOM     14  C   UNL     1      61.677  30.710  61.894  1.00  0.00    -0.000 C 
BRANCH  14  15
ATOM     15  C   UNL     1      63.062  30.310  61.363  1.00  0.00    -0.000 C 
BRANCH  15  16
ATOM     16  C   UNL     1      63.227  28.789  61.230  1.00  0.00    -0.003 C 
ATOM     17  C   UNL     1      61.968  28.019  61.625  1.00  0.00     0.004 C 
ENDBRANCH  15  16
ENDBRANCH  14  15
ENDBRANCH  13  14
ENDBRANCH  12  13
ENDBRANCH  11  12
ENDBRANCH  10  11
ENDBRANCH   1  10
TORSDOF 13
ENDMDL
MODEL 6
REMARK VINA RESULT:    -3.148     11.835     13.596
REMARK INTER + INTRA:          -7.284
REMARK INTER:                  -5.347
REMARK INTRA:                  -1.937
REMARK UNBOUND:                -1.744
REMARK SMILES CCCCCCCCCCCCCCC(=O)[O-]
REMARK SMILES IDX 9 1 10 2 11 3 12 4 13 5 14 6 15 7 16 8 17 9 8 10 7 11 6 12
REMARK SMILES IDX 5 13 4 14 3 15 2 16 1 17
REMARK H PARENT
REMARK Flexibility Score: inf
ROOT
ATOM      1  C   UNL     1      61.074  33.372  58.720  1.00  0.00     0.000 C 
ENDROOT
BRANCH   1   2
ATOM      2  C   UNL     1      60.480  32.200  59.520  1.00  0.00     0.000 C 
BRANCH   2   3
ATOM      3  C   UNL     1      60.760  32.313  61.028  1.00  0.00     0.000 C 
BRANCH   3   4
ATOM      4  C   UNL     1      61.387  31.035  61.610  1.00  0.00     0.000 C 
BRANCH   4   5
ATOM      5  C   UNL     1      62.477  30.444  60.704  1.00  0.00     0.006 C 
BRANCH   5   6
ATOM      6  C   UNL     1      63.705  30.031  61.522  1.00  0.00     0.053 C 
BRANCH   6   7
ATOM      7  C   UNL     1      64.764  29.464  60.631  1.00  0.00     0.041 C 
ATOM      8  O   UNL     1      64.479  28.555  59.808  1.00  0.00    -0.550 OA
ATOM      9  O   UNL     1      66.055  29.973  60.675  1.00  0.00    -0.550 OA
ENDBRANCH   6   7
ENDBRANCH   5   6
ENDBRANCH   4   5
ENDBRANCH   3   4
ENDBRANCH   2   3
ENDBRANCH   1   2
BRANCH   1  10
ATOM     10  C   UNL     1      60.143  34.597  58.688  1.00  0.00     0.000 C 
BRANCH  10  11
ATOM     11  C   UNL     1      60.845  35.886  59.145  1.00  0.00    -0.000 C 
BRANCH  11  12
ATOM     12  C   UNL     1      61.376  35.790  60.587  1.00  0.00    -0.000 C 
BRANCH  12  13
ATOM     13  C   UNL     1      62.768  36.425  60.745  1.00  0.00    -0.000 C 
BRANCH  13  14
ATOM     14  C   UNL     1      63.719  35.571  61.596  1.00  0.00    -0.000 C 
BRANCH  14  15
ATOM     15  C   UNL     1      63.879  34.165  60.997  1.00  0.00    -0.000 C 
BRANCH  15  16
ATOM     16  C   UNL     1      64.443  34.192  59.569  1.00  0.00    -0.003 C 
ATOM     17  C   UNL     1      64.668  32.795  58.993  1.00  0.00     0.004 C 
ENDBRANCH  15  16
ENDBRANCH  14  15
ENDBRANCH  13  14
ENDBRANCH  12  13
ENDBRANCH  11  12
ENDBRANCH  10  11
ENDBRANCH   1  10
TORSDOF 13
ENDMDL
MODEL 7
REMARK VINA RESULT:    -3.127     12.370     13.728
REMARK INTER + INTRA:          -7.247
REMARK INTER:                  -6.217
REMARK INTRA:                  -1.030
REMARK UNBOUND:                -1.744
REMARK SMILES CCCCCCCCCCCCCCC(=O)[O-]
REMARK SMILES IDX 9 1 10 2 11 3 12 4 13 5 14 6 15 7 16 8 17 9 8 10 7 11 6 12
REMARK SMILES IDX 5 13 4 14 3 15 2 16 1 17
REMARK H PARENT
REMARK Flexibility Score: inf
ROOT
ATOM      1  C   UNL     1      63.088  30.852  61.485  1.00  0.00     0.000 C 
ENDROOT
BRANCH   1   2
ATOM      2  C   UNL     1      63.810  29.504  61.313  1.00  0.00     0.000 C 
BRANCH   2   3
ATOM      3  C   UNL     1      62.853  28.371  60.905  1.00  0.00     0.000 C 
BRANCH   3   4
ATOM      4  C   UNL     1      63.516  26.985  60.976  1.00  0.00     0.000 C 
BRANCH   4   5
ATOM      5  C   UNL     1      62.534  25.879  61.390  1.00  0.00     0.006 C 
BRANCH   5   6
ATOM      6  C   UNL     1      61.770  26.273  62.659  1.00  0.00     0.053 C 
BRANCH   6   7
ATOM      7  C   UNL     1      60.299  26.073  62.469  1.00  0.00     0.041 C 
ATOM      8  O   UNL     1      59.682  25.218  63.158  1.00  0.00    -0.550 OA
ATOM      9  O   UNL     1      59.600  26.864  61.567  1.00  0.00    -0.550 OA
ENDBRANCH   6   7
ENDBRANCH   5   6
ENDBRANCH   4   5
ENDBRANCH   3   4
ENDBRANCH   2   3
ENDBRANCH   1   2
BRANCH   1  10
ATOM     10  C   UNL     1      61.556  30.713  61.434  1.00  0.00     0.000 C 
BRANCH  10  11
ATOM     11  C   UNL     1      60.841  32.071  61.350  1.00  0.00    -0.000 C 
BRANCH  11  12
ATOM     12  C   UNL     1      61.299  32.906  60.140  1.00  0.00    -0.000 C 
BRANCH  12  13
ATOM     13  C   UNL     1      61.246  34.419  60.414  1.00  0.00    -0.000 C 
BRANCH  13  14
ATOM     14  C   UNL     1      62.563  35.132  60.075  1.00  0.00    -0.000 C 
BRANCH  14  15
ATOM     15  C   UNL     1      63.745  34.477  60.806  1.00  0.00    -0.000 C 
BRANCH  15  16
ATOM     16  C   UNL     1      64.374  35.401  61.859  1.00  0.00    -0.003 C 
ATOM     17  C   UNL     1      63.852  36.835  61.777  1.00  0.00     0.004 C 
ENDBRANCH  15  16
ENDBRANCH  14  15
ENDBRANCH  13  14
ENDBRANCH  12  13
ENDBRANCH  11  12
ENDBRANCH  10  11
ENDBRANCH   1  10
TORSDOF 13
ENDMDL
MODEL 8
REMARK VINA RESULT:    -3.117     11.874     13.600
REMARK INTER + INTRA:          -7.229
REMARK INTER:                  -5.068
REMARK INTRA:                  -2.161
REMARK UNBOUND:                -1.744
REMARK SMILES CCCCCCCCCCCCCCC(=O)[O-]
REMARK SMILES IDX 9 1 10 2 11 3 12 4 13 5 14 6 15 7 16 8 17 9 8 10 7 11 6 12
REMARK SMILES IDX 5 13 4 14 3 15 2 16 1 17
REMARK H PARENT
REMARK Flexibility Score: inf
ROOT
ATOM      1  C   UNL     1      63.099  30.797  61.529  1.00  0.00     0.000 C 
ENDROOT
BRANCH   1   2
ATOM      2  C   UNL     1      61.610  30.713  61.905  1.00  0.00     0.000 C 
BRANCH   2   3
ATOM      3  C   UNL     1      60.797  31.902  61.365  1.00  0.00     0.000 C 
BRANCH   3   4
ATOM      4  C   UNL     1      61.506  32.626  60.209  1.00  0.00     0.000 C 
BRANCH   4   5
ATOM      5  C   UNL     1      61.795  34.101  60.522  1.00  0.00     0.006 C 
BRANCH   5   6
ATOM      6  C   UNL     1      63.293  34.327  60.754  1.00  0.00     0.053 C 
BRANCH   6   7
ATOM      7  C   UNL     1      63.523  35.611  61.486  1.00  0.00     0.041 C 
ATOM      8  O   UNL     1      62.599  36.462  61.579  1.00  0.00    -0.550 OA
ATOM      9  O   UNL     1      64.741  35.848  62.108  1.00  0.00    -0.550 OA
ENDBRANCH   6   7
ENDBRANCH   5   6
ENDBRANCH   4   5
ENDBRANCH   3   4
ENDBRANCH   2   3
ENDBRANCH   1   2
BRANCH   1  10
ATOM     10  C   UNL     1      63.733  29.411  61.316  1.00  0.00     0.000 C 
BRANCH  10  11
ATOM     11  C   UNL     1      62.707  28.350  60.889  1.00  0.00    -0.000 C 
BRANCH  11  12
ATOM     12  C   UNL     1      62.716  28.096  59.370  1.00  0.00    -0.000 C 
BRANCH  12  13
ATOM     13  C   UNL     1      61.686  28.959  58.622  1.00  0.00    -0.000 C 
BRANCH  13  14
ATOM     14  C   UNL     1      62.340  30.021  57.725  1.00  0.00    -0.000 C 
BRANCH  14  15
ATOM     15  C   UNL     1      63.868  29.868  57.717  1.00  0.00    -0.000 C 
BRANCH  15  16
ATOM     16  C   UNL     1      64.593  31.152  58.145  1.00  0.00    -0.003 C 
ATOM     17  C   UNL     1      63.975  32.412  57.538  1.00  0.00     0.004 C 
ENDBRANCH  15  16
ENDBRANCH  14  15
ENDBRANCH  13  14
ENDBRANCH  12  13
ENDBRANCH  11  12
ENDBRANCH  10  11
ENDBRANCH   1  10
TORSDOF 13
ENDMDL
MODEL 9
REMARK VINA RESULT:    -3.105      2.487      3.898
REMARK INTER + INTRA:          -7.209
REMARK INTER:                  -5.083
REMARK INTRA:                  -2.126
REMARK UNBOUND:                -1.744
REMARK SMILES CCCCCCCCCCCCCCC(=O)[O-]
REMARK SMILES IDX 9 1 10 2 11 3 12 4 13 5 14 6 15 7 16 8 17 9 8 10 7 11 6 12
REMARK SMILES IDX 5 13 4 14 3 15 2 16 1 17
REMARK H PARENT
REMARK Flexibility Score: inf
ROOT
ATOM      1  C   UNL     1      56.890  25.647  51.876  1.00  0.00     0.000 C 
ENDROOT
BRANCH   1   2
ATOM      2  C   UNL     1      58.257  25.710  51.172  1.00  0.00     0.000 C 
BRANCH   2   3
ATOM      3  C   UNL     1      58.160  26.272  49.744  1.00  0.00     0.000 C 
BRANCH   3   4
ATOM      4  C   UNL     1      59.408  27.073  49.338  1.00  0.00     0.000 C 
BRANCH   4   5
ATOM      5  C   UNL     1      59.162  28.589  49.326  1.00  0.00     0.006 C 
BRANCH   5   6
ATOM      6  C   UNL     1      59.847  29.263  50.520  1.00  0.00     0.053 C 
BRANCH   6   7
ATOM      7  C   UNL     1      61.212  29.744  50.139  1.00  0.00     0.041 C 
ATOM      8  O   UNL     1      62.171  28.932  50.062  1.00  0.00    -0.550 OA
ATOM      9  O   UNL     1      61.415  31.081  49.822  1.00  0.00    -0.550 OA
ENDBRANCH   6   7
ENDBRANCH   5   6
ENDBRANCH   4   5
ENDBRANCH   3   4
ENDBRANCH   2   3
ENDBRANCH   1   2
BRANCH   1  10
ATOM     10  C   UNL     1      56.908  26.317  53.262  1.00  0.00     0.000 C 
BRANCH  10  11
ATOM     11  C   UNL     1      57.303  27.801  53.196  1.00  0.00    -0.000 C 
BRANCH  11  12
ATOM     12  C   UNL     1      56.106  28.719  52.885  1.00  0.00    -0.000 C 
BRANCH  12  13
ATOM     13  C   UNL     1      56.285  29.495  51.570  1.00  0.00    -0.000 C 
BRANCH  13  14
ATOM     14  C   UNL     1      55.612  28.805  50.375  1.00  0.00    -0.000 C 
BRANCH  14  15
ATOM     15  C   UNL     1      54.260  28.198  50.782  1.00  0.00    -0.000 C 
BRANCH  15  16
ATOM     16  C   UNL     1      53.589  27.428  49.635  1.00  0.00    -0.003 C 
ATOM     17  C   UNL     1      54.341  26.153  49.257  1.00  0.00     0.004 C 
ENDBRANCH  15  16
ENDBRANCH  14  15
ENDBRANCH  13  14
ENDBRANCH  12  13
ENDBRANCH  11  12
ENDBRANCH  10  11
ENDBRANCH   1  10
TORSDOF 13
ENDMDL
