MODEL 1
REMARK VINA RESULT:     5.361      0.000      0.000
REMARK INTER + INTRA:           7.093
REMARK INTER:                   5.831
REMARK INTRA:                   1.261
REMARK UNBOUND:                 1.261
REMARK SMILES C[C@H]1[C@H]2C3=CC[C@H]4[C@@]5(C)CC[C@@H](O)C(C)(C)[C@H]5CC[C@]4(C)[C@@]3(C)CC[C@]2(C(=O)[O-])CC[C@@H]1C
REMARK SMILES IDX 26 1 30 2 25 3 3 4 31 5 24 6 4 7 2 8 32 9 22 10 5 11 1 12
REMARK SMILES IDX 33 13 23 14 20 15 6 16 7 17 19 18 21 19 8 20 18 21 17 22
REMARK SMILES IDX 10 23 9 24 14 25 11 26 12 27 15 28 16 29 27 30 28 31 29 32
REMARK SMILES IDX 13 33
REMARK H PARENT 13 34
REMARK Flexibility Score: inf
ROOT
ATOM      1  C   UNL     1      -5.934  17.283  -7.220  1.00  0.00     0.017 C 
ATOM      2  C   UNL     1      -4.975  16.095  -6.914  1.00  0.00     0.014 C 
ATOM      3  C   UNL     1      -5.417  17.985  -8.502  1.00  0.00     0.014 C 
ATOM      4  C   UNL     1      -7.367  16.709  -7.501  1.00  0.00     0.030 C 
ATOM      5  C   UNL     1      -5.462  15.259  -5.721  1.00  0.00     0.004 C 
ATOM      6  C   UNL     1      -6.344  19.117  -8.978  1.00  0.00     0.013 C 
ATOM      7  C   UNL     1      -8.339  17.785  -8.049  1.00  0.00    -0.063 C 
ATOM      8  C   UNL     1      -7.892  15.742  -6.368  1.00  0.00    -0.003 C 
ATOM      9  C   UNL     1      -6.844  14.647  -5.982  1.00  0.00    -0.011 C 
ATOM     10  C   UNL     1      -7.845  18.700  -9.200  1.00  0.00    -0.006 C 
ATOM     11  C   UNL     1      -9.673  17.702  -7.793  1.00  0.00    -0.027 C 
ATOM     12  C   UNL     1      -8.447  16.456  -5.109  1.00  0.00     0.008 C 
ATOM     13  C   UNL     1      -6.774  13.506  -7.015  1.00  0.00     0.008 C 
ATOM     14  C   UNL     1      -7.874  17.814 -10.496  1.00  0.00     0.017 C 
ATOM     15  C   UNL     1      -8.801  20.007  -9.310  1.00  0.00    -0.020 C 
ATOM     16  C   UNL     1     -10.696  18.728  -8.215  1.00  0.00     0.032 C 
ATOM     17  C   UNL     1     -10.291  19.528  -9.477  1.00  0.00     0.006 C 
ATOM     18  C   UNL     1      -8.443  20.879 -10.533  1.00  0.00     0.008 C 
ATOM     19  C   UNL     1      -8.624  20.882  -8.020  1.00  0.00     0.012 C 
ATOM     20  C   UNL     1     -11.412  20.564 -10.001  1.00  0.00    -0.025 C 
ATOM     21  C   UNL     1      -9.388  22.067 -10.705  1.00  0.00     0.005 C 
ATOM     22  C   UNL     1     -10.835  21.625 -11.049  1.00  0.00     0.003 C 
ATOM     23  C   UNL     1     -12.141  21.275  -8.814  1.00  0.00     0.010 C 
ATOM     24  C   UNL     1     -12.470  19.672 -10.734  1.00  0.00     0.012 C 
ATOM     25  C   UNL     1     -11.789  22.871 -11.375  1.00  0.00    -0.006 C 
ATOM     26  C   UNL     1     -13.124  22.372  -9.231  1.00  0.00     0.033 C 
ATOM     27  C   UNL     1     -12.443  23.450 -10.082  1.00  0.00     0.120 C 
ATOM     28  C   UNL     1     -12.901  22.478 -12.396  1.00  0.00     0.014 C 
ATOM     29  C   UNL     1     -11.013  24.028 -12.079  1.00  0.00     0.014 C 
ENDROOT
BRANCH   1  30
ATOM     30  C   UNL     1      -5.879  18.288  -6.067  1.00  0.00     0.048 C 
ATOM     31  O   UNL     1      -5.760  17.903  -4.875  1.00  0.00    -0.550 OA
ATOM     32  O   UNL     1      -6.116  19.641  -6.295  1.00  0.00    -0.550 OA
ENDBRANCH   1  30
BRANCH  27  33
ATOM     33  O   UNL     1     -11.484  24.124  -9.301  1.00  0.00    -0.393 OA
ATOM     34  H   UNL     1     -10.773  24.431  -9.918  1.00  0.00     0.210 HD
ENDBRANCH  27  33
TORSDOF 2
ENDMDL
MODEL 2
REMARK VINA RESULT:     5.660      2.071      8.049
REMARK INTER + INTRA:           7.418
REMARK INTER:                   6.408
REMARK INTRA:                   1.010
REMARK UNBOUND:                 1.261
REMARK SMILES C[C@H]1[C@H]2C3=CC[C@H]4[C@@]5(C)CC[C@@H](O)C(C)(C)[C@H]5CC[C@]4(C)[C@@]3(C)CC[C@]2(C(=O)[O-])CC[C@@H]1C
REMARK SMILES IDX 26 1 30 2 25 3 3 4 31 5 24 6 4 7 2 8 32 9 22 10 5 11 1 12
REMARK SMILES IDX 33 13 23 14 20 15 6 16 7 17 19 18 21 19 8 20 18 21 17 22
REMARK SMILES IDX 10 23 9 24 14 25 11 26 12 27 15 28 16 29 27 30 28 31 29 32
REMARK SMILES IDX 13 33
REMARK H PARENT 13 34
REMARK Flexibility Score: inf
ROOT
ATOM      1  C   UNL     1      -9.850  20.801 -11.100  1.00  0.00     0.017 C 
ATOM      2  C   UNL     1     -10.469  22.062 -11.770  1.00  0.00     0.014 C 
ATOM      3  C   UNL     1      -8.370  20.706 -11.555  1.00  0.00     0.014 C 
ATOM      4  C   UNL     1      -9.888  20.991  -9.543  1.00  0.00     0.030 C 
ATOM      5  C   UNL     1     -11.908  22.315 -11.295  1.00  0.00     0.004 C 
ATOM      6  C   UNL     1      -7.608  19.557 -10.873  1.00  0.00     0.013 C 
ATOM      7  C   UNL     1      -9.081  19.902  -8.793  1.00  0.00    -0.063 C 
ATOM      8  C   UNL     1     -11.318  21.369  -8.990  1.00  0.00    -0.003 C 
ATOM      9  C   UNL     1     -11.974  22.549  -9.780  1.00  0.00    -0.011 C 
ATOM     10  C   UNL     1      -7.654  19.566  -9.301  1.00  0.00    -0.006 C 
ATOM     11  C   UNL     1      -9.448  19.511  -7.542  1.00  0.00    -0.027 C 
ATOM     12  C   UNL     1     -12.297  20.177  -8.847  1.00  0.00     0.008 C 
ATOM     13  C   UNL     1     -11.388  23.919  -9.391  1.00  0.00     0.008 C 
ATOM     14  C   UNL     1      -6.742  20.758  -8.837  1.00  0.00     0.017 C 
ATOM     15  C   UNL     1      -7.177  18.138  -8.696  1.00  0.00    -0.020 C 
ATOM     16  C   UNL     1      -8.780  18.413  -6.752  1.00  0.00     0.032 C 
ATOM     17  C   UNL     1      -7.295  18.191  -7.127  1.00  0.00     0.006 C 
ATOM     18  C   UNL     1      -5.708  17.824  -9.051  1.00  0.00     0.008 C 
ATOM     19  C   UNL     1      -8.077  17.001  -9.297  1.00  0.00     0.012 C 
ATOM     20  C   UNL     1      -6.536  17.086  -6.229  1.00  0.00    -0.025 C 
ATOM     21  C   UNL     1      -5.214  16.526  -8.417  1.00  0.00     0.005 C 
ATOM     22  C   UNL     1      -5.149  16.612  -6.870  1.00  0.00     0.003 C 
ATOM     23  C   UNL     1      -7.460  15.867  -5.908  1.00  0.00     0.010 C 
ATOM     24  C   UNL     1      -6.230  17.812  -4.876  1.00  0.00     0.012 C 
ATOM     25  C   UNL     1      -4.491  15.305  -6.216  1.00  0.00    -0.006 C 
ATOM     26  C   UNL     1      -6.770  14.715  -5.174  1.00  0.00     0.033 C 
ATOM     27  C   UNL     1      -5.555  14.195  -5.951  1.00  0.00     0.120 C 
ATOM     28  C   UNL     1      -3.751  15.651  -4.887  1.00  0.00     0.014 C 
ATOM     29  C   UNL     1      -3.380  14.696  -7.128  1.00  0.00     0.014 C 
ENDROOT
BRANCH   1  30
ATOM     30  C   UNL     1     -10.584  19.553 -11.594  1.00  0.00     0.048 C 
ATOM     31  O   UNL     1      -9.971  18.469 -11.779  1.00  0.00    -0.550 OA
ATOM     32  O   UNL     1     -11.914  19.627 -11.998  1.00  0.00    -0.550 OA
ENDBRANCH   1  30
BRANCH  27  33
ATOM     33  O   UNL     1      -5.986  13.623  -7.163  1.00  0.00    -0.393 OA
ATOM     34  H   UNL     1      -6.942  13.389  -7.048  1.00  0.00     0.210 HD
ENDBRANCH  27  33
TORSDOF 2
ENDMDL
MODEL 3
REMARK VINA RESULT:     6.294      1.866      3.478
REMARK INTER + INTRA:           8.107
REMARK INTER:                   7.231
REMARK INTRA:                   0.877
REMARK UNBOUND:                 1.261
REMARK SMILES C[C@H]1[C@H]2C3=CC[C@H]4[C@@]5(C)CC[C@@H](O)C(C)(C)[C@H]5CC[C@]4(C)[C@@]3(C)CC[C@]2(C(=O)[O-])CC[C@@H]1C
REMARK SMILES IDX 26 1 30 2 25 3 3 4 31 5 24 6 4 7 2 8 32 9 22 10 5 11 1 12
REMARK SMILES IDX 33 13 23 14 20 15 6 16 7 17 19 18 21 19 8 20 18 21 17 22
REMARK SMILES IDX 10 23 9 24 14 25 11 26 12 27 15 28 16 29 27 30 28 31 29 32
REMARK SMILES IDX 13 33
REMARK H PARENT 13 34
REMARK Flexibility Score: inf
ROOT
ATOM      1  C   UNL     1      -5.399  16.488  -6.258  1.00  0.00     0.017 C 
ATOM      2  C   UNL     1      -4.158  15.868  -5.552  1.00  0.00     0.014 C 
ATOM      3  C   UNL     1      -5.971  17.585  -5.324  1.00  0.00     0.014 C 
ATOM      4  C   UNL     1      -4.931  17.158  -7.598  1.00  0.00     0.030 C 
ATOM      5  C   UNL     1      -3.444  14.842  -6.446  1.00  0.00     0.004 C 
ATOM      6  C   UNL     1      -7.143  18.356  -5.956  1.00  0.00     0.013 C 
ATOM      7  C   UNL     1      -6.047  18.008  -8.256  1.00  0.00    -0.063 C 
ATOM      8  C   UNL     1      -4.087  16.195  -8.522  1.00  0.00    -0.003 C 
ATOM      9  C   UNL     1      -2.934  15.477  -7.746  1.00  0.00    -0.011 C 
ATOM     10  C   UNL     1      -6.841  18.995  -7.361  1.00  0.00    -0.006 C 
ATOM     11  C   UNL     1      -6.093  18.155  -9.609  1.00  0.00    -0.027 C 
ATOM     12  C   UNL     1      -4.924  15.184  -9.345  1.00  0.00     0.008 C 
ATOM     13  C   UNL     1      -1.728  16.400  -7.493  1.00  0.00     0.008 C 
ATOM     14  C   UNL     1      -5.878  20.208  -7.100  1.00  0.00     0.017 C 
ATOM     15  C   UNL     1      -8.213  19.431  -8.109  1.00  0.00    -0.020 C 
ATOM     16  C   UNL     1      -7.172  18.898 -10.357  1.00  0.00     0.032 C 
ATOM     17  C   UNL     1      -7.851  20.013  -9.526  1.00  0.00     0.006 C 
ATOM     18  C   UNL     1      -8.972  20.526  -7.327  1.00  0.00     0.008 C 
ATOM     19  C   UNL     1      -9.152  18.179  -8.229  1.00  0.00     0.012 C 
ATOM     20  C   UNL     1      -8.942  20.882 -10.338  1.00  0.00    -0.025 C 
ATOM     21  C   UNL     1     -10.221  21.013  -8.058  1.00  0.00     0.005 C 
ATOM     22  C   UNL     1      -9.881  21.752  -9.379  1.00  0.00     0.003 C 
ATOM     23  C   UNL     1      -9.788  19.991 -11.305  1.00  0.00     0.010 C 
ATOM     24  C   UNL     1      -8.097  21.861 -11.220  1.00  0.00     0.012 C 
ATOM     25  C   UNL     1     -11.179  22.391 -10.068  1.00  0.00    -0.006 C 
ATOM     26  C   UNL     1     -10.933  20.720 -12.011  1.00  0.00     0.033 C 
ATOM     27  C   UNL     1     -11.894  21.372 -11.009  1.00  0.00     0.120 C 
ATOM     28  C   UNL     1     -10.815  23.680 -10.869  1.00  0.00     0.014 C 
ATOM     29  C   UNL     1     -12.219  22.877  -9.010  1.00  0.00     0.014 C 
ENDROOT
BRANCH   1  30
ATOM     30  C   UNL     1      -6.468  15.409  -6.442  1.00  0.00     0.048 C 
ATOM     31  O   UNL     1      -7.643  15.709  -6.781  1.00  0.00    -0.550 OA
ATOM     32  O   UNL     1      -6.210  14.088  -6.087  1.00  0.00    -0.550 OA
ENDBRANCH   1  30
BRANCH  27  33
ATOM     33  O   UNL     1     -12.534  20.368 -10.256  1.00  0.00    -0.393 OA
ATOM     34  H   UNL     1     -11.908  20.104  -9.536  1.00  0.00     0.210 HD
ENDBRANCH  27  33
TORSDOF 2
ENDMDL
