MODEL 1
REMARK VINA RESULT:    -6.186      0.000      0.000
REMARK INTER + INTRA:          -6.728
REMARK INTER:                  -6.728
REMARK INTRA:                   0.000
REMARK UNBOUND:                 0.000
REMARK SMILES Cc1cc(O)c2c(c1)C(=O)c1cc(O)cc(O)c1C2=O
REMARK SMILES IDX 1 1 2 2 8 3 7 4 6 5 4 6 3 7 19 8 20 9 18 10 11 11 9 12 10 13
REMARK SMILES IDX 12 14 13 15 15 16 16 17 5 18 17 20 14 22
REMARK H PARENT 5 19 17 21 14 23
REMARK Flexibility Score: inf
ROOT
ATOM      1  C   UNL     1      -4.029   2.166   8.247  1.00  0.00     0.044 C 
ATOM      2  C   UNL     1      -2.764   1.688   7.598  1.00  0.00    -0.047 A 
ATOM      3  C   UNL     1      -1.657   2.539   7.502  1.00  0.00     0.016 A 
ATOM      4  C   UNL     1      -0.453   2.087   6.935  1.00  0.00     0.038 A 
ATOM      5  C   UNL     1      -0.347   0.753   6.481  1.00  0.00     0.076 A 
ATOM      6  C   UNL     1      -1.486  -0.090   6.538  1.00  0.00     0.127 A 
ATOM      7  C   UNL     1      -2.667   0.375   7.125  1.00  0.00     0.050 A 
ATOM      8  C   UNL     1       0.983   0.271   6.025  1.00  0.00     0.201 C 
ATOM      9  O   UNL     1       1.290  -0.944   6.160  1.00  0.00    -0.288 OA
ATOM     10  C   UNL     1       2.014   1.250   5.591  1.00  0.00     0.076 A 
ATOM     11  C   UNL     1       1.903   2.582   6.047  1.00  0.00     0.041 A 
ATOM     12  C   UNL     1       0.704   3.004   6.809  1.00  0.00     0.194 C 
ATOM     13  O   UNL     1       0.658   4.154   7.329  1.00  0.00    -0.289 OA
ATOM     14  C   UNL     1       2.929   3.502   5.773  1.00  0.00     0.059 A 
ATOM     15  C   UNL     1       4.051   3.115   5.037  1.00  0.00     0.120 A 
ATOM     16  C   UNL     1       4.144   1.811   4.550  1.00  0.00     0.093 A 
ATOM     17  C   UNL     1       3.128   0.881   4.792  1.00  0.00     0.131 A 
ENDROOT
BRANCH   6  18
ATOM     18  O   UNL     1      -1.500  -1.379   6.000  1.00  0.00    -0.507 OA
ATOM     19  H   UNL     1      -0.709  -1.796   5.529  1.00  0.00     0.293 HD
ENDBRANCH   6  18
BRANCH  17  20
ATOM     20  O   UNL     1       3.248  -0.376   4.197  1.00  0.00    -0.507 OA
ATOM     21  H   UNL     1       2.718  -1.185   4.488  1.00  0.00     0.293 HD
ENDBRANCH  17  20
BRANCH  15  22
ATOM     22  O   UNL     1       5.076   4.020   4.773  1.00  0.00    -0.508 OA
ATOM     23  H   UNL     1       5.481   4.591   5.506  1.00  0.00     0.293 HD
ENDBRANCH  15  22
TORSDOF 3
ENDMDL
MODEL 2
REMARK VINA RESULT:    -5.877      3.587      5.164
REMARK INTER + INTRA:          -6.393
REMARK INTER:                  -6.393
REMARK INTRA:                   0.000
REMARK UNBOUND:                 0.000
REMARK SMILES Cc1cc(O)c2c(c1)C(=O)c1cc(O)cc(O)c1C2=O
REMARK SMILES IDX 1 1 2 2 8 3 7 4 6 5 4 6 3 7 19 8 20 9 18 10 11 11 9 12 10 13
REMARK SMILES IDX 12 14 13 15 15 16 16 17 5 18 17 20 14 22
REMARK H PARENT 5 19 17 21 14 23
REMARK Flexibility Score: inf
ROOT
ATOM      1  C   UNL     1      -2.198  -6.754   7.460  1.00  0.00     0.044 C 
ATOM      2  C   UNL     1      -1.201  -5.738   6.988  1.00  0.00    -0.047 A 
ATOM      3  C   UNL     1      -1.443  -4.373   7.180  1.00  0.00     0.016 A 
ATOM      4  C   UNL     1      -0.496  -3.414   6.781  1.00  0.00     0.038 A 
ATOM      5  C   UNL     1       0.725  -3.830   6.206  1.00  0.00     0.076 A 
ATOM      6  C   UNL     1       0.946  -5.211   5.971  1.00  0.00     0.127 A 
ATOM      7  C   UNL     1      -0.003  -6.148   6.395  1.00  0.00     0.050 A 
ATOM      8  C   UNL     1       1.760  -2.798   5.933  1.00  0.00     0.201 C 
ATOM      9  O   UNL     1       2.981  -3.106   5.982  1.00  0.00    -0.288 OA
ATOM     10  C   UNL     1       1.363  -1.373   5.795  1.00  0.00     0.076 A 
ATOM     11  C   UNL     1       0.140  -0.962   6.372  1.00  0.00     0.041 A 
ATOM     12  C   UNL     1      -0.774  -1.969   6.959  1.00  0.00     0.194 C 
ATOM     13  O   UNL     1      -1.803  -1.598   7.589  1.00  0.00    -0.289 OA
ATOM     14  C   UNL     1      -0.205   0.400   6.383  1.00  0.00     0.059 A 
ATOM     15  C   UNL     1       0.644   1.352   5.812  1.00  0.00     0.120 A 
ATOM     16  C   UNL     1       1.833   0.945   5.205  1.00  0.00     0.093 A 
ATOM     17  C   UNL     1       2.190  -0.407   5.164  1.00  0.00     0.131 A 
ENDROOT
BRANCH   6  18
ATOM     18  O   UNL     1       2.070  -5.694   5.297  1.00  0.00    -0.507 OA
ATOM     19  H   UNL     1       2.247  -6.676   5.140  1.00  0.00     0.293 HD
ENDBRANCH   6  18
BRANCH  17  20
ATOM     20  O   UNL     1       3.346  -0.747   4.460  1.00  0.00    -0.507 OA
ATOM     21  H   UNL     1       3.714  -1.687   4.409  1.00  0.00     0.293 HD
ENDBRANCH  17  20
BRANCH  15  22
ATOM     22  O   UNL     1       0.312   2.704   5.832  1.00  0.00    -0.508 OA
ATOM     23  H   UNL     1      -0.465   3.051   6.382  1.00  0.00     0.293 HD
ENDBRANCH  15  22
TORSDOF 3
ENDMDL
MODEL 3
REMARK VINA RESULT:    -5.773      2.268      4.760
REMARK INTER + INTRA:          -6.279
REMARK INTER:                  -6.279
REMARK INTRA:                   0.000
REMARK UNBOUND:                 0.000
REMARK SMILES Cc1cc(O)c2c(c1)C(=O)c1cc(O)cc(O)c1C2=O
REMARK SMILES IDX 1 1 2 2 8 3 7 4 6 5 4 6 3 7 19 8 20 9 18 10 11 11 9 12 10 13
REMARK SMILES IDX 12 14 13 15 15 16 16 17 5 18 17 20 14 22
REMARK H PARENT 5 19 17 21 14 23
REMARK Flexibility Score: inf
ROOT
ATOM      1  C   UNL     1      -2.961   3.975   7.902  1.00  0.00     0.044 C 
ATOM      2  C   UNL     1      -1.940   2.992   7.412  1.00  0.00    -0.047 A 
ATOM      3  C   UNL     1      -2.177   1.617   7.520  1.00  0.00     0.016 A 
ATOM      4  C   UNL     1      -1.246   0.688   7.026  1.00  0.00     0.038 A 
ATOM      5  C   UNL     1      -0.071   1.142   6.387  1.00  0.00     0.076 A 
ATOM      6  C   UNL     1       0.187   2.536   6.322  1.00  0.00     0.127 A 
ATOM      7  C   UNL     1      -0.763   3.441   6.803  1.00  0.00     0.050 A 
ATOM      8  C   UNL     1       0.815   0.134   5.747  1.00  0.00     0.201 C 
ATOM      9  O   UNL     1       1.497   0.451   4.736  1.00  0.00    -0.288 OA
ATOM     10  C   UNL     1       0.749  -1.286   6.180  1.00  0.00     0.076 A 
ATOM     11  C   UNL     1      -0.428  -1.736   6.818  1.00  0.00     0.041 A 
ATOM     12  C   UNL     1      -1.492  -0.767   7.173  1.00  0.00     0.194 C 
ATOM     13  O   UNL     1      -2.597  -1.178   7.623  1.00  0.00    -0.289 OA
ATOM     14  C   UNL     1      -0.584  -3.100   7.117  1.00  0.00     0.059 A 
ATOM     15  C   UNL     1       0.425  -4.014   6.804  1.00  0.00     0.120 A 
ATOM     16  C   UNL     1       1.606  -3.567   6.211  1.00  0.00     0.093 A 
ATOM     17  C   UNL     1       1.794  -2.212   5.921  1.00  0.00     0.131 A 
ENDROOT
BRANCH   6  18
ATOM     18  O   UNL     1       1.379   3.061   5.818  1.00  0.00    -0.507 OA
ATOM     19  H   UNL     1       1.605   3.090   4.834  1.00  0.00     0.293 HD
ENDBRANCH   6  18
BRANCH  17  20
ATOM     20  O   UNL     1       3.036  -1.828   5.413  1.00  0.00    -0.507 OA
ATOM     21  H   UNL     1       3.594  -2.407   4.801  1.00  0.00     0.293 HD
ENDBRANCH  17  20
BRANCH  15  22
ATOM     22  O   UNL     1       0.270  -5.369   7.087  1.00  0.00    -0.508 OA
ATOM     23  H   UNL     1       0.708  -6.084   6.518  1.00  0.00     0.293 HD
ENDBRANCH  15  22
TORSDOF 3
ENDMDL
MODEL 4
REMARK VINA RESULT:    -5.650      1.540      6.110
REMARK INTER + INTRA:          -6.146
REMARK INTER:                  -6.146
REMARK INTRA:                   0.000
REMARK UNBOUND:                 0.000
REMARK SMILES Cc1cc(O)c2c(c1)C(=O)c1cc(O)cc(O)c1C2=O
REMARK SMILES IDX 1 1 2 2 8 3 7 4 6 5 4 6 3 7 19 8 20 9 18 10 11 11 9 12 10 13
REMARK SMILES IDX 12 14 13 15 15 16 16 17 5 18 17 20 14 22
REMARK H PARENT 5 19 17 21 14 23
REMARK Flexibility Score: inf
ROOT
ATOM      1  C   UNL     1       5.631   3.644   4.099  1.00  0.00     0.044 C 
ATOM      2  C   UNL     1       4.282   3.384   4.700  1.00  0.00    -0.047 A 
ATOM      3  C   UNL     1       3.853   2.071   4.927  1.00  0.00     0.016 A 
ATOM      4  C   UNL     1       2.609   1.818   5.529  1.00  0.00     0.038 A 
ATOM      5  C   UNL     1       1.792   2.896   5.936  1.00  0.00     0.076 A 
ATOM      6  C   UNL     1       2.210   4.224   5.661  1.00  0.00     0.127 A 
ATOM      7  C   UNL     1       3.461   4.452   5.079  1.00  0.00     0.050 A 
ATOM      8  C   UNL     1       0.555   2.590   6.701  1.00  0.00     0.201 C 
ATOM      9  O   UNL     1       0.119   3.417   7.546  1.00  0.00    -0.288 OA
ATOM     10  C   UNL     1      -0.055   1.238   6.608  1.00  0.00     0.076 A 
ATOM     11  C   UNL     1       0.766   0.163   6.200  1.00  0.00     0.041 A 
ATOM     12  C   UNL     1       2.149   0.424   5.737  1.00  0.00     0.194 C 
ATOM     13  O   UNL     1       2.928  -0.540   5.496  1.00  0.00    -0.289 OA
ATOM     14  C   UNL     1       0.265  -1.150   6.232  1.00  0.00     0.059 A 
ATOM     15  C   UNL     1      -1.045  -1.399   6.648  1.00  0.00     0.120 A 
ATOM     16  C   UNL     1      -1.871  -0.336   7.012  1.00  0.00     0.093 A 
ATOM     17  C   UNL     1      -1.403   0.981   6.970  1.00  0.00     0.131 A 
ENDROOT
BRANCH   6  18
ATOM     18  O   UNL     1       1.409   5.338   5.920  1.00  0.00    -0.507 OA
ATOM     19  H   UNL     1       0.520   5.287   6.397  1.00  0.00     0.293 HD
ENDBRANCH   6  18
BRANCH  17  20
ATOM     20  O   UNL     1      -2.314   1.999   7.260  1.00  0.00    -0.507 OA
ATOM     21  H   UNL     1      -2.610   2.693   6.588  1.00  0.00     0.293 HD
ENDBRANCH  17  20
BRANCH  15  22
ATOM     22  O   UNL     1      -1.541  -2.700   6.693  1.00  0.00    -0.508 OA
ATOM     23  H   UNL     1      -1.999  -3.065   7.520  1.00  0.00     0.293 HD
ENDBRANCH  15  22
TORSDOF 3
ENDMDL
MODEL 5
REMARK VINA RESULT:    -5.590      1.713      5.210
REMARK INTER + INTRA:          -6.080
REMARK INTER:                  -6.080
REMARK INTRA:                   0.000
REMARK UNBOUND:                 0.000
REMARK SMILES Cc1cc(O)c2c(c1)C(=O)c1cc(O)cc(O)c1C2=O
REMARK SMILES IDX 1 1 2 2 8 3 7 4 6 5 4 6 3 7 19 8 20 9 18 10 11 11 9 12 10 13
REMARK SMILES IDX 12 14 13 15 15 16 16 17 5 18 17 20 14 22
REMARK H PARENT 5 19 17 21 14 23
REMARK Flexibility Score: inf
ROOT
ATOM      1  C   UNL     1       2.609   6.918   6.314  1.00  0.00     0.044 C 
ATOM      2  C   UNL     1       2.684   5.431   6.133  1.00  0.00    -0.047 A 
ATOM      3  C   UNL     1       1.531   4.647   6.252  1.00  0.00     0.016 A 
ATOM      4  C   UNL     1       1.583   3.259   6.042  1.00  0.00     0.038 A 
ATOM      5  C   UNL     1       2.804   2.648   5.679  1.00  0.00     0.076 A 
ATOM      6  C   UNL     1       3.979   3.440   5.605  1.00  0.00     0.127 A 
ATOM      7  C   UNL     1       3.899   4.822   5.799  1.00  0.00     0.050 A 
ATOM      8  C   UNL     1       2.788   1.205   5.321  1.00  0.00     0.201 C 
ATOM      9  O   UNL     1       3.619   0.757   4.487  1.00  0.00    -0.288 OA
ATOM     10  C   UNL     1       1.679   0.339   5.798  1.00  0.00     0.076 A 
ATOM     11  C   UNL     1       0.460   0.955   6.160  1.00  0.00     0.041 A 
ATOM     12  C   UNL     1       0.363   2.433   6.201  1.00  0.00     0.194 C 
ATOM     13  O   UNL     1      -0.754   2.988   6.396  1.00  0.00    -0.289 OA
ATOM     14  C   UNL     1      -0.654   0.162   6.484  1.00  0.00     0.059 A 
ATOM     15  C   UNL     1      -0.562  -1.232   6.467  1.00  0.00     0.120 A 
ATOM     16  C   UNL     1       0.652  -1.842   6.150  1.00  0.00     0.093 A 
ATOM     17  C   UNL     1       1.781  -1.076   5.843  1.00  0.00     0.131 A 
ENDROOT
BRANCH   6  18
ATOM     18  O   UNL     1       5.244   2.895   5.373  1.00  0.00    -0.507 OA
ATOM     19  H   UNL     1       5.753   2.354   6.059  1.00  0.00     0.293 HD
ENDBRANCH   6  18
BRANCH  17  20
ATOM     20  O   UNL     1       2.981  -1.755   5.626  1.00  0.00    -0.507 OA
ATOM     21  H   UNL     1       3.343  -1.972   4.708  1.00  0.00     0.293 HD
ENDBRANCH  17  20
BRANCH  15  22
ATOM     22  O   UNL     1      -1.667  -2.022   6.775  1.00  0.00    -0.508 OA
ATOM     23  H   UNL     1      -1.563  -2.972   7.110  1.00  0.00     0.293 HD
ENDBRANCH  15  22
TORSDOF 3
ENDMDL
MODEL 6
REMARK VINA RESULT:    -5.422      2.790      4.263
REMARK INTER + INTRA:          -5.898
REMARK INTER:                  -5.898
REMARK INTRA:                   0.000
REMARK UNBOUND:                 0.000
REMARK SMILES Cc1cc(O)c2c(c1)C(=O)c1cc(O)cc(O)c1C2=O
REMARK SMILES IDX 1 1 2 2 8 3 7 4 6 5 4 6 3 7 19 8 20 9 18 10 11 11 9 12 10 13
REMARK SMILES IDX 12 14 13 15 15 16 16 17 5 18 17 20 14 22
REMARK H PARENT 5 19 17 21 14 23
REMARK Flexibility Score: inf
ROOT
ATOM      1  C   UNL     1       1.421  -4.922   8.005  1.00  0.00     0.044 C 
ATOM      2  C   UNL     1       1.464  -3.511   7.497  1.00  0.00    -0.047 A 
ATOM      3  C   UNL     1       2.616  -2.736   7.670  1.00  0.00     0.016 A 
ATOM      4  C   UNL     1       2.682  -1.427   7.161  1.00  0.00     0.038 A 
ATOM      5  C   UNL     1       1.588  -0.897   6.442  1.00  0.00     0.076 A 
ATOM      6  C   UNL     1       0.405  -1.670   6.311  1.00  0.00     0.127 A 
ATOM      7  C   UNL     1       0.370  -2.976   6.809  1.00  0.00     0.050 A 
ATOM      8  C   UNL     1       1.751   0.431   5.794  1.00  0.00     0.201 C 
ATOM      9  O   UNL     1       1.119   0.694   4.736  1.00  0.00    -0.288 OA
ATOM     10  C   UNL     1       2.797   1.367   6.282  1.00  0.00     0.076 A 
ATOM     11  C   UNL     1       3.890   0.831   7.000  1.00  0.00     0.041 A 
ATOM     12  C   UNL     1       3.894  -0.602   7.375  1.00  0.00     0.194 C 
ATOM     13  O   UNL     1       4.921  -1.115   7.901  1.00  0.00    -0.289 OA
ATOM     14  C   UNL     1       4.965   1.662   7.359  1.00  0.00     0.059 A 
ATOM     15  C   UNL     1       4.955   3.019   7.025  1.00  0.00     0.120 A 
ATOM     16  C   UNL     1       3.859   3.559   6.352  1.00  0.00     0.093 A 
ATOM     17  C   UNL     1       2.768   2.758   6.002  1.00  0.00     0.131 A 
ENDROOT
BRANCH   6  18
ATOM     18  O   UNL     1      -0.761  -1.174   5.724  1.00  0.00    -0.507 OA
ATOM     19  H   UNL     1      -0.764  -0.548   4.930  1.00  0.00     0.293 HD
ENDBRANCH   6  18
BRANCH  17  20
ATOM     20  O   UNL     1       1.669   3.387   5.413  1.00  0.00    -0.507 OA
ATOM     21  H   UNL     1       1.132   2.984   4.658  1.00  0.00     0.293 HD
ENDBRANCH  17  20
BRANCH  15  22
ATOM     22  O   UNL     1       6.024   3.842   7.367  1.00  0.00    -0.508 OA
ATOM     23  H   UNL     1       6.233   4.686   6.845  1.00  0.00     0.293 HD
ENDBRANCH  15  22
TORSDOF 3
ENDMDL
MODEL 7
REMARK VINA RESULT:    -5.390      1.873      3.181
REMARK INTER + INTRA:          -5.863
REMARK INTER:                  -5.863
REMARK INTRA:                   0.000
REMARK UNBOUND:                 0.000
REMARK SMILES Cc1cc(O)c2c(c1)C(=O)c1cc(O)cc(O)c1C2=O
REMARK SMILES IDX 1 1 2 2 8 3 7 4 6 5 4 6 3 7 19 8 20 9 18 10 11 11 9 12 10 13
REMARK SMILES IDX 12 14 13 15 15 16 16 17 5 18 17 20 14 22
REMARK H PARENT 5 19 17 21 14 23
REMARK Flexibility Score: inf
ROOT
ATOM      1  C   UNL     1      -1.492  -0.803   6.970  1.00  0.00     0.044 C 
ATOM      2  C   UNL     1      -0.266  -0.100   6.466  1.00  0.00    -0.047 A 
ATOM      3  C   UNL     1      -0.175   1.295   6.535  1.00  0.00     0.016 A 
ATOM      4  C   UNL     1       0.985   1.960   6.105  1.00  0.00     0.038 A 
ATOM      5  C   UNL     1       2.085   1.214   5.625  1.00  0.00     0.076 A 
ATOM      6  C   UNL     1       1.971  -0.195   5.513  1.00  0.00     0.127 A 
ATOM      7  C   UNL     1       0.813  -0.836   5.966  1.00  0.00     0.050 A 
ATOM      8  C   UNL     1       3.346   1.941   5.320  1.00  0.00     0.201 C 
ATOM      9  O   UNL     1       4.454   1.356   5.452  1.00  0.00    -0.288 OA
ATOM     10  C   UNL     1       3.309   3.401   5.048  1.00  0.00     0.076 A 
ATOM     11  C   UNL     1       2.206   4.142   5.530  1.00  0.00     0.041 A 
ATOM     12  C   UNL     1       1.060   3.439   6.152  1.00  0.00     0.194 C 
ATOM     13  O   UNL     1       0.135   4.100   6.700  1.00  0.00    -0.289 OA
ATOM     14  C   UNL     1       2.201   5.542   5.414  1.00  0.00     0.059 A 
ATOM     15  C   UNL     1       3.271   6.208   4.809  1.00  0.00     0.120 A 
ATOM     16  C   UNL     1       4.341   5.476   4.295  1.00  0.00     0.093 A 
ATOM     17  C   UNL     1       4.361   4.081   4.380  1.00  0.00     0.131 A 
ENDROOT
BRANCH   6  18
ATOM     18  O   UNL     1       2.963  -0.991   4.936  1.00  0.00    -0.507 OA
ATOM     19  H   UNL     1       3.494  -0.717   4.122  1.00  0.00     0.293 HD
ENDBRANCH   6  18
BRANCH  17  20
ATOM     20  O   UNL     1       5.420   3.412   3.763  1.00  0.00    -0.507 OA
ATOM     21  H   UNL     1       5.913   3.770   2.956  1.00  0.00     0.293 HD
ENDBRANCH  17  20
BRANCH  15  22
ATOM     22  O   UNL     1       3.275   7.597   4.703  1.00  0.00    -0.508 OA
ATOM     23  H   UNL     1       2.416   8.134   4.736  1.00  0.00     0.293 HD
ENDBRANCH  15  22
TORSDOF 3
ENDMDL
MODEL 8
REMARK VINA RESULT:    -5.387      1.809      3.041
REMARK INTER + INTRA:          -5.859
REMARK INTER:                  -5.859
REMARK INTRA:                   0.000
REMARK UNBOUND:                 0.000
REMARK SMILES Cc1cc(O)c2c(c1)C(=O)c1cc(O)cc(O)c1C2=O
REMARK SMILES IDX 1 1 2 2 8 3 7 4 6 5 4 6 3 7 19 8 20 9 18 10 11 11 9 12 10 13
REMARK SMILES IDX 12 14 13 15 15 16 16 17 5 18 17 20 14 22
REMARK H PARENT 5 19 17 21 14 23
REMARK Flexibility Score: inf
ROOT
ATOM      1  C   UNL     1      -3.386   6.090   7.781  1.00  0.00     0.044 C 
ATOM      2  C   UNL     1      -2.862   4.698   7.587  1.00  0.00    -0.047 A 
ATOM      3  C   UNL     1      -1.561   4.494   7.115  1.00  0.00     0.016 A 
ATOM      4  C   UNL     1      -1.046   3.195   6.969  1.00  0.00     0.038 A 
ATOM      5  C   UNL     1      -1.837   2.081   7.329  1.00  0.00     0.076 A 
ATOM      6  C   UNL     1      -3.172   2.291   7.763  1.00  0.00     0.127 A 
ATOM      7  C   UNL     1      -3.655   3.594   7.918  1.00  0.00     0.050 A 
ATOM      8  C   UNL     1      -1.208   0.735   7.302  1.00  0.00     0.201 C 
ATOM      9  O   UNL     1      -1.600  -0.157   8.101  1.00  0.00    -0.288 OA
ATOM     10  C   UNL     1       0.003   0.503   6.472  1.00  0.00     0.076 A 
ATOM     11  C   UNL     1       0.791   1.620   6.115  1.00  0.00     0.041 A 
ATOM     12  C   UNL     1       0.322   2.988   6.439  1.00  0.00     0.194 C 
ATOM     13  O   UNL     1       1.078   3.979   6.239  1.00  0.00    -0.289 OA
ATOM     14  C   UNL     1       2.014   1.429   5.450  1.00  0.00     0.059 A 
ATOM     15  C   UNL     1       2.450   0.142   5.124  1.00  0.00     0.120 A 
ATOM     16  C   UNL     1       1.656  -0.960   5.439  1.00  0.00     0.093 A 
ATOM     17  C   UNL     1       0.425  -0.795   6.083  1.00  0.00     0.131 A 
ENDROOT
BRANCH   6  18
ATOM     18  O   UNL     1      -4.057   1.241   8.020  1.00  0.00    -0.507 OA
ATOM     19  H   UNL     1      -3.780   0.370   8.449  1.00  0.00     0.293 HD
ENDBRANCH   6  18
BRANCH  17  20
ATOM     20  O   UNL     1      -0.356  -1.935   6.283  1.00  0.00    -0.507 OA
ATOM     21  H   UNL     1      -1.353  -1.966   6.119  1.00  0.00     0.293 HD
ENDBRANCH  17  20
BRANCH  15  22
ATOM     22  O   UNL     1       3.668  -0.053   4.476  1.00  0.00    -0.508 OA
ATOM     23  H   UNL     1       3.793   0.185   3.499  1.00  0.00     0.293 HD
ENDBRANCH  15  22
TORSDOF 3
ENDMDL
MODEL 9
REMARK VINA RESULT:    -5.262      2.755      6.781
REMARK INTER + INTRA:          -5.724
REMARK INTER:                  -5.724
REMARK INTRA:                   0.000
REMARK UNBOUND:                 0.000
REMARK SMILES Cc1cc(O)c2c(c1)C(=O)c1cc(O)cc(O)c1C2=O
REMARK SMILES IDX 1 1 2 2 8 3 7 4 6 5 4 6 3 7 19 8 20 9 18 10 11 11 9 12 10 13
REMARK SMILES IDX 12 14 13 15 15 16 16 17 5 18 17 20 14 22
REMARK H PARENT 5 19 17 21 14 23
REMARK Flexibility Score: inf
ROOT
ATOM      1  C   UNL     1       6.144   8.409   3.154  1.00  0.00     0.044 C 
ATOM      2  C   UNL     1       5.108   7.467   3.694  1.00  0.00    -0.047 A 
ATOM      3  C   UNL     1       5.390   6.102   3.813  1.00  0.00     0.016 A 
ATOM      4  C   UNL     1       4.443   5.218   4.357  1.00  0.00     0.038 A 
ATOM      5  C   UNL     1       3.202   5.714   4.815  1.00  0.00     0.076 A 
ATOM      6  C   UNL     1       2.902   7.090   4.650  1.00  0.00     0.127 A 
ATOM      7  C   UNL     1       3.869   7.954   4.124  1.00  0.00     0.050 A 
ATOM      8  C   UNL     1       2.287   4.775   5.518  1.00  0.00     0.201 C 
ATOM      9  O   UNL     1       1.506   5.208   6.407  1.00  0.00    -0.288 OA
ATOM     10  C   UNL     1       2.430   3.311   5.309  1.00  0.00     0.076 A 
ATOM     11  C   UNL     1       3.673   2.820   4.850  1.00  0.00     0.041 A 
ATOM     12  C   UNL     1       4.739   3.769   4.450  1.00  0.00     0.194 C 
ATOM     13  O   UNL     1       5.891   3.341   4.164  1.00  0.00    -0.289 OA
ATOM     14  C   UNL     1       3.892   1.435   4.772  1.00  0.00     0.059 A 
ATOM     15  C   UNL     1       2.883   0.536   5.129  1.00  0.00     0.120 A 
ATOM     16  C   UNL     1       1.641   1.018   5.543  1.00  0.00     0.093 A 
ATOM     17  C   UNL     1       1.391   2.392   5.610  1.00  0.00     0.131 A 
ENDROOT
BRANCH   6  18
ATOM     18  O   UNL     1       1.655   7.636   4.963  1.00  0.00    -0.507 OA
ATOM     19  H   UNL     1       0.873   7.646   4.322  1.00  0.00     0.293 HD
ENDBRANCH   6  18
BRANCH  17  20
ATOM     20  O   UNL     1       0.098   2.797   5.945  1.00  0.00    -0.507 OA
ATOM     21  H   UNL     1      -0.248   3.736   5.805  1.00  0.00     0.293 HD
ENDBRANCH  17  20
BRANCH  15  22
ATOM     22  O   UNL     1       3.099  -0.838   5.065  1.00  0.00    -0.508 OA
ATOM     23  H   UNL     1       2.584  -1.427   4.421  1.00  0.00     0.293 HD
ENDBRANCH  15  22
TORSDOF 3
ENDMDL
