MODEL 1
REMARK VINA RESULT:    -5.323      0.000      0.000
REMARK INTER + INTRA:          -9.358
REMARK INTER:                  -8.124
REMARK INTRA:                  -1.234
REMARK UNBOUND:                -1.234
REMARK SMILES OC[C@H]1O[C@H](O[C@]2(CO)O[C@H](CO)[C@@H](O)[C@@H]2O)[C@@H](O)[C@H](O)[C@H]1O
REMARK SMILES IDX 6 1 5 2 3 3 22 4 4 5 20 6 18 7 2 8 1 9 23 11 21 13 19 15
REMARK SMILES IDX 7 17 16 18 10 19 14 20 11 21 8 22 9 23 17 25 15 27 12 29
REMARK SMILES IDX 13 30
REMARK H PARENT 1 10 23 12 21 14 19 16 9 24 17 26 15 28 13 31
REMARK Flexibility Score: inf
ROOT
ATOM      1  O   UNL     1      15.808  10.527  26.498  1.00  0.00    -0.313 OA
ENDROOT
BRANCH   1   2
ATOM      2  C   UNL     1      15.408  11.652  25.704  1.00  0.00     0.285 C 
ATOM      3  C   UNL     1      14.137  13.659  25.656  1.00  0.00     0.178 C 
ATOM      4  C   UNL     1      15.368  14.605  25.773  1.00  0.00     0.177 C 
ATOM      5  O   UNL     1      14.384  12.434  26.317  1.00  0.00    -0.341 OA
ATOM      6  C   UNL     1      16.701  13.860  26.007  1.00  0.00     0.179 C 
ATOM      7  C   UNL     1      16.683  12.467  25.333  1.00  0.00     0.202 C 
BRANCH   3   8
ATOM      8  C   UNL     1      13.551  13.460  24.242  1.00  0.00     0.191 C 
BRANCH   8   9
ATOM      9  O   UNL     1      12.898  14.623  23.814  1.00  0.00    -0.394 OA
ATOM     10  H   UNL     1      12.744  15.174  24.626  1.00  0.00     0.210 HD
ENDBRANCH   8   9
ENDBRANCH   3   8
BRANCH   4  11
ATOM     11  O   UNL     1      15.468  15.514  24.703  1.00  0.00    -0.387 OA
ATOM     12  H   UNL     1      16.325  16.006  24.799  1.00  0.00     0.211 HD
ENDBRANCH   4  11
BRANCH   6  13
ATOM     13  O   UNL     1      16.923  13.728  27.390  1.00  0.00    -0.387 OA
ATOM     14  H   UNL     1      16.663  14.595  27.801  1.00  0.00     0.211 HD
ENDBRANCH   6  13
BRANCH   7  15
ATOM     15  O   UNL     1      16.804  12.595  23.943  1.00  0.00    -0.385 OA
ATOM     16  H   UNL     1      16.475  11.741  23.556  1.00  0.00     0.211 HD
ENDBRANCH   7  15
ENDBRANCH   1   2
BRANCH   1  17
ATOM     17  C   UNL     1      15.680   9.224  25.929  1.00  0.00     0.224 C 
ATOM     18  C   UNL     1      14.890   8.349  26.918  1.00  0.00     0.208 C 
ATOM     19  O   UNL     1      14.914   9.255  24.739  1.00  0.00    -0.337 OA
ATOM     20  C   UNL     1      14.178   7.358  26.022  1.00  0.00     0.180 C 
ATOM     21  C   UNL     1      14.204   8.037  24.644  1.00  0.00     0.179 C 
BRANCH  17  22
ATOM     22  C   UNL     1      17.094   8.623  25.652  1.00  0.00     0.225 C 
BRANCH  22  23
ATOM     23  O   UNL     1      17.528   8.816  24.327  1.00  0.00    -0.391 OA
ATOM     24  H   UNL     1      16.867   8.388  23.720  1.00  0.00     0.210 HD
ENDBRANCH  22  23
ENDBRANCH  17  22
BRANCH  18  25
ATOM     25  O   UNL     1      13.935   9.135  27.588  1.00  0.00    -0.385 OA
ATOM     26  H   UNL     1      13.346   9.531  26.895  1.00  0.00     0.211 HD
ENDBRANCH  18  25
BRANCH  20  27
ATOM     27  O   UNL     1      14.888   6.147  25.994  1.00  0.00    -0.387 OA
ATOM     28  H   UNL     1      15.307   6.044  26.889  1.00  0.00     0.211 HD
ENDBRANCH  20  27
BRANCH  21  29
ATOM     29  C   UNL     1      12.798   8.317  24.108  1.00  0.00     0.191 C 
BRANCH  29  30
ATOM     30  O   UNL     1      11.976   8.784  25.143  1.00  0.00    -0.394 OA
ATOM     31  H   UNL     1      12.430   9.584  25.510  1.00  0.00     0.210 HD
ENDBRANCH  29  30
ENDBRANCH  21  29
ENDBRANCH   1  17
TORSDOF 13
ENDMDL
MODEL 2
REMARK VINA RESULT:    -5.030      1.276      2.560
REMARK INTER + INTRA:          -8.911
REMARK INTER:                  -8.138
REMARK INTRA:                  -0.773
REMARK UNBOUND:                -1.234
REMARK SMILES OC[C@H]1O[C@H](O[C@]2(CO)O[C@H](CO)[C@@H](O)[C@@H]2O)[C@@H](O)[C@H](O)[C@H]1O
REMARK SMILES IDX 6 1 5 2 3 3 22 4 4 5 20 6 18 7 2 8 1 9 23 11 21 13 19 15
REMARK SMILES IDX 7 17 16 18 10 19 14 20 11 21 8 22 9 23 17 25 15 27 12 29
REMARK SMILES IDX 13 30
REMARK H PARENT 1 10 23 12 21 14 19 16 9 24 17 26 15 28 13 31
REMARK Flexibility Score: inf
ROOT
ATOM      1  O   UNL     1      15.603  10.431  26.342  1.00  0.00    -0.313 OA
ENDROOT
BRANCH   1   2
ATOM      2  C   UNL     1      15.316  11.674  25.688  1.00  0.00     0.285 C 
ATOM      3  C   UNL     1      14.312  13.817  25.914  1.00  0.00     0.178 C 
ATOM      4  C   UNL     1      15.658  14.586  26.054  1.00  0.00     0.177 C 
ATOM      5  O   UNL     1      14.430  12.507  26.435  1.00  0.00    -0.341 OA
ATOM      6  C   UNL     1      16.894  13.662  26.135  1.00  0.00     0.179 C 
ATOM      7  C   UNL     1      16.667  12.361  25.327  1.00  0.00     0.202 C 
BRANCH   3   8
ATOM      8  C   UNL     1      13.642  13.843  24.524  1.00  0.00     0.191 C 
BRANCH   8   9
ATOM      9  O   UNL     1      14.570  14.211  23.541  1.00  0.00    -0.394 OA
ATOM     10  H   UNL     1      15.467  13.980  23.900  1.00  0.00     0.210 HD
ENDBRANCH   8   9
ENDBRANCH   3   8
BRANCH   4  11
ATOM     11  O   UNL     1      15.826  15.585  25.076  1.00  0.00    -0.387 OA
ATOM     12  H   UNL     1      16.213  16.384  25.519  1.00  0.00     0.211 HD
ENDBRANCH   4  11
BRANCH   6  13
ATOM     13  O   UNL     1      17.159  13.357  27.482  1.00  0.00    -0.387 OA
ATOM     14  H   UNL     1      18.143  13.231  27.553  1.00  0.00     0.211 HD
ENDBRANCH   6  13
BRANCH   7  15
ATOM     15  O   UNL     1      16.741  12.621  23.952  1.00  0.00    -0.385 OA
ATOM     16  H   UNL     1      16.180  11.931  23.509  1.00  0.00     0.211 HD
ENDBRANCH   7  15
ENDBRANCH   1   2
BRANCH   1  17
ATOM     17  C   UNL     1      14.963   9.252  25.853  1.00  0.00     0.224 C 
ATOM     18  C   UNL     1      15.789   8.719  24.669  1.00  0.00     0.208 C 
ATOM     19  O   UNL     1      14.968   8.223  26.825  1.00  0.00    -0.337 OA
ATOM     20  C   UNL     1      15.550   7.226  24.715  1.00  0.00     0.180 C 
ATOM     21  C   UNL     1      15.059   6.984  26.151  1.00  0.00     0.179 C 
BRANCH  17  22
ATOM     22  C   UNL     1      13.501   9.582  25.415  1.00  0.00     0.225 C 
BRANCH  22  23
ATOM     23  O   UNL     1      12.642   9.835  26.500  1.00  0.00    -0.391 OA
ATOM     24  H   UNL     1      12.338   8.961  26.865  1.00  0.00     0.210 HD
ENDBRANCH  22  23
ENDBRANCH  17  22
BRANCH  18  25
ATOM     25  O   UNL     1      17.154   8.976  24.891  1.00  0.00    -0.385 OA
ATOM     26  H   UNL     1      17.319   9.920  24.635  1.00  0.00     0.211 HD
ENDBRANCH  18  25
BRANCH  20  27
ATOM     27  O   UNL     1      14.560   6.873  23.784  1.00  0.00    -0.387 OA
ATOM     28  H   UNL     1      13.686   6.987  24.245  1.00  0.00     0.211 HD
ENDBRANCH  20  27
BRANCH  21  29
ATOM     29  C   UNL     1      15.988   6.054  26.934  1.00  0.00     0.191 C 
BRANCH  29  30
ATOM     30  O   UNL     1      17.321   6.299  26.577  1.00  0.00    -0.394 OA
ATOM     31  H   UNL     1      17.450   7.277  26.661  1.00  0.00     0.210 HD
ENDBRANCH  29  30
ENDBRANCH  21  29
ENDBRANCH   1  17
TORSDOF 13
ENDMDL
MODEL 3
REMARK VINA RESULT:    -4.964     11.147     12.676
REMARK INTER + INTRA:          -8.809
REMARK INTER:                  -7.493
REMARK INTRA:                  -1.316
REMARK UNBOUND:                -1.234
REMARK SMILES OC[C@H]1O[C@H](O[C@]2(CO)O[C@H](CO)[C@@H](O)[C@@H]2O)[C@@H](O)[C@H](O)[C@H]1O
REMARK SMILES IDX 6 1 5 2 3 3 22 4 4 5 20 6 18 7 2 8 1 9 23 11 21 13 19 15
REMARK SMILES IDX 7 17 16 18 10 19 14 20 11 21 8 22 9 23 17 25 15 27 12 29
REMARK SMILES IDX 13 30
REMARK H PARENT 1 10 23 12 21 14 19 16 9 24 17 26 15 28 13 31
REMARK Flexibility Score: inf
ROOT
ATOM      1  O   UNL     1      13.461   0.306  19.968  1.00  0.00    -0.313 OA
ENDROOT
BRANCH   1   2
ATOM      2  C   UNL     1      14.736   0.627  19.396  1.00  0.00     0.285 C 
ATOM      3  C   UNL     1      16.544   2.170  19.391  1.00  0.00     0.178 C 
ATOM      4  C   UNL     1      17.511   1.251  20.193  1.00  0.00     0.177 C 
ATOM      5  O   UNL     1      15.201   1.926  19.762  1.00  0.00    -0.341 OA
ATOM      6  C   UNL     1      16.848  -0.046  20.708  1.00  0.00     0.179 C 
ATOM      7  C   UNL     1      15.732  -0.518  19.745  1.00  0.00     0.202 C 
BRANCH   3   8
ATOM      8  C   UNL     1      16.737   2.207  17.860  1.00  0.00     0.191 C 
BRANCH   8   9
ATOM      9  O   UNL     1      17.776   3.082  17.519  1.00  0.00    -0.394 OA
ATOM     10  H   UNL     1      17.726   3.841  18.157  1.00  0.00     0.210 HD
ENDBRANCH   8   9
ENDBRANCH   3   8
BRANCH   4  11
ATOM     11  O   UNL     1      18.709   0.979  19.506  1.00  0.00    -0.387 OA
ATOM     12  H   UNL     1      19.450   1.421  19.997  1.00  0.00     0.211 HD
ENDBRANCH   4  11
BRANCH   6  13
ATOM     13  O   UNL     1      16.320   0.180  21.991  1.00  0.00    -0.387 OA
ATOM     14  H   UNL     1      16.244   1.166  22.096  1.00  0.00     0.211 HD
ENDBRANCH   6  13
BRANCH   7  15
ATOM     15  O   UNL     1      16.290  -1.064  18.582  1.00  0.00    -0.385 OA
ATOM     16  H   UNL     1      16.825  -0.338  18.164  1.00  0.00     0.211 HD
ENDBRANCH   7  15
ENDBRANCH   1   2
BRANCH   1  17
ATOM     17  C   UNL     1      12.310   0.380  19.127  1.00  0.00     0.224 C 
ATOM     18  C   UNL     1      11.399  -0.815  19.460  1.00  0.00     0.208 C 
ATOM     19  O   UNL     1      11.546   1.540  19.400  1.00  0.00    -0.337 OA
ATOM     20  C   UNL     1      10.011  -0.296  19.159  1.00  0.00     0.180 C 
ATOM     21  C   UNL     1      10.185   1.231  19.176  1.00  0.00     0.179 C 
BRANCH  17  22
ATOM     22  C   UNL     1      12.743   0.354  17.627  1.00  0.00     0.225 C 
BRANCH  22  23
ATOM     23  O   UNL     1      12.579  -0.907  17.024  1.00  0.00    -0.391 OA
ATOM     24  H   UNL     1      13.479  -1.260  16.795  1.00  0.00     0.210 HD
ENDBRANCH  22  23
ENDBRANCH  17  22
BRANCH  18  25
ATOM     25  O   UNL     1      11.494  -1.112  20.833  1.00  0.00    -0.385 OA
ATOM     26  H   UNL     1      11.899  -2.015  20.908  1.00  0.00     0.211 HD
ENDBRANCH  18  25
BRANCH  20  27
ATOM     27  O   UNL     1       9.603  -0.736  17.890  1.00  0.00    -0.387 OA
ATOM     28  H   UNL     1       8.615  -0.835  17.929  1.00  0.00     0.211 HD
ENDBRANCH  20  27
BRANCH  21  29
ATOM     29  C   UNL     1       9.334   1.901  20.257  1.00  0.00     0.191 C 
BRANCH  29  30
ATOM     30  O   UNL     1       9.798   1.530  21.528  1.00  0.00    -0.394 OA
ATOM     31  H   UNL     1       9.787   0.541  21.543  1.00  0.00     0.210 HD
ENDBRANCH  29  30
ENDBRANCH  21  29
ENDBRANCH   1  17
TORSDOF 13
ENDMDL
MODEL 4
REMARK VINA RESULT:    -4.963      7.541     10.208
REMARK INTER + INTRA:          -8.807
REMARK INTER:                  -7.568
REMARK INTRA:                  -1.239
REMARK UNBOUND:                -1.234
REMARK SMILES OC[C@H]1O[C@H](O[C@]2(CO)O[C@H](CO)[C@@H](O)[C@@H]2O)[C@@H](O)[C@H](O)[C@H]1O
REMARK SMILES IDX 6 1 5 2 3 3 22 4 4 5 20 6 18 7 2 8 1 9 23 11 21 13 19 15
REMARK SMILES IDX 7 17 16 18 10 19 14 20 11 21 8 22 9 23 17 25 15 27 12 29
REMARK SMILES IDX 13 30
REMARK H PARENT 1 10 23 12 21 14 19 16 9 24 17 26 15 28 13 31
REMARK Flexibility Score: inf
ROOT
ATOM      1  O   UNL     1      11.558   2.435  20.269  1.00  0.00    -0.313 OA
ENDROOT
BRANCH   1   2
ATOM      2  C   UNL     1      12.038   3.779  20.137  1.00  0.00     0.285 C 
ATOM      3  C   UNL     1      11.475   6.007  19.530  1.00  0.00     0.178 C 
ATOM      4  C   UNL     1      11.399   6.534  20.993  1.00  0.00     0.177 C 
ATOM      5  O   UNL     1      11.115   4.640  19.472  1.00  0.00    -0.341 OA
ATOM      6  C   UNL     1      11.552   5.426  22.059  1.00  0.00     0.179 C 
ATOM      7  C   UNL     1      12.467   4.287  21.547  1.00  0.00     0.202 C 
BRANCH   3   8
ATOM      8  C   UNL     1      12.774   6.309  18.753  1.00  0.00     0.191 C 
BRANCH   8   9
ATOM      9  O   UNL     1      12.852   7.673  18.442  1.00  0.00    -0.394 OA
ATOM     10  H   UNL     1      12.573   8.164  19.259  1.00  0.00     0.210 HD
ENDBRANCH   8   9
ENDBRANCH   3   8
BRANCH   4  11
ATOM     11  O   UNL     1      12.275   7.608  21.238  1.00  0.00    -0.387 OA
ATOM     12  H   UNL     1      12.161   8.268  20.506  1.00  0.00     0.211 HD
ENDBRANCH   4  11
BRANCH   6  13
ATOM     13  O   UNL     1      10.283   4.919  22.388  1.00  0.00    -0.387 OA
ATOM     14  H   UNL     1       9.663   5.223  21.672  1.00  0.00     0.211 HD
ENDBRANCH   6  13
BRANCH   7  15
ATOM     15  O   UNL     1      13.805   4.701  21.540  1.00  0.00    -0.385 OA
ATOM     16  H   UNL     1      13.897   5.356  22.282  1.00  0.00     0.211 HD
ENDBRANCH   7  15
ENDBRANCH   1   2
BRANCH   1  17
ATOM     17  C   UNL     1      12.441   1.369  19.919  1.00  0.00     0.224 C 
ATOM     18  C   UNL     1      12.681   0.518  21.178  1.00  0.00     0.208 C 
ATOM     19  O   UNL     1      11.849   0.501  18.970  1.00  0.00    -0.337 OA
ATOM     20  C   UNL     1      12.930  -0.869  20.626  1.00  0.00     0.180 C 
ATOM     21  C   UNL     1      12.329  -0.806  19.213  1.00  0.00     0.179 C 
BRANCH  17  22
ATOM     22  C   UNL     1      13.782   1.947  19.367  1.00  0.00     0.225 C 
BRANCH  22  23
ATOM     23  O   UNL     1      14.823   1.930  20.313  1.00  0.00    -0.391 OA
ATOM     24  H   UNL     1      14.425   1.770  21.210  1.00  0.00     0.210 HD
ENDBRANCH  22  23
ENDBRANCH  17  22
BRANCH  18  25
ATOM     25  O   UNL     1      11.516   0.499  21.966  1.00  0.00    -0.385 OA
ATOM     26  H   UNL     1      11.614  -0.246  22.614  1.00  0.00     0.211 HD
ENDBRANCH  18  25
BRANCH  20  27
ATOM     27  O   UNL     1      14.310  -1.118  20.569  1.00  0.00    -0.387 OA
ATOM     28  H   UNL     1      14.743  -0.256  20.329  1.00  0.00     0.211 HD
ENDBRANCH  20  27
BRANCH  21  29
ATOM     29  C   UNL     1      11.184  -1.804  19.023  1.00  0.00     0.191 C 
BRANCH  29  30
ATOM     30  O   UNL     1       9.962  -1.196  19.344  1.00  0.00    -0.394 OA
ATOM     31  H   UNL     1       9.575  -0.893  18.485  1.00  0.00     0.210 HD
ENDBRANCH  29  30
ENDBRANCH  21  29
ENDBRANCH   1  17
TORSDOF 13
ENDMDL
MODEL 5
REMARK VINA RESULT:    -4.935      2.780      6.677
REMARK INTER + INTRA:          -8.765
REMARK INTER:                  -7.348
REMARK INTRA:                  -1.417
REMARK UNBOUND:                -1.234
REMARK SMILES OC[C@H]1O[C@H](O[C@]2(CO)O[C@H](CO)[C@@H](O)[C@@H]2O)[C@@H](O)[C@H](O)[C@H]1O
REMARK SMILES IDX 6 1 5 2 3 3 22 4 4 5 20 6 18 7 2 8 1 9 23 11 21 13 19 15
REMARK SMILES IDX 7 17 16 18 10 19 14 20 11 21 8 22 9 23 17 25 15 27 12 29
REMARK SMILES IDX 13 30
REMARK H PARENT 1 10 23 12 21 14 19 16 9 24 17 26 15 28 13 31
REMARK Flexibility Score: inf
ROOT
ATOM      1  O   UNL     1      14.294  16.246  25.654  1.00  0.00    -0.313 OA
ENDROOT
BRANCH   1   2
ATOM      2  C   UNL     1      14.585  14.863  25.898  1.00  0.00     0.285 C 
ATOM      3  C   UNL     1      15.339  12.824  24.938  1.00  0.00     0.178 C 
ATOM      4  C   UNL     1      16.759  12.889  25.574  1.00  0.00     0.177 C 
ATOM      5  O   UNL     1      14.837  14.125  24.703  1.00  0.00    -0.341 OA
ATOM      6  C   UNL     1      17.040  14.208  26.328  1.00  0.00     0.179 C 
ATOM      7  C   UNL     1      15.740  14.783  26.941  1.00  0.00     0.202 C 
BRANCH   3   8
ATOM      8  C   UNL     1      14.310  11.911  25.639  1.00  0.00     0.191 C 
BRANCH   8   9
ATOM      9  O   UNL     1      14.697  10.569  25.537  1.00  0.00    -0.394 OA
ATOM     10  H   UNL     1      15.496  10.461  26.118  1.00  0.00     0.210 HD
ENDBRANCH   8   9
ENDBRANCH   3   8
BRANCH   4  11
ATOM     11  O   UNL     1      17.059  11.767  26.370  1.00  0.00    -0.387 OA
ATOM     12  H   UNL     1      18.046  11.678  26.412  1.00  0.00     0.211 HD
ENDBRANCH   4  11
BRANCH   6  13
ATOM     13  O   UNL     1      17.612  15.137  25.442  1.00  0.00    -0.387 OA
ATOM     14  H   UNL     1      17.864  14.630  24.625  1.00  0.00     0.211 HD
ENDBRANCH   6  13
BRANCH   7  15
ATOM     15  O   UNL     1      15.351  14.030  28.056  1.00  0.00    -0.385 OA
ATOM     16  H   UNL     1      15.668  14.532  28.854  1.00  0.00     0.211 HD
ENDBRANCH   7  15
ENDBRANCH   1   2
BRANCH   1  17
ATOM     17  C   UNL     1      12.939  16.610  25.392  1.00  0.00     0.224 C 
ATOM     18  C   UNL     1      12.841  17.053  23.922  1.00  0.00     0.208 C 
ATOM     19  O   UNL     1      12.073  15.498  25.522  1.00  0.00    -0.337 OA
ATOM     20  C   UNL     1      11.423  16.691  23.537  1.00  0.00     0.180 C 
ATOM     21  C   UNL     1      11.015  15.655  24.597  1.00  0.00     0.179 C 
BRANCH  17  22
ATOM     22  C   UNL     1      12.500  17.758  26.355  1.00  0.00     0.225 C 
BRANCH  22  23
ATOM     23  O   UNL     1      13.425  17.999  27.388  1.00  0.00    -0.391 OA
ATOM     24  H   UNL     1      13.399  18.968  27.607  1.00  0.00     0.210 HD
ENDBRANCH  22  23
ENDBRANCH  17  22
BRANCH  18  25
ATOM     25  O   UNL     1      13.737  16.300  23.141  1.00  0.00    -0.385 OA
ATOM     26  H   UNL     1      13.403  16.326  22.207  1.00  0.00     0.211 HD
ENDBRANCH  18  25
BRANCH  20  27
ATOM     27  O   UNL     1      10.604  17.829  23.613  1.00  0.00    -0.387 OA
ATOM     28  H   UNL     1       9.684  17.531  23.385  1.00  0.00     0.211 HD
ENDBRANCH  20  27
BRANCH  21  29
ATOM     29  C   UNL     1      10.680  14.295  23.982  1.00  0.00     0.191 C 
BRANCH  29  30
ATOM     30  O   UNL     1      11.853  13.673  23.531  1.00  0.00    -0.394 OA
ATOM     31  H   UNL     1      11.732  13.536  22.558  1.00  0.00     0.210 HD
ENDBRANCH  29  30
ENDBRANCH  21  29
ENDBRANCH   1  17
TORSDOF 13
ENDMDL
MODEL 6
REMARK VINA RESULT:    -4.920     10.209     12.214
REMARK INTER + INTRA:          -8.742
REMARK INTER:                  -7.237
REMARK INTRA:                  -1.505
REMARK UNBOUND:                -1.234
REMARK SMILES OC[C@H]1O[C@H](O[C@]2(CO)O[C@H](CO)[C@@H](O)[C@@H]2O)[C@@H](O)[C@H](O)[C@H]1O
REMARK SMILES IDX 6 1 5 2 3 3 22 4 4 5 20 6 18 7 2 8 1 9 23 11 21 13 19 15
REMARK SMILES IDX 7 17 16 18 10 19 14 20 11 21 8 22 9 23 17 25 15 27 12 29
REMARK SMILES IDX 13 30
REMARK H PARENT 1 10 23 12 21 14 19 16 9 24 17 26 15 28 13 31
REMARK Flexibility Score: inf
ROOT
ATOM      1  O   UNL     1      15.475   0.269  20.014  1.00  0.00    -0.313 OA
ENDROOT
BRANCH   1   2
ATOM      2  C   UNL     1      14.277   0.981  20.352  1.00  0.00     0.285 C 
ATOM      3  C   UNL     1      12.137   1.679  19.590  1.00  0.00     0.178 C 
ATOM      4  C   UNL     1      11.344   0.625  20.418  1.00  0.00     0.177 C 
ATOM      5  O   UNL     1      13.411   1.180  19.235  1.00  0.00    -0.341 OA
ATOM      6  C   UNL     1      12.247  -0.391  21.152  1.00  0.00     0.179 C 
ATOM      7  C   UNL     1      13.597   0.254  21.551  1.00  0.00     0.202 C 
BRANCH   3   8
ATOM      8  C   UNL     1      12.202   3.107  20.172  1.00  0.00     0.191 C 
BRANCH   8   9
ATOM      9  O   UNL     1      12.777   3.987  19.246  1.00  0.00    -0.394 OA
ATOM     10  H   UNL     1      12.157   4.024  18.471  1.00  0.00     0.210 HD
ENDBRANCH   8   9
ENDBRANCH   3   8
BRANCH   4  11
ATOM     11  O   UNL     1      10.405   1.204  21.291  1.00  0.00    -0.387 OA
ATOM     12  H   UNL     1      10.614   2.171  21.369  1.00  0.00     0.211 HD
ENDBRANCH   4  11
BRANCH   6  13
ATOM     13  O   UNL     1      12.467  -1.503  20.321  1.00  0.00    -0.387 OA
ATOM     14  H   UNL     1      13.268  -1.970  20.681  1.00  0.00     0.211 HD
ENDBRANCH   6  13
BRANCH   7  15
ATOM     15  O   UNL     1      13.420   1.131  22.628  1.00  0.00    -0.385 OA
ATOM     16  H   UNL     1      14.305   1.554  22.790  1.00  0.00     0.211 HD
ENDBRANCH   7  15
ENDBRANCH   1   2
BRANCH   1  17
ATOM     17  C   UNL     1      16.570   1.014  19.482  1.00  0.00     0.224 C 
ATOM     18  C   UNL     1      16.872   0.474  18.073  1.00  0.00     0.208 C 
ATOM     19  O   UNL     1      16.231   2.378  19.312  1.00  0.00    -0.337 OA
ATOM     20  C   UNL     1      17.424   1.680  17.343  1.00  0.00     0.180 C 
ATOM     21  C   UNL     1      16.933   2.867  18.187  1.00  0.00     0.179 C 
BRANCH  17  22
ATOM     22  C   UNL     1      17.814   0.874  20.415  1.00  0.00     0.225 C 
BRANCH  22  23
ATOM     23  O   UNL     1      17.503   0.326  21.674  1.00  0.00    -0.391 OA
ATOM     24  H   UNL     1      18.355   0.071  22.119  1.00  0.00     0.210 HD
ENDBRANCH  22  23
ENDBRANCH  17  22
BRANCH  18  25
ATOM     25  O   UNL     1      15.674   0.069  17.456  1.00  0.00    -0.385 OA
ATOM     26  H   UNL     1      15.234   0.888  17.108  1.00  0.00     0.211 HD
ENDBRANCH  18  25
BRANCH  20  27
ATOM     27  O   UNL     1      18.827   1.626  17.329  1.00  0.00    -0.387 OA
ATOM     28  H   UNL     1      19.077   0.996  16.602  1.00  0.00     0.211 HD
ENDBRANCH  20  27
BRANCH  21  29
ATOM     29  C   UNL     1      16.019   3.804  17.394  1.00  0.00     0.191 C 
BRANCH  29  30
ATOM     30  O   UNL     1      14.763   3.207  17.214  1.00  0.00    -0.394 OA
ATOM     31  H   UNL     1      14.136   3.948  17.020  1.00  0.00     0.210 HD
ENDBRANCH  29  30
ENDBRANCH  21  29
ENDBRANCH   1  17
TORSDOF 13
ENDMDL
MODEL 7
REMARK VINA RESULT:    -4.916      9.390     12.080
REMARK INTER + INTRA:          -8.737
REMARK INTER:                  -7.977
REMARK INTRA:                  -0.759
REMARK UNBOUND:                -1.234
REMARK SMILES OC[C@H]1O[C@H](O[C@]2(CO)O[C@H](CO)[C@@H](O)[C@@H]2O)[C@@H](O)[C@H](O)[C@H]1O
REMARK SMILES IDX 6 1 5 2 3 3 22 4 4 5 20 6 18 7 2 8 1 9 23 11 21 13 19 15
REMARK SMILES IDX 7 17 16 18 10 19 14 20 11 21 8 22 9 23 17 25 15 27 12 29
REMARK SMILES IDX 13 30
REMARK H PARENT 1 10 23 12 21 14 19 16 9 24 17 26 15 28 13 31
REMARK Flexibility Score: inf
ROOT
ATOM      1  O   UNL     1      14.396   2.774  18.828  1.00  0.00    -0.313 OA
ENDROOT
BRANCH   1   2
ATOM      2  C   UNL     1      15.802   2.516  18.935  1.00  0.00     0.285 C 
ATOM      3  C   UNL     1      17.478   0.834  19.058  1.00  0.00     0.178 C 
ATOM      4  C   UNL     1      17.963   1.015  17.590  1.00  0.00     0.177 C 
ATOM      5  O   UNL     1      16.101   1.140  19.170  1.00  0.00    -0.341 OA
ATOM      6  C   UNL     1      17.100   1.999  16.769  1.00  0.00     0.179 C 
ATOM      7  C   UNL     1      16.506   3.105  17.676  1.00  0.00     0.202 C 
BRANCH   3   8
ATOM      8  C   UNL     1      18.325   1.513  20.155  1.00  0.00     0.191 C 
BRANCH   8   9
ATOM      9  O   UNL     1      19.566   0.875  20.279  1.00  0.00    -0.394 OA
ATOM     10  H   UNL     1      19.653   0.614  21.234  1.00  0.00     0.210 HD
ENDBRANCH   8   9
ENDBRANCH   3   8
BRANCH   4  11
ATOM     11  O   UNL     1      19.332   1.332  17.497  1.00  0.00    -0.387 OA
ATOM     12  H   UNL     1      19.570   1.381  16.535  1.00  0.00     0.211 HD
ENDBRANCH   4  11
BRANCH   6  13
ATOM     13  O   UNL     1      16.068   1.290  16.129  1.00  0.00    -0.387 OA
ATOM     14  H   UNL     1      15.215   1.631  16.508  1.00  0.00     0.211 HD
ENDBRANCH   6  13
BRANCH   7  15
ATOM     15  O   UNL     1      17.500   4.020  18.045  1.00  0.00    -0.385 OA
ATOM     16  H   UNL     1      17.101   4.924  17.932  1.00  0.00     0.211 HD
ENDBRANCH   7  15
ENDBRANCH   1   2
BRANCH   1  17
ATOM     17  C   UNL     1      13.539   2.254  19.844  1.00  0.00     0.224 C 
ATOM     18  C   UNL     1      12.652   1.169  19.209  1.00  0.00     0.208 C 
ATOM     19  O   UNL     1      14.280   1.605  20.861  1.00  0.00    -0.337 OA
ATOM     20  C   UNL     1      12.381   0.219  20.354  1.00  0.00     0.180 C 
ATOM     21  C   UNL     1      13.498   0.539  21.360  1.00  0.00     0.179 C 
BRANCH  17  22
ATOM     22  C   UNL     1      12.673   3.404  20.450  1.00  0.00     0.225 C 
BRANCH  22  23
ATOM     23  O   UNL     1      13.222   3.949  21.626  1.00  0.00    -0.391 OA
ATOM     24  H   UNL     1      12.488   4.383  22.138  1.00  0.00     0.210 HD
ENDBRANCH  22  23
ENDBRANCH  17  22
BRANCH  18  25
ATOM     25  O   UNL     1      13.375   0.493  18.208  1.00  0.00    -0.385 OA
ATOM     26  H   UNL     1      13.298   1.032  17.379  1.00  0.00     0.211 HD
ENDBRANCH  18  25
BRANCH  20  27
ATOM     27  O   UNL     1      11.120   0.489  20.909  1.00  0.00    -0.387 OA
ATOM     28  H   UNL     1      10.460   0.391  20.172  1.00  0.00     0.211 HD
ENDBRANCH  20  27
BRANCH  21  29
ATOM     29  C   UNL     1      14.404  -0.666  21.625  1.00  0.00     0.191 C 
BRANCH  29  30
ATOM     30  O   UNL     1      15.691  -0.230  21.967  1.00  0.00    -0.394 OA
ATOM     31  H   UNL     1      16.308  -0.946  21.674  1.00  0.00     0.210 HD
ENDBRANCH  29  30
ENDBRANCH  21  29
ENDBRANCH   1  17
TORSDOF 13
ENDMDL
MODEL 8
REMARK VINA RESULT:    -4.915      9.055     11.141
REMARK INTER + INTRA:          -8.735
REMARK INTER:                  -7.315
REMARK INTRA:                  -1.419
REMARK UNBOUND:                -1.234
REMARK SMILES OC[C@H]1O[C@H](O[C@]2(CO)O[C@H](CO)[C@@H](O)[C@@H]2O)[C@@H](O)[C@H](O)[C@H]1O
REMARK SMILES IDX 6 1 5 2 3 3 22 4 4 5 20 6 18 7 2 8 1 9 23 11 21 13 19 15
REMARK SMILES IDX 7 17 16 18 10 19 14 20 11 21 8 22 9 23 17 25 15 27 12 29
REMARK SMILES IDX 13 30
REMARK H PARENT 1 10 23 12 21 14 19 16 9 24 17 26 15 28 13 31
REMARK Flexibility Score: inf
ROOT
ATOM      1  O   UNL     1      13.811   2.158  18.886  1.00  0.00    -0.313 OA
ENDROOT
BRANCH   1   2
ATOM      2  C   UNL     1      14.392   3.457  18.713  1.00  0.00     0.285 C 
ATOM      3  C   UNL     1      15.318   4.994  17.155  1.00  0.00     0.178 C 
ATOM      4  C   UNL     1      14.066   5.918  17.110  1.00  0.00     0.177 C 
ATOM      5  O   UNL     1      14.943   3.655  17.412  1.00  0.00    -0.341 OA
ATOM      6  C   UNL     1      12.860   5.364  17.903  1.00  0.00     0.179 C 
ATOM      7  C   UNL     1      13.332   4.526  19.116  1.00  0.00     0.202 C 
BRANCH   3   8
ATOM      8  C   UNL     1      16.489   5.461  18.046  1.00  0.00     0.191 C 
BRANCH   8   9
ATOM      9  O   UNL     1      17.606   4.638  17.857  1.00  0.00    -0.394 OA
ATOM     10  H   UNL     1      17.886   4.332  18.760  1.00  0.00     0.210 HD
ENDBRANCH   8   9
ENDBRANCH   3   8
BRANCH   4  11
ATOM     11  O   UNL     1      14.349   7.249  17.469  1.00  0.00    -0.387 OA
ATOM     12  H   UNL     1      14.224   7.334  18.450  1.00  0.00     0.211 HD
ENDBRANCH   4  11
BRANCH   6  13
ATOM     13  O   UNL     1      12.064   4.579  17.050  1.00  0.00    -0.387 OA
ATOM     14  H   UNL     1      12.658   4.271  16.314  1.00  0.00     0.211 HD
ENDBRANCH   6  13
BRANCH   7  15
ATOM     15  O   UNL     1      13.827   5.362  20.124  1.00  0.00    -0.385 OA
ATOM     16  H   UNL     1      13.392   5.067  20.968  1.00  0.00     0.211 HD
ENDBRANCH   7  15
ENDBRANCH   1   2
BRANCH   1  17
ATOM     17  C   UNL     1      14.565   1.174  19.593  1.00  0.00     0.224 C 
ATOM     18  C   UNL     1      14.923   0.049  18.607  1.00  0.00     0.208 C 
ATOM     19  O   UNL     1      15.799   1.700  20.048  1.00  0.00    -0.337 OA
ATOM     20  C   UNL     1      16.235  -0.484  19.139  1.00  0.00     0.180 C 
ATOM     21  C   UNL     1      16.753   0.657  20.029  1.00  0.00     0.179 C 
BRANCH  17  22
ATOM     22  C   UNL     1      13.731   0.625  20.794  1.00  0.00     0.225 C 
BRANCH  22  23
ATOM     23  O   UNL     1      13.400   1.615  21.737  1.00  0.00    -0.391 OA
ATOM     24  H   UNL     1      14.178   2.227  21.830  1.00  0.00     0.210 HD
ENDBRANCH  22  23
ENDBRANCH  17  22
BRANCH  18  25
ATOM     25  O   UNL     1      15.130   0.592  17.325  1.00  0.00    -0.385 OA
ATOM     26  H   UNL     1      15.328  -0.166  16.716  1.00  0.00     0.211 HD
ENDBRANCH  18  25
BRANCH  20  27
ATOM     27  O   UNL     1      16.006  -1.643  19.898  1.00  0.00    -0.387 OA
ATOM     28  H   UNL     1      16.898  -1.971  20.188  1.00  0.00     0.211 HD
ENDBRANCH  20  27
BRANCH  21  29
ATOM     29  C   UNL     1      18.093   1.212  19.541  1.00  0.00     0.191 C 
BRANCH  29  30
ATOM     30  O   UNL     1      17.923   1.855  18.307  1.00  0.00    -0.394 OA
ATOM     31  H   UNL     1      17.802   1.134  17.640  1.00  0.00     0.210 HD
ENDBRANCH  29  30
ENDBRANCH  21  29
ENDBRANCH   1  17
TORSDOF 13
ENDMDL
MODEL 9
REMARK VINA RESULT:    -4.770      7.949      9.938
REMARK INTER + INTRA:          -8.513
REMARK INTER:                  -7.058
REMARK INTRA:                  -1.456
REMARK UNBOUND:                -1.234
REMARK SMILES OC[C@H]1O[C@H](O[C@]2(CO)O[C@H](CO)[C@@H](O)[C@@H]2O)[C@@H](O)[C@H](O)[C@H]1O
REMARK SMILES IDX 6 1 5 2 3 3 22 4 4 5 20 6 18 7 2 8 1 9 23 11 21 13 19 15
REMARK SMILES IDX 7 17 16 18 10 19 14 20 11 21 8 22 9 23 17 25 15 27 12 29
REMARK SMILES IDX 13 30
REMARK H PARENT 1 10 23 12 21 14 19 16 9 24 17 26 15 28 13 31
REMARK Flexibility Score: inf
ROOT
ATOM      1  O   UNL     1      13.919   2.802  19.142  1.00  0.00    -0.313 OA
ENDROOT
BRANCH   1   2
ATOM      2  C   UNL     1      13.472   4.146  18.923  1.00  0.00     0.285 C 
ATOM      3  C   UNL     1      13.559   6.388  19.707  1.00  0.00     0.178 C 
ATOM      4  C   UNL     1      14.527   6.886  18.593  1.00  0.00     0.177 C 
ATOM      5  O   UNL     1      13.795   5.025  20.000  1.00  0.00    -0.341 OA
ATOM      6  C   UNL     1      15.055   5.755  17.681  1.00  0.00     0.179 C 
ATOM      7  C   UNL     1      14.009   4.623  17.541  1.00  0.00     0.202 C 
BRANCH   3   8
ATOM      8  C   UNL     1      12.061   6.700  19.509  1.00  0.00     0.191 C 
BRANCH   8   9
ATOM      9  O   UNL     1      11.796   8.041  19.815  1.00  0.00    -0.394 OA
ATOM     10  H   UNL     1      10.819   8.170  19.692  1.00  0.00     0.210 HD
ENDBRANCH   8   9
ENDBRANCH   3   8
BRANCH   4  11
ATOM     11  O   UNL     1      13.998   7.950  17.838  1.00  0.00    -0.387 OA
ATOM     12  H   UNL     1      14.245   7.803  16.888  1.00  0.00     0.211 HD
ENDBRANCH   4  11
BRANCH   6  13
ATOM     13  O   UNL     1      16.252   5.248  18.216  1.00  0.00    -0.387 OA
ATOM     14  H   UNL     1      16.019   4.393  18.667  1.00  0.00     0.211 HD
ENDBRANCH   6  13
BRANCH   7  15
ATOM     15  O   UNL     1      12.956   5.030  16.712  1.00  0.00    -0.385 OA
ATOM     16  H   UNL     1      13.254   4.856  15.779  1.00  0.00     0.211 HD
ENDBRANCH   7  15
ENDBRANCH   1   2
BRANCH   1  17
ATOM     17  C   UNL     1      12.932   1.783  19.302  1.00  0.00     0.224 C 
ATOM     18  C   UNL     1      13.026   1.252  20.743  1.00  0.00     0.208 C 
ATOM     19  O   UNL     1      11.624   2.308  19.164  1.00  0.00    -0.337 OA
ATOM     20  C   UNL     1      11.610   0.817  21.052  1.00  0.00     0.180 C 
ATOM     21  C   UNL     1      10.766   1.572  20.013  1.00  0.00     0.179 C 
BRANCH  17  22
ATOM     22  C   UNL     1      13.173   0.640  18.265  1.00  0.00     0.225 C 
BRANCH  22  23
ATOM     23  O   UNL     1      13.790  -0.494  18.824  1.00  0.00    -0.391 OA
ATOM     24  H   UNL     1      14.753  -0.476  18.577  1.00  0.00     0.210 HD
ENDBRANCH  22  23
ENDBRANCH  17  22
BRANCH  18  25
ATOM     25  O   UNL     1      13.387   2.300  21.610  1.00  0.00    -0.385 OA
ATOM     26  H   UNL     1      14.117   1.960  22.189  1.00  0.00     0.211 HD
ENDBRANCH  18  25
BRANCH  20  27
ATOM     27  O   UNL     1      11.490  -0.571  20.877  1.00  0.00    -0.387 OA
ATOM     28  H   UNL     1      12.378  -0.895  20.570  1.00  0.00     0.211 HD
ENDBRANCH  20  27
BRANCH  21  29
ATOM     29  C   UNL     1       9.764   2.529  20.664  1.00  0.00     0.191 C 
BRANCH  29  30
ATOM     30  O   UNL     1      10.447   3.520  21.383  1.00  0.00    -0.394 OA
ATOM     31  H   UNL     1      10.834   3.065  22.172  1.00  0.00     0.210 HD
ENDBRANCH  29  30
ENDBRANCH  21  29
ENDBRANCH   1  17
TORSDOF 13
ENDMDL
