MODEL 1
REMARK VINA RESULT:    -4.471      0.000      0.000
REMARK INTER + INTRA:          -5.205
REMARK INTER:                  -4.994
REMARK INTRA:                  -0.211
REMARK UNBOUND:                -0.211
REMARK SMILES CC(C)c1ccc(C(=O)[O-])cc1
REMARK SMILES IDX 7 1 6 2 11 3 5 4 12 5 4 6 8 7 9 8 10 9 2 10 1 11 3 12
REMARK H PARENT
REMARK Flexibility Score: inf
ROOT
ATOM      1  C   UNL     1      48.971 -28.507 -31.786  1.00  0.00    -0.003 A 
ATOM      2  C   UNL     1      47.606 -28.570 -32.109  1.00  0.00     0.010 A 
ATOM      3  C   UNL     1      49.416 -29.097 -30.592  1.00  0.00     0.010 A 
ATOM      4  C   UNL     1      46.703 -29.211 -31.256  1.00  0.00     0.004 A 
ATOM      5  C   UNL     1      48.514 -29.738 -29.739  1.00  0.00     0.004 A 
ATOM      6  C   UNL     1      47.146 -29.802 -30.061  1.00  0.00    -0.045 A 
ENDROOT
BRANCH   1   7
ATOM      7  C   UNL     1      49.930 -27.829 -32.687  1.00  0.00     0.071 C 
ATOM      8  O   UNL     1      49.784 -27.885 -33.937  1.00  0.00    -0.545 OA
ATOM      9  O   UNL     1      51.007 -27.121 -32.166  1.00  0.00    -0.545 OA
ENDBRANCH   1   7
BRANCH   6  10
ATOM     10  C   UNL     1      46.156 -30.495 -29.144  1.00  0.00     0.013 C 
ATOM     11  C   UNL     1      44.720 -30.047 -29.440  1.00  0.00     0.012 C 
ATOM     12  C   UNL     1      46.290 -32.019 -29.236  1.00  0.00     0.012 C 
ENDBRANCH   6  10
TORSDOF 2
ENDMDL
MODEL 2
REMARK VINA RESULT:    -4.463      0.020      1.398
REMARK INTER + INTRA:          -5.196
REMARK INTER:                  -4.986
REMARK INTRA:                  -0.210
REMARK UNBOUND:                -0.211
REMARK SMILES CC(C)c1ccc(C(=O)[O-])cc1
REMARK SMILES IDX 7 1 6 2 11 3 5 4 12 5 4 6 8 7 9 8 10 9 2 10 1 11 3 12
REMARK H PARENT
REMARK Flexibility Score: inf
ROOT
ATOM      1  C   UNL     1      48.980 -28.507 -31.775  1.00  0.00    -0.003 A 
ATOM      2  C   UNL     1      49.418 -29.112 -30.585  1.00  0.00     0.010 A 
ATOM      3  C   UNL     1      47.615 -28.553 -32.099  1.00  0.00     0.010 A 
ATOM      4  C   UNL     1      48.509 -29.749 -29.736  1.00  0.00     0.004 A 
ATOM      5  C   UNL     1      46.705 -29.189 -31.250  1.00  0.00     0.004 A 
ATOM      6  C   UNL     1      47.143 -29.796 -30.058  1.00  0.00    -0.045 A 
ENDROOT
BRANCH   1   7
ATOM      7  C   UNL     1      49.940 -27.832 -32.677  1.00  0.00     0.071 C 
ATOM      8  O   UNL     1      49.787 -27.881 -33.927  1.00  0.00    -0.545 OA
ATOM      9  O   UNL     1      51.024 -27.135 -32.158  1.00  0.00    -0.545 OA
ENDBRANCH   1   7
BRANCH   6  10
ATOM     10  C   UNL     1      46.166 -30.490 -29.127  1.00  0.00     0.013 C 
ATOM     11  C   UNL     1      44.725 -30.051 -29.411  1.00  0.00     0.012 C 
ATOM     12  C   UNL     1      46.307 -32.014 -29.215  1.00  0.00     0.012 C 
ENDBRANCH   6  10
TORSDOF 2
ENDMDL
MODEL 3
REMARK VINA RESULT:    -4.331     14.751     14.983
REMARK INTER + INTRA:          -5.049
REMARK INTER:                  -4.827
REMARK INTRA:                  -0.221
REMARK UNBOUND:                -0.211
REMARK SMILES CC(C)c1ccc(C(=O)[O-])cc1
REMARK SMILES IDX 7 1 6 2 11 3 5 4 12 5 4 6 8 7 9 8 10 9 2 10 1 11 3 12
REMARK H PARENT
REMARK Flexibility Score: inf
ROOT
ATOM      1  C   UNL     1      54.450 -39.940 -23.303  1.00  0.00    -0.003 A 
ATOM      2  C   UNL     1      54.574 -40.707 -24.473  1.00  0.00     0.010 A 
ATOM      3  C   UNL     1      53.243 -39.980 -22.588  1.00  0.00     0.010 A 
ATOM      4  C   UNL     1      53.511 -41.498 -24.920  1.00  0.00     0.004 A 
ATOM      5  C   UNL     1      52.180 -40.771 -23.033  1.00  0.00     0.004 A 
ATOM      6  C   UNL     1      52.302 -41.539 -24.206  1.00  0.00    -0.045 A 
ENDROOT
BRANCH   1   7
ATOM      7  C   UNL     1      55.573 -39.102 -22.827  1.00  0.00     0.071 C 
ATOM      8  O   UNL     1      56.648 -39.039 -23.481  1.00  0.00    -0.545 OA
ATOM      9  O   UNL     1      55.457 -38.371 -21.650  1.00  0.00    -0.545 OA
ENDBRANCH   1   7
BRANCH   6  10
ATOM     10  C   UNL     1      51.157 -42.402 -24.701  1.00  0.00     0.013 C 
ATOM     11  C   UNL     1      51.656 -43.486 -25.662  1.00  0.00     0.012 C 
ATOM     12  C   UNL     1      50.381 -43.016 -23.529  1.00  0.00     0.012 C 
ENDBRANCH   6  10
TORSDOF 2
ENDMDL
MODEL 4
REMARK VINA RESULT:    -4.331     14.769     14.994
REMARK INTER + INTRA:          -5.048
REMARK INTER:                  -4.827
REMARK INTRA:                  -0.221
REMARK UNBOUND:                -0.211
REMARK SMILES CC(C)c1ccc(C(=O)[O-])cc1
REMARK SMILES IDX 7 1 6 2 11 3 5 4 12 5 4 6 8 7 9 8 10 9 2 10 1 11 3 12
REMARK H PARENT
REMARK Flexibility Score: inf
ROOT
ATOM      1  C   UNL     1      54.345 -39.903 -23.153  1.00  0.00    -0.003 A 
ATOM      2  C   UNL     1      53.197 -39.969 -22.345  1.00  0.00     0.010 A 
ATOM      3  C   UNL     1      54.374 -40.629 -24.355  1.00  0.00     0.010 A 
ATOM      4  C   UNL     1      52.100 -40.744 -22.731  1.00  0.00     0.004 A 
ATOM      5  C   UNL     1      53.277 -41.405 -24.741  1.00  0.00     0.004 A 
ATOM      6  C   UNL     1      52.127 -41.471 -23.933  1.00  0.00    -0.045 A 
ENDROOT
BRANCH   1   7
ATOM      7  C   UNL     1      55.509 -39.084 -22.748  1.00  0.00     0.071 C 
ATOM      8  O   UNL     1      55.487 -38.428 -21.672  1.00  0.00    -0.545 OA
ATOM      9  O   UNL     1      56.642 -39.025 -23.550  1.00  0.00    -0.545 OA
ENDBRANCH   1   7
BRANCH   6  10
ATOM     10  C   UNL     1      50.930 -42.309 -24.341  1.00  0.00     0.013 C 
ATOM     11  C   UNL     1      51.343 -43.440 -25.289  1.00  0.00     0.012 C 
ATOM     12  C   UNL     1      50.195 -42.859 -23.112  1.00  0.00     0.012 C 
ENDBRANCH   6  10
TORSDOF 2
ENDMDL
MODEL 5
REMARK VINA RESULT:    -4.090     12.462     13.562
REMARK INTER + INTRA:          -4.779
REMARK INTER:                  -4.571
REMARK INTRA:                  -0.208
REMARK UNBOUND:                -0.211
REMARK SMILES CC(C)c1ccc(C(=O)[O-])cc1
REMARK SMILES IDX 7 1 6 2 11 3 5 4 12 5 4 6 8 7 9 8 10 9 2 10 1 11 3 12
REMARK H PARENT
REMARK Flexibility Score: inf
ROOT
ATOM      1  C   UNL     1      54.060 -41.426 -30.964  1.00  0.00    -0.003 A 
ATOM      2  C   UNL     1      53.940 -42.492 -30.056  1.00  0.00     0.010 A 
ATOM      3  C   UNL     1      52.900 -40.757 -31.384  1.00  0.00     0.010 A 
ATOM      4  C   UNL     1      52.686 -42.880 -29.578  1.00  0.00     0.004 A 
ATOM      5  C   UNL     1      51.645 -41.143 -30.905  1.00  0.00     0.004 A 
ATOM      6  C   UNL     1      51.524 -42.211 -29.996  1.00  0.00    -0.045 A 
ENDROOT
BRANCH   1   7
ATOM      7  C   UNL     1      55.387 -41.013 -31.473  1.00  0.00     0.071 C 
ATOM      8  O   UNL     1      56.440 -41.515 -30.997  1.00  0.00    -0.545 OA
ATOM      9  O   UNL     1      55.489 -40.064 -32.484  1.00  0.00    -0.545 OA
ENDBRANCH   1   7
BRANCH   6  10
ATOM     10  C   UNL     1      50.168 -42.641 -29.469  1.00  0.00     0.013 C 
ATOM     11  C   UNL     1      49.396 -41.451 -28.890  1.00  0.00     0.012 C 
ATOM     12  C   UNL     1      49.352 -43.352 -30.556  1.00  0.00     0.012 C 
ENDBRANCH   6  10
TORSDOF 2
ENDMDL
MODEL 6
REMARK VINA RESULT:    -4.054     14.080     15.183
REMARK INTER + INTRA:          -4.738
REMARK INTER:                  -4.527
REMARK INTRA:                  -0.211
REMARK UNBOUND:                -0.211
REMARK SMILES CC(C)c1ccc(C(=O)[O-])cc1
REMARK SMILES IDX 7 1 6 2 11 3 5 4 12 5 4 6 8 7 9 8 10 9 2 10 1 11 3 12
REMARK H PARENT
REMARK Flexibility Score: inf
ROOT
ATOM      1  C   UNL     1      55.608 -40.562 -24.317  1.00  0.00    -0.003 A 
ATOM      2  C   UNL     1      54.480 -40.530 -23.481  1.00  0.00     0.010 A 
ATOM      3  C   UNL     1      56.585 -39.563 -24.180  1.00  0.00     0.010 A 
ATOM      4  C   UNL     1      54.332 -39.520 -22.525  1.00  0.00     0.004 A 
ATOM      5  C   UNL     1      56.438 -38.553 -23.225  1.00  0.00     0.004 A 
ATOM      6  C   UNL     1      55.308 -38.520 -22.387  1.00  0.00    -0.045 A 
ENDROOT
BRANCH   1   7
ATOM      7  C   UNL     1      55.768 -41.629 -25.330  1.00  0.00     0.071 C 
ATOM      8  O   UNL     1      56.268 -42.741 -25.014  1.00  0.00    -0.545 OA
ATOM      9  O   UNL     1      55.368 -41.418 -26.644  1.00  0.00    -0.545 OA
ENDBRANCH   1   7
BRANCH   6  10
ATOM     10  C   UNL     1      55.136 -37.429 -21.346  1.00  0.00     0.013 C 
ATOM     11  C   UNL     1      55.467 -36.051 -21.929  1.00  0.00     0.012 C 
ATOM     12  C   UNL     1      53.724 -37.452 -20.749  1.00  0.00     0.012 C 
ENDBRANCH   6  10
TORSDOF 2
ENDMDL
MODEL 7
REMARK VINA RESULT:    -3.974     14.246     15.244
REMARK INTER + INTRA:          -4.650
REMARK INTER:                  -4.433
REMARK INTRA:                  -0.216
REMARK UNBOUND:                -0.211
REMARK SMILES CC(C)c1ccc(C(=O)[O-])cc1
REMARK SMILES IDX 7 1 6 2 11 3 5 4 12 5 4 6 8 7 9 8 10 9 2 10 1 11 3 12
REMARK H PARENT
REMARK Flexibility Score: inf
ROOT
ATOM      1  C   UNL     1      53.214 -38.683 -21.620  1.00  0.00    -0.003 A 
ATOM      2  C   UNL     1      54.406 -37.941 -21.629  1.00  0.00     0.010 A 
ATOM      3  C   UNL     1      53.139 -39.860 -22.382  1.00  0.00     0.010 A 
ATOM      4  C   UNL     1      55.503 -38.367 -22.384  1.00  0.00     0.004 A 
ATOM      5  C   UNL     1      54.235 -40.287 -23.137  1.00  0.00     0.004 A 
ATOM      6  C   UNL     1      55.431 -39.544 -23.147  1.00  0.00    -0.045 A 
ENDROOT
BRANCH   1   7
ATOM      7  C   UNL     1      52.051 -38.235 -20.822  1.00  0.00     0.071 C 
ATOM      8  O   UNL     1      51.421 -39.049 -20.096  1.00  0.00    -0.545 OA
ATOM      9  O   UNL     1      51.636 -36.909 -20.864  1.00  0.00    -0.545 OA
ENDBRANCH   1   7
BRANCH   6  10
ATOM     10  C   UNL     1      56.628 -39.996 -23.962  1.00  0.00     0.013 C 
ATOM     11  C   UNL     1      56.186 -40.726 -25.235  1.00  0.00     0.012 C 
ATOM     12  C   UNL     1      57.548 -38.815 -24.293  1.00  0.00     0.012 C 
ENDBRANCH   6  10
TORSDOF 2
ENDMDL
MODEL 8
REMARK VINA RESULT:    -3.955      3.152      5.051
REMARK INTER + INTRA:          -4.628
REMARK INTER:                  -4.412
REMARK INTRA:                  -0.216
REMARK UNBOUND:                -0.211
REMARK SMILES CC(C)c1ccc(C(=O)[O-])cc1
REMARK SMILES IDX 7 1 6 2 11 3 5 4 12 5 4 6 8 7 9 8 10 9 2 10 1 11 3 12
REMARK H PARENT
REMARK Flexibility Score: inf
ROOT
ATOM      1  C   UNL     1      46.656 -29.706 -30.166  1.00  0.00    -0.003 A 
ATOM      2  C   UNL     1      46.505 -29.005 -31.373  1.00  0.00     0.010 A 
ATOM      3  C   UNL     1      47.941 -29.851 -29.619  1.00  0.00     0.010 A 
ATOM      4  C   UNL     1      47.616 -28.458 -32.021  1.00  0.00     0.004 A 
ATOM      5  C   UNL     1      49.053 -29.304 -30.266  1.00  0.00     0.004 A 
ATOM      6  C   UNL     1      48.903 -28.601 -31.476  1.00  0.00    -0.045 A 
ENDROOT
BRANCH   1   7
ATOM      7  C   UNL     1      45.482 -30.287 -29.477  1.00  0.00     0.071 C 
ATOM      8  O   UNL     1      45.491 -31.488 -29.097  1.00  0.00    -0.545 OA
ATOM      9  O   UNL     1      44.350 -29.514 -29.241  1.00  0.00    -0.545 OA
ENDBRANCH   1   7
BRANCH   6  10
ATOM     10  C   UNL     1      50.101 -28.003 -32.189  1.00  0.00     0.013 C 
ATOM     11  C   UNL     1      51.386 -28.763 -31.843  1.00  0.00     0.012 C 
ATOM     12  C   UNL     1      49.876 -27.957 -33.705  1.00  0.00     0.012 C 
ENDBRANCH   6  10
TORSDOF 2
ENDMDL
MODEL 9
REMARK VINA RESULT:    -3.941      2.288      3.903
REMARK INTER + INTRA:          -4.612
REMARK INTER:                  -4.394
REMARK INTRA:                  -0.218
REMARK UNBOUND:                -0.211
REMARK SMILES CC(C)c1ccc(C(=O)[O-])cc1
REMARK SMILES IDX 7 1 6 2 11 3 5 4 12 5 4 6 8 7 9 8 10 9 2 10 1 11 3 12
REMARK H PARENT
REMARK Flexibility Score: inf
ROOT
ATOM      1  C   UNL     1      52.048 -28.492 -31.166  1.00  0.00    -0.003 A 
ATOM      2  C   UNL     1      51.194 -29.130 -30.252  1.00  0.00     0.010 A 
ATOM      3  C   UNL     1      51.496 -27.906 -32.317  1.00  0.00     0.010 A 
ATOM      4  C   UNL     1      49.816 -29.180 -30.482  1.00  0.00     0.004 A 
ATOM      5  C   UNL     1      50.119 -27.956 -32.548  1.00  0.00     0.004 A 
ATOM      6  C   UNL     1      49.262 -28.595 -31.632  1.00  0.00    -0.045 A 
ENDROOT
BRANCH   1   7
ATOM      7  C   UNL     1      53.507 -28.437 -30.926  1.00  0.00     0.071 C 
ATOM      8  O   UNL     1      54.025 -29.089 -29.981  1.00  0.00    -0.545 OA
ATOM      9  O   UNL     1      54.326 -27.663 -31.740  1.00  0.00    -0.545 OA
ENDBRANCH   1   7
BRANCH   6  10
ATOM     10  C   UNL     1      47.765 -28.656 -31.871  1.00  0.00     0.013 C 
ATOM     11  C   UNL     1      47.057 -29.420 -30.747  1.00  0.00     0.012 C 
ATOM     12  C   UNL     1      47.175 -27.251 -32.042  1.00  0.00     0.012 C 
ENDBRANCH   6  10
TORSDOF 2
ENDMDL
