MODEL 1
REMARK VINA RESULT:     2.284      0.000      0.000
REMARK INTER + INTRA:           2.984
REMARK INTER:                   3.085
REMARK INTRA:                  -0.101
REMARK UNBOUND:                -0.101
REMARK SMILES CCCCCCCC(=O)[O-]
REMARK SMILES IDX 5 1 6 2 7 3 8 4 9 5 10 6 4 7 3 8 2 9 1 10
REMARK H PARENT
REMARK Flexibility Score: inf
ROOT
ATOM      1  C   UNL     1       7.674  42.205   7.362  1.00  0.00     0.000 C 
ENDROOT
BRANCH   1   2
ATOM      2  C   UNL     1       8.261  42.722   6.043  1.00  0.00     0.006 C 
BRANCH   2   3
ATOM      3  C   UNL     1       9.522  41.942   5.659  1.00  0.00     0.053 C 
BRANCH   3   4
ATOM      4  C   UNL     1       9.192  40.869   4.671  1.00  0.00     0.041 C 
ATOM      5  O   UNL     1       8.295  40.024   4.929  1.00  0.00    -0.550 OA
ATOM      6  O   UNL     1       9.909  40.771   3.484  1.00  0.00    -0.550 OA
ENDBRANCH   3   4
ENDBRANCH   2   3
ENDBRANCH   1   2
BRANCH   1   7
ATOM      7  C   UNL     1       6.268  42.769   7.598  1.00  0.00     0.000 C 
BRANCH   7   8
ATOM      8  C   UNL     1       5.872  42.658   9.075  1.00  0.00    -0.000 C 
BRANCH   8   9
ATOM      9  C   UNL     1       4.606  43.473   9.367  1.00  0.00    -0.003 C 
ATOM     10  C   UNL     1       3.566  43.288   8.265  1.00  0.00     0.004 C 
ENDBRANCH   8   9
ENDBRANCH   7   8
ENDBRANCH   1   7
TORSDOF 6
ENDMDL
MODEL 2
REMARK VINA RESULT:     2.715      3.461      5.984
REMARK INTER + INTRA:           3.567
REMARK INTER:                   3.691
REMARK INTRA:                  -0.124
REMARK UNBOUND:                -0.101
REMARK SMILES CCCCCCCC(=O)[O-]
REMARK SMILES IDX 5 1 6 2 7 3 8 4 9 5 10 6 4 7 3 8 2 9 1 10
REMARK H PARENT
REMARK Flexibility Score: inf
ROOT
ATOM      1  C   UNL     1       7.925  41.951   7.523  1.00  0.00     0.000 C 
ENDROOT
BRANCH   1   2
ATOM      2  C   UNL     1       6.588  42.702   7.536  1.00  0.00     0.006 C 
BRANCH   2   3
ATOM      3  C   UNL     1       5.908  42.591   8.903  1.00  0.00     0.053 C 
BRANCH   3   4
ATOM      4  C   UNL     1       4.679  43.442   8.947  1.00  0.00     0.041 C 
ATOM      5  O   UNL     1       4.728  44.600   9.438  1.00  0.00    -0.550 OA
ATOM      6  O   UNL     1       3.467  42.939   8.490  1.00  0.00    -0.550 OA
ENDBRANCH   3   4
ENDBRANCH   2   3
ENDBRANCH   1   2
BRANCH   1   7
ATOM      7  C   UNL     1       8.750  42.315   6.282  1.00  0.00     0.000 C 
BRANCH   7   8
ATOM      8  C   UNL     1       8.363  41.437   5.087  1.00  0.00    -0.000 C 
BRANCH   8   9
ATOM      9  C   UNL     1       9.508  40.492   4.706  1.00  0.00    -0.003 C 
ATOM     10  C   UNL     1       9.831  40.588   3.217  1.00  0.00     0.004 C 
ENDBRANCH   8   9
ENDBRANCH   7   8
ENDBRANCH   1   7
TORSDOF 6
ENDMDL
MODEL 3
REMARK VINA RESULT:     3.096      3.328      6.045
REMARK INTER + INTRA:           4.082
REMARK INTER:                   4.194
REMARK INTRA:                  -0.112
REMARK UNBOUND:                -0.101
REMARK SMILES CCCCCCCC(=O)[O-]
REMARK SMILES IDX 5 1 6 2 7 3 8 4 9 5 10 6 4 7 3 8 2 9 1 10
REMARK H PARENT
REMARK Flexibility Score: inf
ROOT
ATOM      1  C   UNL     1       7.769  42.205   7.213  1.00  0.00     0.000 C 
ENDROOT
BRANCH   1   2
ATOM      2  C   UNL     1       6.369  42.811   7.367  1.00  0.00     0.006 C 
BRANCH   2   3
ATOM      3  C   UNL     1       5.890  42.728   8.819  1.00  0.00     0.053 C 
BRANCH   3   4
ATOM      4  C   UNL     1       4.533  43.343   8.958  1.00  0.00     0.041 C 
ATOM      5  O   UNL     1       3.598  42.993   8.192  1.00  0.00    -0.550 OA
ATOM      6  O   UNL     1       4.314  44.338   9.902  1.00  0.00    -0.550 OA
ENDBRANCH   3   4
ENDBRANCH   2   3
ENDBRANCH   1   2
BRANCH   1   7
ATOM      7  C   UNL     1       8.349  42.502   5.825  1.00  0.00     0.000 C 
BRANCH   7   8
ATOM      8  C   UNL     1       9.477  41.522   5.480  1.00  0.00    -0.000 C 
BRANCH   8   9
ATOM      9  C   UNL     1       9.044  40.557   4.369  1.00  0.00    -0.003 C 
ATOM     10  C   UNL     1      10.086  40.498   3.255  1.00  0.00     0.004 C 
ENDBRANCH   8   9
ENDBRANCH   7   8
ENDBRANCH   1   7
TORSDOF 6
ENDMDL
MODEL 4
REMARK VINA RESULT:     3.181      1.472      2.063
REMARK INTER + INTRA:           4.196
REMARK INTER:                   4.232
REMARK INTRA:                  -0.035
REMARK UNBOUND:                -0.101
REMARK SMILES CCCCCCCC(=O)[O-]
REMARK SMILES IDX 5 1 6 2 7 3 8 4 9 5 10 6 4 7 3 8 2 9 1 10
REMARK H PARENT
REMARK Flexibility Score: inf
ROOT
ATOM      1  C   UNL     1       7.009  42.391   8.329  1.00  0.00     0.000 C 
ENDROOT
BRANCH   1   2
ATOM      2  C   UNL     1       6.439  42.824   6.972  1.00  0.00     0.006 C 
BRANCH   2   3
ATOM      3  C   UNL     1       7.562  43.116   5.972  1.00  0.00     0.053 C 
BRANCH   3   4
ATOM      4  C   UNL     1       8.770  42.293   6.288  1.00  0.00     0.041 C 
ATOM      5  O   UNL     1       8.828  41.088   5.926  1.00  0.00    -0.550 OA
ATOM      6  O   UNL     1       9.813  42.840   7.025  1.00  0.00    -0.550 OA
ENDBRANCH   3   4
ENDBRANCH   2   3
ENDBRANCH   1   2
BRANCH   1   7
ATOM      7  C   UNL     1       5.965  42.549   9.441  1.00  0.00     0.000 C 
BRANCH   7   8
ATOM      8  C   UNL     1       4.967  43.663   9.104  1.00  0.00    -0.000 C 
BRANCH   8   9
ATOM      9  C   UNL     1       3.537  43.114   9.031  1.00  0.00    -0.003 C 
ATOM     10  C   UNL     1       2.887  43.447   7.690  1.00  0.00     0.004 C 
ENDBRANCH   8   9
ENDBRANCH   7   8
ENDBRANCH   1   7
TORSDOF 6
ENDMDL
MODEL 5
REMARK VINA RESULT:     4.256      2.939      5.741
REMARK INTER + INTRA:           5.648
REMARK INTER:                   5.757
REMARK INTRA:                  -0.109
REMARK UNBOUND:                -0.101
REMARK SMILES CCCCCCCC(=O)[O-]
REMARK SMILES IDX 5 1 6 2 7 3 8 4 9 5 10 6 4 7 3 8 2 9 1 10
REMARK H PARENT
REMARK Flexibility Score: inf
ROOT
ATOM      1  C   UNL     1       8.589  41.018   6.677  1.00  0.00     0.000 C 
ENDROOT
BRANCH   1   2
ATOM      2  C   UNL     1       8.333  42.521   6.843  1.00  0.00     0.006 C 
BRANCH   2   3
ATOM      3  C   UNL     1       6.839  42.840   6.735  1.00  0.00     0.053 C 
BRANCH   3   4
ATOM      4  C   UNL     1       6.198  42.813   8.086  1.00  0.00     0.041 C 
ATOM      5  O   UNL     1       5.048  43.297   8.251  1.00  0.00    -0.550 OA
ATOM      6  O   UNL     1       6.891  42.298   9.175  1.00  0.00    -0.550 OA
ENDBRANCH   3   4
ENDBRANCH   2   3
ENDBRANCH   1   2
BRANCH   1   7
ATOM      7  C   UNL     1       8.535  40.611   5.199  1.00  0.00     0.000 C 
BRANCH   7   8
ATOM      8  C   UNL     1       9.802  41.055   4.459  1.00  0.00    -0.000 C 
BRANCH   8   9
ATOM      9  C   UNL     1      10.081  40.149   3.255  1.00  0.00    -0.003 C 
ATOM     10  C   UNL     1       9.667  40.824   1.949  1.00  0.00     0.004 C 
ENDBRANCH   8   9
ENDBRANCH   7   8
ENDBRANCH   1   7
TORSDOF 6
ENDMDL
MODEL 6
REMARK VINA RESULT:     4.675      1.590      2.587
REMARK INTER + INTRA:           6.214
REMARK INTER:                   6.494
REMARK INTRA:                  -0.281
REMARK UNBOUND:                -0.101
REMARK SMILES CCCCCCCC(=O)[O-]
REMARK SMILES IDX 5 1 6 2 7 3 8 4 9 5 10 6 4 7 3 8 2 9 1 10
REMARK H PARENT
REMARK Flexibility Score: inf
ROOT
ATOM      1  C   UNL     1       5.857  42.645   9.236  1.00  0.00     0.000 C 
ENDROOT
BRANCH   1   2
ATOM      2  C   UNL     1       7.087  42.097   8.503  1.00  0.00     0.006 C 
BRANCH   2   3
ATOM      3  C   UNL     1       7.155  42.631   7.069  1.00  0.00     0.053 C 
BRANCH   3   4
ATOM      4  C   UNL     1       8.499  42.357   6.472  1.00  0.00     0.041 C 
ATOM      5  O   UNL     1       9.409  43.225   6.535  1.00  0.00    -0.550 OA
ATOM      6  O   UNL     1       8.733  41.162   5.802  1.00  0.00    -0.550 OA
ENDBRANCH   3   4
ENDBRANCH   2   3
ENDBRANCH   1   2
BRANCH   1   7
ATOM      7  C   UNL     1       5.041  43.573   8.327  1.00  0.00     0.000 C 
BRANCH   7   8
ATOM      8  C   UNL     1       3.764  44.047   9.030  1.00  0.00    -0.000 C 
BRANCH   8   9
ATOM      9  C   UNL     1       2.523  43.391   8.413  1.00  0.00    -0.003 C 
ATOM     10  C   UNL     1       2.607  43.375   6.889  1.00  0.00     0.004 C 
ENDBRANCH   8   9
ENDBRANCH   7   8
ENDBRANCH   1   7
TORSDOF 6
ENDMDL
