MODEL 1
REMARK VINA RESULT:    -3.626      0.000      0.000
REMARK INTER + INTRA:          -4.665
REMARK INTER:                  -4.898
REMARK INTRA:                   0.234
REMARK UNBOUND:                 0.234
REMARK SMILES O=c1c(-c2ccc(O)cc2)coc2c([C@H]3O[C@@H](CO)[C@@H](O)[C@H](O)[C@H]3O)c(O)ccc12
REMARK SMILES IDX 3 1 11 2 12 3 13 4 30 5 2 6 1 7 29 8 28 9 26 10 14 11 4 12
REMARK SMILES IDX 5 13 6 14 7 15 10 16 9 17 8 18 15 20 24 21 16 22 22 23 17 24
REMARK SMILES IDX 20 25 25 26 23 28 18 30 19 31 21 33 27 35
REMARK H PARENT 8 19 25 27 23 29 19 32 21 34 27 36
REMARK Flexibility Score: inf
ROOT
ATOM      1  C   UNL     1      39.316  28.926  10.442  1.00  0.00     0.065 A 
ATOM      2  C   UNL     1      40.220  28.232  11.257  1.00  0.00     0.208 A 
ATOM      3  O   UNL     1      41.494  28.108  10.909  1.00  0.00    -0.463 OA
ATOM      4  C   UNL     1      42.002  28.619   9.789  1.00  0.00     0.147 A 
ATOM      5  C   UNL     1      41.154  29.323   8.902  1.00  0.00     0.066 A 
ATOM      6  C   UNL     1      39.796  29.472   9.238  1.00  0.00     0.200 A 
ATOM      7  O   UNL     1      39.007  30.072   8.456  1.00  0.00    -0.288 OA
ATOM      8  C   UNL     1      41.675  29.842   7.709  1.00  0.00     0.020 A 
ATOM      9  C   UNL     1      43.013  29.647   7.387  1.00  0.00     0.047 A 
ATOM     10  C   UNL     1      43.865  28.944   8.242  1.00  0.00     0.125 A 
ATOM     11  C   UNL     1      43.380  28.452   9.486  1.00  0.00     0.069 A 
ENDROOT
BRANCH   1  12
ATOM     12  C   UNL     1      37.897  29.058  10.857  1.00  0.00    -0.011 A 
ATOM     13  C   UNL     1      37.061  30.002  10.235  1.00  0.00     0.013 A 
ATOM     14  C   UNL     1      35.722  30.123  10.618  1.00  0.00     0.047 A 
ATOM     15  C   UNL     1      35.200  29.302  11.622  1.00  0.00     0.115 A 
ATOM     16  C   UNL     1      37.363  28.230  11.861  1.00  0.00     0.013 A 
ATOM     17  C   UNL     1      36.024  28.354  12.242  1.00  0.00     0.047 A 
BRANCH  15  18
ATOM     18  O   UNL     1      33.864  29.434  11.993  1.00  0.00    -0.508 OA
ATOM     19  H   UNL     1      33.115  29.331  11.318  1.00  0.00     0.293 HD
ENDBRANCH  15  18
ENDBRANCH   1  12
BRANCH  11  20
ATOM     20  C   UNL     1      44.313  27.714  10.448  1.00  0.00     0.188 C 
ATOM     21  C   UNL     1      44.370  26.186  10.150  1.00  0.00     0.179 C 
ATOM     22  O   UNL     1      43.930  27.929  11.797  1.00  0.00    -0.362 OA
ATOM     23  C   UNL     1      44.774  25.385  11.416  1.00  0.00     0.177 C 
ATOM     24  C   UNL     1      44.974  27.587  12.705  1.00  0.00     0.176 C 
ATOM     25  C   UNL     1      45.682  26.238  12.330  1.00  0.00     0.177 C 
BRANCH  21  26
ATOM     26  O   UNL     1      43.157  25.695   9.631  1.00  0.00    -0.387 OA
ATOM     27  H   UNL     1      43.248  24.711   9.536  1.00  0.00     0.211 HD
ENDBRANCH  21  26
BRANCH  23  28
ATOM     28  O   UNL     1      45.395  24.172  11.066  1.00  0.00    -0.387 OA
ATOM     29  H   UNL     1      46.050  23.950  11.779  1.00  0.00     0.211 HD
ENDBRANCH  23  28
BRANCH  24  30
ATOM     30  C   UNL     1      44.364  27.589  14.119  1.00  0.00     0.191 C 
BRANCH  30  31
ATOM     31  O   UNL     1      42.964  27.504  14.070  1.00  0.00    -0.394 OA
ATOM     32  H   UNL     1      42.746  26.629  13.652  1.00  0.00     0.210 HD
ENDBRANCH  30  31
ENDBRANCH  24  30
BRANCH  25  33
ATOM     33  O   UNL     1      46.125  25.514  13.453  1.00  0.00    -0.388 OA
ATOM     34  H   UNL     1      46.376  26.162  14.162  1.00  0.00     0.211 HD
ENDBRANCH  25  33
ENDBRANCH  11  20
BRANCH  10  35
ATOM     35  O   UNL     1      45.180  28.750   7.810  1.00  0.00    -0.507 OA
ATOM     36  H   UNL     1      45.893  29.466   7.810  1.00  0.00     0.293 HD
ENDBRANCH  10  35
TORSDOF 9
ENDMDL
MODEL 2
REMARK VINA RESULT:    -3.318      1.832      3.691
REMARK INTER + INTRA:          -4.248
REMARK INTER:                  -3.899
REMARK INTRA:                  -0.349
REMARK UNBOUND:                 0.234
REMARK SMILES O=c1c(-c2ccc(O)cc2)coc2c([C@H]3O[C@@H](CO)[C@@H](O)[C@H](O)[C@H]3O)c(O)ccc12
REMARK SMILES IDX 3 1 11 2 12 3 13 4 30 5 2 6 1 7 29 8 28 9 26 10 14 11 4 12
REMARK SMILES IDX 5 13 6 14 7 15 10 16 9 17 8 18 15 20 24 21 16 22 22 23 17 24
REMARK SMILES IDX 20 25 25 26 23 28 18 30 19 31 21 33 27 35
REMARK H PARENT 8 19 25 27 23 29 19 32 21 34 27 36
REMARK Flexibility Score: inf
ROOT
ATOM      1  C   UNL     1      38.743  29.274  11.489  1.00  0.00     0.065 A 
ATOM      2  C   UNL     1      39.347  28.728  10.348  1.00  0.00     0.208 A 
ATOM      3  O   UNL     1      40.655  28.509  10.308  1.00  0.00    -0.463 OA
ATOM      4  C   UNL     1      41.476  28.782  11.320  1.00  0.00     0.147 A 
ATOM      5  C   UNL     1      40.950  29.349  12.505  1.00  0.00     0.066 A 
ATOM      6  C   UNL     1      39.567  29.596  12.582  1.00  0.00     0.200 A 
ATOM      7  O   UNL     1      39.070  30.125  13.615  1.00  0.00    -0.288 OA
ATOM      8  C   UNL     1      41.811  29.662  13.565  1.00  0.00     0.020 A 
ATOM      9  C   UNL     1      43.178  29.439  13.445  1.00  0.00     0.047 A 
ATOM     10  C   UNL     1      43.719  28.893  12.279  1.00  0.00     0.125 A 
ATOM     11  C   UNL     1      42.867  28.513  11.207  1.00  0.00     0.069 A 
ENDROOT
BRANCH   1  12
ATOM     12  C   UNL     1      37.277  29.501  11.513  1.00  0.00    -0.011 A 
ATOM     13  C   UNL     1      36.604  29.918  10.351  1.00  0.00     0.013 A 
ATOM     14  C   UNL     1      35.221  30.125  10.369  1.00  0.00     0.047 A 
ATOM     15  C   UNL     1      34.493  29.914  11.543  1.00  0.00     0.115 A 
ATOM     16  C   UNL     1      36.537  29.283  12.690  1.00  0.00     0.013 A 
ATOM     17  C   UNL     1      35.155  29.491  12.704  1.00  0.00     0.047 A 
BRANCH  15  18
ATOM     18  O   UNL     1      33.116  30.124  11.547  1.00  0.00    -0.508 OA
ATOM     19  H   UNL     1      32.648  30.548  12.339  1.00  0.00     0.293 HD
ENDBRANCH  15  18
ENDBRANCH   1  12
BRANCH  11  20
ATOM     20  C   UNL     1      43.444  27.879   9.940  1.00  0.00     0.188 C 
ATOM     21  C   UNL     1      43.949  26.427  10.190  1.00  0.00     0.179 C 
ATOM     22  O   UNL     1      44.492  28.670   9.404  1.00  0.00    -0.362 OA
ATOM     23  C   UNL     1      45.039  26.030   9.160  1.00  0.00     0.177 C 
ATOM     24  C   UNL     1      44.781  28.323   8.052  1.00  0.00     0.176 C 
ATOM     25  C   UNL     1      44.816  26.771   7.823  1.00  0.00     0.177 C 
BRANCH  21  26
ATOM     26  O   UNL     1      44.430  26.245  11.501  1.00  0.00    -0.387 OA
ATOM     27  H   UNL     1      45.057  25.476  11.486  1.00  0.00     0.211 HD
ENDBRANCH  21  26
BRANCH  23  28
ATOM     28  O   UNL     1      45.070  24.636   8.975  1.00  0.00    -0.387 OA
ATOM     29  H   UNL     1      45.709  24.257   9.634  1.00  0.00     0.211 HD
ENDBRANCH  23  28
BRANCH  24  30
ATOM     30  C   UNL     1      46.094  29.031   7.672  1.00  0.00     0.191 C 
BRANCH  30  31
ATOM     31  O   UNL     1      46.123  29.350   6.306  1.00  0.00    -0.394 OA
ATOM     32  H   UNL     1      45.246  29.763   6.090  1.00  0.00     0.210 HD
ENDBRANCH  30  31
ENDBRANCH  24  30
BRANCH  25  33
ATOM     33  O   UNL     1      45.747  26.377   6.843  1.00  0.00    -0.388 OA
ATOM     34  H   UNL     1      45.494  25.473   6.519  1.00  0.00     0.211 HD
ENDBRANCH  25  33
ENDBRANCH  11  20
BRANCH  10  35
ATOM     35  O   UNL     1      45.110  28.757  12.229  1.00  0.00    -0.507 OA
ATOM     36  H   UNL     1      45.733  29.416  11.784  1.00  0.00     0.293 HD
ENDBRANCH  10  35
TORSDOF 9
ENDMDL
MODEL 3
REMARK VINA RESULT:    -2.053      1.910      4.007
REMARK INTER + INTRA:          -2.539
REMARK INTER:                  -3.384
REMARK INTRA:                   0.845
REMARK UNBOUND:                 0.234
REMARK SMILES O=c1c(-c2ccc(O)cc2)coc2c([C@H]3O[C@@H](CO)[C@@H](O)[C@H](O)[C@H]3O)c(O)ccc12
REMARK SMILES IDX 3 1 11 2 12 3 13 4 30 5 2 6 1 7 29 8 28 9 26 10 14 11 4 12
REMARK SMILES IDX 5 13 6 14 7 15 10 16 9 17 8 18 15 20 24 21 16 22 22 23 17 24
REMARK SMILES IDX 20 25 25 26 23 28 18 30 19 31 21 33 27 35
REMARK H PARENT 8 19 25 27 23 29 19 32 21 34 27 36
REMARK Flexibility Score: inf
ROOT
ATOM      1  C   UNL     1      38.775  29.064  11.894  1.00  0.00     0.065 A 
ATOM      2  C   UNL     1      39.532  28.612  10.805  1.00  0.00     0.208 A 
ATOM      3  O   UNL     1      40.858  28.637  10.841  1.00  0.00    -0.463 OA
ATOM      4  C   UNL     1      41.556  29.081  11.884  1.00  0.00     0.147 A 
ATOM      5  C   UNL     1      40.869  29.570  13.020  1.00  0.00     0.066 A 
ATOM      6  C   UNL     1      39.462  29.559  13.017  1.00  0.00     0.200 A 
ATOM      7  O   UNL     1      38.819  30.012  14.005  1.00  0.00    -0.288 OA
ATOM      8  C   UNL     1      41.597  30.062  14.111  1.00  0.00     0.020 A 
ATOM      9  C   UNL     1      42.986  30.093  14.070  1.00  0.00     0.047 A 
ATOM     10  C   UNL     1      43.684  29.628  12.953  1.00  0.00     0.125 A 
ATOM     11  C   UNL     1      42.977  29.071  11.851  1.00  0.00     0.069 A 
ENDROOT
BRANCH   1  12
ATOM     12  C   UNL     1      37.292  29.017  11.836  1.00  0.00    -0.011 A 
ATOM     13  C   UNL     1      36.601  27.870  12.263  1.00  0.00     0.013 A 
ATOM     14  C   UNL     1      35.204  27.827  12.217  1.00  0.00     0.047 A 
ATOM     15  C   UNL     1      34.481  28.928  11.749  1.00  0.00     0.115 A 
ATOM     16  C   UNL     1      36.558  30.125  11.373  1.00  0.00     0.013 A 
ATOM     17  C   UNL     1      35.162  30.078  11.328  1.00  0.00     0.047 A 
BRANCH  15  18
ATOM     18  O   UNL     1      33.090  28.871  11.709  1.00  0.00    -0.508 OA
ATOM     19  H   UNL     1      32.605  28.065  11.330  1.00  0.00     0.293 HD
ENDBRANCH  15  18
ENDBRANCH   1  12
BRANCH  11  20
ATOM     20  C   UNL     1      43.731  28.524  10.638  1.00  0.00     0.188 C 
ATOM     21  C   UNL     1      43.353  29.274   9.327  1.00  0.00     0.179 C 
ATOM     22  O   UNL     1      43.506  27.132  10.481  1.00  0.00    -0.362 OA
ATOM     23  C   UNL     1      43.601  28.382   8.081  1.00  0.00     0.177 C 
ATOM     24  C   UNL     1      44.472  26.532   9.622  1.00  0.00     0.176 C 
ATOM     25  C   UNL     1      44.762  27.397   8.344  1.00  0.00     0.177 C 
BRANCH  21  26
ATOM     26  O   UNL     1      42.022  29.734   9.337  1.00  0.00    -0.387 OA
ATOM     27  H   UNL     1      41.437  28.956   9.532  1.00  0.00     0.211 HD
ENDBRANCH  21  26
BRANCH  23  28
ATOM     28  O   UNL     1      43.845  29.169   6.941  1.00  0.00    -0.387 OA
ATOM     29  H   UNL     1      43.184  29.910   6.938  1.00  0.00     0.211 HD
ENDBRANCH  23  28
BRANCH  24  30
ATOM     30  C   UNL     1      43.975  25.111   9.302  1.00  0.00     0.191 C 
BRANCH  30  31
ATOM     31  O   UNL     1      45.040  24.263   8.959  1.00  0.00    -0.394 OA
ATOM     32  H   UNL     1      45.631  24.210   9.756  1.00  0.00     0.210 HD
ENDBRANCH  30  31
ENDBRANCH  24  30
BRANCH  25  33
ATOM     33  O   UNL     1      45.060  26.622   7.207  1.00  0.00    -0.388 OA
ATOM     34  H   UNL     1      45.010  25.663   7.462  1.00  0.00     0.211 HD
ENDBRANCH  25  33
ENDBRANCH  11  20
BRANCH  10  35
ATOM     35  O   UNL     1      45.076  29.749  12.978  1.00  0.00    -0.507 OA
ATOM     36  H   UNL     1      45.572  30.606  13.181  1.00  0.00     0.293 HD
ENDBRANCH  10  35
TORSDOF 9
ENDMDL
MODEL 4
REMARK VINA RESULT:    -1.393      2.290      4.292
REMARK INTER + INTRA:          -1.647
REMARK INTER:                  -1.966
REMARK INTRA:                   0.318
REMARK UNBOUND:                 0.234
REMARK SMILES O=c1c(-c2ccc(O)cc2)coc2c([C@H]3O[C@@H](CO)[C@@H](O)[C@H](O)[C@H]3O)c(O)ccc12
REMARK SMILES IDX 3 1 11 2 12 3 13 4 30 5 2 6 1 7 29 8 28 9 26 10 14 11 4 12
REMARK SMILES IDX 5 13 6 14 7 15 10 16 9 17 8 18 15 20 24 21 16 22 22 23 17 24
REMARK SMILES IDX 20 25 25 26 23 28 18 30 19 31 21 33 27 35
REMARK H PARENT 8 19 25 27 23 29 19 32 21 34 27 36
REMARK Flexibility Score: inf
ROOT
ATOM      1  C   UNL     1      37.346  29.561  11.588  1.00  0.00     0.065 A 
ATOM      2  C   UNL     1      38.222  29.984  10.580  1.00  0.00     0.208 A 
ATOM      3  O   UNL     1      39.535  29.848  10.717  1.00  0.00    -0.463 OA
ATOM      4  C   UNL     1      40.109  29.313  11.793  1.00  0.00     0.147 A 
ATOM      5  C   UNL     1      39.297  28.873  12.865  1.00  0.00     0.066 A 
ATOM      6  C   UNL     1      37.900  29.003  12.754  1.00  0.00     0.200 A 
ATOM      7  O   UNL     1      37.149  28.644  13.703  1.00  0.00    -0.288 OA
ATOM      8  C   UNL     1      39.895  28.333  14.011  1.00  0.00     0.020 A 
ATOM      9  C   UNL     1      41.279  28.251  14.106  1.00  0.00     0.047 A 
ATOM     10  C   UNL     1      42.099  28.692  13.066  1.00  0.00     0.125 A 
ATOM     11  C   UNL     1      41.523  29.194  11.867  1.00  0.00     0.069 A 
ENDROOT
BRANCH   1  12
ATOM     12  C   UNL     1      35.881  29.715  11.408  1.00  0.00    -0.011 A 
ATOM     13  C   UNL     1      35.346  29.969  10.133  1.00  0.00     0.013 A 
ATOM     14  C   UNL     1      33.965  30.107   9.959  1.00  0.00     0.047 A 
ATOM     15  C   UNL     1      33.103  29.986  11.052  1.00  0.00     0.115 A 
ATOM     16  C   UNL     1      35.006  29.587  12.502  1.00  0.00     0.013 A 
ATOM     17  C   UNL     1      33.627  29.724  12.325  1.00  0.00     0.047 A 
BRANCH  15  18
ATOM     18  O   UNL     1      31.729  30.125  10.863  1.00  0.00    -0.508 OA
ATOM     19  H   UNL     1      31.310  31.029  10.681  1.00  0.00     0.293 HD
ENDBRANCH  15  18
ENDBRANCH   1  12
BRANCH  11  20
ATOM     20  C   UNL     1      42.411  29.645  10.705  1.00  0.00     0.188 C 
ATOM     21  C   UNL     1      41.970  29.011   9.352  1.00  0.00     0.179 C 
ATOM     22  O   UNL     1      43.775  29.346  10.957  1.00  0.00    -0.362 OA
ATOM     23  C   UNL     1      43.154  28.951   8.351  1.00  0.00     0.177 C 
ATOM     24  C   UNL     1      44.645  30.079  10.099  1.00  0.00     0.176 C 
ATOM     25  C   UNL     1      44.143  30.108   8.613  1.00  0.00     0.177 C 
BRANCH  21  26
ATOM     26  O   UNL     1      41.408  27.731   9.517  1.00  0.00    -0.387 OA
ATOM     27  H   UNL     1      41.663  27.187   8.727  1.00  0.00     0.211 HD
ENDBRANCH  21  26
BRANCH  23  28
ATOM     28  O   UNL     1      42.690  28.963   7.023  1.00  0.00    -0.387 OA
ATOM     29  H   UNL     1      42.162  28.134   6.880  1.00  0.00     0.211 HD
ENDBRANCH  23  28
BRANCH  24  30
ATOM     30  C   UNL     1      46.053  29.478  10.261  1.00  0.00     0.191 C 
BRANCH  30  31
ATOM     31  O   UNL     1      46.125  28.190   9.707  1.00  0.00    -0.394 OA
ATOM     32  H   UNL     1      46.838  28.217   9.016  1.00  0.00     0.210 HD
ENDBRANCH  30  31
ENDBRANCH  24  30
BRANCH  25  33
ATOM     33  O   UNL     1      45.193  30.124   7.674  1.00  0.00    -0.388 OA
ATOM     34  H   UNL     1      46.017  30.432   8.134  1.00  0.00     0.211 HD
ENDBRANCH  25  33
ENDBRANCH  11  20
BRANCH  10  35
ATOM     35  O   UNL     1      43.480  28.621  13.272  1.00  0.00    -0.507 OA
ATOM     36  H   UNL     1      44.127  29.372  13.075  1.00  0.00     0.293 HD
ENDBRANCH  10  35
TORSDOF 9
ENDMDL
