MODEL 1
REMARK VINA RESULT:    -5.937      0.000      0.000
REMARK INTER + INTRA:          -7.534
REMARK INTER:                  -7.151
REMARK INTRA:                  -0.382
REMARK UNBOUND:                -0.382
REMARK SMILES O=c1c(O)c(-c2ccc(O)cc2O)oc2cc(O)cc(O)c12
REMARK SMILES IDX 5 1 3 2 2 3 1 4 22 5 20 6 19 7 17 8 16 9 15 10 14 11 6 12
REMARK SMILES IDX 8 13 7 14 9 15 11 16 12 17 10 18 13 20 4 22 21 24 18 26
REMARK H PARENT 10 19 13 21 4 23 21 25 18 27
REMARK Flexibility Score: inf
ROOT
ATOM      1  C   UNL     1       5.881 -17.135  14.273  1.00  0.00     0.184 A 
ATOM      2  C   UNL     1       6.737 -16.022  14.329  1.00  0.00     0.208 A 
ATOM      3  C   UNL     1       6.188 -14.753  14.577  1.00  0.00     0.238 A 
ATOM      4  O   UNL     1       6.950 -13.752  14.554  1.00  0.00    -0.285 OA
ATOM      5  C   UNL     1       4.799 -14.621  14.816  1.00  0.00     0.111 A 
ATOM      6  C   UNL     1       4.141 -13.391  15.123  1.00  0.00     0.134 A 
ATOM      7  C   UNL     1       2.746 -13.363  15.234  1.00  0.00     0.093 A 
ATOM      8  C   UNL     1       1.990 -14.531  15.113  1.00  0.00     0.123 A 
ATOM      9  C   UNL     1       2.626 -15.746  14.870  1.00  0.00     0.094 A 
ATOM     10  C   UNL     1       4.014 -15.799  14.716  1.00  0.00     0.146 A 
ATOM     11  O   UNL     1       4.578 -16.975  14.465  1.00  0.00    -0.451 OA
ENDROOT
BRANCH   1  12
ATOM     12  C   UNL     1       6.391 -18.500  14.002  1.00  0.00     0.063 A 
ATOM     13  C   UNL     1       7.506 -20.082  12.526  1.00  0.00     0.047 A 
ATOM     14  C   UNL     1       7.049 -18.788  12.794  1.00  0.00     0.020 A 
ATOM     15  C   UNL     1       7.300 -21.106  13.454  1.00  0.00     0.119 A 
ATOM     16  C   UNL     1       6.632 -20.833  14.654  1.00  0.00     0.093 A 
ATOM     17  C   UNL     1       6.173 -19.536  14.932  1.00  0.00     0.130 A 
BRANCH  15  18
ATOM     18  O   UNL     1       7.759 -22.390  13.172  1.00  0.00    -0.508 OA
ATOM     19  H   UNL     1       8.633 -22.736  13.553  1.00  0.00     0.293 HD
ENDBRANCH  15  18
BRANCH  17  20
ATOM     20  O   UNL     1       5.514 -19.276  16.133  1.00  0.00    -0.507 OA
ATOM     21  H   UNL     1       5.952 -18.743  16.875  1.00  0.00     0.293 HD
ENDBRANCH  17  20
ENDBRANCH   1  12
BRANCH   2  22
ATOM     22  O   UNL     1       8.114 -16.186  14.156  1.00  0.00    -0.502 OA
ATOM     23  H   UNL     1       8.597 -17.036  14.420  1.00  0.00     0.293 HD
ENDBRANCH   2  22
BRANCH   6  24
ATOM     24  O   UNL     1       4.807 -12.182  15.351  1.00  0.00    -0.507 OA
ATOM     25  H   UNL     1       5.617 -11.865  14.841  1.00  0.00     0.293 HD
ENDBRANCH   6  24
BRANCH   8  26
ATOM     26  O   UNL     1       0.603 -14.497  15.242  1.00  0.00    -0.508 OA
ATOM     27  H   UNL     1      -0.001 -14.365  14.439  1.00  0.00     0.293 HD
ENDBRANCH   8  26
TORSDOF 6
ENDMDL
MODEL 2
REMARK VINA RESULT:    -5.432      3.533      6.022
REMARK INTER + INTRA:          -6.926
REMARK INTER:                  -6.522
REMARK INTRA:                  -0.404
REMARK UNBOUND:                -0.382
REMARK SMILES O=c1c(O)c(-c2ccc(O)cc2O)oc2cc(O)cc(O)c12
REMARK SMILES IDX 5 1 3 2 2 3 1 4 22 5 20 6 19 7 17 8 16 9 15 10 14 11 6 12
REMARK SMILES IDX 8 13 7 14 9 15 11 16 12 17 10 18 13 20 4 22 21 24 18 26
REMARK H PARENT 10 19 13 21 4 23 21 25 18 27
REMARK Flexibility Score: inf
ROOT
ATOM      1  C   UNL     1       5.259 -12.468  14.513  1.00  0.00     0.184 A 
ATOM      2  C   UNL     1       4.887 -11.569  15.526  1.00  0.00     0.208 A 
ATOM      3  C   UNL     1       5.232 -10.214  15.394  1.00  0.00     0.238 A 
ATOM      4  O   UNL     1       4.959  -9.428  16.338  1.00  0.00    -0.285 OA
ATOM      5  C   UNL     1       5.898  -9.767  14.228  1.00  0.00     0.111 A 
ATOM      6  C   UNL     1       6.256  -8.409  13.967  1.00  0.00     0.134 A 
ATOM      7  C   UNL     1       7.009  -8.101  12.828  1.00  0.00     0.093 A 
ATOM      8  C   UNL     1       7.363  -9.089  11.907  1.00  0.00     0.123 A 
ATOM      9  C   UNL     1       6.971 -10.408  12.124  1.00  0.00     0.094 A 
ATOM     10  C   UNL     1       6.251 -10.754  13.270  1.00  0.00     0.146 A 
ATOM     11  O   UNL     1       5.915 -12.026  13.447  1.00  0.00    -0.451 OA
ENDROOT
BRANCH   1  12
ATOM     12  C   UNL     1       4.939 -13.913  14.593  1.00  0.00     0.063 A 
ATOM     13  C   UNL     1       3.301 -15.712  14.658  1.00  0.00     0.047 A 
ATOM     14  C   UNL     1       3.604 -14.351  14.555  1.00  0.00     0.020 A 
ATOM     15  C   UNL     1       4.324 -16.649  14.815  1.00  0.00     0.119 A 
ATOM     16  C   UNL     1       5.656 -16.223  14.870  1.00  0.00     0.093 A 
ATOM     17  C   UNL     1       5.969 -14.859  14.763  1.00  0.00     0.130 A 
BRANCH  15  18
ATOM     18  O   UNL     1       4.006 -18.001  14.918  1.00  0.00    -0.508 OA
ATOM     19  H   UNL     1       4.166 -18.644  14.150  1.00  0.00     0.293 HD
ENDBRANCH  15  18
BRANCH  17  20
ATOM     20  O   UNL     1       7.301 -14.448  14.814  1.00  0.00    -0.507 OA
ATOM     21  H   UNL     1       7.553 -13.468  14.864  1.00  0.00     0.293 HD
ENDBRANCH  17  20
ENDBRANCH   1  12
BRANCH   2  22
ATOM     22  O   UNL     1       4.171 -12.021  16.637  1.00  0.00    -0.502 OA
ATOM     23  H   UNL     1       3.229 -11.709  16.841  1.00  0.00     0.293 HD
ENDBRANCH   2  22
BRANCH   6  24
ATOM     24  O   UNL     1       5.879  -7.331  14.774  1.00  0.00    -0.507 OA
ATOM     25  H   UNL     1       6.514  -6.648  15.157  1.00  0.00     0.293 HD
ENDBRANCH   6  24
BRANCH   8  26
ATOM     26  O   UNL     1       8.098  -8.770  10.768  1.00  0.00    -0.508 OA
ATOM     27  H   UNL     1       8.596  -9.479  10.243  1.00  0.00     0.293 HD
ENDBRANCH   8  26
TORSDOF 6
ENDMDL
MODEL 3
REMARK VINA RESULT:    -5.427      1.682      2.151
REMARK INTER + INTRA:          -6.919
REMARK INTER:                  -6.499
REMARK INTRA:                  -0.421
REMARK UNBOUND:                -0.382
REMARK SMILES O=c1c(O)c(-c2ccc(O)cc2O)oc2cc(O)cc(O)c12
REMARK SMILES IDX 5 1 3 2 2 3 1 4 22 5 20 6 19 7 17 8 16 9 15 10 14 11 6 12
REMARK SMILES IDX 8 13 7 14 9 15 11 16 12 17 10 18 13 20 4 22 21 24 18 26
REMARK H PARENT 10 19 13 21 4 23 21 25 18 27
REMARK Flexibility Score: inf
ROOT
ATOM      1  C   UNL     1       5.763 -17.629  15.090  1.00  0.00     0.184 A 
ATOM      2  C   UNL     1       6.380 -17.080  16.226  1.00  0.00     0.208 A 
ATOM      3  C   UNL     1       5.768 -15.996  16.877  1.00  0.00     0.238 A 
ATOM      4  O   UNL     1       6.362 -15.463  17.850  1.00  0.00    -0.285 OA
ATOM      5  C   UNL     1       4.522 -15.509  16.414  1.00  0.00     0.111 A 
ATOM      6  C   UNL     1       3.789 -14.446  17.023  1.00  0.00     0.134 A 
ATOM      7  C   UNL     1       2.619 -13.977  16.414  1.00  0.00     0.093 A 
ATOM      8  C   UNL     1       2.120 -14.574  15.254  1.00  0.00     0.123 A 
ATOM      9  C   UNL     1       2.798 -15.648  14.683  1.00  0.00     0.094 A 
ATOM     10  C   UNL     1       3.989 -16.114  15.246  1.00  0.00     0.146 A 
ATOM     11  O   UNL     1       4.613 -17.128  14.657  1.00  0.00    -0.451 OA
ENDROOT
BRANCH   1  12
ATOM     12  C   UNL     1       6.360 -18.764  14.348  1.00  0.00     0.063 A 
ATOM     13  C   UNL     1       6.745 -21.155  14.099  1.00  0.00     0.047 A 
ATOM     14  C   UNL     1       6.160 -20.086  14.783  1.00  0.00     0.020 A 
ATOM     15  C   UNL     1       7.548 -20.918  12.981  1.00  0.00     0.119 A 
ATOM     16  C   UNL     1       7.766 -19.605  12.547  1.00  0.00     0.093 A 
ATOM     17  C   UNL     1       7.179 -18.526  13.226  1.00  0.00     0.130 A 
BRANCH  15  18
ATOM     18  O   UNL     1       8.125 -21.993  12.310  1.00  0.00    -0.508 OA
ATOM     19  H   UNL     1       7.599 -22.836  12.109  1.00  0.00     0.293 HD
ENDBRANCH  15  18
BRANCH  17  20
ATOM     20  O   UNL     1       7.400 -17.223  12.780  1.00  0.00    -0.507 OA
ATOM     21  H   UNL     1       8.330 -16.885  12.565  1.00  0.00     0.293 HD
ENDBRANCH  17  20
ENDBRANCH   1  12
BRANCH   2  22
ATOM     22  O   UNL     1       7.577 -17.620  16.705  1.00  0.00    -0.502 OA
ATOM     23  H   UNL     1       8.431 -17.617  16.161  1.00  0.00     0.293 HD
ENDBRANCH   2  22
BRANCH   6  24
ATOM     24  O   UNL     1       4.149 -13.836  18.229  1.00  0.00    -0.507 OA
ATOM     25  H   UNL     1       3.954 -14.211  19.145  1.00  0.00     0.293 HD
ENDBRANCH   6  24
BRANCH   8  26
ATOM     26  O   UNL     1       0.946 -14.112  14.664  1.00  0.00    -0.508 OA
ATOM     27  H   UNL     1       0.230 -14.750  14.338  1.00  0.00     0.293 HD
ENDBRANCH   8  26
TORSDOF 6
ENDMDL
MODEL 4
REMARK VINA RESULT:    -5.332      3.344      7.346
REMARK INTER + INTRA:          -6.805
REMARK INTER:                  -6.407
REMARK INTRA:                  -0.398
REMARK UNBOUND:                -0.382
REMARK SMILES O=c1c(O)c(-c2ccc(O)cc2O)oc2cc(O)cc(O)c12
REMARK SMILES IDX 5 1 3 2 2 3 1 4 22 5 20 6 19 7 17 8 16 9 15 10 14 11 6 12
REMARK SMILES IDX 8 13 7 14 9 15 11 16 12 17 10 18 13 20 4 22 21 24 18 26
REMARK H PARENT 10 19 13 21 4 23 21 25 18 27
REMARK Flexibility Score: inf
ROOT
ATOM      1  C   UNL     1       5.805 -11.835  14.602  1.00  0.00     0.184 A 
ATOM      2  C   UNL     1       6.729 -12.839  14.938  1.00  0.00     0.208 A 
ATOM      3  C   UNL     1       6.255 -14.120  15.261  1.00  0.00     0.238 A 
ATOM      4  O   UNL     1       7.083 -14.994  15.630  1.00  0.00    -0.285 OA
ATOM      5  C   UNL     1       4.868 -14.396  15.195  1.00  0.00     0.111 A 
ATOM      6  C   UNL     1       4.280 -15.671  15.457  1.00  0.00     0.134 A 
ATOM      7  C   UNL     1       2.886 -15.799  15.467  1.00  0.00     0.093 A 
ATOM      8  C   UNL     1       2.060 -14.715  15.162  1.00  0.00     0.123 A 
ATOM      9  C   UNL     1       2.625 -13.481  14.850  1.00  0.00     0.094 A 
ATOM     10  C   UNL     1       4.012 -13.312  14.869  1.00  0.00     0.146 A 
ATOM     11  O   UNL     1       4.507 -12.113  14.585  1.00  0.00    -0.451 OA
ENDROOT
BRANCH   1  12
ATOM     12  C   UNL     1       6.234 -10.458  14.264  1.00  0.00     0.063 A 
ATOM     13  C   UNL     1       6.615  -8.145  14.920  1.00  0.00     0.047 A 
ATOM     14  C   UNL     1       6.236  -9.451  15.245  1.00  0.00     0.020 A 
ATOM     15  C   UNL     1       6.984  -7.826  13.611  1.00  0.00     0.119 A 
ATOM     16  C   UNL     1       6.971  -8.817  12.623  1.00  0.00     0.093 A 
ATOM     17  C   UNL     1       6.595 -10.131  12.942  1.00  0.00     0.130 A 
BRANCH  15  18
ATOM     18  O   UNL     1       7.358  -6.520  13.303  1.00  0.00    -0.508 OA
ATOM     19  H   UNL     1       6.675  -5.773  13.244  1.00  0.00     0.293 HD
ENDBRANCH  15  18
BRANCH  17  20
ATOM     20  O   UNL     1       6.592 -11.112  11.949  1.00  0.00    -0.507 OA
ATOM     21  H   UNL     1       7.315 -11.154  11.242  1.00  0.00     0.293 HD
ENDBRANCH  17  20
ENDBRANCH   1  12
BRANCH   2  22
ATOM     22  O   UNL     1       8.099 -12.562  14.931  1.00  0.00    -0.502 OA
ATOM     23  H   UNL     1       8.586 -12.249  14.099  1.00  0.00     0.293 HD
ENDBRANCH   2  22
BRANCH   6  24
ATOM     24  O   UNL     1       5.013 -16.839  15.688  1.00  0.00    -0.507 OA
ATOM     25  H   UNL     1       4.645 -17.678  16.110  1.00  0.00     0.293 HD
ENDBRANCH   6  24
BRANCH   8  26
ATOM     26  O   UNL     1       0.674 -14.856  15.157  1.00  0.00    -0.508 OA
ATOM     27  H   UNL     1       0.123 -14.696  15.992  1.00  0.00     0.293 HD
ENDBRANCH   8  26
TORSDOF 6
ENDMDL
MODEL 5
REMARK VINA RESULT:    -5.308      1.750      1.981
REMARK INTER + INTRA:          -6.777
REMARK INTER:                  -6.371
REMARK INTRA:                  -0.406
REMARK UNBOUND:                -0.382
REMARK SMILES O=c1c(O)c(-c2ccc(O)cc2O)oc2cc(O)cc(O)c12
REMARK SMILES IDX 5 1 3 2 2 3 1 4 22 5 20 6 19 7 17 8 16 9 15 10 14 11 6 12
REMARK SMILES IDX 8 13 7 14 9 15 11 16 12 17 10 18 13 20 4 22 21 24 18 26
REMARK H PARENT 10 19 13 21 4 23 21 25 18 27
REMARK Flexibility Score: inf
ROOT
ATOM      1  C   UNL     1       5.813 -16.459  15.301  1.00  0.00     0.184 A 
ATOM      2  C   UNL     1       6.402 -15.430  14.547  1.00  0.00     0.208 A 
ATOM      3  C   UNL     1       5.938 -14.115  14.711  1.00  0.00     0.238 A 
ATOM      4  O   UNL     1       6.421 -13.210  13.982  1.00  0.00    -0.285 OA
ATOM      5  C   UNL     1       4.927 -13.837  15.663  1.00  0.00     0.111 A 
ATOM      6  C   UNL     1       4.413 -12.536  15.946  1.00  0.00     0.134 A 
ATOM      7  C   UNL     1       3.337 -12.396  16.831  1.00  0.00     0.093 A 
ATOM      8  C   UNL     1       2.799 -13.501  17.492  1.00  0.00     0.123 A 
ATOM      9  C   UNL     1       3.330 -14.769  17.266  1.00  0.00     0.094 A 
ATOM     10  C   UNL     1       4.378 -14.946  16.360  1.00  0.00     0.146 A 
ATOM     11  O   UNL     1       4.841 -16.174  16.159  1.00  0.00    -0.451 OA
ENDROOT
BRANCH   1  12
ATOM     12  C   UNL     1       6.243 -17.870  15.168  1.00  0.00     0.063 A 
ATOM     13  C   UNL     1       7.712 -19.699  15.819  1.00  0.00     0.047 A 
ATOM     14  C   UNL     1       7.287 -18.376  15.963  1.00  0.00     0.020 A 
ATOM     15  C   UNL     1       7.110 -20.531  14.872  1.00  0.00     0.119 A 
ATOM     16  C   UNL     1       6.080 -20.035  14.065  1.00  0.00     0.093 A 
ATOM     17  C   UNL     1       5.646 -18.708  14.205  1.00  0.00     0.130 A 
BRANCH  15  18
ATOM     18  O   UNL     1       7.546 -21.847  14.739  1.00  0.00    -0.508 OA
ATOM     19  H   UNL     1       7.021 -22.621  15.131  1.00  0.00     0.293 HD
ENDBRANCH  15  18
BRANCH  17  20
ATOM     20  O   UNL     1       4.614 -18.227  13.398  1.00  0.00    -0.507 OA
ATOM     21  H   UNL     1       4.789 -17.876  12.464  1.00  0.00     0.293 HD
ENDBRANCH  17  20
ENDBRANCH   1  12
BRANCH   2  22
ATOM     22  O   UNL     1       7.445 -15.717  13.662  1.00  0.00    -0.502 OA
ATOM     23  H   UNL     1       8.185 -16.371  13.888  1.00  0.00     0.293 HD
ENDBRANCH   2  22
BRANCH   6  24
ATOM     24  O   UNL     1       4.934 -11.354  15.408  1.00  0.00    -0.507 OA
ATOM     25  H   UNL     1       4.386 -10.548  15.148  1.00  0.00     0.293 HD
ENDBRANCH   6  24
BRANCH   8  26
ATOM     26  O   UNL     1       1.740 -13.350  18.385  1.00  0.00    -0.508 OA
ATOM     27  H   UNL     1       1.735 -12.615  19.081  1.00  0.00     0.293 HD
ENDBRANCH   8  26
TORSDOF 6
ENDMDL
MODEL 6
REMARK VINA RESULT:    -5.211      3.264      5.232
REMARK INTER + INTRA:          -6.659
REMARK INTER:                  -6.187
REMARK INTRA:                  -0.473
REMARK UNBOUND:                -0.382
REMARK SMILES O=c1c(O)c(-c2ccc(O)cc2O)oc2cc(O)cc(O)c12
REMARK SMILES IDX 5 1 3 2 2 3 1 4 22 5 20 6 19 7 17 8 16 9 15 10 14 11 6 12
REMARK SMILES IDX 8 13 7 14 9 15 11 16 12 17 10 18 13 20 4 22 21 24 18 26
REMARK H PARENT 10 19 13 21 4 23 21 25 18 27
REMARK Flexibility Score: inf
ROOT
ATOM      1  C   UNL     1       4.133 -14.014  15.917  1.00  0.00     0.184 A 
ATOM      2  C   UNL     1       3.133 -13.099  16.285  1.00  0.00     0.208 A 
ATOM      3  C   UNL     1       3.197 -11.785  15.792  1.00  0.00     0.238 A 
ATOM      4  O   UNL     1       2.339 -10.952  16.182  1.00  0.00    -0.285 OA
ATOM      5  C   UNL     1       4.232 -11.418  14.897  1.00  0.00     0.111 A 
ATOM      6  C   UNL     1       4.370 -10.129  14.300  1.00  0.00     0.134 A 
ATOM      7  C   UNL     1       5.494  -9.848  13.515  1.00  0.00     0.093 A 
ATOM      8  C   UNL     1       6.453 -10.829  13.252  1.00  0.00     0.123 A 
ATOM      9  C   UNL     1       6.300 -12.107  13.784  1.00  0.00     0.094 A 
ATOM     10  C   UNL     1       5.208 -12.406  14.603  1.00  0.00     0.146 A 
ATOM     11  O   UNL     1       5.111 -13.631  15.106  1.00  0.00    -0.451 OA
ENDROOT
BRANCH   1  12
ATOM     12  C   UNL     1       4.134 -15.411  16.410  1.00  0.00     0.063 A 
ATOM     13  C   UNL     1       4.520 -17.017  18.198  1.00  0.00     0.047 A 
ATOM     14  C   UNL     1       4.492 -15.698  17.739  1.00  0.00     0.020 A 
ATOM     15  C   UNL     1       4.203 -18.068  17.334  1.00  0.00     0.119 A 
ATOM     16  C   UNL     1       3.859 -17.796  16.005  1.00  0.00     0.093 A 
ATOM     17  C   UNL     1       3.826 -16.473  15.537  1.00  0.00     0.130 A 
BRANCH  15  18
ATOM     18  O   UNL     1       4.237 -19.378  17.806  1.00  0.00    -0.508 OA
ATOM     19  H   UNL     1       4.991 -20.010  17.563  1.00  0.00     0.293 HD
ENDBRANCH  15  18
BRANCH  17  20
ATOM     20  O   UNL     1       3.477 -16.215  14.212  1.00  0.00    -0.507 OA
ATOM     21  H   UNL     1       3.676 -15.324  13.773  1.00  0.00     0.293 HD
ENDBRANCH  17  20
ENDBRANCH   1  12
BRANCH   2  22
ATOM     22  O   UNL     1       2.084 -13.502  17.115  1.00  0.00    -0.502 OA
ATOM     23  H   UNL     1       1.692 -14.435  17.081  1.00  0.00     0.293 HD
ENDBRANCH   2  22
BRANCH   6  24
ATOM     24  O   UNL     1       3.427  -9.103  14.424  1.00  0.00    -0.507 OA
ATOM     25  H   UNL     1       3.121  -8.506  13.671  1.00  0.00     0.293 HD
ENDBRANCH   6  24
BRANCH   8  26
ATOM     26  O   UNL     1       7.561 -10.545  12.455  1.00  0.00    -0.508 OA
ATOM     27  H   UNL     1       7.988  -9.627  12.450  1.00  0.00     0.293 HD
ENDBRANCH   8  26
TORSDOF 6
ENDMDL
MODEL 7
REMARK VINA RESULT:    -5.203      1.965      3.252
REMARK INTER + INTRA:          -6.650
REMARK INTER:                  -6.176
REMARK INTRA:                  -0.474
REMARK UNBOUND:                -0.382
REMARK SMILES O=c1c(O)c(-c2ccc(O)cc2O)oc2cc(O)cc(O)c12
REMARK SMILES IDX 5 1 3 2 2 3 1 4 22 5 20 6 19 7 17 8 16 9 15 10 14 11 6 12
REMARK SMILES IDX 8 13 7 14 9 15 11 16 12 17 10 18 13 20 4 22 21 24 18 26
REMARK H PARENT 10 19 13 21 4 23 21 25 18 27
REMARK Flexibility Score: inf
ROOT
ATOM      1  C   UNL     1       5.232 -16.060  15.529  1.00  0.00     0.184 A 
ATOM      2  C   UNL     1       4.348 -15.895  16.608  1.00  0.00     0.208 A 
ATOM      3  C   UNL     1       3.753 -14.640  16.815  1.00  0.00     0.238 A 
ATOM      4  O   UNL     1       3.019 -14.480  17.825  1.00  0.00    -0.285 OA
ATOM      5  C   UNL     1       4.010 -13.580  15.912  1.00  0.00     0.111 A 
ATOM      6  C   UNL     1       3.427 -12.280  15.998  1.00  0.00     0.134 A 
ATOM      7  C   UNL     1       3.839 -11.279  15.111  1.00  0.00     0.093 A 
ATOM      8  C   UNL     1       4.764 -11.547  14.100  1.00  0.00     0.123 A 
ATOM      9  C   UNL     1       5.297 -12.827  13.972  1.00  0.00     0.094 A 
ATOM     10  C   UNL     1       4.935 -13.838  14.866  1.00  0.00     0.146 A 
ATOM     11  O   UNL     1       5.483 -15.038  14.720  1.00  0.00    -0.451 OA
ENDROOT
BRANCH   1  12
ATOM     12  C   UNL     1       5.905 -17.353  15.260  1.00  0.00     0.063 A 
ATOM     13  C   UNL     1       7.665 -18.959  15.756  1.00  0.00     0.047 A 
ATOM     14  C   UNL     1       7.013 -17.753  16.027  1.00  0.00     0.020 A 
ATOM     15  C   UNL     1       7.228 -19.774  14.708  1.00  0.00     0.119 A 
ATOM     16  C   UNL     1       6.135 -19.378  13.929  1.00  0.00     0.093 A 
ATOM     17  C   UNL     1       5.473 -18.170  14.196  1.00  0.00     0.130 A 
BRANCH  15  18
ATOM     18  O   UNL     1       7.889 -20.972  14.450  1.00  0.00    -0.508 OA
ATOM     19  H   UNL     1       8.850 -21.121  14.737  1.00  0.00     0.293 HD
ENDBRANCH  15  18
BRANCH  17  20
ATOM     20  O   UNL     1       4.382 -17.790  13.415  1.00  0.00    -0.507 OA
ATOM     21  H   UNL     1       4.453 -17.053  12.724  1.00  0.00     0.293 HD
ENDBRANCH  17  20
ENDBRANCH   1  12
BRANCH   2  22
ATOM     22  O   UNL     1       4.057 -16.974  17.447  1.00  0.00    -0.502 OA
ATOM     23  H   UNL     1       3.409 -16.900  18.223  1.00  0.00     0.293 HD
ENDBRANCH   2  22
BRANCH   6  24
ATOM     24  O   UNL     1       2.429 -11.928  16.913  1.00  0.00    -0.507 OA
ATOM     25  H   UNL     1       1.448 -12.134  16.805  1.00  0.00     0.293 HD
ENDBRANCH   6  24
BRANCH   8  26
ATOM     26  O   UNL     1       5.155 -10.548  13.211  1.00  0.00    -0.508 OA
ATOM     27  H   UNL     1       4.481  -9.917  12.793  1.00  0.00     0.293 HD
ENDBRANCH   8  26
TORSDOF 6
ENDMDL
MODEL 8
REMARK VINA RESULT:    -5.162      2.605      7.772
REMARK INTER + INTRA:          -6.600
REMARK INTER:                  -6.165
REMARK INTRA:                  -0.435
REMARK UNBOUND:                -0.382
REMARK SMILES O=c1c(O)c(-c2ccc(O)cc2O)oc2cc(O)cc(O)c12
REMARK SMILES IDX 5 1 3 2 2 3 1 4 22 5 20 6 19 7 17 8 16 9 15 10 14 11 6 12
REMARK SMILES IDX 8 13 7 14 9 15 11 16 12 17 10 18 13 20 4 22 21 24 18 26
REMARK H PARENT 10 19 13 21 4 23 21 25 18 27
REMARK Flexibility Score: inf
ROOT
ATOM      1  C   UNL     1       4.779 -12.706  15.130  1.00  0.00     0.184 A 
ATOM      2  C   UNL     1       3.540 -13.319  15.377  1.00  0.00     0.208 A 
ATOM      3  C   UNL     1       3.440 -14.717  15.280  1.00  0.00     0.238 A 
ATOM      4  O   UNL     1       2.312 -15.253  15.433  1.00  0.00    -0.285 OA
ATOM      5  C   UNL     1       4.592 -15.487  14.987  1.00  0.00     0.111 A 
ATOM      6  C   UNL     1       4.617 -16.912  14.909  1.00  0.00     0.134 A 
ATOM      7  C   UNL     1       5.791 -17.560  14.504  1.00  0.00     0.093 A 
ATOM      8  C   UNL     1       6.957 -16.840  14.238  1.00  0.00     0.123 A 
ATOM      9  C   UNL     1       6.959 -15.453  14.366  1.00  0.00     0.094 A 
ATOM     10  C   UNL     1       5.793 -14.775  14.730  1.00  0.00     0.146 A 
ATOM     11  O   UNL     1       5.834 -13.451  14.820  1.00  0.00    -0.451 OA
ENDROOT
BRANCH   1  12
ATOM     12  C   UNL     1       4.953 -11.236  15.201  1.00  0.00     0.063 A 
ATOM     13  C   UNL     1       5.060  -9.185  16.507  1.00  0.00     0.047 A 
ATOM     14  C   UNL     1       4.924 -10.574  16.441  1.00  0.00     0.020 A 
ATOM     15  C   UNL     1       5.213  -8.438  15.337  1.00  0.00     0.119 A 
ATOM     16  C   UNL     1       5.228  -9.084  14.096  1.00  0.00     0.093 A 
ATOM     17  C   UNL     1       5.095 -10.480  14.021  1.00  0.00     0.130 A 
BRANCH  15  18
ATOM     18  O   UNL     1       5.346  -7.054  15.419  1.00  0.00    -0.508 OA
ATOM     19  H   UNL     1       4.547  -6.437  15.323  1.00  0.00     0.293 HD
ENDBRANCH  15  18
BRANCH  17  20
ATOM     20  O   UNL     1       5.117 -11.113  12.778  1.00  0.00    -0.507 OA
ATOM     21  H   UNL     1       5.925 -11.060  12.169  1.00  0.00     0.293 HD
ENDBRANCH  17  20
ENDBRANCH   1  12
BRANCH   2  22
ATOM     22  O   UNL     1       2.432 -12.545  15.732  1.00  0.00    -0.502 OA
ATOM     23  H   UNL     1       1.960 -11.937  15.073  1.00  0.00     0.293 HD
ENDBRANCH   2  22
BRANCH   6  24
ATOM     24  O   UNL     1       3.535 -17.734  15.238  1.00  0.00    -0.507 OA
ATOM     25  H   UNL     1       3.599 -18.721  15.434  1.00  0.00     0.293 HD
ENDBRANCH   6  24
BRANCH   8  26
ATOM     26  O   UNL     1       8.125 -17.495  13.853  1.00  0.00    -0.508 OA
ATOM     27  H   UNL     1       8.661 -18.051  14.509  1.00  0.00     0.293 HD
ENDBRANCH   8  26
TORSDOF 6
ENDMDL
MODEL 9
REMARK VINA RESULT:    -5.158      3.473      5.989
REMARK INTER + INTRA:          -6.595
REMARK INTER:                  -6.252
REMARK INTRA:                  -0.343
REMARK UNBOUND:                -0.382
REMARK SMILES O=c1c(O)c(-c2ccc(O)cc2O)oc2cc(O)cc(O)c12
REMARK SMILES IDX 5 1 3 2 2 3 1 4 22 5 20 6 19 7 17 8 16 9 15 10 14 11 6 12
REMARK SMILES IDX 8 13 7 14 9 15 11 16 12 17 10 18 13 20 4 22 21 24 18 26
REMARK H PARENT 10 19 13 21 4 23 21 25 18 27
REMARK Flexibility Score: inf
ROOT
ATOM      1  C   UNL     1       3.585 -12.075  15.383  1.00  0.00     0.184 A 
ATOM      2  C   UNL     1       4.250 -11.170  14.539  1.00  0.00     0.208 A 
ATOM      3  C   UNL     1       4.067  -9.792  14.738  1.00  0.00     0.238 A 
ATOM      4  O   UNL     1       4.608  -8.990  13.935  1.00  0.00    -0.285 OA
ATOM      5  C   UNL     1       3.262  -9.336  15.811  1.00  0.00     0.111 A 
ATOM      6  C   UNL     1       3.043  -7.963  16.135  1.00  0.00     0.134 A 
ATOM      7  C   UNL     1       2.141  -7.630  17.152  1.00  0.00     0.093 A 
ATOM      8  C   UNL     1       1.498  -8.619  17.899  1.00  0.00     0.123 A 
ATOM      9  C   UNL     1       1.748  -9.962  17.628  1.00  0.00     0.094 A 
ATOM     10  C   UNL     1       2.613 -10.327  16.594  1.00  0.00     0.146 A 
ATOM     11  O   UNL     1       2.807 -11.619  16.357  1.00  0.00    -0.451 OA
ENDROOT
BRANCH   1  12
ATOM     12  C   UNL     1       3.722 -13.542  15.220  1.00  0.00     0.063 A 
ATOM     13  C   UNL     1       5.119 -15.533  15.125  1.00  0.00     0.047 A 
ATOM     14  C   UNL     1       4.985 -14.154  15.305  1.00  0.00     0.020 A 
ATOM     15  C   UNL     1       3.997 -16.317  14.845  1.00  0.00     0.119 A 
ATOM     16  C   UNL     1       2.736 -15.716  14.743  1.00  0.00     0.093 A 
ATOM     17  C   UNL     1       2.593 -14.332  14.926  1.00  0.00     0.130 A 
BRANCH  15  18
ATOM     18  O   UNL     1       4.146 -17.690  14.666  1.00  0.00    -0.508 OA
ATOM     19  H   UNL     1       4.943 -18.190  15.043  1.00  0.00     0.293 HD
ENDBRANCH  15  18
BRANCH  17  20
ATOM     20  O   UNL     1       1.331 -13.747  14.828  1.00  0.00    -0.507 OA
ATOM     21  H   UNL     1       1.132 -13.022  14.148  1.00  0.00     0.293 HD
ENDBRANCH  17  20
ENDBRANCH   1  12
BRANCH   2  22
ATOM     22  O   UNL     1       5.092 -11.643  13.529  1.00  0.00    -0.502 OA
ATOM     23  H   UNL     1       4.753 -12.198  12.753  1.00  0.00     0.293 HD
ENDBRANCH   2  22
BRANCH   6  24
ATOM     24  O   UNL     1       3.699  -6.897  15.511  1.00  0.00    -0.507 OA
ATOM     25  H   UNL     1       3.476  -5.923  15.648  1.00  0.00     0.293 HD
ENDBRANCH   6  24
BRANCH   8  26
ATOM     26  O   UNL     1       0.615  -8.278  18.921  1.00  0.00    -0.508 OA
ATOM     27  H   UNL     1       0.087  -8.982  19.423  1.00  0.00     0.293 HD
ENDBRANCH   8  26
TORSDOF 6
ENDMDL
