MODEL 1
REMARK VINA RESULT:     9.722      0.000      0.000
REMARK INTER + INTRA:          20.999
REMARK INTER:                  22.226
REMARK INTRA:                  -1.227
REMARK UNBOUND:                -1.227
REMARK SMILES CCCCCCCCCCCCCCCCCCCCCCCC(=O)[O-]
REMARK SMILES IDX 13 1 14 2 15 3 16 4 17 5 18 6 19 7 20 8 21 9 22 10 23 11
REMARK SMILES IDX 24 12 25 13 26 14 12 15 11 16 10 17 9 18 8 19 7 20 6 21 5 22
REMARK SMILES IDX 4 23 3 24 2 25 1 26
REMARK H PARENT
REMARK Flexibility Score: inf
ROOT
ATOM      1  C   UNL     1       6.593  43.810  10.069  1.00  0.00     0.000 C 
ENDROOT
BRANCH   1   2
ATOM      2  C   UNL     1       5.807  45.122   9.875  1.00  0.00     0.000 C 
BRANCH   2   3
ATOM      3  C   UNL     1       4.286  44.979  10.098  1.00  0.00     0.000 C 
BRANCH   3   4
ATOM      4  C   UNL     1       3.901  45.002  11.588  1.00  0.00     0.000 C 
BRANCH   4   5
ATOM      5  C   UNL     1       3.529  43.610  12.130  1.00  0.00     0.000 C 
BRANCH   5   6
ATOM      6  C   UNL     1       2.756  42.717  11.142  1.00  0.00     0.000 C 
BRANCH   6   7
ATOM      7  C   UNL     1       1.268  43.088  11.037  1.00  0.00     0.000 C 
BRANCH   7   8
ATOM      8  C   UNL     1       0.863  44.043  12.170  1.00  0.00     0.000 C 
BRANCH   8   9
ATOM      9  C   UNL     1      -0.335  43.528  12.988  1.00  0.00     0.000 C 
BRANCH   9  10
ATOM     10  C   UNL     1      -0.674  44.362  14.239  1.00  0.00     0.006 C 
BRANCH  10  11
ATOM     11  C   UNL     1      -2.123  44.179  14.707  1.00  0.00     0.053 C 
BRANCH  11  12
ATOM     12  C   UNL     1      -2.459  42.725  14.817  1.00  0.00     0.041 C 
ATOM     13  O   UNL     1      -3.592  42.309  14.458  1.00  0.00    -0.550 OA
ATOM     14  O   UNL     1      -1.543  41.838  15.369  1.00  0.00    -0.550 OA
ENDBRANCH  11  12
ENDBRANCH  10  11
ENDBRANCH   9  10
ENDBRANCH   8   9
ENDBRANCH   7   8
ENDBRANCH   6   7
ENDBRANCH   5   6
ENDBRANCH   4   5
ENDBRANCH   3   4
ENDBRANCH   2   3
ENDBRANCH   1   2
BRANCH   1  15
ATOM     15  C   UNL     1       8.000  43.977  10.671  1.00  0.00     0.000 C 
BRANCH  15  16
ATOM     16  C   UNL     1       8.393  42.909  11.713  1.00  0.00     0.000 C 
BRANCH  16  17
ATOM     17  C   UNL     1       7.210  42.137  12.329  1.00  0.00     0.000 C 
BRANCH  17  18
ATOM     18  C   UNL     1       7.432  41.649  13.775  1.00  0.00    -0.000 C 
BRANCH  18  19
ATOM     19  C   UNL     1       6.274  41.933  14.750  1.00  0.00    -0.000 C 
BRANCH  19  20
ATOM     20  C   UNL     1       6.547  41.419  16.174  1.00  0.00    -0.000 C 
BRANCH  20  21
ATOM     21  C   UNL     1       5.297  40.824  16.846  1.00  0.00    -0.000 C 
BRANCH  21  22
ATOM     22  C   UNL     1       5.572  39.944  18.079  1.00  0.00    -0.000 C 
BRANCH  22  23
ATOM     23  C   UNL     1       4.537  40.147  19.200  1.00  0.00    -0.000 C 
BRANCH  23  24
ATOM     24  C   UNL     1       4.484  41.602  19.692  1.00  0.00    -0.000 C 
BRANCH  24  25
ATOM     25  C   UNL     1       3.254  41.878  20.570  1.00  0.00    -0.003 C 
ATOM     26  C   UNL     1       2.871  43.355  20.531  1.00  0.00     0.004 C 
ENDBRANCH  24  25
ENDBRANCH  23  24
ENDBRANCH  22  23
ENDBRANCH  21  22
ENDBRANCH  20  21
ENDBRANCH  19  20
ENDBRANCH  18  19
ENDBRANCH  17  18
ENDBRANCH  16  17
ENDBRANCH  15  16
ENDBRANCH   1  15
TORSDOF 22
ENDMDL
MODEL 2
REMARK VINA RESULT:    11.276      3.649      7.825
REMARK INTER + INTRA:          24.552
REMARK INTER:                  25.404
REMARK INTRA:                  -0.852
REMARK UNBOUND:                -1.227
REMARK SMILES CCCCCCCCCCCCCCCCCCCCCCCC(=O)[O-]
REMARK SMILES IDX 13 1 14 2 15 3 16 4 17 5 18 6 19 7 20 8 21 9 22 10 23 11
REMARK SMILES IDX 24 12 25 13 26 14 12 15 11 16 10 17 9 18 8 19 7 20 6 21 5 22
REMARK SMILES IDX 4 23 3 24 2 25 1 26
REMARK H PARENT
REMARK Flexibility Score: inf
ROOT
ATOM      1  C   UNL     1       2.151  42.759  10.969  1.00  0.00     0.000 C 
ENDROOT
BRANCH   1   2
ATOM      2  C   UNL     1       3.094  43.299   9.875  1.00  0.00     0.000 C 
BRANCH   2   3
ATOM      3  C   UNL     1       3.392  44.810   9.996  1.00  0.00     0.000 C 
BRANCH   3   4
ATOM      4  C   UNL     1       4.777  45.092  10.605  1.00  0.00     0.000 C 
BRANCH   4   5
ATOM      5  C   UNL     1       5.911  44.339   9.886  1.00  0.00     0.000 C 
BRANCH   5   6
ATOM      6  C   UNL     1       7.332  44.719  10.343  1.00  0.00     0.000 C 
BRANCH   6   7
ATOM      7  C   UNL     1       8.273  43.508  10.442  1.00  0.00     0.000 C 
BRANCH   7   8
ATOM      8  C   UNL     1       7.472  42.199  10.501  1.00  0.00     0.000 C 
BRANCH   8   9
ATOM      9  C   UNL     1       7.122  41.774  11.939  1.00  0.00     0.000 C 
BRANCH   9  10
ATOM     10  C   UNL     1       7.614  42.736  13.038  1.00  0.00     0.006 C 
BRANCH  10  11
ATOM     11  C   UNL     1       6.506  43.652  13.574  1.00  0.00     0.053 C 
BRANCH  11  12
ATOM     12  C   UNL     1       5.273  42.860  13.877  1.00  0.00     0.041 C 
ATOM     13  O   UNL     1       4.274  42.928  13.111  1.00  0.00    -0.550 OA
ATOM     14  O   UNL     1       5.204  42.091  15.032  1.00  0.00    -0.550 OA
ENDBRANCH  11  12
ENDBRANCH  10  11
ENDBRANCH   9  10
ENDBRANCH   8   9
ENDBRANCH   7   8
ENDBRANCH   6   7
ENDBRANCH   5   6
ENDBRANCH   4   5
ENDBRANCH   3   4
ENDBRANCH   2   3
ENDBRANCH   1   2
BRANCH   1  15
ATOM     15  C   UNL     1       1.299  43.827  11.679  1.00  0.00     0.000 C 
BRANCH  15  16
ATOM     16  C   UNL     1       1.707  44.122  13.137  1.00  0.00     0.000 C 
BRANCH  16  17
ATOM     17  C   UNL     1       0.786  45.107  13.882  1.00  0.00     0.000 C 
BRANCH  17  18
ATOM     18  C   UNL     1      -0.679  45.122  13.401  1.00  0.00    -0.000 C 
BRANCH  18  19
ATOM     19  C   UNL     1      -1.713  44.613  14.423  1.00  0.00    -0.000 C 
BRANCH  19  20
ATOM     20  C   UNL     1      -1.956  43.097  14.328  1.00  0.00    -0.000 C 
BRANCH  20  21
ATOM     21  C   UNL     1      -3.199  42.639  15.111  1.00  0.00    -0.000 C 
BRANCH  21  22
ATOM     22  C   UNL     1      -4.246  41.867  14.288  1.00  0.00    -0.000 C 
BRANCH  22  23
ATOM     23  C   UNL     1      -4.549  40.473  14.864  1.00  0.00    -0.000 C 
BRANCH  23  24
ATOM     24  C   UNL     1      -6.058  40.211  15.000  1.00  0.00    -0.000 C 
BRANCH  24  25
ATOM     25  C   UNL     1      -6.365  39.024  15.925  1.00  0.00    -0.003 C 
ATOM     26  C   UNL     1      -5.231  38.003  15.903  1.00  0.00     0.004 C 
ENDBRANCH  24  25
ENDBRANCH  23  24
ENDBRANCH  22  23
ENDBRANCH  21  22
ENDBRANCH  20  21
ENDBRANCH  19  20
ENDBRANCH  18  19
ENDBRANCH  17  18
ENDBRANCH  16  17
ENDBRANCH  15  16
ENDBRANCH   1  15
TORSDOF 22
ENDMDL
MODEL 3
REMARK VINA RESULT:    11.879      2.685      7.437
REMARK INTER + INTRA:          25.931
REMARK INTER:                  25.974
REMARK INTRA:                  -0.043
REMARK UNBOUND:                -1.227
REMARK SMILES CCCCCCCCCCCCCCCCCCCCCCCC(=O)[O-]
REMARK SMILES IDX 13 1 14 2 15 3 16 4 17 5 18 6 19 7 20 8 21 9 22 10 23 11
REMARK SMILES IDX 24 12 25 13 26 14 12 15 11 16 10 17 9 18 8 19 7 20 6 21 5 22
REMARK SMILES IDX 4 23 3 24 2 25 1 26
REMARK H PARENT
REMARK Flexibility Score: inf
ROOT
ATOM      1  C   UNL     1       6.850  42.495  14.056  1.00  0.00     0.000 C 
ENDROOT
BRANCH   1   2
ATOM      2  C   UNL     1       5.333  42.569  14.323  1.00  0.00     0.000 C 
BRANCH   2   3
ATOM      3  C   UNL     1       4.885  41.829  15.603  1.00  0.00     0.000 C 
BRANCH   3   4
ATOM      4  C   UNL     1       6.048  41.107  16.306  1.00  0.00     0.000 C 
BRANCH   4   5
ATOM      5  C   UNL     1       6.006  41.257  17.837  1.00  0.00     0.000 C 
BRANCH   5   6
ATOM      6  C   UNL     1       5.946  39.930  18.616  1.00  0.00     0.000 C 
BRANCH   6   7
ATOM      7  C   UNL     1       4.531  39.332  18.672  1.00  0.00     0.000 C 
BRANCH   7   8
ATOM      8  C   UNL     1       3.899  39.556  20.054  1.00  0.00     0.000 C 
BRANCH   8   9
ATOM      9  C   UNL     1       3.298  40.964  20.217  1.00  0.00     0.000 C 
BRANCH   9  10
ATOM     10  C   UNL     1       4.252  42.010  20.825  1.00  0.00     0.006 C 
BRANCH  10  11
ATOM     11  C   UNL     1       3.728  43.446  20.698  1.00  0.00     0.053 C 
BRANCH  11  12
ATOM     12  C   UNL     1       2.246  43.446  20.486  1.00  0.00     0.041 C 
ATOM     13  O   UNL     1       1.563  42.434  20.799  1.00  0.00    -0.550 OA
ATOM     14  O   UNL     1       1.626  44.537  19.890  1.00  0.00    -0.550 OA
ENDBRANCH  11  12
ENDBRANCH  10  11
ENDBRANCH   9  10
ENDBRANCH   8   9
ENDBRANCH   7   8
ENDBRANCH   6   7
ENDBRANCH   5   6
ENDBRANCH   4   5
ENDBRANCH   3   4
ENDBRANCH   2   3
ENDBRANCH   1   2
BRANCH   1  15
ATOM     15  C   UNL     1       7.249  42.479  12.570  1.00  0.00     0.000 C 
BRANCH  15  16
ATOM     16  C   UNL     1       8.664  43.014  12.269  1.00  0.00     0.000 C 
BRANCH  16  17
ATOM     17  C   UNL     1       8.828  43.678  10.889  1.00  0.00     0.000 C 
BRANCH  17  18
ATOM     18  C   UNL     1       7.536  43.767  10.051  1.00  0.00    -0.000 C 
BRANCH  18  19
ATOM     19  C   UNL     1       6.810  45.125  10.105  1.00  0.00    -0.000 C 
BRANCH  19  20
ATOM     20  C   UNL     1       5.549  45.097  10.985  1.00  0.00    -0.000 C 
BRANCH  20  21
ATOM     21  C   UNL     1       4.811  43.747  10.931  1.00  0.00    -0.000 C 
BRANCH  21  22
ATOM     22  C   UNL     1       3.521  43.738  10.092  1.00  0.00    -0.000 C 
BRANCH  22  23
ATOM     23  C   UNL     1       2.476  42.736  10.613  1.00  0.00    -0.000 C 
BRANCH  23  24
ATOM     24  C   UNL     1       1.105  42.913   9.938  1.00  0.00    -0.000 C 
BRANCH  24  25
ATOM     25  C   UNL     1      -0.059  42.591  10.886  1.00  0.00    -0.003 C 
ATOM     26  C   UNL     1      -0.534  41.152  10.704  1.00  0.00     0.004 C 
ENDBRANCH  24  25
ENDBRANCH  23  24
ENDBRANCH  22  23
ENDBRANCH  21  22
ENDBRANCH  20  21
ENDBRANCH  19  20
ENDBRANCH  18  19
ENDBRANCH  17  18
ENDBRANCH  16  17
ENDBRANCH  15  16
ENDBRANCH   1  15
TORSDOF 22
ENDMDL
MODEL 4
REMARK VINA RESULT:    12.131      3.634      8.468
REMARK INTER + INTRA:          26.507
REMARK INTER:                  24.939
REMARK INTRA:                   1.568
REMARK UNBOUND:                -1.227
REMARK SMILES CCCCCCCCCCCCCCCCCCCCCCCC(=O)[O-]
REMARK SMILES IDX 13 1 14 2 15 3 16 4 17 5 18 6 19 7 20 8 21 9 22 10 23 11
REMARK SMILES IDX 24 12 25 13 26 14 12 15 11 16 10 17 9 18 8 19 7 20 6 21 5 22
REMARK SMILES IDX 4 23 3 24 2 25 1 26
REMARK H PARENT
REMARK Flexibility Score: inf
ROOT
ATOM      1  C   UNL     1       5.335  41.098  16.523  1.00  0.00     0.000 C 
ENDROOT
BRANCH   1   2
ATOM      2  C   UNL     1       5.951  39.938  17.330  1.00  0.00     0.000 C 
BRANCH   2   3
ATOM      3  C   UNL     1       6.140  40.251  18.831  1.00  0.00     0.000 C 
BRANCH   3   4
ATOM      4  C   UNL     1       4.857  40.791  19.488  1.00  0.00     0.000 C 
BRANCH   4   5
ATOM      5  C   UNL     1       3.875  39.674  19.887  1.00  0.00     0.000 C 
BRANCH   5   6
ATOM      6  C   UNL     1       2.596  40.160  20.593  1.00  0.00     0.000 C 
BRANCH   6   7
ATOM      7  C   UNL     1       2.643  41.652  20.958  1.00  0.00     0.000 C 
BRANCH   7   8
ATOM      8  C   UNL     1       1.373  42.371  20.478  1.00  0.00     0.000 C 
BRANCH   8   9
ATOM      9  C   UNL     1       1.632  43.833  20.068  1.00  0.00     0.000 C 
BRANCH   9  10
ATOM     10  C   UNL     1       3.005  44.392  20.487  1.00  0.00     0.006 C 
BRANCH  10  11
ATOM     11  C   UNL     1       3.986  43.300  20.932  1.00  0.00     0.053 C 
BRANCH  11  12
ATOM     12  C   UNL     1       4.913  43.826  21.984  1.00  0.00     0.041 C 
ATOM     13  O   UNL     1       6.103  43.415  22.039  1.00  0.00    -0.550 OA
ATOM     14  O   UNL     1       4.449  44.724  22.936  1.00  0.00    -0.550 OA
ENDBRANCH  11  12
ENDBRANCH  10  11
ENDBRANCH   9  10
ENDBRANCH   8   9
ENDBRANCH   7   8
ENDBRANCH   6   7
ENDBRANCH   5   6
ENDBRANCH   4   5
ENDBRANCH   3   4
ENDBRANCH   2   3
ENDBRANCH   1   2
BRANCH   1  15
ATOM     15  C   UNL     1       6.190  41.597  15.344  1.00  0.00     0.000 C 
BRANCH  15  16
ATOM     16  C   UNL     1       5.467  42.552  14.373  1.00  0.00     0.000 C 
BRANCH  16  17
ATOM     17  C   UNL     1       6.397  43.405  13.488  1.00  0.00     0.000 C 
BRANCH  17  18
ATOM     18  C   UNL     1       6.940  42.692  12.234  1.00  0.00    -0.000 C 
BRANCH  18  19
ATOM     19  C   UNL     1       7.977  43.490  11.421  1.00  0.00    -0.000 C 
BRANCH  19  20
ATOM     20  C   UNL     1       7.336  44.386  10.347  1.00  0.00    -0.000 C 
BRANCH  20  21
ATOM     21  C   UNL     1       5.893  43.974  10.006  1.00  0.00    -0.000 C 
BRANCH  21  22
ATOM     22  C   UNL     1       4.795  44.861  10.619  1.00  0.00    -0.000 C 
BRANCH  22  23
ATOM     23  C   UNL     1       3.405  44.595  10.017  1.00  0.00    -0.000 C 
BRANCH  23  24
ATOM     24  C   UNL     1       2.515  43.751  10.944  1.00  0.00    -0.000 C 
BRANCH  24  25
ATOM     25  C   UNL     1       1.794  42.621  10.194  1.00  0.00    -0.003 C 
ATOM     26  C   UNL     1       0.330  42.529  10.615  1.00  0.00     0.004 C 
ENDBRANCH  24  25
ENDBRANCH  23  24
ENDBRANCH  22  23
ENDBRANCH  21  22
ENDBRANCH  20  21
ENDBRANCH  19  20
ENDBRANCH  18  19
ENDBRANCH  17  18
ENDBRANCH  16  17
ENDBRANCH  15  16
ENDBRANCH   1  15
TORSDOF 22
ENDMDL
MODEL 5
REMARK VINA RESULT:    12.554      2.426      6.209
REMARK INTER + INTRA:          27.474
REMARK INTER:                  28.606
REMARK INTRA:                  -1.132
REMARK UNBOUND:                -1.227
REMARK SMILES CCCCCCCCCCCCCCCCCCCCCCCC(=O)[O-]
REMARK SMILES IDX 13 1 14 2 15 3 16 4 17 5 18 6 19 7 20 8 21 9 22 10 23 11
REMARK SMILES IDX 24 12 25 13 26 14 12 15 11 16 10 17 9 18 8 19 7 20 6 21 5 22
REMARK SMILES IDX 4 23 3 24 2 25 1 26
REMARK H PARENT
REMARK Flexibility Score: inf
ROOT
ATOM      1  C   UNL     1       6.208  39.977  16.913  1.00  0.00     0.000 C 
ENDROOT
BRANCH   1   2
ATOM      2  C   UNL     1       6.326  41.359  16.242  1.00  0.00     0.000 C 
BRANCH   2   3
ATOM      3  C   UNL     1       6.934  41.317  14.822  1.00  0.00     0.000 C 
BRANCH   3   4
ATOM      4  C   UNL     1       6.511  42.520  13.962  1.00  0.00     0.000 C 
BRANCH   4   5
ATOM      5  C   UNL     1       7.274  42.597  12.626  1.00  0.00     0.000 C 
BRANCH   5   6
ATOM      6  C   UNL     1       7.431  44.017  12.052  1.00  0.00     0.000 C 
BRANCH   6   7
ATOM      7  C   UNL     1       7.510  44.037  10.517  1.00  0.00     0.000 C 
BRANCH   7   8
ATOM      8  C   UNL     1       6.105  43.975   9.897  1.00  0.00     0.000 C 
BRANCH   8   9
ATOM      9  C   UNL     1       5.042  44.689  10.752  1.00  0.00     0.000 C 
BRANCH   9  10
ATOM     10  C   UNL     1       3.916  43.780  11.281  1.00  0.00     0.006 C 
BRANCH  10  11
ATOM     11  C   UNL     1       2.751  43.632  10.295  1.00  0.00     0.053 C 
BRANCH  11  12
ATOM     12  C   UNL     1       1.498  43.248  11.018  1.00  0.00     0.041 C 
ATOM     13  O   UNL     1       0.684  42.444  10.491  1.00  0.00    -0.550 OA
ATOM     14  O   UNL     1       1.200  43.821  12.248  1.00  0.00    -0.550 OA
ENDBRANCH  11  12
ENDBRANCH  10  11
ENDBRANCH   9  10
ENDBRANCH   8   9
ENDBRANCH   7   8
ENDBRANCH   6   7
ENDBRANCH   5   6
ENDBRANCH   4   5
ENDBRANCH   3   4
ENDBRANCH   2   3
ENDBRANCH   1   2
BRANCH   1  15
ATOM     15  C   UNL     1       6.500  39.960  18.424  1.00  0.00     0.000 C 
BRANCH  15  16
ATOM     16  C   UNL     1       5.433  40.648  19.301  1.00  0.00     0.000 C 
BRANCH  16  17
ATOM     17  C   UNL     1       4.039  39.992  19.262  1.00  0.00     0.000 C 
BRANCH  17  18
ATOM     18  C   UNL     1       3.251  40.055  20.586  1.00  0.00    -0.000 C 
BRANCH  18  19
ATOM     19  C   UNL     1       3.153  41.452  21.227  1.00  0.00    -0.000 C 
BRANCH  19  20
ATOM     20  C   UNL     1       2.090  42.344  20.563  1.00  0.00    -0.000 C 
BRANCH  20  21
ATOM     21  C   UNL     1       2.639  43.721  20.147  1.00  0.00    -0.000 C 
BRANCH  21  22
ATOM     22  C   UNL     1       4.103  43.988  20.536  1.00  0.00    -0.000 C 
BRANCH  22  23
ATOM     23  C   UNL     1       4.278  44.296  22.034  1.00  0.00    -0.000 C 
BRANCH  23  24
ATOM     24  C   UNL     1       5.429  43.497  22.666  1.00  0.00    -0.000 C 
BRANCH  24  25
ATOM     25  C   UNL     1       5.704  43.917  24.118  1.00  0.00    -0.003 C 
ATOM     26  C   UNL     1       7.138  43.589  24.523  1.00  0.00     0.004 C 
ENDBRANCH  24  25
ENDBRANCH  23  24
ENDBRANCH  22  23
ENDBRANCH  21  22
ENDBRANCH  20  21
ENDBRANCH  19  20
ENDBRANCH  18  19
ENDBRANCH  17  18
ENDBRANCH  16  17
ENDBRANCH  15  16
ENDBRANCH   1  15
TORSDOF 22
ENDMDL
MODEL 6
REMARK VINA RESULT:    12.686      2.116      3.759
REMARK INTER + INTRA:          27.775
REMARK INTER:                  28.928
REMARK INTRA:                  -1.154
REMARK UNBOUND:                -1.227
REMARK SMILES CCCCCCCCCCCCCCCCCCCCCCCC(=O)[O-]
REMARK SMILES IDX 13 1 14 2 15 3 16 4 17 5 18 6 19 7 20 8 21 9 22 10 23 11
REMARK SMILES IDX 24 12 25 13 26 14 12 15 11 16 10 17 9 18 8 19 7 20 6 21 5 22
REMARK SMILES IDX 4 23 3 24 2 25 1 26
REMARK H PARENT
REMARK Flexibility Score: inf
ROOT
ATOM      1  C   UNL     1       7.694  42.152  12.876  1.00  0.00     0.000 C 
ENDROOT
BRANCH   1   2
ATOM      2  C   UNL     1       7.450  42.502  11.395  1.00  0.00     0.000 C 
BRANCH   2   3
ATOM      3  C   UNL     1       8.498  43.467  10.798  1.00  0.00     0.000 C 
BRANCH   3   4
ATOM      4  C   UNL     1       7.858  44.611   9.993  1.00  0.00     0.000 C 
BRANCH   4   5
ATOM      5  C   UNL     1       6.321  44.533   9.963  1.00  0.00     0.000 C 
BRANCH   5   6
ATOM      6  C   UNL     1       5.620  45.124  11.201  1.00  0.00     0.000 C 
BRANCH   6   7
ATOM      7  C   UNL     1       4.380  44.321  11.627  1.00  0.00     0.000 C 
BRANCH   7   8
ATOM      8  C   UNL     1       3.108  44.905  10.996  1.00  0.00     0.000 C 
BRANCH   8   9
ATOM      9  C   UNL     1       2.358  43.892  10.112  1.00  0.00     0.000 C 
BRANCH   9  10
ATOM     10  C   UNL     1       1.428  42.928  10.874  1.00  0.00     0.006 C 
BRANCH  10  11
ATOM     11  C   UNL     1       0.174  42.547  10.076  1.00  0.00     0.053 C 
BRANCH  11  12
ATOM     12  C   UNL     1      -0.560  41.434  10.756  1.00  0.00     0.041 C 
ATOM     13  O   UNL     1      -0.590  40.287  10.237  1.00  0.00    -0.550 OA
ATOM     14  O   UNL     1      -1.261  41.676  11.931  1.00  0.00    -0.550 OA
ENDBRANCH  11  12
ENDBRANCH  10  11
ENDBRANCH   9  10
ENDBRANCH   8   9
ENDBRANCH   7   8
ENDBRANCH   6   7
ENDBRANCH   5   6
ENDBRANCH   4   5
ENDBRANCH   3   4
ENDBRANCH   2   3
ENDBRANCH   1   2
BRANCH   1  15
ATOM     15  C   UNL     1       6.714  42.803  13.868  1.00  0.00     0.000 C 
BRANCH  15  16
ATOM     16  C   UNL     1       5.986  41.818  14.806  1.00  0.00     0.000 C 
BRANCH  16  17
ATOM     17  C   UNL     1       6.905  40.830  15.550  1.00  0.00     0.000 C 
BRANCH  17  18
ATOM     18  C   UNL     1       6.635  40.702  17.063  1.00  0.00    -0.000 C 
BRANCH  18  19
ATOM     19  C   UNL     1       5.152  40.754  17.473  1.00  0.00    -0.000 C 
BRANCH  19  20
ATOM     20  C   UNL     1       4.837  39.878  18.699  1.00  0.00    -0.000 C 
BRANCH  20  21
ATOM     21  C   UNL     1       4.603  40.701  19.979  1.00  0.00    -0.000 C 
BRANCH  21  22
ATOM     22  C   UNL     1       3.637  41.889  19.827  1.00  0.00    -0.000 C 
BRANCH  22  23
ATOM     23  C   UNL     1       4.117  43.148  20.570  1.00  0.00    -0.000 C 
BRANCH  23  24
ATOM     24  C   UNL     1       2.959  43.919  21.226  1.00  0.00    -0.000 C 
BRANCH  24  25
ATOM     25  C   UNL     1       1.751  44.067  20.290  1.00  0.00    -0.003 C 
ATOM     26  C   UNL     1       0.459  43.657  20.991  1.00  0.00     0.004 C 
ENDBRANCH  24  25
ENDBRANCH  23  24
ENDBRANCH  22  23
ENDBRANCH  21  22
ENDBRANCH  20  21
ENDBRANCH  19  20
ENDBRANCH  18  19
ENDBRANCH  17  18
ENDBRANCH  16  17
ENDBRANCH  15  16
ENDBRANCH   1  15
TORSDOF 22
ENDMDL
