MODEL 1
REMARK VINA RESULT:    -1.709      0.000      0.000
REMARK INTER + INTRA:          -2.207
REMARK INTER:                  -2.108
REMARK INTRA:                  -0.098
REMARK UNBOUND:                -0.098
REMARK SMILES CCCCCC(=O)[O-]
REMARK SMILES IDX 4 1 5 2 6 3 7 4 8 5 3 6 2 7 1 8
REMARK H PARENT
REMARK Flexibility Score: inf
ROOT
ATOM      1  C   UNL     1     172.903 178.805 198.127  1.00  0.00     0.006 C 
ENDROOT
BRANCH   1   2
ATOM      2  C   UNL     1     172.729 177.568 199.018  1.00  0.00     0.053 C 
BRANCH   2   3
ATOM      3  C   UNL     1     171.692 177.790 200.077  1.00  0.00     0.041 C 
ATOM      4  O   UNL     1     170.875 176.876 200.367  1.00  0.00    -0.550 OA
ATOM      5  O   UNL     1     171.605 179.019 200.719  1.00  0.00    -0.550 OA
ENDBRANCH   2   3
ENDBRANCH   1   2
BRANCH   1   6
ATOM      6  C   UNL     1     173.509 178.453 196.758  1.00  0.00     0.000 C 
BRANCH   6   7
ATOM      7  C   UNL     1     172.999 177.110 196.216  1.00  0.00    -0.003 C 
ATOM      8  C   UNL     1     172.540 177.195 194.761  1.00  0.00     0.004 C 
ENDBRANCH   6   7
ENDBRANCH   1   6
TORSDOF 4
ENDMDL
MODEL 2
REMARK VINA RESULT:    -1.592      3.147      4.606
REMARK INTER + INTRA:          -2.063
REMARK INTER:                  -1.942
REMARK INTRA:                  -0.121
REMARK UNBOUND:                -0.098
REMARK SMILES CCCCCC(=O)[O-]
REMARK SMILES IDX 4 1 5 2 6 3 7 4 8 5 3 6 2 7 1 8
REMARK H PARENT
REMARK Flexibility Score: inf
ROOT
ATOM      1  C   UNL     1     173.095 177.272 197.908  1.00  0.00     0.006 C 
ENDROOT
BRANCH   1   2
ATOM      2  C   UNL     1     173.141 178.489 196.975  1.00  0.00     0.053 C 
BRANCH   2   3
ATOM      3  C   UNL     1     173.058 178.085 195.535  1.00  0.00     0.041 C 
ATOM      4  O   UNL     1     173.630 178.775 194.649  1.00  0.00    -0.550 OA
ATOM      5  O   UNL     1     172.321 176.967 195.167  1.00  0.00    -0.550 OA
ENDBRANCH   2   3
ENDBRANCH   1   2
BRANCH   1   6
ATOM      6  C   UNL     1     172.494 177.616 199.282  1.00  0.00     0.000 C 
BRANCH   6   7
ATOM      7  C   UNL     1     172.448 179.128 199.542  1.00  0.00    -0.003 C 
ATOM      8  C   UNL     1     171.110 179.589 200.119  1.00  0.00     0.004 C 
ENDBRANCH   6   7
ENDBRANCH   1   6
TORSDOF 4
ENDMDL
MODEL 3
REMARK VINA RESULT:    -1.532      2.073      3.096
REMARK INTER + INTRA:          -1.988
REMARK INTER:                  -1.905
REMARK INTRA:                  -0.084
REMARK UNBOUND:                -0.098
REMARK SMILES CCCCCC(=O)[O-]
REMARK SMILES IDX 4 1 5 2 6 3 7 4 8 5 3 6 2 7 1 8
REMARK H PARENT
REMARK Flexibility Score: inf
ROOT
ATOM      1  C   UNL     1     172.749 177.720 195.196  1.00  0.00     0.006 C 
ENDROOT
BRANCH   1   2
ATOM      2  C   UNL     1     173.096 176.905 196.448  1.00  0.00     0.053 C 
BRANCH   2   3
ATOM      3  C   UNL     1     173.113 177.760 197.678  1.00  0.00     0.041 C 
ATOM      4  O   UNL     1     173.335 177.245 198.807  1.00  0.00    -0.550 OA
ATOM      5  O   UNL     1     172.850 179.120 197.583  1.00  0.00    -0.550 OA
ENDBRANCH   2   3
ENDBRANCH   1   2
BRANCH   1   6
ATOM      6  C   UNL     1     172.020 176.875 194.137  1.00  0.00     0.000 C 
BRANCH   6   7
ATOM      7  C   UNL     1     171.728 177.665 192.852  1.00  0.00    -0.003 C 
ATOM      8  C   UNL     1     172.542 178.954 192.754  1.00  0.00     0.004 C 
ENDBRANCH   6   7
ENDBRANCH   1   6
TORSDOF 4
ENDMDL
MODEL 4
REMARK VINA RESULT:    -1.497      3.282      4.722
REMARK INTER + INTRA:          -1.945
REMARK INTER:                  -1.772
REMARK INTRA:                  -0.173
REMARK UNBOUND:                -0.098
REMARK SMILES CCCCCC(=O)[O-]
REMARK SMILES IDX 4 1 5 2 6 3 7 4 8 5 3 6 2 7 1 8
REMARK H PARENT
REMARK Flexibility Score: inf
ROOT
ATOM      1  C   UNL     1     173.027 176.876 193.435  1.00  0.00     0.006 C 
ENDROOT
BRANCH   1   2
ATOM      2  C   UNL     1     172.393 176.875 194.833  1.00  0.00     0.053 C 
BRANCH   2   3
ATOM      3  C   UNL     1     173.017 177.904 195.724  1.00  0.00     0.041 C 
ATOM      4  O   UNL     1     173.491 177.572 196.843  1.00  0.00    -0.550 OA
ATOM      5  O   UNL     1     173.045 179.237 195.334  1.00  0.00    -0.550 OA
ENDBRANCH   2   3
ENDBRANCH   1   2
BRANCH   1   6
ATOM      6  C   UNL     1     171.969 176.913 192.318  1.00  0.00     0.000 C 
BRANCH   6   7
ATOM      7  C   UNL     1     172.134 178.127 191.392  1.00  0.00    -0.003 C 
ATOM      8  C   UNL     1     171.586 179.416 192.004  1.00  0.00     0.004 C 
ENDBRANCH   6   7
ENDBRANCH   1   6
TORSDOF 4
ENDMDL
MODEL 5
REMARK VINA RESULT:    -1.489      1.652      2.395
REMARK INTER + INTRA:          -1.936
REMARK INTER:                  -1.812
REMARK INTRA:                  -0.123
REMARK UNBOUND:                -0.098
REMARK SMILES CCCCCC(=O)[O-]
REMARK SMILES IDX 4 1 5 2 6 3 7 4 8 5 3 6 2 7 1 8
REMARK H PARENT
REMARK Flexibility Score: inf
ROOT
ATOM      1  C   UNL     1     174.084 178.102 196.281  1.00  0.00     0.006 C 
ENDROOT
BRANCH   1   2
ATOM      2  C   UNL     1     173.929 179.220 197.321  1.00  0.00     0.053 C 
BRANCH   2   3
ATOM      3  C   UNL     1     172.857 178.904 198.318  1.00  0.00     0.041 C 
ATOM      4  O   UNL     1     172.204 179.834 198.863  1.00  0.00    -0.550 OA
ATOM      5  O   UNL     1     172.603 177.585 198.672  1.00  0.00    -0.550 OA
ENDBRANCH   2   3
ENDBRANCH   1   2
BRANCH   1   6
ATOM      6  C   UNL     1     173.062 178.228 195.138  1.00  0.00     0.000 C 
BRANCH   6   7
ATOM      7  C   UNL     1     172.393 176.889 194.796  1.00  0.00    -0.003 C 
ATOM      8  C   UNL     1     171.776 176.876 193.398  1.00  0.00     0.004 C 
ENDBRANCH   6   7
ENDBRANCH   1   6
TORSDOF 4
ENDMDL
MODEL 6
REMARK VINA RESULT:    -1.449      1.449      2.242
REMARK INTER + INTRA:          -1.886
REMARK INTER:                  -1.707
REMARK INTRA:                  -0.179
REMARK UNBOUND:                -0.098
REMARK SMILES CCCCCC(=O)[O-]
REMARK SMILES IDX 4 1 5 2 6 3 7 4 8 5 3 6 2 7 1 8
REMARK H PARENT
REMARK Flexibility Score: inf
ROOT
ATOM      1  C   UNL     1     173.783 178.224 197.103  1.00  0.00     0.006 C 
ENDROOT
BRANCH   1   2
ATOM      2  C   UNL     1     173.133 177.243 198.088  1.00  0.00     0.053 C 
BRANCH   2   3
ATOM      3  C   UNL     1     172.292 177.954 199.104  1.00  0.00     0.041 C 
ATOM      4  O   UNL     1     172.304 179.212 199.169  1.00  0.00    -0.550 OA
ATOM      5  O   UNL     1     171.521 177.226 200.001  1.00  0.00    -0.550 OA
ENDBRANCH   2   3
ENDBRANCH   1   2
BRANCH   1   6
ATOM      6  C   UNL     1     173.126 178.171 195.713  1.00  0.00     0.000 C 
BRANCH   6   7
ATOM      7  C   UNL     1     173.112 179.539 195.016  1.00  0.00    -0.003 C 
ATOM      8  C   UNL     1     173.144 180.705 196.003  1.00  0.00     0.004 C 
ENDBRANCH   6   7
ENDBRANCH   1   6
TORSDOF 4
ENDMDL
MODEL 7
REMARK VINA RESULT:    -1.445      4.112      5.430
REMARK INTER + INTRA:          -1.881
REMARK INTER:                  -1.771
REMARK INTRA:                  -0.110
REMARK UNBOUND:                -0.098
REMARK SMILES CCCCCC(=O)[O-]
REMARK SMILES IDX 4 1 5 2 6 3 7 4 8 5 3 6 2 7 1 8
REMARK H PARENT
REMARK Flexibility Score: inf
ROOT
ATOM      1  C   UNL     1     173.074 178.248 195.472  1.00  0.00     0.006 C 
ENDROOT
BRANCH   1   2
ATOM      2  C   UNL     1     173.482 177.894 194.036  1.00  0.00     0.053 C 
BRANCH   2   3
ATOM      3  C   UNL     1     172.324 177.992 193.091  1.00  0.00     0.041 C 
ATOM      4  O   UNL     1     172.054 179.087 192.529  1.00  0.00    -0.550 OA
ATOM      5  O   UNL     1     171.521 176.883 192.857  1.00  0.00    -0.550 OA
ENDBRANCH   2   3
ENDBRANCH   1   2
BRANCH   1   6
ATOM      6  C   UNL     1     172.967 177.002 196.368  1.00  0.00     0.000 C 
BRANCH   6   7
ATOM      7  C   UNL     1     172.991 177.348 197.864  1.00  0.00    -0.003 C 
ATOM      8  C   UNL     1     173.097 178.851 198.121  1.00  0.00     0.004 C 
ENDBRANCH   6   7
ENDBRANCH   1   6
TORSDOF 4
ENDMDL
MODEL 8
REMARK VINA RESULT:    -0.526      3.270      4.346
REMARK INTER + INTRA:          -0.748
REMARK INTER:                  -0.539
REMARK INTRA:                  -0.209
REMARK UNBOUND:                -0.098
REMARK SMILES CCCCCC(=O)[O-]
REMARK SMILES IDX 4 1 5 2 6 3 7 4 8 5 3 6 2 7 1 8
REMARK H PARENT
REMARK Flexibility Score: inf
ROOT
ATOM      1  C   UNL     1     173.993 177.900 197.208  1.00  0.00     0.006 C 
ENDROOT
BRANCH   1   2
ATOM      2  C   UNL     1     173.092 176.962 196.392  1.00  0.00     0.053 C 
BRANCH   2   3
ATOM      3  C   UNL     1     172.734 177.555 195.064  1.00  0.00     0.041 C 
ATOM      4  O   UNL     1     172.095 176.875 194.217  1.00  0.00    -0.550 OA
ATOM      5  O   UNL     1     173.134 178.847 194.748  1.00  0.00    -0.550 OA
ENDBRANCH   2   3
ENDBRANCH   1   2
BRANCH   1   6
ATOM      6  C   UNL     1     173.328 178.346 198.521  1.00  0.00     0.000 C 
BRANCH   6   7
ATOM      7  C   UNL     1     172.769 179.774 198.443  1.00  0.00    -0.003 C 
ATOM      8  C   UNL     1     173.668 180.718 197.645  1.00  0.00     0.004 C 
ENDBRANCH   6   7
ENDBRANCH   1   6
TORSDOF 4
ENDMDL
