MODEL 1
REMARK VINA RESULT:    -6.836      0.000      0.000
REMARK INTER + INTRA:          -8.287
REMARK INTER:                  -8.035
REMARK INTRA:                  -0.253
REMARK UNBOUND:                -0.253
REMARK SMILES O=c1c(O)c(-c2ccc(O)cc2)oc2cc(O)cc(O)c12
REMARK SMILES IDX 5 1 3 2 2 3 1 4 21 5 19 6 18 7 16 8 15 9 14 10 13 11 6 12
REMARK SMILES IDX 7 13 8 14 9 15 12 16 11 17 10 18 4 20 20 22 17 24
REMARK H PARENT 10 19 4 21 20 23 17 25
REMARK Flexibility Score: inf
ROOT
ATOM      1  C   UNL     1       9.931 -13.186 -23.438  1.00  0.00     0.180 A 
ATOM      2  C   UNL     1       9.944 -13.457 -22.058  1.00  0.00     0.208 A 
ATOM      3  C   UNL     1      10.283 -14.747 -21.620  1.00  0.00     0.238 A 
ATOM      4  O   UNL     1      10.347 -14.968 -20.383  1.00  0.00    -0.285 OA
ATOM      5  C   UNL     1      10.589 -15.755 -22.567  1.00  0.00     0.111 A 
ATOM      6  C   UNL     1      10.907 -17.106 -22.237  1.00  0.00     0.134 A 
ATOM      7  C   UNL     1      11.320 -17.985 -23.246  1.00  0.00     0.093 A 
ATOM      8  C   UNL     1      11.363 -17.578 -24.582  1.00  0.00     0.123 A 
ATOM      9  C   UNL     1      10.998 -16.277 -24.921  1.00  0.00     0.094 A 
ATOM     10  C   UNL     1      10.616 -15.368 -23.931  1.00  0.00     0.146 A 
ATOM     11  O   UNL     1      10.286 -14.135 -24.297  1.00  0.00    -0.452 OA
ENDROOT
BRANCH   1  12
ATOM     12  C   UNL     1       9.559 -11.859 -23.976  1.00  0.00     0.021 A 
ATOM     13  C   UNL     1       8.255 -11.648 -24.458  1.00  0.00     0.016 A 
ATOM     14  C   UNL     1       7.876 -10.396 -24.951  1.00  0.00     0.047 A 
ATOM     15  C   UNL     1       8.790  -9.335 -24.954  1.00  0.00     0.115 A 
ATOM     16  C   UNL     1      10.465 -10.783 -23.965  1.00  0.00     0.016 A 
ATOM     17  C   UNL     1      10.083  -9.531 -24.458  1.00  0.00     0.047 A 
BRANCH  15  18
ATOM     18  O   UNL     1       8.424  -8.083 -25.443  1.00  0.00    -0.508 OA
ATOM     19  H   UNL     1       7.932  -7.411 -24.864  1.00  0.00     0.293 HD
ENDBRANCH  15  18
ENDBRANCH   1  12
BRANCH   2  20
ATOM     20  O   UNL     1       9.661 -12.442 -21.140  1.00  0.00    -0.502 OA
ATOM     21  H   UNL     1       9.931 -12.499 -20.166  1.00  0.00     0.293 HD
ENDBRANCH   2  20
BRANCH   6  22
ATOM     22  O   UNL     1      10.807 -17.640 -20.949  1.00  0.00    -0.507 OA
ATOM     23  H   UNL     1      10.741 -17.093 -20.104  1.00  0.00     0.293 HD
ENDBRANCH   6  22
BRANCH   8  24
ATOM     24  O   UNL     1      11.761 -18.463 -25.582  1.00  0.00    -0.508 OA
ATOM     25  H   UNL     1      12.567 -19.066 -25.467  1.00  0.00     0.293 HD
ENDBRANCH   8  24
TORSDOF 5
ENDMDL
MODEL 2
REMARK VINA RESULT:    -6.402      1.924      3.610
REMARK INTER + INTRA:          -7.778
REMARK INTER:                  -8.128
REMARK INTRA:                   0.350
REMARK UNBOUND:                -0.253
REMARK SMILES O=c1c(O)c(-c2ccc(O)cc2)oc2cc(O)cc(O)c12
REMARK SMILES IDX 5 1 3 2 2 3 1 4 21 5 19 6 18 7 16 8 15 9 14 10 13 11 6 12
REMARK SMILES IDX 7 13 8 14 9 15 12 16 11 17 10 18 4 20 20 22 17 24
REMARK H PARENT 10 19 4 21 20 23 17 25
REMARK Flexibility Score: inf
ROOT
ATOM      1  C   UNL     1       9.077 -11.967 -24.280  1.00  0.00     0.180 A 
ATOM      2  C   UNL     1       8.764 -13.148 -24.976  1.00  0.00     0.208 A 
ATOM      3  C   UNL     1       8.962 -14.385 -24.342  1.00  0.00     0.238 A 
ATOM      4  O   UNL     1       8.628 -15.435 -24.949  1.00  0.00    -0.285 OA
ATOM      5  C   UNL     1       9.484 -14.427 -23.026  1.00  0.00     0.111 A 
ATOM      6  C   UNL     1       9.762 -15.625 -22.303  1.00  0.00     0.134 A 
ATOM      7  C   UNL     1      10.155 -15.547 -20.961  1.00  0.00     0.093 A 
ATOM      8  C   UNL     1      10.343 -14.311 -20.337  1.00  0.00     0.123 A 
ATOM      9  C   UNL     1      10.132 -13.135 -21.053  1.00  0.00     0.094 A 
ATOM     10  C   UNL     1       9.704 -13.182 -22.382  1.00  0.00     0.146 A 
ATOM     11  O   UNL     1       9.504 -12.037 -23.024  1.00  0.00    -0.452 OA
ENDROOT
BRANCH   1  12
ATOM     12  C   UNL     1       8.921 -10.628 -24.891  1.00  0.00     0.021 A 
ATOM     13  C   UNL     1       9.760  -9.577 -24.479  1.00  0.00     0.016 A 
ATOM     14  C   UNL     1       9.644  -8.310 -25.059  1.00  0.00     0.047 A 
ATOM     15  C   UNL     1       8.700  -8.081 -26.067  1.00  0.00     0.115 A 
ATOM     16  C   UNL     1       7.989 -10.394 -25.917  1.00  0.00     0.016 A 
ATOM     17  C   UNL     1       7.875  -9.126 -26.496  1.00  0.00     0.047 A 
BRANCH  15  18
ATOM     18  O   UNL     1       8.575  -6.823 -26.651  1.00  0.00    -0.508 OA
ATOM     19  H   UNL     1       7.669  -6.392 -26.792  1.00  0.00     0.293 HD
ENDBRANCH  15  18
ENDBRANCH   1  12
BRANCH   2  20
ATOM     20  O   UNL     1       8.228 -13.083 -26.265  1.00  0.00    -0.502 OA
ATOM     21  H   UNL     1       8.793 -13.210 -27.096  1.00  0.00     0.293 HD
ENDBRANCH   2  20
BRANCH   6  22
ATOM     22  O   UNL     1       9.695 -16.906 -22.859  1.00  0.00    -0.507 OA
ATOM     23  H   UNL     1      10.482 -17.529 -22.963  1.00  0.00     0.293 HD
ENDBRANCH   6  22
BRANCH   8  24
ATOM     24  O   UNL     1      10.750 -14.242 -19.006  1.00  0.00    -0.508 OA
ATOM     25  H   UNL     1      11.139 -15.047 -18.528  1.00  0.00     0.293 HD
ENDBRANCH   8  24
TORSDOF 5
ENDMDL
MODEL 3
REMARK VINA RESULT:    -6.261      2.696      5.952
REMARK INTER + INTRA:          -7.612
REMARK INTER:                  -7.349
REMARK INTRA:                  -0.263
REMARK UNBOUND:                -0.253
REMARK SMILES O=c1c(O)c(-c2ccc(O)cc2)oc2cc(O)cc(O)c12
REMARK SMILES IDX 5 1 3 2 2 3 1 4 21 5 19 6 18 7 16 8 15 9 14 10 13 11 6 12
REMARK SMILES IDX 7 13 8 14 9 15 12 16 11 17 10 18 4 20 20 22 17 24
REMARK H PARENT 10 19 4 21 20 23 17 25
REMARK Flexibility Score: inf
ROOT
ATOM      1  C   UNL     1      10.415 -16.604 -24.832  1.00  0.00     0.180 A 
ATOM      2  C   UNL     1       9.869 -17.484 -23.882  1.00  0.00     0.208 A 
ATOM      3  C   UNL     1       9.666 -17.029 -22.569  1.00  0.00     0.238 A 
ATOM      4  O   UNL     1       9.125 -17.802 -21.738  1.00  0.00    -0.285 OA
ATOM      5  C   UNL     1      10.028 -15.705 -22.218  1.00  0.00     0.111 A 
ATOM      6  C   UNL     1       9.904 -15.151 -20.909  1.00  0.00     0.134 A 
ATOM      7  C   UNL     1      10.170 -13.791 -20.706  1.00  0.00     0.093 A 
ATOM      8  C   UNL     1      10.619 -12.982 -21.753  1.00  0.00     0.123 A 
ATOM      9  C   UNL     1      10.800 -13.527 -23.022  1.00  0.00     0.094 A 
ATOM     10  C   UNL     1      10.507 -14.872 -23.262  1.00  0.00     0.146 A 
ATOM     11  O   UNL     1      10.683 -15.349 -24.489  1.00  0.00    -0.452 OA
ENDROOT
BRANCH   1  12
ATOM     12  C   UNL     1      10.682 -17.018 -26.228  1.00  0.00     0.021 A 
ATOM     13  C   UNL     1       9.632 -17.016 -27.163  1.00  0.00     0.016 A 
ATOM     14  C   UNL     1       9.866 -17.383 -28.491  1.00  0.00     0.047 A 
ATOM     15  C   UNL     1      11.154 -17.741 -28.906  1.00  0.00     0.115 A 
ATOM     16  C   UNL     1      11.977 -17.360 -26.657  1.00  0.00     0.016 A 
ATOM     17  C   UNL     1      12.208 -17.726 -27.987  1.00  0.00     0.047 A 
BRANCH  15  18
ATOM     18  O   UNL     1      11.400 -18.108 -30.227  1.00  0.00    -0.508 OA
ATOM     19  H   UNL     1      12.298 -17.942 -30.665  1.00  0.00     0.293 HD
ENDBRANCH  15  18
ENDBRANCH   1  12
BRANCH   2  20
ATOM     20  O   UNL     1       9.497 -18.779 -24.254  1.00  0.00    -0.502 OA
ATOM     21  H   UNL     1       9.150 -19.000 -25.180  1.00  0.00     0.293 HD
ENDBRANCH   2  20
BRANCH   6  22
ATOM     22  O   UNL     1       9.553 -15.893 -19.778  1.00  0.00    -0.507 OA
ATOM     23  H   UNL     1       9.124 -15.508 -18.950  1.00  0.00     0.293 HD
ENDBRANCH   6  22
BRANCH   8  24
ATOM     24  O   UNL     1      10.897 -11.633 -21.539  1.00  0.00    -0.508 OA
ATOM     25  H   UNL     1      10.423 -11.102 -20.818  1.00  0.00     0.293 HD
ENDBRANCH   8  24
TORSDOF 5
ENDMDL
MODEL 4
REMARK VINA RESULT:    -6.065      2.805      6.503
REMARK INTER + INTRA:          -7.381
REMARK INTER:                  -7.121
REMARK INTRA:                  -0.261
REMARK UNBOUND:                -0.253
REMARK SMILES O=c1c(O)c(-c2ccc(O)cc2)oc2cc(O)cc(O)c12
REMARK SMILES IDX 5 1 3 2 2 3 1 4 21 5 19 6 18 7 16 8 15 9 14 10 13 11 6 12
REMARK SMILES IDX 7 13 8 14 9 15 12 16 11 17 10 18 4 20 20 22 17 24
REMARK H PARENT 10 19 4 21 20 23 17 25
REMARK Flexibility Score: inf
ROOT
ATOM      1  C   UNL     1      11.318 -17.131 -25.818  1.00  0.00     0.180 A 
ATOM      2  C   UNL     1      11.144 -18.241 -24.972  1.00  0.00     0.208 A 
ATOM      3  C   UNL     1      10.625 -18.041 -23.684  1.00  0.00     0.238 A 
ATOM      4  O   UNL     1      10.419 -19.043 -22.952  1.00  0.00    -0.285 OA
ATOM      5  C   UNL     1      10.301 -16.732 -23.249  1.00  0.00     0.111 A 
ATOM      6  C   UNL     1       9.806 -16.408 -21.951  1.00  0.00     0.134 A 
ATOM      7  C   UNL     1       9.397 -15.097 -21.674  1.00  0.00     0.093 A 
ATOM      8  C   UNL     1       9.527 -14.086 -22.630  1.00  0.00     0.123 A 
ATOM      9  C   UNL     1      10.063 -14.380 -23.881  1.00  0.00     0.094 A 
ATOM     10  C   UNL     1      10.447 -15.686 -24.197  1.00  0.00     0.146 A 
ATOM     11  O   UNL     1      10.944 -15.926 -25.405  1.00  0.00    -0.452 OA
ENDROOT
BRANCH   1  12
ATOM     12  C   UNL     1      11.883 -17.259 -27.180  1.00  0.00     0.021 A 
ATOM     13  C   UNL     1      13.251 -17.009 -27.388  1.00  0.00     0.016 A 
ATOM     14  C   UNL     1      13.810 -17.146 -28.662  1.00  0.00     0.047 A 
ATOM     15  C   UNL     1      13.013 -17.550 -29.740  1.00  0.00     0.115 A 
ATOM     16  C   UNL     1      11.094 -17.683 -28.264  1.00  0.00     0.016 A 
ATOM     17  C   UNL     1      11.656 -17.820 -29.537  1.00  0.00     0.047 A 
BRANCH  15  18
ATOM     18  O   UNL     1      13.559 -17.689 -31.014  1.00  0.00    -0.508 OA
ATOM     19  H   UNL     1      13.185 -18.354 -31.681  1.00  0.00     0.293 HD
ENDBRANCH  15  18
ENDBRANCH   1  12
BRANCH   2  20
ATOM     20  O   UNL     1      11.448 -19.526 -25.428  1.00  0.00    -0.502 OA
ATOM     21  H   UNL     1      11.329 -20.350 -24.852  1.00  0.00     0.293 HD
ENDBRANCH   2  20
BRANCH   6  22
ATOM     22  O   UNL     1       9.724 -17.322 -20.896  1.00  0.00    -0.507 OA
ATOM     23  H   UNL     1       9.994 -17.127 -19.944  1.00  0.00     0.293 HD
ENDBRANCH   6  22
BRANCH   8  24
ATOM     24  O   UNL     1       9.132 -12.781 -22.341  1.00  0.00    -0.508 OA
ATOM     25  H   UNL     1       9.376 -12.336 -21.464  1.00  0.00     0.293 HD
ENDBRANCH   8  24
TORSDOF 5
ENDMDL
MODEL 5
REMARK VINA RESULT:    -6.046      2.819      6.539
REMARK INTER + INTRA:          -7.359
REMARK INTER:                  -7.070
REMARK INTRA:                  -0.289
REMARK UNBOUND:                -0.253
REMARK SMILES O=c1c(O)c(-c2ccc(O)cc2)oc2cc(O)cc(O)c12
REMARK SMILES IDX 5 1 3 2 2 3 1 4 21 5 19 6 18 7 16 8 15 9 14 10 13 11 6 12
REMARK SMILES IDX 7 13 8 14 9 15 12 16 11 17 10 18 4 20 20 22 17 24
REMARK H PARENT 10 19 4 21 20 23 17 25
REMARK Flexibility Score: inf
ROOT
ATOM      1  C   UNL     1       9.582 -16.658 -24.360  1.00  0.00     0.180 A 
ATOM      2  C   UNL     1       9.359 -15.346 -24.812  1.00  0.00     0.208 A 
ATOM      3  C   UNL     1       9.494 -14.281 -23.907  1.00  0.00     0.238 A 
ATOM      4  O   UNL     1       9.348 -13.105 -24.331  1.00  0.00    -0.285 OA
ATOM      5  C   UNL     1       9.835 -14.542 -22.557  1.00  0.00     0.111 A 
ATOM      6  C   UNL     1       9.959 -13.543 -21.546  1.00  0.00     0.134 A 
ATOM      7  C   UNL     1      10.427 -13.901 -20.275  1.00  0.00     0.093 A 
ATOM      8  C   UNL     1      10.713 -15.233 -19.963  1.00  0.00     0.123 A 
ATOM      9  C   UNL     1      10.538 -16.223 -20.926  1.00  0.00     0.094 A 
ATOM     10  C   UNL     1      10.107 -15.891 -22.213  1.00  0.00     0.146 A 
ATOM     11  O   UNL     1       9.963 -16.864 -23.104  1.00  0.00    -0.452 OA
ENDROOT
BRANCH   1  12
ATOM     12  C   UNL     1       9.433 -17.833 -25.247  1.00  0.00     0.021 A 
ATOM     13  C   UNL     1       8.168 -18.426 -25.403  1.00  0.00     0.016 A 
ATOM     14  C   UNL     1       8.001 -19.523 -26.254  1.00  0.00     0.047 A 
ATOM     15  C   UNL     1       9.092 -20.031 -26.971  1.00  0.00     0.115 A 
ATOM     16  C   UNL     1      10.519 -18.337 -25.985  1.00  0.00     0.016 A 
ATOM     17  C   UNL     1      10.349 -19.433 -26.836  1.00  0.00     0.047 A 
BRANCH  15  18
ATOM     18  O   UNL     1       8.938 -21.124 -27.821  1.00  0.00    -0.508 OA
ATOM     19  H   UNL     1       8.499 -21.030 -28.730  1.00  0.00     0.293 HD
ENDBRANCH  15  18
ENDBRANCH   1  12
BRANCH   2  20
ATOM     20  O   UNL     1       9.046 -15.108 -26.153  1.00  0.00    -0.502 OA
ATOM     21  H   UNL     1       9.032 -15.846 -26.847  1.00  0.00     0.293 HD
ENDBRANCH   2  20
BRANCH   6  22
ATOM     22  O   UNL     1       9.612 -12.201 -21.726  1.00  0.00    -0.507 OA
ATOM     23  H   UNL     1       9.977 -11.607 -22.455  1.00  0.00     0.293 HD
ENDBRANCH   6  22
BRANCH   8  24
ATOM     24  O   UNL     1      11.163 -15.583 -18.691  1.00  0.00    -0.508 OA
ATOM     25  H   UNL     1      12.015 -15.193 -18.305  1.00  0.00     0.293 HD
ENDBRANCH   8  24
TORSDOF 5
ENDMDL
MODEL 6
REMARK VINA RESULT:    -5.942      1.509      2.205
REMARK INTER + INTRA:          -7.237
REMARK INTER:                  -6.937
REMARK INTRA:                  -0.300
REMARK UNBOUND:                -0.253
REMARK SMILES O=c1c(O)c(-c2ccc(O)cc2)oc2cc(O)cc(O)c12
REMARK SMILES IDX 5 1 3 2 2 3 1 4 21 5 19 6 18 7 16 8 15 9 14 10 13 11 6 12
REMARK SMILES IDX 7 13 8 14 9 15 12 16 11 17 10 18 4 20 20 22 17 24
REMARK H PARENT 10 19 4 21 20 23 17 25
REMARK Flexibility Score: inf
ROOT
ATOM      1  C   UNL     1       9.539 -14.765 -23.844  1.00  0.00     0.180 A 
ATOM      2  C   UNL     1       9.161 -15.445 -22.673  1.00  0.00     0.208 A 
ATOM      3  C   UNL     1       9.392 -16.827 -22.584  1.00  0.00     0.238 A 
ATOM      4  O   UNL     1       9.102 -17.421 -21.513  1.00  0.00    -0.285 OA
ATOM      5  C   UNL     1       9.983 -17.515 -23.672  1.00  0.00     0.111 A 
ATOM      6  C   UNL     1      10.226 -18.920 -23.706  1.00  0.00     0.134 A 
ATOM      7  C   UNL     1      10.935 -19.473 -24.780  1.00  0.00     0.093 A 
ATOM      8  C   UNL     1      11.351 -18.679 -25.852  1.00  0.00     0.123 A 
ATOM      9  C   UNL     1      11.066 -17.316 -25.856  1.00  0.00     0.094 A 
ATOM     10  C   UNL     1      10.393 -16.731 -24.781  1.00  0.00     0.146 A 
ATOM     11  O   UNL     1      10.151 -15.425 -24.820  1.00  0.00    -0.452 OA
ENDROOT
BRANCH   1  12
ATOM     12  C   UNL     1       9.305 -13.314 -24.022  1.00  0.00     0.021 A 
ATOM     13  C   UNL     1      10.329 -12.404 -23.706  1.00  0.00     0.016 A 
ATOM     14  C   UNL     1      10.137 -11.031 -23.888  1.00  0.00     0.047 A 
ATOM     15  C   UNL     1       8.926 -10.552 -24.402  1.00  0.00     0.115 A 
ATOM     16  C   UNL     1       8.099 -12.826 -24.556  1.00  0.00     0.016 A 
ATOM     17  C   UNL     1       7.910 -11.452 -24.737  1.00  0.00     0.047 A 
BRANCH  15  18
ATOM     18  O   UNL     1       8.723  -9.186 -24.587  1.00  0.00    -0.508 OA
ATOM     19  H   UNL     1       7.792  -8.785 -24.596  1.00  0.00     0.293 HD
ENDBRANCH  15  18
ENDBRANCH   1  12
BRANCH   2  20
ATOM     20  O   UNL     1       8.599 -14.744 -21.603  1.00  0.00    -0.502 OA
ATOM     21  H   UNL     1       8.851 -13.787 -21.387  1.00  0.00     0.293 HD
ENDBRANCH   2  20
BRANCH   6  22
ATOM     22  O   UNL     1       9.773 -19.815 -22.732  1.00  0.00    -0.507 OA
ATOM     23  H   UNL     1      10.206 -19.951 -21.831  1.00  0.00     0.293 HD
ENDBRANCH   6  22
BRANCH   8  24
ATOM     24  O   UNL     1      12.042 -19.240 -26.925  1.00  0.00    -0.508 OA
ATOM     25  H   UNL     1      11.556 -19.594 -27.741  1.00  0.00     0.293 HD
ENDBRANCH   8  24
TORSDOF 5
ENDMDL
MODEL 7
REMARK VINA RESULT:    -5.811     16.161     18.502
REMARK INTER + INTRA:          -7.083
REMARK INTER:                  -6.820
REMARK INTRA:                  -0.263
REMARK UNBOUND:                -0.253
REMARK SMILES O=c1c(O)c(-c2ccc(O)cc2)oc2cc(O)cc(O)c12
REMARK SMILES IDX 5 1 3 2 2 3 1 4 21 5 19 6 18 7 16 8 15 9 14 10 13 11 6 12
REMARK SMILES IDX 7 13 8 14 9 15 12 16 11 17 10 18 4 20 20 22 17 24
REMARK H PARENT 10 19 4 21 20 23 17 25
REMARK Flexibility Score: inf
ROOT
ATOM      1  C   UNL     1      24.225  -3.234 -28.270  1.00  0.00     0.180 A 
ATOM      2  C   UNL     1      23.435  -2.286 -28.945  1.00  0.00     0.208 A 
ATOM      3  C   UNL     1      22.509  -2.730 -29.902  1.00  0.00     0.238 A 
ATOM      4  O   UNL     1      21.765  -1.884 -30.462  1.00  0.00    -0.285 OA
ATOM      5  C   UNL     1      22.394  -4.114 -30.184  1.00  0.00     0.111 A 
ATOM      6  C   UNL     1      21.518  -4.671 -31.162  1.00  0.00     0.134 A 
ATOM      7  C   UNL     1      21.393  -6.063 -31.266  1.00  0.00     0.093 A 
ATOM      8  C   UNL     1      22.163  -6.915 -30.470  1.00  0.00     0.123 A 
ATOM      9  C   UNL     1      23.065  -6.380 -29.553  1.00  0.00     0.094 A 
ATOM     10  C   UNL     1      23.184  -4.996 -29.403  1.00  0.00     0.146 A 
ATOM     11  O   UNL     1      24.049  -4.528 -28.510  1.00  0.00    -0.452 OA
ENDROOT
BRANCH   1  12
ATOM     12  C   UNL     1      25.241  -2.841 -27.268  1.00  0.00     0.021 A 
ATOM     13  C   UNL     1      24.975  -3.033 -25.901  1.00  0.00     0.016 A 
ATOM     14  C   UNL     1      25.929  -2.690 -24.938  1.00  0.00     0.047 A 
ATOM     15  C   UNL     1      27.167  -2.166 -25.330  1.00  0.00     0.115 A 
ATOM     16  C   UNL     1      26.494  -2.332 -27.654  1.00  0.00     0.016 A 
ATOM     17  C   UNL     1      27.447  -1.990 -26.689  1.00  0.00     0.047 A 
BRANCH  15  18
ATOM     18  O   UNL     1      28.125  -1.820 -24.380  1.00  0.00    -0.508 OA
ATOM     19  H   UNL     1      27.973  -1.060 -23.727  1.00  0.00     0.293 HD
ENDBRANCH  15  18
ENDBRANCH   1  12
BRANCH   2  20
ATOM     20  O   UNL     1      23.547  -0.928 -28.635  1.00  0.00    -0.502 OA
ATOM     21  H   UNL     1      23.019  -0.214 -29.121  1.00  0.00     0.293 HD
ENDBRANCH   2  20
BRANCH   6  22
ATOM     22  O   UNL     1      20.774  -3.910 -32.068  1.00  0.00    -0.507 OA
ATOM     23  H   UNL     1      21.097  -3.625 -32.980  1.00  0.00     0.293 HD
ENDBRANCH   6  22
BRANCH   8  24
ATOM     24  O   UNL     1      22.045  -8.298 -30.590  1.00  0.00    -0.508 OA
ATOM     25  H   UNL     1      21.764  -8.876 -29.807  1.00  0.00     0.293 HD
ENDBRANCH   8  24
TORSDOF 5
ENDMDL
MODEL 8
REMARK VINA RESULT:    -5.652      2.943      4.530
REMARK INTER + INTRA:          -6.896
REMARK INTER:                  -7.042
REMARK INTRA:                   0.146
REMARK UNBOUND:                -0.253
REMARK SMILES O=c1c(O)c(-c2ccc(O)cc2)oc2cc(O)cc(O)c12
REMARK SMILES IDX 5 1 3 2 2 3 1 4 21 5 19 6 18 7 16 8 15 9 14 10 13 11 6 12
REMARK SMILES IDX 7 13 8 14 9 15 12 16 11 17 10 18 4 20 20 22 17 24
REMARK H PARENT 10 19 4 21 20 23 17 25
REMARK Flexibility Score: inf
ROOT
ATOM      1  C   UNL     1      10.424 -16.591 -22.786  1.00  0.00     0.180 A 
ATOM      2  C   UNL     1       9.851 -17.779 -22.300  1.00  0.00     0.208 A 
ATOM      3  C   UNL     1       9.829 -18.912 -23.128  1.00  0.00     0.238 A 
ATOM      4  O   UNL     1       9.365 -19.988 -22.668  1.00  0.00    -0.285 OA
ATOM      5  C   UNL     1      10.365 -18.840 -24.437  1.00  0.00     0.111 A 
ATOM      6  C   UNL     1      10.359 -19.915 -25.375  1.00  0.00     0.134 A 
ATOM      7  C   UNL     1      11.032 -19.771 -26.595  1.00  0.00     0.093 A 
ATOM      8  C   UNL     1      11.655 -18.568 -26.936  1.00  0.00     0.123 A 
ATOM      9  C   UNL     1      11.615 -17.493 -26.051  1.00  0.00     0.094 A 
ATOM     10  C   UNL     1      10.982 -17.619 -24.812  1.00  0.00     0.146 A 
ATOM     11  O   UNL     1      10.977 -16.573 -23.994  1.00  0.00    -0.452 OA
ENDROOT
BRANCH   1  12
ATOM     12  C   UNL     1      10.462 -15.348 -21.982  1.00  0.00     0.021 A 
ATOM     13  C   UNL     1      10.102 -14.127 -22.579  1.00  0.00     0.016 A 
ATOM     14  C   UNL     1      10.109 -12.945 -21.832  1.00  0.00     0.047 A 
ATOM     15  C   UNL     1      10.460 -12.971 -20.477  1.00  0.00     0.115 A 
ATOM     16  C   UNL     1      10.794 -15.368 -20.616  1.00  0.00     0.016 A 
ATOM     17  C   UNL     1      10.800 -14.184 -19.872  1.00  0.00     0.047 A 
BRANCH  15  18
ATOM     18  O   UNL     1      10.471 -11.799 -19.724  1.00  0.00    -0.508 OA
ATOM     19  H   UNL     1      10.913 -11.760 -18.813  1.00  0.00     0.293 HD
ENDBRANCH  15  18
ENDBRANCH   1  12
BRANCH   2  20
ATOM     20  O   UNL     1       9.349 -17.835 -20.997  1.00  0.00    -0.502 OA
ATOM     21  H   UNL     1       8.425 -18.193 -20.785  1.00  0.00     0.293 HD
ENDBRANCH   2  20
BRANCH   6  22
ATOM     22  O   UNL     1       9.688 -21.125 -25.173  1.00  0.00    -0.507 OA
ATOM     23  H   UNL     1       9.404 -21.754 -25.908  1.00  0.00     0.293 HD
ENDBRANCH   6  22
BRANCH   8  24
ATOM     24  O   UNL     1      12.310 -18.428 -28.158  1.00  0.00    -0.508 OA
ATOM     25  H   UNL     1      13.299 -18.211 -28.207  1.00  0.00     0.293 HD
ENDBRANCH   8  24
TORSDOF 5
ENDMDL
