MODEL 1
REMARK VINA RESULT:    -4.796      0.000      0.000
REMARK INTER + INTRA:          -8.254
REMARK INTER:                  -6.478
REMARK INTRA:                  -1.776
REMARK UNBOUND:                -1.776
REMARK SMILES C=CC(C)=CCC=C(C)CCC=C(C)C
REMARK SMILES IDX 8 1 7 2 9 3 10 4 11 5 12 6 14 7 13 8 15 9 6 10 5 11 3 12
REMARK SMILES IDX 4 13 2 14 1 15
REMARK H PARENT
REMARK Flexibility Score: inf
ROOT
ATOM      1  C   UNL     1       3.645   8.265  15.862  1.00  0.00    -0.077 C 
ATOM      2  C   UNL     1       4.592   9.200  16.105  1.00  0.00    -0.024 C 
ATOM      3  C   UNL     1       2.199   8.651  16.046  1.00  0.00     0.039 C 
ENDROOT
BRANCH   1   4
ATOM      4  C   UNL     1       3.976   6.858  15.396  1.00  0.00     0.034 C 
BRANCH   4   5
ATOM      5  C   UNL     1       4.118   6.773  13.870  1.00  0.00     0.032 C 
BRANCH   5   6
ATOM      6  C   UNL     1       5.402   6.083  13.474  1.00  0.00    -0.028 C 
ATOM      7  C   UNL     1       5.181   6.665  11.047  1.00  0.00     0.039 C 
ATOM      8  C   UNL     1       5.878   6.003  12.211  1.00  0.00    -0.080 C 
ATOM      9  C   UNL     1       7.144   5.221  11.970  1.00  0.00     0.039 C 
ENDBRANCH   5   6
ENDBRANCH   4   5
ENDBRANCH   1   4
BRANCH   2  10
ATOM     10  C   UNL     1       6.078   8.961  16.006  1.00  0.00     0.055 C 
BRANCH  10  11
ATOM     11  C   UNL     1       6.610   9.387  14.662  1.00  0.00    -0.020 C 
ATOM     12  C   UNL     1       7.647   8.789  14.045  1.00  0.00    -0.055 C 
ATOM     13  C   UNL     1       8.371   7.617  14.672  1.00  0.00     0.044 C 
BRANCH  12  14
ATOM     14  C   UNL     1       8.114   9.358  12.755  1.00  0.00    -0.005 C 
ATOM     15  C   UNL     1       8.406   8.618  11.685  1.00  0.00     0.009 C 
ENDBRANCH  12  14
ENDBRANCH  10  11
ENDBRANCH   2  10
TORSDOF 6
ENDMDL
MODEL 2
REMARK VINA RESULT:    -4.721     13.513     15.375
REMARK INTER + INTRA:          -8.153
REMARK INTER:                  -6.829
REMARK INTRA:                  -1.324
REMARK UNBOUND:                -1.776
REMARK SMILES C=CC(C)=CCC=C(C)CCC=C(C)C
REMARK SMILES IDX 8 1 7 2 9 3 10 4 11 5 12 6 14 7 13 8 15 9 6 10 5 11 3 12
REMARK SMILES IDX 4 13 2 14 1 15
REMARK H PARENT
REMARK Flexibility Score: inf
ROOT
ATOM      1  C   UNL     1      10.463   4.282  28.159  1.00  0.00    -0.077 C 
ATOM      2  C   UNL     1      11.254   4.997  27.326  1.00  0.00    -0.024 C 
ATOM      3  C   UNL     1       9.431   3.366  27.551  1.00  0.00     0.039 C 
ENDROOT
BRANCH   1   4
ATOM      4  C   UNL     1      10.585   4.349  29.671  1.00  0.00     0.034 C 
BRANCH   4   5
ATOM      5  C   UNL     1       9.359   5.004  30.322  1.00  0.00     0.032 C 
BRANCH   5   6
ATOM      6  C   UNL     1       9.595   6.473  30.587  1.00  0.00    -0.028 C 
ATOM      7  C   UNL     1       8.627   7.210  28.396  1.00  0.00     0.039 C 
ATOM      8  C   UNL     1       9.298   7.469  29.724  1.00  0.00    -0.080 C 
ATOM      9  C   UNL     1       9.657   8.882  30.109  1.00  0.00     0.039 C 
ENDBRANCH   5   6
ENDBRANCH   4   5
ENDBRANCH   1   4
BRANCH   2  10
ATOM     10  C   UNL     1      12.302   5.983  27.775  1.00  0.00     0.055 C 
BRANCH  10  11
ATOM     11  C   UNL     1      13.072   6.532  26.602  1.00  0.00    -0.020 C 
ATOM     12  C   UNL     1      12.739   7.665  25.954  1.00  0.00    -0.055 C 
ATOM     13  C   UNL     1      11.539   8.489  26.367  1.00  0.00     0.044 C 
BRANCH  12  14
ATOM     14  C   UNL     1      13.544   8.052  24.767  1.00  0.00    -0.005 C 
ATOM     15  C   UNL     1      14.877   8.055  24.749  1.00  0.00     0.009 C 
ENDBRANCH  12  14
ENDBRANCH  10  11
ENDBRANCH   2  10
TORSDOF 6
ENDMDL
MODEL 3
REMARK VINA RESULT:    -4.715     14.001     15.670
REMARK INTER + INTRA:          -8.145
REMARK INTER:                  -7.038
REMARK INTRA:                  -1.107
REMARK UNBOUND:                -1.776
REMARK SMILES C=CC(C)=CCC=C(C)CCC=C(C)C
REMARK SMILES IDX 8 1 7 2 9 3 10 4 11 5 12 6 14 7 13 8 15 9 6 10 5 11 3 12
REMARK SMILES IDX 4 13 2 14 1 15
REMARK H PARENT
REMARK Flexibility Score: inf
ROOT
ATOM      1  C   UNL     1       9.705   8.342  28.905  1.00  0.00    -0.077 C 
ATOM      2  C   UNL     1      10.670   8.389  27.958  1.00  0.00    -0.024 C 
ATOM      3  C   UNL     1       9.536   9.535  29.810  1.00  0.00     0.039 C 
ENDROOT
BRANCH   1   4
ATOM      4  C   UNL     1       8.777   7.152  29.077  1.00  0.00     0.034 C 
BRANCH   4   5
ATOM      5  C   UNL     1       8.823   6.585  30.504  1.00  0.00     0.032 C 
BRANCH   5   6
ATOM      6  C   UNL     1      10.185   6.019  30.827  1.00  0.00    -0.028 C 
ATOM      7  C   UNL     1       9.934   4.054  29.292  1.00  0.00     0.039 C 
ATOM      8  C   UNL     1      10.686   4.873  30.314  1.00  0.00    -0.080 C 
ATOM      9  C   UNL     1      12.039   4.406  30.788  1.00  0.00     0.039 C 
ENDBRANCH   5   6
ENDBRANCH   4   5
ENDBRANCH   1   4
BRANCH   2  10
ATOM     10  C   UNL     1      10.991   7.265  27.004  1.00  0.00     0.055 C 
BRANCH  10  11
ATOM     11  C   UNL     1      12.257   7.548  26.237  1.00  0.00    -0.020 C 
ATOM     12  C   UNL     1      13.417   6.895  26.441  1.00  0.00    -0.055 C 
ATOM     13  C   UNL     1      13.537   5.803  27.483  1.00  0.00     0.044 C 
BRANCH  12  14
ATOM     14  C   UNL     1      14.607   7.325  25.663  1.00  0.00    -0.005 C 
ATOM     15  C   UNL     1      14.627   8.407  24.886  1.00  0.00     0.009 C 
ENDBRANCH  12  14
ENDBRANCH  10  11
ENDBRANCH   2  10
TORSDOF 6
ENDMDL
MODEL 4
REMARK VINA RESULT:    -4.662     13.379     15.282
REMARK INTER + INTRA:          -8.073
REMARK INTER:                  -7.095
REMARK INTRA:                  -0.978
REMARK UNBOUND:                -1.776
REMARK SMILES C=CC(C)=CCC=C(C)CCC=C(C)C
REMARK SMILES IDX 8 1 7 2 9 3 10 4 11 5 12 6 14 7 13 8 15 9 6 10 5 11 3 12
REMARK SMILES IDX 4 13 2 14 1 15
REMARK H PARENT
REMARK Flexibility Score: inf
ROOT
ATOM      1  C   UNL     1      11.231   5.180  28.172  1.00  0.00    -0.077 C 
ATOM      2  C   UNL     1      12.384   5.757  27.763  1.00  0.00    -0.024 C 
ATOM      3  C   UNL     1      11.202   4.526  29.530  1.00  0.00     0.039 C 
ENDROOT
BRANCH   1   4
ATOM      4  C   UNL     1       9.965   5.181  27.331  1.00  0.00     0.034 C 
BRANCH   4   5
ATOM      5  C   UNL     1       8.824   5.956  28.004  1.00  0.00     0.032 C 
BRANCH   5   6
ATOM      6  C   UNL     1       9.222   7.385  28.289  1.00  0.00    -0.028 C 
ATOM      7  C   UNL     1       8.889   7.176  30.764  1.00  0.00     0.039 C 
ATOM      8  C   UNL     1       9.230   7.953  29.515  1.00  0.00    -0.080 C 
ATOM      9  C   UNL     1       9.590   9.413  29.626  1.00  0.00     0.039 C 
ENDBRANCH   5   6
ENDBRANCH   4   5
ENDBRANCH   1   4
BRANCH   2  10
ATOM     10  C   UNL     1      12.586   6.413  26.420  1.00  0.00     0.055 C 
BRANCH  10  11
ATOM     11  C   UNL     1      13.991   6.938  26.277  1.00  0.00    -0.020 C 
ATOM     12  C   UNL     1      14.321   7.989  25.501  1.00  0.00    -0.055 C 
ATOM     13  C   UNL     1      13.279   8.737  24.698  1.00  0.00     0.044 C 
BRANCH  12  14
ATOM     14  C   UNL     1      15.757   8.355  25.396  1.00  0.00    -0.005 C 
ATOM     15  C   UNL     1      16.564   7.902  24.437  1.00  0.00     0.009 C 
ENDBRANCH  12  14
ENDBRANCH  10  11
ENDBRANCH   2  10
TORSDOF 6
ENDMDL
MODEL 5
REMARK VINA RESULT:    -4.597     13.483     15.062
REMARK INTER + INTRA:          -7.986
REMARK INTER:                  -7.060
REMARK INTRA:                  -0.926
REMARK UNBOUND:                -1.776
REMARK SMILES C=CC(C)=CCC=C(C)CCC=C(C)C
REMARK SMILES IDX 8 1 7 2 9 3 10 4 11 5 12 6 14 7 13 8 15 9 6 10 5 11 3 12
REMARK SMILES IDX 4 13 2 14 1 15
REMARK H PARENT
REMARK Flexibility Score: inf
ROOT
ATOM      1  C   UNL     1      12.552   7.676  26.030  1.00  0.00    -0.077 C 
ATOM      2  C   UNL     1      13.327   7.872  24.938  1.00  0.00    -0.024 C 
ATOM      3  C   UNL     1      11.374   8.592  26.241  1.00  0.00     0.039 C 
ENDROOT
BRANCH   1   4
ATOM      4  C   UNL     1      12.809   6.566  27.034  1.00  0.00     0.034 C 
BRANCH   4   5
ATOM      5  C   UNL     1      11.687   5.517  27.035  1.00  0.00     0.032 C 
BRANCH   5   6
ATOM      6  C   UNL     1      11.130   5.309  28.424  1.00  0.00    -0.028 C 
ATOM      7  C   UNL     1       8.893   6.293  27.871  1.00  0.00     0.039 C 
ATOM      8  C   UNL     1       9.891   5.675  28.820  1.00  0.00    -0.080 C 
ATOM      9  C   UNL     1       9.506   5.458  30.262  1.00  0.00     0.039 C 
ENDBRANCH   5   6
ENDBRANCH   4   5
ENDBRANCH   1   4
BRANCH   2  10
ATOM     10  C   UNL     1      14.560   7.070  24.607  1.00  0.00     0.055 C 
BRANCH  10  11
ATOM     11  C   UNL     1      15.699   7.968  24.198  1.00  0.00    -0.020 C 
ATOM     12  C   UNL     1      16.588   8.490  25.066  1.00  0.00    -0.055 C 
ATOM     13  C   UNL     1      16.504   8.206  26.551  1.00  0.00     0.044 C 
BRANCH  12  14
ATOM     14  C   UNL     1      17.619   9.418  24.535  1.00  0.00    -0.005 C 
ATOM     15  C   UNL     1      18.929   9.236  24.699  1.00  0.00     0.009 C 
ENDBRANCH  12  14
ENDBRANCH  10  11
ENDBRANCH   2  10
TORSDOF 6
ENDMDL
MODEL 6
REMARK VINA RESULT:    -4.507     13.222     15.256
REMARK INTER + INTRA:          -7.863
REMARK INTER:                  -7.149
REMARK INTRA:                  -0.714
REMARK UNBOUND:                -1.776
REMARK SMILES C=CC(C)=CCC=C(C)CCC=C(C)C
REMARK SMILES IDX 8 1 7 2 9 3 10 4 11 5 12 6 14 7 13 8 15 9 6 10 5 11 3 12
REMARK SMILES IDX 4 13 2 14 1 15
REMARK H PARENT
REMARK Flexibility Score: inf
ROOT
ATOM      1  C   UNL     1      12.433   8.045  25.531  1.00  0.00    -0.077 C 
ATOM      2  C   UNL     1      11.495   7.536  26.362  1.00  0.00    -0.024 C 
ATOM      3  C   UNL     1      12.407   9.525  25.248  1.00  0.00     0.039 C 
ENDROOT
BRANCH   1   4
ATOM      4  C   UNL     1      13.518   7.194  24.892  1.00  0.00     0.034 C 
BRANCH   4   5
ATOM      5  C   UNL     1      14.357   7.990  23.883  1.00  0.00     0.032 C 
BRANCH   5   6
ATOM      6  C   UNL     1      15.834   7.736  24.074  1.00  0.00    -0.028 C 
ATOM      7  C   UNL     1      16.240   9.907  25.259  1.00  0.00     0.039 C 
ATOM      8  C   UNL     1      16.694   8.596  24.664  1.00  0.00    -0.080 C 
ATOM      9  C   UNL     1      18.154   8.224  24.719  1.00  0.00     0.039 C 
ENDBRANCH   5   6
ENDBRANCH   4   5
ENDBRANCH   1   4
BRANCH   2  10
ATOM     10  C   UNL     1      11.362   6.075  26.712  1.00  0.00     0.055 C 
BRANCH  10  11
ATOM     11  C   UNL     1      10.746   5.896  28.076  1.00  0.00    -0.020 C 
ATOM     12  C   UNL     1       9.995   4.833  28.423  1.00  0.00    -0.055 C 
ATOM     13  C   UNL     1       9.708   3.714  27.445  1.00  0.00     0.044 C 
BRANCH  12  14
ATOM     14  C   UNL     1       9.389   4.820  29.779  1.00  0.00    -0.005 C 
ATOM     15  C   UNL     1       9.850   5.543  30.800  1.00  0.00     0.009 C 
ENDBRANCH  12  14
ENDBRANCH  10  11
ENDBRANCH   2  10
TORSDOF 6
ENDMDL
MODEL 7
REMARK VINA RESULT:    -4.501     12.452     14.461
REMARK INTER + INTRA:          -7.856
REMARK INTER:                  -6.741
REMARK INTRA:                  -1.115
REMARK UNBOUND:                -1.776
REMARK SMILES C=CC(C)=CCC=C(C)CCC=C(C)C
REMARK SMILES IDX 8 1 7 2 9 3 10 4 11 5 12 6 14 7 13 8 15 9 6 10 5 11 3 12
REMARK SMILES IDX 4 13 2 14 1 15
REMARK H PARENT
REMARK Flexibility Score: inf
ROOT
ATOM      1  C   UNL     1      11.785   6.093  27.227  1.00  0.00    -0.077 C 
ATOM      2  C   UNL     1      12.339   7.281  26.892  1.00  0.00    -0.024 C 
ATOM      3  C   UNL     1      12.474   5.255  28.273  1.00  0.00     0.039 C 
ENDROOT
BRANCH   1   4
ATOM      4  C   UNL     1      10.494   5.583  26.611  1.00  0.00     0.034 C 
BRANCH   4   5
ATOM      5  C   UNL     1       9.466   5.175  27.675  1.00  0.00     0.032 C 
BRANCH   5   6
ATOM      6  C   UNL     1       9.125   6.333  28.583  1.00  0.00    -0.028 C 
ATOM      7  C   UNL     1       9.694   5.090  30.684  1.00  0.00     0.039 C 
ATOM      8  C   UNL     1       9.196   6.302  29.933  1.00  0.00    -0.080 C 
ATOM      9  C   UNL     1       8.758   7.522  30.702  1.00  0.00     0.039 C 
ENDBRANCH   5   6
ENDBRANCH   4   5
ENDBRANCH   1   4
BRANCH   2  10
ATOM     10  C   UNL     1      11.795   8.214  25.839  1.00  0.00     0.055 C 
BRANCH  10  11
ATOM     11  C   UNL     1      12.827   8.498  24.779  1.00  0.00    -0.020 C 
ATOM     12  C   UNL     1      12.785   7.981  23.536  1.00  0.00    -0.055 C 
ATOM     13  C   UNL     1      11.670   7.053  23.104  1.00  0.00     0.044 C 
BRANCH  12  14
ATOM     14  C   UNL     1      13.908   8.287  22.613  1.00  0.00    -0.005 C 
ATOM     15  C   UNL     1      14.650   9.391  22.697  1.00  0.00     0.009 C 
ENDBRANCH  12  14
ENDBRANCH  10  11
ENDBRANCH   2  10
TORSDOF 6
ENDMDL
MODEL 8
REMARK VINA RESULT:    -4.466     13.087     15.033
REMARK INTER + INTRA:          -7.808
REMARK INTER:                  -7.021
REMARK INTRA:                  -0.787
REMARK UNBOUND:                -1.776
REMARK SMILES C=CC(C)=CCC=C(C)CCC=C(C)C
REMARK SMILES IDX 8 1 7 2 9 3 10 4 11 5 12 6 14 7 13 8 15 9 6 10 5 11 3 12
REMARK SMILES IDX 4 13 2 14 1 15
REMARK H PARENT
REMARK Flexibility Score: inf
ROOT
ATOM      1  C   UNL     1      11.160   7.452  26.888  1.00  0.00    -0.077 C 
ATOM      2  C   UNL     1      12.318   7.768  26.264  1.00  0.00    -0.024 C 
ATOM      3  C   UNL     1      10.540   8.478  27.802  1.00  0.00     0.039 C 
ENDROOT
BRANCH   1   4
ATOM      4  C   UNL     1      10.454   6.121  26.692  1.00  0.00     0.034 C 
BRANCH   4   5
ATOM      5  C   UNL     1       9.348   5.894  27.731  1.00  0.00     0.032 C 
BRANCH   5   6
ATOM      6  C   UNL     1       9.799   4.946  28.817  1.00  0.00    -0.028 C 
ATOM      7  C   UNL     1       9.344   6.567  30.674  1.00  0.00     0.039 C 
ATOM      8  C   UNL     1       9.829   5.241  30.136  1.00  0.00    -0.080 C 
ATOM      9  C   UNL     1      10.369   4.207  31.090  1.00  0.00     0.039 C 
ENDBRANCH   5   6
ENDBRANCH   4   5
ENDBRANCH   1   4
BRANCH   2  10
ATOM     10  C   UNL     1      13.082   6.840  25.353  1.00  0.00     0.055 C 
BRANCH  10  11
ATOM     11  C   UNL     1      14.551   7.176  25.343  1.00  0.00    -0.020 C 
ATOM     12  C   UNL     1      15.171   7.785  24.314  1.00  0.00    -0.055 C 
ATOM     13  C   UNL     1      14.420   8.185  23.063  1.00  0.00     0.044 C 
BRANCH  12  14
ATOM     14  C   UNL     1      16.640   7.991  24.408  1.00  0.00    -0.005 C 
ATOM     15  C   UNL     1      17.277   8.241  25.551  1.00  0.00     0.009 C 
ENDBRANCH  12  14
ENDBRANCH  10  11
ENDBRANCH   2  10
TORSDOF 6
ENDMDL
MODEL 9
REMARK VINA RESULT:    -4.412      2.097      4.521
REMARK INTER + INTRA:          -7.735
REMARK INTER:                  -6.482
REMARK INTRA:                  -1.252
REMARK UNBOUND:                -1.776
REMARK SMILES C=CC(C)=CCC=C(C)CCC=C(C)C
REMARK SMILES IDX 8 1 7 2 9 3 10 4 11 5 12 6 14 7 13 8 15 9 6 10 5 11 3 12
REMARK SMILES IDX 4 13 2 14 1 15
REMARK H PARENT
REMARK Flexibility Score: inf
ROOT
ATOM      1  C   UNL     1       5.076   7.268  14.915  1.00  0.00    -0.077 C 
ATOM      2  C   UNL     1       4.843   8.523  15.363  1.00  0.00    -0.024 C 
ATOM      3  C   UNL     1       4.227   6.746  13.784  1.00  0.00     0.039 C 
ENDROOT
BRANCH   1   4
ATOM      4  C   UNL     1       6.163   6.376  15.489  1.00  0.00     0.034 C 
BRANCH   4   5
ATOM      5  C   UNL     1       7.195   5.967  14.428  1.00  0.00     0.032 C 
BRANCH   5   6
ATOM      6  C   UNL     1       7.842   7.176  13.795  1.00  0.00    -0.028 C 
ATOM      7  C   UNL     1       7.154   6.550  11.467  1.00  0.00     0.039 C 
ATOM      8  C   UNL     1       7.856   7.437  12.469  1.00  0.00    -0.080 C 
ATOM      9  C   UNL     1       8.603   8.654  11.985  1.00  0.00     0.039 C 
ENDBRANCH   5   6
ENDBRANCH   4   5
ENDBRANCH   1   4
BRANCH   2  10
ATOM     10  C   UNL     1       5.575   9.174  16.510  1.00  0.00     0.055 C 
BRANCH  10  11
ATOM     11  C   UNL     1       4.642   9.462  17.657  1.00  0.00    -0.020 C 
ATOM     12  C   UNL     1       4.566   8.703  18.767  1.00  0.00    -0.055 C 
ATOM     13  C   UNL     1       5.432   7.475  18.947  1.00  0.00     0.044 C 
BRANCH  12  14
ATOM     14  C   UNL     1       3.549   9.062  19.790  1.00  0.00    -0.005 C 
ATOM     15  C   UNL     1       2.258   9.243  19.514  1.00  0.00     0.009 C 
ENDBRANCH  12  14
ENDBRANCH  10  11
ENDBRANCH   2  10
TORSDOF 6
ENDMDL
