MODEL 1
REMARK VINA RESULT:     0.000      0.000      0.000
REMARK INTER + INTRA:           0.378
REMARK INTER:                   0.000
REMARK INTRA:                   0.378
REMARK UNBOUND:                 0.378
REMARK SMILES CC1=CCC(=C(C)C)C(=O)CC(C)=CCC1
REMARK SMILES IDX 12 1 14 2 13 3 15 4 16 5 2 6 1 7 3 8 11 10 9 11 10 12 5 13
REMARK SMILES IDX 6 14 7 15 8 16 4 17
REMARK H PARENT
REMARK Flexibility Score: 60.00
ROOT
ATOM      1  C   UNL     1      10.252  43.471  84.932  1.00  0.00    -0.070 C 
ATOM      2  C   UNL     1       9.604  43.617  86.112  1.00  0.00    -0.027 C 
ATOM      3  C   UNL     1       9.562  43.985  83.692  1.00  0.00     0.039 C 
ENDROOT
BRANCH   2   4
ATOM      4  C   UNL     1      10.055  43.087  87.451  1.00  0.00     0.032 C 
BRANCH   4   5
ATOM      5  C   UNL     1       9.603  41.634  87.695  1.00  0.00     0.034 C 
BRANCH   5   6
ATOM      6  C   UNL     1      10.722  40.769  88.242  1.00  0.00    -0.077 C 
ATOM      7  C   UNL     1      11.134  40.958  89.680  1.00  0.00     0.039 C 
ATOM      8  C   UNL     1      11.356  39.817  87.521  1.00  0.00    -0.023 CG0
ATOM      9  G   UNL     1      11.063  39.457  86.085  1.00  0.00     0.000 G0
ENDBRANCH   5   6
ENDBRANCH   4   5
ENDBRANCH   2   4
BRANCH   1  10
ATOM     10  C   UNL     1      11.589  42.764  84.785  1.00  0.00     0.111 C 
BRANCH  10  11
ATOM     11  C   UNL     1      11.412  41.323  84.369  1.00  0.00     0.163 C 
ATOM     12  O   UNL     1      10.784  41.087  83.301  1.00  0.00    -0.294 OA
BRANCH  11  13
ATOM     13  C   UNL     1      12.003  40.194  85.153  1.00  0.00    -0.002 C 
ATOM     14  C   UNL     1      13.305  39.810  84.990  1.00  0.00    -0.069 C 
ATOM     15  C   UNL     1      13.905  38.690  85.813  1.00  0.00     0.039 C 
ATOM     16  C   UNL     1      14.198  40.457  83.955  1.00  0.00     0.039 C 
BRANCH  13  17
ATOM     17  C   UNL     1      11.072  39.440  86.085  1.00  0.00     0.066 CG0
ATOM     18  G   UNL     1      11.363  39.819  87.517  1.00  0.00     0.000 G0
ENDBRANCH  13  17
ENDBRANCH  11  13
ENDBRANCH  10  11
ENDBRANCH   1  10
TORSDOF 0
ENDMDL
MODEL 2
REMARK VINA RESULT:     0.001      8.440     10.190
REMARK INTER + INTRA:           0.380
REMARK INTER:                   0.000
REMARK INTRA:                   0.380
REMARK UNBOUND:                 0.378
REMARK SMILES CC1=CCC(=C(C)C)C(=O)CC(C)=CCC1
REMARK SMILES IDX 12 1 14 2 13 3 15 4 16 5 2 6 1 7 3 8 11 10 9 11 10 12 5 13
REMARK SMILES IDX 6 14 7 15 8 16 4 17
REMARK H PARENT
REMARK Flexibility Score: 60.00
ROOT
ATOM      1  C   UNL     1      13.393  41.545  77.349  1.00  0.00    -0.070 C 
ATOM      2  C   UNL     1      12.739  42.303  78.261  1.00  0.00    -0.027 C 
ATOM      3  C   UNL     1      14.821  41.166  77.656  1.00  0.00     0.039 C 
ENDROOT
BRANCH   2   4
ATOM      4  C   UNL     1      11.353  42.882  78.113  1.00  0.00     0.032 C 
BRANCH   4   5
ATOM      5  C   UNL     1      10.248  41.821  78.277  1.00  0.00     0.034 C 
BRANCH   5   6
ATOM      6  C   UNL     1       9.259  41.841  77.129  1.00  0.00    -0.077 C 
ATOM      7  C   UNL     1       8.516  43.123  76.847  1.00  0.00     0.039 C 
ATOM      8  C   UNL     1       9.023  40.782  76.322  1.00  0.00    -0.023 CG0
ATOM      9  G   UNL     1       9.690  39.432  76.421  1.00  0.00     0.000 G0
ENDBRANCH   5   6
ENDBRANCH   4   5
ENDBRANCH   2   4
BRANCH   1  10
ATOM     10  C   UNL     1      12.794  41.119  76.020  1.00  0.00     0.111 C 
BRANCH  10  11
ATOM     11  C   UNL     1      12.226  39.722  76.089  1.00  0.00     0.163 C 
ATOM     12  O   UNL     1      12.884  38.844  76.712  1.00  0.00    -0.294 OA
BRANCH  11  13
ATOM     13  C   UNL     1      10.898  39.376  75.493  1.00  0.00    -0.002 C 
ATOM     14  C   UNL     1      10.759  39.094  74.162  1.00  0.00    -0.069 C 
ATOM     15  C   UNL     1       9.418  38.709  73.574  1.00  0.00     0.039 C 
ATOM     16  C   UNL     1      11.926  39.189  73.206  1.00  0.00     0.039 C 
BRANCH  13  17
ATOM     17  C   UNL     1       9.694  39.426  76.416  1.00  0.00     0.066 CG0
ATOM     18  G   UNL     1       9.021  40.773  76.310  1.00  0.00     0.000 G0
ENDBRANCH  13  17
ENDBRANCH  11  13
ENDBRANCH  10  11
ENDBRANCH   1  10
TORSDOF 0
ENDMDL
MODEL 3
REMARK VINA RESULT:     0.001      6.981      8.918
REMARK INTER + INTRA:           0.380
REMARK INTER:                   0.000
REMARK INTRA:                   0.380
REMARK UNBOUND:                 0.378
REMARK SMILES CC1=CCC(=C(C)C)C(=O)CC(C)=CCC1
REMARK SMILES IDX 12 1 14 2 13 3 15 4 16 5 2 6 1 7 3 8 11 10 9 11 10 12 5 13
REMARK SMILES IDX 6 14 7 15 8 16 4 17
REMARK H PARENT
REMARK Flexibility Score: 60.00
ROOT
ATOM      1  C   UNL     1      14.593  40.065  78.761  1.00  0.00    -0.070 C 
ATOM      2  C   UNL     1      14.005  40.780  79.750  1.00  0.00    -0.027 C 
ATOM      3  C   UNL     1      16.059  39.741  78.915  1.00  0.00     0.039 C 
ENDROOT
BRANCH   2   4
ATOM      4  C   UNL     1      12.590  41.304  79.755  1.00  0.00     0.032 C 
BRANCH   4   5
ATOM      5  C   UNL     1      11.549  40.196  80.006  1.00  0.00     0.034 C 
BRANCH   5   6
ATOM      6  C   UNL     1      10.449  40.195  78.963  1.00  0.00    -0.077 C 
ATOM      7  C   UNL     1       9.632  41.450  78.785  1.00  0.00     0.039 C 
ATOM      8  C   UNL     1      10.174  39.142  78.161  1.00  0.00    -0.023 CG0
ATOM      9  G   UNL     1      10.901  37.819  78.164  1.00  0.00     0.000 G0
ENDBRANCH   5   6
ENDBRANCH   4   5
ENDBRANCH   2   4
BRANCH   1  10
ATOM     10  C   UNL     1      13.879  39.639  77.490  1.00  0.00     0.111 C 
BRANCH  10  11
ATOM     11  C   UNL     1      13.376  38.219  77.585  1.00  0.00     0.163 C 
ATOM     12  O   UNL     1      14.128  37.358  78.120  1.00  0.00    -0.294 OA
BRANCH  11  13
ATOM     13  C   UNL     1      12.010  37.829  77.118  1.00  0.00    -0.002 C 
ATOM     14  C   UNL     1      11.748  37.565  75.803  1.00  0.00    -0.069 C 
ATOM     15  C   UNL     1      10.371  37.136  75.344  1.00  0.00     0.039 C 
ATOM     16  C   UNL     1      12.808  37.725  74.736  1.00  0.00     0.039 C 
BRANCH  13  17
ATOM     17  C   UNL     1      10.904  37.813  78.158  1.00  0.00     0.066 CG0
ATOM     18  G   UNL     1      10.172  39.132  78.149  1.00  0.00     0.000 G0
ENDBRANCH  13  17
ENDBRANCH  11  13
ENDBRANCH  10  11
ENDBRANCH   1  10
TORSDOF 0
ENDMDL
MODEL 4
REMARK VINA RESULT:     0.009      8.543     10.576
REMARK INTER + INTRA:           0.390
REMARK INTER:                   0.000
REMARK INTRA:                   0.390
REMARK UNBOUND:                 0.378
REMARK SMILES CC1=CCC(=C(C)C)C(=O)CC(C)=CCC1
REMARK SMILES IDX 12 1 14 2 13 3 15 4 16 5 2 6 1 7 3 8 11 10 9 11 10 12 5 13
REMARK SMILES IDX 6 14 7 15 8 16 4 17
REMARK H PARENT
REMARK Flexibility Score: 60.00
ROOT
ATOM      1  C   UNL     1      10.800  33.457  82.198  1.00  0.00    -0.070 C 
ATOM      2  C   UNL     1      11.290  32.895  83.328  1.00  0.00    -0.027 C 
ATOM      3  C   UNL     1       9.899  34.657  82.353  1.00  0.00     0.039 C 
ENDROOT
BRANCH   2   4
ATOM      4  C   UNL     1      12.116  31.635  83.414  1.00  0.00     0.032 C 
BRANCH   4   5
ATOM      5  C   UNL     1      13.617  31.894  83.183  1.00  0.00     0.034 C 
BRANCH   5   6
ATOM      6  C   UNL     1      14.193  31.006  82.098  1.00  0.00    -0.077 C 
ATOM      7  C   UNL     1      14.311  29.528  82.372  1.00  0.00     0.039 C 
ATOM      8  C   UNL     1      14.582  31.459  80.885  1.00  0.00    -0.023 CG0
ATOM      9  G   UNL     1      14.509  32.890  80.413  1.00  0.00     0.000 G0
ENDBRANCH   5   6
ENDBRANCH   4   5
ENDBRANCH   2   4
BRANCH   1  10
ATOM     10  C   UNL     1      11.051  32.907  80.803  1.00  0.00     0.111 C 
BRANCH  10  11
ATOM     11  C   UNL     1      12.103  33.706  80.073  1.00  0.00     0.163 C 
ATOM     12  O   UNL     1      11.959  34.958  80.008  1.00  0.00    -0.294 OA
BRANCH  11  13
ATOM     13  C   UNL     1      13.319  33.064  79.485  1.00  0.00    -0.002 C 
ATOM     14  C   UNL     1      13.335  32.598  78.199  1.00  0.00    -0.069 C 
ATOM     15  C   UNL     1      14.581  31.983  77.599  1.00  0.00     0.039 C 
ATOM     16  C   UNL     1      12.101  32.640  77.326  1.00  0.00     0.039 C 
BRANCH  13  17
ATOM     17  C   UNL     1      14.515  32.881  80.401  1.00  0.00     0.066 CG0
ATOM     18  G   UNL     1      14.584  31.449  80.875  1.00  0.00     0.000 G0
ENDBRANCH  13  17
ENDBRANCH  11  13
ENDBRANCH  10  11
ENDBRANCH   1  10
TORSDOF 0
ENDMDL
MODEL 5
REMARK VINA RESULT:     0.009     11.540     13.176
REMARK INTER + INTRA:           0.390
REMARK INTER:                   0.000
REMARK INTRA:                   0.390
REMARK UNBOUND:                 0.378
REMARK SMILES CC1=CCC(=C(C)C)C(=O)CC(C)=CCC1
REMARK SMILES IDX 12 1 14 2 13 3 15 4 16 5 2 6 1 7 3 8 11 10 9 11 10 12 5 13
REMARK SMILES IDX 6 14 7 15 8 16 4 17
REMARK H PARENT
REMARK Flexibility Score: 60.00
ROOT
ATOM      1  C   UNL     1       7.880  31.997  76.669  1.00  0.00    -0.070 C 
ATOM      2  C   UNL     1       6.945  31.681  75.742  1.00  0.00    -0.027 C 
ATOM      3  C   UNL     1       8.247  30.936  77.677  1.00  0.00     0.039 C 
ENDROOT
BRANCH   2   4
ATOM      4  C   UNL     1       6.354  32.615  74.714  1.00  0.00     0.032 C 
BRANCH   4   5
ATOM      5  C   UNL     1       5.177  33.438  75.269  1.00  0.00     0.034 C 
BRANCH   5   6
ATOM      6  C   UNL     1       5.263  34.900  74.875  1.00  0.00    -0.077 C 
ATOM      7  C   UNL     1       4.994  35.270  73.438  1.00  0.00     0.039 C 
ATOM      8  C   UNL     1       5.541  35.897  75.745  1.00  0.00    -0.023 CG0
ATOM      9  G   UNL     1       5.802  35.731  77.222  1.00  0.00     0.000 G0
ENDBRANCH   5   6
ENDBRANCH   4   5
ENDBRANCH   2   4
BRANCH   1  10
ATOM     10  C   UNL     1       8.521  33.370  76.788  1.00  0.00     0.111 C 
BRANCH  10  11
ATOM     11  C   UNL     1       7.810  34.228  77.807  1.00  0.00     0.163 C 
ATOM     12  O   UNL     1       7.692  33.781  78.980  1.00  0.00    -0.294 OA
BRANCH  11  13
ATOM     13  C   UNL     1       7.301  35.595  77.474  1.00  0.00    -0.002 C 
ATOM     14  C   UNL     1       8.125  36.685  77.460  1.00  0.00    -0.069 C 
ATOM     15  C   UNL     1       7.610  38.059  77.087  1.00  0.00     0.039 C 
ATOM     16  C   UNL     1       9.583  36.582  77.850  1.00  0.00     0.039 C 
BRANCH  13  17
ATOM     17  C   UNL     1       5.809  35.734  77.228  1.00  0.00     0.066 CG0
ATOM     18  G   UNL     1       5.545  35.883  75.749  1.00  0.00     0.000 G0
ENDBRANCH  13  17
ENDBRANCH  11  13
ENDBRANCH  10  11
ENDBRANCH   1  10
TORSDOF 0
ENDMDL
MODEL 6
REMARK VINA RESULT:     0.009     10.353     11.983
REMARK INTER + INTRA:           0.390
REMARK INTER:                   0.000
REMARK INTRA:                   0.390
REMARK UNBOUND:                 0.378
REMARK SMILES CC1=CCC(=C(C)C)C(=O)CC(C)=CCC1
REMARK SMILES IDX 12 1 14 2 13 3 15 4 16 5 2 6 1 7 3 8 11 10 9 11 10 12 5 13
REMARK SMILES IDX 6 14 7 15 8 16 4 17
REMARK H PARENT
REMARK Flexibility Score: 60.00
ROOT
ATOM      1  C   UNL     1       7.963  31.401  77.838  1.00  0.00    -0.070 C 
ATOM      2  C   UNL     1       7.114  31.655  76.814  1.00  0.00    -0.027 C 
ATOM      3  C   UNL     1       8.286  29.956  78.130  1.00  0.00     0.039 C 
ENDROOT
BRANCH   2   4
ATOM      4  C   UNL     1       6.573  33.007  76.417  1.00  0.00     0.032 C 
BRANCH   4   5
ATOM      5  C   UNL     1       5.328  33.410  77.231  1.00  0.00     0.034 C 
BRANCH   5   6
ATOM      6  C   UNL     1       5.395  34.848  77.707  1.00  0.00    -0.077 C 
ATOM      7  C   UNL     1       5.225  35.947  76.689  1.00  0.00     0.039 C 
ATOM      8  C   UNL     1       5.571  35.203  79.000  1.00  0.00    -0.023 CG0
ATOM      9  G   UNL     1       5.723  34.253  80.163  1.00  0.00     0.000 G0
ENDBRANCH   5   6
ENDBRANCH   4   5
ENDBRANCH   2   4
BRANCH   1  10
ATOM     10  C   UNL     1       8.545  32.477  78.739  1.00  0.00     0.111 C 
BRANCH  10  11
ATOM     11  C   UNL     1       7.729  32.648  79.997  1.00  0.00     0.163 C 
ATOM     12  O   UNL     1       7.536  31.634  80.722  1.00  0.00    -0.294 OA
BRANCH  11  13
ATOM     13  C   UNL     1       7.201  33.981  80.424  1.00  0.00    -0.002 C 
ATOM     14  C   UNL     1       7.986  34.891  81.075  1.00  0.00    -0.069 C 
ATOM     15  C   UNL     1       7.455  36.252  81.470  1.00  0.00     0.039 C 
ATOM     16  C   UNL     1       9.412  34.570  81.466  1.00  0.00     0.039 C 
BRANCH  13  17
ATOM     17  C   UNL     1       5.729  34.253  80.170  1.00  0.00     0.066 CG0
ATOM     18  G   UNL     1       5.575  35.189  78.996  1.00  0.00     0.000 G0
ENDBRANCH  13  17
ENDBRANCH  11  13
ENDBRANCH  10  11
ENDBRANCH   1  10
TORSDOF 0
ENDMDL
MODEL 7
REMARK VINA RESULT:     0.009      8.603     10.294
REMARK INTER + INTRA:           0.390
REMARK INTER:                   0.000
REMARK INTRA:                   0.390
REMARK UNBOUND:                 0.378
REMARK SMILES CC1=CCC(=C(C)C)C(=O)CC(C)=CCC1
REMARK SMILES IDX 12 1 14 2 13 3 15 4 16 5 2 6 1 7 3 8 11 10 9 11 10 12 5 13
REMARK SMILES IDX 6 14 7 15 8 16 4 17
REMARK H PARENT
REMARK Flexibility Score: 60.00
ROOT
ATOM      1  C   UNL     1       7.492  32.695  79.248  1.00  0.00    -0.070 C 
ATOM      2  C   UNL     1       7.026  33.405  78.193  1.00  0.00    -0.027 C 
ATOM      3  C   UNL     1       7.342  31.194  79.196  1.00  0.00     0.039 C 
ENDROOT
BRANCH   2   4
ATOM      4  C   UNL     1       6.976  34.910  78.081  1.00  0.00     0.032 C 
BRANCH   4   5
ATOM      5  C   UNL     1       5.716  35.510  78.734  1.00  0.00     0.034 C 
BRANCH   5   6
ATOM      6  C   UNL     1       6.034  36.726  79.582  1.00  0.00    -0.077 C 
ATOM      7  C   UNL     1       6.420  38.005  78.882  1.00  0.00     0.039 C 
ATOM      8  C   UNL     1       5.965  36.739  80.932  1.00  0.00    -0.023 CG0
ATOM      9  G   UNL     1       5.565  35.576  81.806  1.00  0.00     0.000 G0
ENDBRANCH   5   6
ENDBRANCH   4   5
ENDBRANCH   2   4
BRANCH   1  10
ATOM     10  C   UNL     1       8.089  33.327  80.494  1.00  0.00     0.111 C 
BRANCH  10  11
ATOM     11  C   UNL     1       7.056  33.489  81.583  1.00  0.00     0.163 C 
ATOM     12  O   UNL     1       6.428  32.463  81.962  1.00  0.00    -0.294 OA
BRANCH  11  13
ATOM     13  C   UNL     1       6.805  34.805  82.247  1.00  0.00    -0.002 C 
ATOM     14  C   UNL     1       7.610  35.270  83.250  1.00  0.00    -0.069 C 
ATOM     15  C   UNL     1       7.371  36.620  83.892  1.00  0.00     0.039 C 
ATOM     16  C   UNL     1       8.756  34.445  83.792  1.00  0.00     0.039 C 
BRANCH  13  17
ATOM     17  C   UNL     1       5.569  35.572  81.814  1.00  0.00     0.066 CG0
ATOM     18  G   UNL     1       5.966  36.726  80.925  1.00  0.00     0.000 G0
ENDBRANCH  13  17
ENDBRANCH  11  13
ENDBRANCH  10  11
ENDBRANCH   1  10
TORSDOF 0
ENDMDL
MODEL 8
REMARK VINA RESULT:     0.023      6.101      7.747
REMARK INTER + INTRA:           0.410
REMARK INTER:                   0.000
REMARK INTRA:                   0.410
REMARK UNBOUND:                 0.378
REMARK SMILES CC1=CCC(=C(C)C)C(=O)CC(C)=CCC1
REMARK SMILES IDX 12 1 14 2 13 3 15 4 16 5 2 6 1 7 3 8 11 10 9 11 10 12 5 13
REMARK SMILES IDX 6 14 7 15 8 16 4 17
REMARK H PARENT
REMARK Flexibility Score: 60.00
ROOT
ATOM      1  C   UNL     1       6.671  37.794  87.700  1.00  0.00    -0.070 C 
ATOM      2  C   UNL     1       5.793  37.930  86.679  1.00  0.00    -0.027 C 
ATOM      3  C   UNL     1       6.991  36.392  88.159  1.00  0.00     0.039 C 
ENDROOT
BRANCH   2   4
ATOM      4  C   UNL     1       5.251  39.230  86.134  1.00  0.00     0.032 C 
BRANCH   4   5
ATOM      5  C   UNL     1       4.181  39.855  87.048  1.00  0.00     0.034 C 
BRANCH   5   6
ATOM      6  C   UNL     1       4.486  41.302  87.382  1.00  0.00    -0.077 C 
ATOM      7  C   UNL     1       4.487  42.310  86.260  1.00  0.00     0.039 C 
ATOM      8  C   UNL     1       4.732  41.748  88.635  1.00  0.00    -0.023 CG0
ATOM      9  G   UNL     1       4.739  40.903  89.886  1.00  0.00     0.000 G0
ENDBRANCH   5   6
ENDBRANCH   4   5
ENDBRANCH   2   4
BRANCH   1  10
ATOM     10  C   UNL     1       7.291  38.965  88.443  1.00  0.00     0.111 C 
BRANCH  10  11
ATOM     11  C   UNL     1       6.645  39.172  89.792  1.00  0.00     0.163 C 
ATOM     12  O   UNL     1       6.550  38.178  90.563  1.00  0.00    -0.294 OA
BRANCH  11  13
ATOM     13  C   UNL     1       6.173  40.517  90.246  1.00  0.00    -0.002 C 
ATOM     14  C   UNL     1       6.961  41.336  91.006  1.00  0.00    -0.069 C 
ATOM     15  C   UNL     1       6.490  42.711  91.431  1.00  0.00     0.039 C 
ATOM     16  C   UNL     1       8.325  40.898  91.490  1.00  0.00     0.039 C 
BRANCH  13  17
ATOM     17  C   UNL     1       4.748  40.904  89.892  1.00  0.00     0.066 CG0
ATOM     18  G   UNL     1       4.740  41.737  88.634  1.00  0.00     0.000 G0
ENDBRANCH  13  17
ENDBRANCH  11  13
ENDBRANCH  10  11
ENDBRANCH   1  10
TORSDOF 0
ENDMDL
MODEL 9
REMARK VINA RESULT:     0.079     15.101     16.389
REMARK INTER + INTRA:           0.489
REMARK INTER:                   0.000
REMARK INTRA:                   0.489
REMARK UNBOUND:                 0.378
REMARK SMILES CC1=CCC(=C(C)C)C(=O)CC(C)=CCC1
REMARK SMILES IDX 12 1 14 2 13 3 15 4 16 5 2 6 1 7 3 8 11 10 9 11 10 12 5 13
REMARK SMILES IDX 6 14 7 15 8 16 4 17
REMARK H PARENT
REMARK Flexibility Score: 60.00
ROOT
ATOM      1  C   UNL     1      -0.358  31.528  80.587  1.00  0.00    -0.070 C 
ATOM      2  C   UNL     1      -1.213  30.628  80.048  1.00  0.00    -0.027 C 
ATOM      3  C   UNL     1      -0.055  32.769  79.783  1.00  0.00     0.039 C 
ENDROOT
BRANCH   2   4
ATOM      4  C   UNL     1      -1.573  29.280  80.624  1.00  0.00     0.032 C 
BRANCH   4   5
ATOM      5  C   UNL     1      -0.439  28.248  80.468  1.00  0.00     0.034 C 
BRANCH   5   6
ATOM      6  C   UNL     1      -0.220  27.442  81.734  1.00  0.00    -0.077 C 
ATOM      7  C   UNL     1      -1.358  26.598  82.250  1.00  0.00     0.039 C 
ATOM      8  C   UNL     1       0.949  27.415  82.414  1.00  0.00    -0.023 CG0
ATOM      9  G   UNL     1       2.206  28.160  82.036  1.00  0.00     0.000 G0
ENDBRANCH   5   6
ENDBRANCH   4   5
ENDBRANCH   2   4
BRANCH   1  10
ATOM     10  C   UNL     1       0.356  31.325  81.913  1.00  0.00     0.111 C 
BRANCH  10  11
ATOM     11  C   UNL     1       1.700  30.664  81.724  1.00  0.00     0.163 C 
ATOM     12  O   UNL     1       2.449  31.094  80.805  1.00  0.00    -0.294 OA
BRANCH  11  13
ATOM     13  C   UNL     1       2.176  29.565  82.621  1.00  0.00    -0.002 C 
ATOM     14  C   UNL     1       2.625  29.816  83.888  1.00  0.00    -0.069 C 
ATOM     15  C   UNL     1       3.071  28.695  84.803  1.00  0.00     0.039 C 
ATOM     16  C   UNL     1       2.735  31.225  84.426  1.00  0.00     0.039 C 
BRANCH  13  17
ATOM     17  C   UNL     1       2.212  28.164  82.038  1.00  0.00     0.066 CG0
ATOM     18  G   UNL     1       0.951  27.422  82.408  1.00  0.00     0.000 G0
ENDBRANCH  13  17
ENDBRANCH  11  13
ENDBRANCH  10  11
ENDBRANCH   1  10
TORSDOF 0
ENDMDL
