MODEL 1
REMARK VINA RESULT:    -4.474      0.000      0.000
REMARK INTER + INTRA:          -6.647
REMARK INTER:                  -6.306
REMARK INTRA:                  -0.342
REMARK UNBOUND:                -0.342
REMARK SMILES CCCCCCCCC(=O)[O-]
REMARK SMILES IDX 6 1 7 2 8 3 9 4 10 5 11 6 5 7 4 8 3 9 2 10 1 11
REMARK H PARENT
REMARK Flexibility Score: inf
ROOT
ATOM      1  C   UNL     1     127.756 143.118 140.066  1.00  0.00     0.000 C 
ENDROOT
BRANCH   1   2
ATOM      2  C   UNL     1     126.261 143.454 140.008  1.00  0.00     0.006 C 
BRANCH   2   3
ATOM      3  C   UNL     1     126.041 144.964 139.883  1.00  0.00     0.053 C 
BRANCH   3   4
ATOM      4  C   UNL     1     125.965 145.363 138.443  1.00  0.00     0.041 C 
ATOM      5  O   UNL     1     125.943 146.581 138.124  1.00  0.00    -0.550 OA
ATOM      6  O   UNL     1     125.869 144.391 137.455  1.00  0.00    -0.550 OA
ENDBRANCH   3   4
ENDBRANCH   2   3
ENDBRANCH   1   2
BRANCH   1   7
ATOM      7  C   UNL     1     128.080 142.251 141.288  1.00  0.00     0.000 C 
BRANCH   7   8
ATOM      8  C   UNL     1     129.568 142.353 141.658  1.00  0.00    -0.000 C 
BRANCH   8   9
ATOM      9  C   UNL     1     130.380 141.144 141.149  1.00  0.00    -0.000 C 
BRANCH   9  10
ATOM     10  C   UNL     1     131.301 141.476 139.962  1.00  0.00    -0.003 C 
ATOM     11  C   UNL     1     130.853 140.823 138.656  1.00  0.00     0.004 C 
ENDBRANCH   9  10
ENDBRANCH   8   9
ENDBRANCH   7   8
ENDBRANCH   1   7
TORSDOF 7
ENDMDL
MODEL 2
REMARK VINA RESULT:    -4.287      0.829      1.511
REMARK INTER + INTRA:          -6.383
REMARK INTER:                  -6.009
REMARK INTRA:                  -0.374
REMARK UNBOUND:                -0.342
REMARK SMILES CCCCCCCCC(=O)[O-]
REMARK SMILES IDX 6 1 7 2 8 3 9 4 10 5 11 6 5 7 4 8 3 9 2 10 1 11
REMARK H PARENT
REMARK Flexibility Score: inf
ROOT
ATOM      1  C   UNL     1     127.797 143.183 140.526  1.00  0.00     0.000 C 
ENDROOT
BRANCH   1   2
ATOM      2  C   UNL     1     126.385 143.414 139.973  1.00  0.00     0.006 C 
BRANCH   2   3
ATOM      3  C   UNL     1     126.036 144.905 139.964  1.00  0.00     0.053 C 
BRANCH   3   4
ATOM      4  C   UNL     1     126.018 145.429 138.563  1.00  0.00     0.041 C 
ATOM      5  O   UNL     1     125.819 144.647 137.596  1.00  0.00    -0.550 OA
ATOM      6  O   UNL     1     126.267 146.774 138.321  1.00  0.00    -0.550 OA
ENDBRANCH   3   4
ENDBRANCH   2   3
ENDBRANCH   1   2
BRANCH   1   7
ATOM      7  C   UNL     1     127.916 141.799 141.174  1.00  0.00     0.000 C 
BRANCH   7   8
ATOM      8  C   UNL     1     128.887 140.903 140.389  1.00  0.00    -0.000 C 
BRANCH   8   9
ATOM      9  C   UNL     1     129.471 141.619 139.153  1.00  0.00    -0.000 C 
BRANCH   9  10
ATOM     10  C   UNL     1     130.961 141.319 138.915  1.00  0.00    -0.003 C 
ATOM     11  C   UNL     1     131.789 141.343 140.198  1.00  0.00     0.004 C 
ENDBRANCH   9  10
ENDBRANCH   8   9
ENDBRANCH   7   8
ENDBRANCH   1   7
TORSDOF 7
ENDMDL
MODEL 3
REMARK VINA RESULT:    -4.264     11.749     13.755
REMARK INTER + INTRA:          -6.350
REMARK INTER:                  -5.597
REMARK INTRA:                  -0.753
REMARK UNBOUND:                -0.342
REMARK SMILES CCCCCCCCC(=O)[O-]
REMARK SMILES IDX 6 1 7 2 8 3 9 4 10 5 11 6 5 7 4 8 3 9 2 10 1 11
REMARK H PARENT
REMARK Flexibility Score: inf
ROOT
ATOM      1  C   UNL     1     140.380 136.080 141.899  1.00  0.00     0.000 C 
ENDROOT
BRANCH   1   2
ATOM      2  C   UNL     1     139.061 136.768 141.525  1.00  0.00     0.006 C 
BRANCH   2   3
ATOM      3  C   UNL     1     138.995 137.047 140.021  1.00  0.00     0.053 C 
BRANCH   3   4
ATOM      4  C   UNL     1     137.615 136.795 139.502  1.00  0.00     0.041 C 
ATOM      5  O   UNL     1     137.015 137.682 138.839  1.00  0.00    -0.550 OA
ATOM      6  O   UNL     1     136.972 135.598 139.791  1.00  0.00    -0.550 OA
ENDBRANCH   3   4
ENDBRANCH   2   3
ENDBRANCH   1   2
BRANCH   1   7
ATOM      7  C   UNL     1     140.696 134.931 140.933  1.00  0.00     0.000 C 
BRANCH   7   8
ATOM      8  C   UNL     1     139.732 133.753 141.143  1.00  0.00    -0.000 C 
BRANCH   8   9
ATOM      9  C   UNL     1     139.430 133.005 139.827  1.00  0.00    -0.000 C 
BRANCH   9  10
ATOM     10  C   UNL     1     140.287 133.477 138.640  1.00  0.00    -0.003 C 
ATOM     11  C   UNL     1     139.454 133.969 137.459  1.00  0.00     0.004 C 
ENDBRANCH   9  10
ENDBRANCH   8   9
ENDBRANCH   7   8
ENDBRANCH   1   7
TORSDOF 7
ENDMDL
MODEL 4
REMARK VINA RESULT:    -4.236      3.145      5.733
REMARK INTER + INTRA:          -6.311
REMARK INTER:                  -5.988
REMARK INTRA:                  -0.322
REMARK UNBOUND:                -0.342
REMARK SMILES CCCCCCCCC(=O)[O-]
REMARK SMILES IDX 6 1 7 2 8 3 9 4 10 5 11 6 5 7 4 8 3 9 2 10 1 11
REMARK H PARENT
REMARK Flexibility Score: inf
ROOT
ATOM      1  C   UNL     1     128.016 141.896 141.353  1.00  0.00     0.000 C 
ENDROOT
BRANCH   1   2
ATOM      2  C   UNL     1     129.452 142.390 141.564  1.00  0.00     0.006 C 
BRANCH   2   3
ATOM      3  C   UNL     1     130.442 141.222 141.551  1.00  0.00     0.053 C 
BRANCH   3   4
ATOM      4  C   UNL     1     131.327 141.299 140.347  1.00  0.00     0.041 C 
ATOM      5  O   UNL     1     130.839 141.576 139.220  1.00  0.00    -0.550 OA
ATOM      6  O   UNL     1     132.682 141.016 140.461  1.00  0.00    -0.550 OA
ENDBRANCH   3   4
ENDBRANCH   2   3
ENDBRANCH   1   2
BRANCH   1   7
ATOM      7  C   UNL     1     127.158 142.969 140.671  1.00  0.00     0.000 C 
BRANCH   7   8
ATOM      8  C   UNL     1     127.367 142.957 139.149  1.00  0.00    -0.000 C 
BRANCH   8   9
ATOM      9  C   UNL     1     126.326 143.824 138.411  1.00  0.00    -0.000 C 
BRANCH   9  10
ATOM     10  C   UNL     1     126.078 145.189 139.076  1.00  0.00    -0.003 C 
ATOM     11  C   UNL     1     125.763 146.295 138.072  1.00  0.00     0.004 C 
ENDBRANCH   9  10
ENDBRANCH   8   9
ENDBRANCH   7   8
ENDBRANCH   1   7
TORSDOF 7
ENDMDL
MODEL 5
REMARK VINA RESULT:    -4.157      1.232      1.863
REMARK INTER + INTRA:          -6.199
REMARK INTER:                  -5.615
REMARK INTRA:                  -0.584
REMARK UNBOUND:                -0.342
REMARK SMILES CCCCCCCCC(=O)[O-]
REMARK SMILES IDX 6 1 7 2 8 3 9 4 10 5 11 6 5 7 4 8 3 9 2 10 1 11
REMARK H PARENT
REMARK Flexibility Score: inf
ROOT
ATOM      1  C   UNL     1     128.055 142.010 141.420  1.00  0.00     0.000 C 
ENDROOT
BRANCH   1   2
ATOM      2  C   UNL     1     127.349 143.066 140.560  1.00  0.00     0.006 C 
BRANCH   2   3
ATOM      3  C   UNL     1     127.464 142.727 139.072  1.00  0.00     0.053 C 
BRANCH   3   4
ATOM      4  C   UNL     1     126.525 143.572 138.269  1.00  0.00     0.041 C 
ATOM      5  O   UNL     1     126.131 143.181 137.139  1.00  0.00    -0.550 OA
ATOM      6  O   UNL     1     126.123 144.812 138.748  1.00  0.00    -0.550 OA
ENDBRANCH   3   4
ENDBRANCH   2   3
ENDBRANCH   1   2
BRANCH   1   7
ATOM      7  C   UNL     1     129.531 142.369 141.632  1.00  0.00     0.000 C 
BRANCH   7   8
ATOM      8  C   UNL     1     130.419 141.117 141.553  1.00  0.00    -0.000 C 
BRANCH   8   9
ATOM      9  C   UNL     1     131.520 141.250 140.480  1.00  0.00    -0.000 C 
BRANCH   9  10
ATOM     10  C   UNL     1     130.974 141.533 139.070  1.00  0.00    -0.003 C 
ATOM     11  C   UNL     1     130.476 140.278 138.358  1.00  0.00     0.004 C 
ENDBRANCH   9  10
ENDBRANCH   8   9
ENDBRANCH   7   8
ENDBRANCH   1   7
TORSDOF 7
ENDMDL
MODEL 6
REMARK VINA RESULT:    -4.119     11.713     13.579
REMARK INTER + INTRA:          -6.146
REMARK INTER:                  -5.380
REMARK INTRA:                  -0.766
REMARK UNBOUND:                -0.342
REMARK SMILES CCCCCCCCC(=O)[O-]
REMARK SMILES IDX 6 1 7 2 8 3 9 4 10 5 11 6 5 7 4 8 3 9 2 10 1 11
REMARK H PARENT
REMARK Flexibility Score: inf
ROOT
ATOM      1  C   UNL     1     139.627 136.776 139.266  1.00  0.00     0.000 C 
ENDROOT
BRANCH   1   2
ATOM      2  C   UNL     1     138.102 136.822 139.115  1.00  0.00     0.006 C 
BRANCH   2   3
ATOM      3  C   UNL     1     137.408 136.402 140.413  1.00  0.00     0.053 C 
BRANCH   3   4
ATOM      4  C   UNL     1     136.407 135.323 140.147  1.00  0.00     0.041 C 
ATOM      5  O   UNL     1     136.792 134.164 139.838  1.00  0.00    -0.550 OA
ATOM      6  O   UNL     1     135.049 135.608 140.192  1.00  0.00    -0.550 OA
ENDBRANCH   3   4
ENDBRANCH   2   3
ENDBRANCH   1   2
BRANCH   1   7
ATOM      7  C   UNL     1     140.031 136.066 140.564  1.00  0.00     0.000 C 
BRANCH   7   8
ATOM      8  C   UNL     1     140.961 134.878 140.275  1.00  0.00    -0.000 C 
BRANCH   8   9
ATOM      9  C   UNL     1     140.193 133.655 139.731  1.00  0.00    -0.000 C 
BRANCH   9  10
ATOM     10  C   UNL     1     140.503 133.339 138.258  1.00  0.00    -0.003 C 
ATOM     11  C   UNL     1     139.352 133.688 137.317  1.00  0.00     0.004 C 
ENDBRANCH   9  10
ENDBRANCH   8   9
ENDBRANCH   7   8
ENDBRANCH   1   7
TORSDOF 7
ENDMDL
MODEL 7
REMARK VINA RESULT:    -4.115     14.307     15.434
REMARK INTER + INTRA:          -6.140
REMARK INTER:                  -5.645
REMARK INTRA:                  -0.496
REMARK UNBOUND:                -0.342
REMARK SMILES CCCCCCCCC(=O)[O-]
REMARK SMILES IDX 6 1 7 2 8 3 9 4 10 5 11 6 5 7 4 8 3 9 2 10 1 11
REMARK H PARENT
REMARK Flexibility Score: inf
ROOT
ATOM      1  C   UNL     1     141.165 146.418 137.437  1.00  0.00     0.000 C 
ENDROOT
BRANCH   1   2
ATOM      2  C   UNL     1     142.074 147.546 136.935  1.00  0.00     0.006 C 
BRANCH   2   3
ATOM      3  C   UNL     1     141.498 148.197 135.675  1.00  0.00     0.053 C 
BRANCH   3   4
ATOM      4  C   UNL     1     142.268 147.770 134.466  1.00  0.00     0.041 C 
ATOM      5  O   UNL     1     141.951 146.718 133.851  1.00  0.00    -0.550 OA
ATOM      6  O   UNL     1     143.368 148.507 134.046  1.00  0.00    -0.550 OA
ENDBRANCH   3   4
ENDBRANCH   2   3
ENDBRANCH   1   2
BRANCH   1   7
ATOM      7  C   UNL     1     141.603 145.063 136.870  1.00  0.00     0.000 C 
BRANCH   7   8
ATOM      8  C   UNL     1     143.127 144.894 136.960  1.00  0.00    -0.000 C 
BRANCH   8   9
ATOM      9  C   UNL     1     143.682 143.994 135.835  1.00  0.00    -0.000 C 
BRANCH   9  10
ATOM     10  C   UNL     1     143.812 142.515 136.238  1.00  0.00    -0.003 C 
ATOM     11  C   UNL     1     143.972 142.317 137.744  1.00  0.00     0.004 C 
ENDBRANCH   9  10
ENDBRANCH   8   9
ENDBRANCH   7   8
ENDBRANCH   1   7
TORSDOF 7
ENDMDL
MODEL 8
REMARK VINA RESULT:    -4.108      3.362      5.466
REMARK INTER + INTRA:          -6.131
REMARK INTER:                  -5.706
REMARK INTRA:                  -0.425
REMARK UNBOUND:                -0.342
REMARK SMILES CCCCCCCCC(=O)[O-]
REMARK SMILES IDX 6 1 7 2 8 3 9 4 10 5 11 6 5 7 4 8 3 9 2 10 1 11
REMARK H PARENT
REMARK Flexibility Score: inf
ROOT
ATOM      1  C   UNL     1     129.191 142.318 141.305  1.00  0.00     0.000 C 
ENDROOT
BRANCH   1   2
ATOM      2  C   UNL     1     130.452 141.680 140.708  1.00  0.00     0.006 C 
BRANCH   2   3
ATOM      3  C   UNL     1     130.386 141.663 139.179  1.00  0.00     0.053 C 
BRANCH   3   4
ATOM      4  C   UNL     1     131.201 140.532 138.633  1.00  0.00     0.041 C 
ATOM      5  O   UNL     1     132.303 140.233 139.162  1.00  0.00    -0.550 OA
ATOM      6  O   UNL     1     130.765 139.840 137.511  1.00  0.00    -0.550 OA
ENDBRANCH   3   4
ENDBRANCH   2   3
ENDBRANCH   1   2
BRANCH   1   7
ATOM      7  C   UNL     1     128.005 142.205 140.339  1.00  0.00     0.000 C 
BRANCH   7   8
ATOM      8  C   UNL     1     127.108 143.450 140.419  1.00  0.00    -0.000 C 
BRANCH   8   9
ATOM      9  C   UNL     1     126.485 143.807 139.053  1.00  0.00    -0.000 C 
BRANCH   9  10
ATOM     10  C   UNL     1     126.655 142.707 137.991  1.00  0.00    -0.003 C 
ATOM     11  C   UNL     1     126.040 143.077 136.643  1.00  0.00     0.004 C 
ENDBRANCH   9  10
ENDBRANCH   8   9
ENDBRANCH   7   8
ENDBRANCH   1   7
TORSDOF 7
ENDMDL
MODEL 9
REMARK VINA RESULT:    -4.064     12.605     14.621
REMARK INTER + INTRA:          -6.069
REMARK INTER:                  -5.230
REMARK INTRA:                  -0.839
REMARK UNBOUND:                -0.342
REMARK SMILES CCCCCCCCC(=O)[O-]
REMARK SMILES IDX 6 1 7 2 8 3 9 4 10 5 11 6 5 7 4 8 3 9 2 10 1 11
REMARK H PARENT
REMARK Flexibility Score: inf
ROOT
ATOM      1  C   UNL     1     141.283 135.206 140.946  1.00  0.00     0.000 C 
ENDROOT
BRANCH   1   2
ATOM      2  C   UNL     1     140.963 134.448 139.652  1.00  0.00     0.006 C 
BRANCH   2   3
ATOM      3  C   UNL     1     139.861 133.410 139.882  1.00  0.00     0.053 C 
BRANCH   3   4
ATOM      4  C   UNL     1     138.961 133.330 138.689  1.00  0.00     0.041 C 
ATOM      5  O   UNL     1     137.757 132.986 138.826  1.00  0.00    -0.550 OA
ATOM      6  O   UNL     1     139.463 133.589 137.421  1.00  0.00    -0.550 OA
ENDBRANCH   3   4
ENDBRANCH   2   3
ENDBRANCH   1   2
BRANCH   1   7
ATOM      7  C   UNL     1     140.141 135.071 141.961  1.00  0.00     0.000 C 
BRANCH   7   8
ATOM      8  C   UNL     1     139.256 136.327 141.965  1.00  0.00    -0.000 C 
BRANCH   8   9
ATOM      9  C   UNL     1     137.768 135.993 141.730  1.00  0.00    -0.000 C 
BRANCH   9  10
ATOM     10  C   UNL     1     137.296 136.265 140.291  1.00  0.00    -0.003 C 
ATOM     11  C   UNL     1     138.322 137.030 139.459  1.00  0.00     0.004 C 
ENDBRANCH   9  10
ENDBRANCH   8   9
ENDBRANCH   7   8
ENDBRANCH   1   7
TORSDOF 7
ENDMDL
