MODEL 1
REMARK VINA RESULT:    -5.878      0.000      0.000
REMARK INTER + INTRA:          -7.423
REMARK INTER:                  -7.081
REMARK INTRA:                  -0.342
REMARK UNBOUND:                -0.342
REMARK SMILES O=c1c(O)c(-c2ccc(O)cc2O)oc2cc(O)cc(O)c12
REMARK SMILES IDX 5 1 3 2 2 3 1 4 22 5 20 6 19 7 17 8 16 9 15 10 14 11 6 12
REMARK SMILES IDX 8 13 7 14 9 15 11 16 12 17 10 18 13 20 4 22 21 24 18 26
REMARK H PARENT 10 19 13 21 4 23 21 25 18 27
REMARK Flexibility Score: inf
ROOT
ATOM      1  C   UNL     1      -4.984 -16.295  16.873  1.00  0.00     0.184 A 
ATOM      2  C   UNL     1      -4.711 -17.550  17.436  1.00  0.00     0.208 A 
ATOM      3  C   UNL     1      -5.467 -18.660  17.027  1.00  0.00     0.238 A 
ATOM      4  O   UNL     1      -5.176 -19.793  17.492  1.00  0.00    -0.285 OA
ATOM      5  C   UNL     1      -6.505 -18.492  16.080  1.00  0.00     0.111 A 
ATOM      6  C   UNL     1      -7.362 -19.539  15.621  1.00  0.00     0.134 A 
ATOM      7  C   UNL     1      -8.276 -19.282  14.591  1.00  0.00     0.093 A 
ATOM      8  C   UNL     1      -8.409 -18.005  14.049  1.00  0.00     0.123 A 
ATOM      9  C   UNL     1      -7.618 -16.961  14.528  1.00  0.00     0.094 A 
ATOM     10  C   UNL     1      -6.672 -17.193  15.530  1.00  0.00     0.146 A 
ATOM     11  O   UNL     1      -5.930 -16.175  15.948  1.00  0.00    -0.451 OA
ENDROOT
BRANCH   1  12
ATOM     12  C   UNL     1      -4.235 -15.087  17.283  1.00  0.00     0.063 A 
ATOM     13  C   UNL     1      -4.226 -12.909  18.368  1.00  0.00     0.047 A 
ATOM     14  C   UNL     1      -4.893 -14.085  18.017  1.00  0.00     0.020 A 
ATOM     15  C   UNL     1      -2.898 -12.714  17.987  1.00  0.00     0.119 A 
ATOM     16  C   UNL     1      -2.232 -13.704  17.254  1.00  0.00     0.093 A 
ATOM     17  C   UNL     1      -2.886 -14.893  16.904  1.00  0.00     0.130 A 
BRANCH  15  18
ATOM     18  O   UNL     1      -2.248 -11.534  18.341  1.00  0.00    -0.508 OA
ATOM     19  H   UNL     1      -2.695 -10.837  18.926  1.00  0.00     0.293 HD
ENDBRANCH  15  18
BRANCH  17  20
ATOM     20  O   UNL     1      -2.163 -15.861  16.204  1.00  0.00    -0.507 OA
ATOM     21  H   UNL     1      -2.603 -16.607  15.681  1.00  0.00     0.293 HD
ENDBRANCH  17  20
ENDBRANCH   1  12
BRANCH   2  22
ATOM     22  O   UNL     1      -3.681 -17.685  18.373  1.00  0.00    -0.502 OA
ATOM     23  H   UNL     1      -2.750 -17.321  18.210  1.00  0.00     0.293 HD
ENDBRANCH   2  22
BRANCH   6  24
ATOM     24  O   UNL     1      -7.374 -20.829  16.159  1.00  0.00    -0.507 OA
ATOM     25  H   UNL     1      -7.860 -21.616  15.758  1.00  0.00     0.293 HD
ENDBRANCH   6  24
BRANCH   8  26
ATOM     26  O   UNL     1      -9.340 -17.783  13.036  1.00  0.00    -0.508 OA
ATOM     27  H   UNL     1      -9.845 -16.908  12.963  1.00  0.00     0.293 HD
ENDBRANCH   8  26
TORSDOF 6
ENDMDL
MODEL 2
REMARK VINA RESULT:    -5.635      1.520      6.872
REMARK INTER + INTRA:          -7.130
REMARK INTER:                  -6.760
REMARK INTRA:                  -0.370
REMARK UNBOUND:                -0.342
REMARK SMILES O=c1c(O)c(-c2ccc(O)cc2O)oc2cc(O)cc(O)c12
REMARK SMILES IDX 5 1 3 2 2 3 1 4 22 5 20 6 19 7 17 8 16 9 15 10 14 11 6 12
REMARK SMILES IDX 8 13 7 14 9 15 11 16 12 17 10 18 13 20 4 22 21 24 18 26
REMARK H PARENT 10 19 13 21 4 23 21 25 18 27
REMARK Flexibility Score: inf
ROOT
ATOM      1  C   UNL     1      -5.858 -16.071  16.260  1.00  0.00     0.184 A 
ATOM      2  C   UNL     1      -6.453 -15.044  17.008  1.00  0.00     0.208 A 
ATOM      3  C   UNL     1      -5.639 -14.036  17.549  1.00  0.00     0.238 A 
ATOM      4  O   UNL     1      -6.186 -13.085  18.166  1.00  0.00    -0.285 OA
ATOM      5  C   UNL     1      -4.237 -14.086  17.356  1.00  0.00     0.111 A 
ATOM      6  C   UNL     1      -3.311 -13.140  17.892  1.00  0.00     0.134 A 
ATOM      7  C   UNL     1      -1.958 -13.220  17.535  1.00  0.00     0.093 A 
ATOM      8  C   UNL     1      -1.489 -14.245  16.718  1.00  0.00     0.123 A 
ATOM      9  C   UNL     1      -2.375 -15.210  16.235  1.00  0.00     0.094 A 
ATOM     10  C   UNL     1      -3.735 -15.136  16.543  1.00  0.00     0.146 A 
ATOM     11  O   UNL     1      -4.547 -16.066  16.052  1.00  0.00    -0.451 OA
ENDROOT
BRANCH   1  12
ATOM     12  C   UNL     1      -6.663 -17.171  15.687  1.00  0.00     0.063 A 
ATOM     13  C   UNL     1      -8.275 -17.929  14.029  1.00  0.00     0.047 A 
ATOM     14  C   UNL     1      -7.462 -16.924  14.557  1.00  0.00     0.020 A 
ATOM     15  C   UNL     1      -8.308 -19.191  14.624  1.00  0.00     0.119 A 
ATOM     16  C   UNL     1      -7.518 -19.450  15.751  1.00  0.00     0.093 A 
ATOM     17  C   UNL     1      -6.690 -18.453  16.284  1.00  0.00     0.130 A 
BRANCH  15  18
ATOM     18  O   UNL     1      -9.128 -20.182  14.089  1.00  0.00    -0.508 OA
ATOM     19  H   UNL     1      -8.745 -20.959  13.560  1.00  0.00     0.293 HD
ENDBRANCH  15  18
BRANCH  17  20
ATOM     20  O   UNL     1      -5.897 -18.776  17.387  1.00  0.00    -0.507 OA
ATOM     21  H   UNL     1      -6.276 -19.133  18.254  1.00  0.00     0.293 HD
ENDBRANCH  17  20
ENDBRANCH   1  12
BRANCH   2  22
ATOM     22  O   UNL     1      -7.840 -15.023  17.184  1.00  0.00    -0.502 OA
ATOM     23  H   UNL     1      -8.442 -15.757  16.832  1.00  0.00     0.293 HD
ENDBRANCH   2  22
BRANCH   6  24
ATOM     24  O   UNL     1      -3.660 -12.128  18.791  1.00  0.00    -0.507 OA
ATOM     25  H   UNL     1      -4.288 -11.367  18.587  1.00  0.00     0.293 HD
ENDBRANCH   6  24
BRANCH   8  26
ATOM     26  O   UNL     1      -0.134 -14.303  16.397  1.00  0.00    -0.508 OA
ATOM     27  H   UNL     1       0.182 -14.612  15.485  1.00  0.00     0.293 HD
ENDBRANCH   8  26
TORSDOF 6
ENDMDL
MODEL 3
REMARK VINA RESULT:    -5.570     12.273     14.757
REMARK INTER + INTRA:          -7.052
REMARK INTER:                  -6.688
REMARK INTRA:                  -0.364
REMARK UNBOUND:                -0.342
REMARK SMILES O=c1c(O)c(-c2ccc(O)cc2O)oc2cc(O)cc(O)c12
REMARK SMILES IDX 5 1 3 2 2 3 1 4 22 5 20 6 19 7 17 8 16 9 15 10 14 11 6 12
REMARK SMILES IDX 8 13 7 14 9 15 11 16 12 17 10 18 13 20 4 22 21 24 18 26
REMARK H PARENT 10 19 13 21 4 23 21 25 18 27
REMARK Flexibility Score: inf
ROOT
ATOM      1  C   UNL     1       6.888 -17.524  10.213  1.00  0.00     0.184 A 
ATOM      2  C   UNL     1       7.368 -18.002   8.985  1.00  0.00     0.208 A 
ATOM      3  C   UNL     1       7.351 -17.151   7.868  1.00  0.00     0.238 A 
ATOM      4  O   UNL     1       7.840 -17.566   6.785  1.00  0.00    -0.285 OA
ATOM      5  C   UNL     1       6.827 -15.842   7.991  1.00  0.00     0.111 A 
ATOM      6  C   UNL     1       6.723 -14.905   6.918  1.00  0.00     0.134 A 
ATOM      7  C   UNL     1       6.301 -13.596   7.181  1.00  0.00     0.093 A 
ATOM      8  C   UNL     1       5.919 -13.207   8.463  1.00  0.00     0.123 A 
ATOM      9  C   UNL     1       5.961 -14.129   9.510  1.00  0.00     0.094 A 
ATOM     10  C   UNL     1       6.412 -15.433   9.286  1.00  0.00     0.146 A 
ATOM     11  O   UNL     1       6.450 -16.275  10.312  1.00  0.00    -0.451 OA
ENDROOT
BRANCH   1  12
ATOM     12  C   UNL     1       6.861 -18.383  11.416  1.00  0.00     0.063 A 
ATOM     13  C   UNL     1       8.078 -19.591  13.143  1.00  0.00     0.047 A 
ATOM     14  C   UNL     1       8.071 -18.735  12.040  1.00  0.00     0.020 A 
ATOM     15  C   UNL     1       6.881 -20.112  13.636  1.00  0.00     0.119 A 
ATOM     16  C   UNL     1       5.669 -19.771  13.023  1.00  0.00     0.093 A 
ATOM     17  C   UNL     1       5.647 -18.905  11.921  1.00  0.00     0.130 A 
BRANCH  15  18
ATOM     18  O   UNL     1       6.905 -20.969  14.734  1.00  0.00    -0.508 OA
ATOM     19  H   UNL     1       6.092 -21.092  15.328  1.00  0.00     0.293 HD
ENDBRANCH  15  18
BRANCH  17  20
ATOM     20  O   UNL     1       4.408 -18.570  11.372  1.00  0.00    -0.507 OA
ATOM     21  H   UNL     1       4.212 -18.623  10.381  1.00  0.00     0.293 HD
ENDBRANCH  17  20
ENDBRANCH   1  12
BRANCH   2  22
ATOM     22  O   UNL     1       7.877 -19.301   8.893  1.00  0.00    -0.502 OA
ATOM     23  H   UNL     1       7.834 -19.841   8.037  1.00  0.00     0.293 HD
ENDBRANCH   2  22
BRANCH   6  24
ATOM     24  O   UNL     1       6.993 -15.217   5.582  1.00  0.00    -0.507 OA
ATOM     25  H   UNL     1       7.663 -15.905   5.274  1.00  0.00     0.293 HD
ENDBRANCH   6  24
BRANCH   8  26
ATOM     26  O   UNL     1       5.489 -11.901   8.686  1.00  0.00    -0.508 OA
ATOM     27  H   UNL     1       5.577 -11.185   7.974  1.00  0.00     0.293 HD
ENDBRANCH   8  26
TORSDOF 6
ENDMDL
MODEL 4
REMARK VINA RESULT:    -5.442     12.444     14.926
REMARK INTER + INTRA:          -6.897
REMARK INTER:                  -6.517
REMARK INTRA:                  -0.380
REMARK UNBOUND:                -0.342
REMARK SMILES O=c1c(O)c(-c2ccc(O)cc2O)oc2cc(O)cc(O)c12
REMARK SMILES IDX 5 1 3 2 2 3 1 4 22 5 20 6 19 7 17 8 16 9 15 10 14 11 6 12
REMARK SMILES IDX 8 13 7 14 9 15 11 16 12 17 10 18 13 20 4 22 21 24 18 26
REMARK H PARENT 10 19 13 21 4 23 21 25 18 27
REMARK Flexibility Score: inf
ROOT
ATOM      1  C   UNL     1       5.093 -17.562   7.692  1.00  0.00     0.184 A 
ATOM      2  C   UNL     1       4.263 -18.214   8.615  1.00  0.00     0.208 A 
ATOM      3  C   UNL     1       4.563 -18.126   9.983  1.00  0.00     0.238 A 
ATOM      4  O   UNL     1       3.779 -18.662  10.810  1.00  0.00    -0.285 OA
ATOM      5  C   UNL     1       5.708 -17.409  10.406  1.00  0.00     0.111 A 
ATOM      6  C   UNL     1       6.133 -17.286  11.765  1.00  0.00     0.134 A 
ATOM      7  C   UNL     1       7.212 -16.450  12.078  1.00  0.00     0.093 A 
ATOM      8  C   UNL     1       7.922 -15.786  11.080  1.00  0.00     0.123 A 
ATOM      9  C   UNL     1       7.553 -15.944   9.743  1.00  0.00     0.094 A 
ATOM     10  C   UNL     1       6.458 -16.741   9.402  1.00  0.00     0.146 A 
ATOM     11  O   UNL     1       6.131 -16.854   8.120  1.00  0.00    -0.451 OA
ENDROOT
BRANCH   1  12
ATOM     12  C   UNL     1       4.838 -17.640   6.237  1.00  0.00     0.063 A 
ATOM     13  C   UNL     1       4.808 -18.962   4.194  1.00  0.00     0.047 A 
ATOM     14  C   UNL     1       4.988 -18.871   5.576  1.00  0.00     0.020 A 
ATOM     15  C   UNL     1       4.484 -17.825   3.452  1.00  0.00     0.119 A 
ATOM     16  C   UNL     1       4.334 -16.592   4.098  1.00  0.00     0.093 A 
ATOM     17  C   UNL     1       4.501 -16.490   5.486  1.00  0.00     0.130 A 
BRANCH  15  18
ATOM     18  O   UNL     1       4.313 -17.930   2.074  1.00  0.00    -0.508 OA
ATOM     19  H   UNL     1       5.103 -17.900   1.438  1.00  0.00     0.293 HD
ENDBRANCH  15  18
BRANCH  17  20
ATOM     20  O   UNL     1       4.304 -15.243   6.083  1.00  0.00    -0.507 OA
ATOM     21  H   UNL     1       4.106 -15.128   7.068  1.00  0.00     0.293 HD
ENDBRANCH  17  20
ENDBRANCH   1  12
BRANCH   2  22
ATOM     22  O   UNL     1       3.140 -18.918   8.168  1.00  0.00    -0.502 OA
ATOM     23  H   UNL     1       3.030 -19.914   8.316  1.00  0.00     0.293 HD
ENDBRANCH   2  22
BRANCH   6  24
ATOM     24  O   UNL     1       5.550 -17.978  12.830  1.00  0.00    -0.507 OA
ATOM     25  H   UNL     1       4.574 -18.224  12.893  1.00  0.00     0.293 HD
ENDBRANCH   6  24
BRANCH   8  26
ATOM     26  O   UNL     1       9.001 -14.975  11.427  1.00  0.00    -0.508 OA
ATOM     27  H   UNL     1       9.622 -15.217  12.190  1.00  0.00     0.293 HD
ENDBRANCH   8  26
TORSDOF 6
ENDMDL
MODEL 5
REMARK VINA RESULT:    -5.313     13.338     15.608
REMARK INTER + INTRA:          -6.742
REMARK INTER:                  -6.482
REMARK INTRA:                  -0.260
REMARK UNBOUND:                -0.342
REMARK SMILES O=c1c(O)c(-c2ccc(O)cc2O)oc2cc(O)cc(O)c12
REMARK SMILES IDX 5 1 3 2 2 3 1 4 22 5 20 6 19 7 17 8 16 9 15 10 14 11 6 12
REMARK SMILES IDX 8 13 7 14 9 15 11 16 12 17 10 18 13 20 4 22 21 24 18 26
REMARK H PARENT 10 19 13 21 4 23 21 25 18 27
REMARK Flexibility Score: inf
ROOT
ATOM      1  C   UNL     1       4.481 -17.870   6.036  1.00  0.00     0.184 A 
ATOM      2  C   UNL     1       4.237 -18.451   7.289  1.00  0.00     0.208 A 
ATOM      3  C   UNL     1       4.489 -17.701   8.448  1.00  0.00     0.238 A 
ATOM      4  O   UNL     1       4.209 -18.205   9.567  1.00  0.00    -0.285 OA
ATOM      5  C   UNL     1       5.010 -16.389   8.337  1.00  0.00     0.111 A 
ATOM      6  C   UNL     1       5.342 -15.551   9.445  1.00  0.00     0.134 A 
ATOM      7  C   UNL     1       5.736 -14.226   9.216  1.00  0.00     0.093 A 
ATOM      8  C   UNL     1       5.873 -13.730   7.921  1.00  0.00     0.123 A 
ATOM      9  C   UNL     1       5.607 -14.557   6.828  1.00  0.00     0.094 A 
ATOM     10  C   UNL     1       5.177 -15.871   7.025  1.00  0.00     0.146 A 
ATOM     11  O   UNL     1       4.922 -16.621   5.959  1.00  0.00    -0.451 OA
ENDROOT
BRANCH   1  12
ATOM     12  C   UNL     1       4.256 -18.622   4.782  1.00  0.00     0.063 A 
ATOM     13  C   UNL     1       4.736 -20.569   3.404  1.00  0.00     0.047 A 
ATOM     14  C   UNL     1       4.886 -19.865   4.600  1.00  0.00     0.020 A 
ATOM     15  C   UNL     1       3.960 -20.041   2.371  1.00  0.00     0.119 A 
ATOM     16  C   UNL     1       3.328 -18.803   2.538  1.00  0.00     0.093 A 
ATOM     17  C   UNL     1       3.463 -18.091   3.738  1.00  0.00     0.130 A 
BRANCH  15  18
ATOM     18  O   UNL     1       3.824 -20.753   1.181  1.00  0.00    -0.508 OA
ATOM     19  H   UNL     1       3.196 -20.443   0.447  1.00  0.00     0.293 HD
ENDBRANCH  15  18
BRANCH  17  20
ATOM     20  O   UNL     1       2.781 -16.879   3.864  1.00  0.00    -0.507 OA
ATOM     21  H   UNL     1       2.734 -16.360   4.732  1.00  0.00     0.293 HD
ENDBRANCH  17  20
ENDBRANCH   1  12
BRANCH   2  22
ATOM     22  O   UNL     1       3.725 -19.749   7.368  1.00  0.00    -0.502 OA
ATOM     23  H   UNL     1       2.805 -19.992   7.021  1.00  0.00     0.293 HD
ENDBRANCH   2  22
BRANCH   6  24
ATOM     24  O   UNL     1       5.327 -15.976  10.776  1.00  0.00    -0.507 OA
ATOM     25  H   UNL     1       6.148 -16.164  11.331  1.00  0.00     0.293 HD
ENDBRANCH   6  24
BRANCH   8  26
ATOM     26  O   UNL     1       6.282 -12.412   7.730  1.00  0.00    -0.508 OA
ATOM     27  H   UNL     1       5.731 -11.759   7.184  1.00  0.00     0.293 HD
ENDBRANCH   8  26
TORSDOF 6
ENDMDL
MODEL 6
REMARK VINA RESULT:    -5.236     13.938     16.137
REMARK INTER + INTRA:          -6.649
REMARK INTER:                  -6.250
REMARK INTRA:                  -0.400
REMARK UNBOUND:                -0.342
REMARK SMILES O=c1c(O)c(-c2ccc(O)cc2O)oc2cc(O)cc(O)c12
REMARK SMILES IDX 5 1 3 2 2 3 1 4 22 5 20 6 19 7 17 8 16 9 15 10 14 11 6 12
REMARK SMILES IDX 8 13 7 14 9 15 11 16 12 17 10 18 13 20 4 22 21 24 18 26
REMARK H PARENT 10 19 13 21 4 23 21 25 18 27
REMARK Flexibility Score: inf
ROOT
ATOM      1  C   UNL     1       5.182 -17.196   5.381  1.00  0.00     0.184 A 
ATOM      2  C   UNL     1       4.966 -18.158   6.378  1.00  0.00     0.208 A 
ATOM      3  C   UNL     1       4.985 -17.759   7.724  1.00  0.00     0.238 A 
ATOM      4  O   UNL     1       4.731 -18.615   8.611  1.00  0.00    -0.285 OA
ATOM      5  C   UNL     1       5.248 -16.407   8.053  1.00  0.00     0.111 A 
ATOM      6  C   UNL     1       5.331 -15.897   9.384  1.00  0.00     0.134 A 
ATOM      7  C   UNL     1       5.475 -14.519   9.589  1.00  0.00     0.093 A 
ATOM      8  C   UNL     1       5.603 -13.641   8.514  1.00  0.00     0.123 A 
ATOM      9  C   UNL     1       5.582 -14.134   7.209  1.00  0.00     0.094 A 
ATOM     10  C   UNL     1       5.403 -15.500   6.972  1.00  0.00     0.146 A 
ATOM     11  O   UNL     1       5.375 -15.926   5.714  1.00  0.00    -0.451 OA
ENDROOT
BRANCH   1  12
ATOM     12  C   UNL     1       5.196 -17.563   3.948  1.00  0.00     0.063 A 
ATOM     13  C   UNL     1       6.405 -18.469   2.040  1.00  0.00     0.047 A 
ATOM     14  C   UNL     1       6.343 -18.164   3.401  1.00  0.00     0.020 A 
ATOM     15  C   UNL     1       5.327 -18.174   1.204  1.00  0.00     0.119 A 
ATOM     16  C   UNL     1       4.179 -17.574   1.736  1.00  0.00     0.093 A 
ATOM     17  C   UNL     1       4.100 -17.272   3.102  1.00  0.00     0.130 A 
BRANCH  15  18
ATOM     18  O   UNL     1       5.406 -18.480  -0.152  1.00  0.00    -0.508 OA
ATOM     19  H   UNL     1       4.881 -17.957  -0.845  1.00  0.00     0.293 HD
ENDBRANCH  15  18
BRANCH  17  20
ATOM     20  O   UNL     1       2.917 -16.708   3.584  1.00  0.00    -0.507 OA
ATOM     21  H   UNL     1       2.006 -17.119   3.429  1.00  0.00     0.293 HD
ENDBRANCH  17  20
ENDBRANCH   1  12
BRANCH   2  22
ATOM     22  O   UNL     1       4.713 -19.486   6.024  1.00  0.00    -0.502 OA
ATOM     23  H   UNL     1       5.346 -20.023   5.443  1.00  0.00     0.293 HD
ENDBRANCH   2  22
BRANCH   6  24
ATOM     24  O   UNL     1       5.305 -16.698  10.530  1.00  0.00    -0.507 OA
ATOM     25  H   UNL     1       4.765 -16.502  11.358  1.00  0.00     0.293 HD
ENDBRANCH   6  24
BRANCH   8  26
ATOM     26  O   UNL     1       5.761 -12.279   8.755  1.00  0.00    -0.508 OA
ATOM     27  H   UNL     1       5.226 -11.801   9.472  1.00  0.00     0.293 HD
ENDBRANCH   8  26
TORSDOF 6
ENDMDL
MODEL 7
REMARK VINA RESULT:    -5.220     11.633     13.200
REMARK INTER + INTRA:          -6.630
REMARK INTER:                  -6.234
REMARK INTRA:                  -0.395
REMARK UNBOUND:                -0.342
REMARK SMILES O=c1c(O)c(-c2ccc(O)cc2O)oc2cc(O)cc(O)c12
REMARK SMILES IDX 5 1 3 2 2 3 1 4 22 5 20 6 19 7 17 8 16 9 15 10 14 11 6 12
REMARK SMILES IDX 8 13 7 14 9 15 11 16 12 17 10 18 13 20 4 22 21 24 18 26
REMARK H PARENT 10 19 13 21 4 23 21 25 18 27
REMARK Flexibility Score: inf
ROOT
ATOM      1  C   UNL     1       6.250 -16.848  11.877  1.00  0.00     0.184 A 
ATOM      2  C   UNL     1       5.383 -17.849  11.413  1.00  0.00     0.208 A 
ATOM      3  C   UNL     1       4.909 -17.781  10.094  1.00  0.00     0.238 A 
ATOM      4  O   UNL     1       4.181 -18.715   9.665  1.00  0.00    -0.285 OA
ATOM      5  C   UNL     1       5.287 -16.697   9.265  1.00  0.00     0.111 A 
ATOM      6  C   UNL     1       4.835 -16.505   7.924  1.00  0.00     0.134 A 
ATOM      7  C   UNL     1       5.370 -15.462   7.158  1.00  0.00     0.093 A 
ATOM      8  C   UNL     1       6.290 -14.567   7.702  1.00  0.00     0.123 A 
ATOM      9  C   UNL     1       6.695 -14.710   9.030  1.00  0.00     0.094 A 
ATOM     10  C   UNL     1       6.207 -15.762   9.809  1.00  0.00     0.146 A 
ATOM     11  O   UNL     1       6.629 -15.870  11.063  1.00  0.00    -0.451 OA
ENDROOT
BRANCH   1  12
ATOM     12  C   UNL     1       6.762 -16.855  13.264  1.00  0.00     0.063 A 
ATOM     13  C   UNL     1       8.490 -17.519  14.845  1.00  0.00     0.047 A 
ATOM     14  C   UNL     1       8.008 -17.448  13.536  1.00  0.00     0.020 A 
ATOM     15  C   UNL     1       7.734 -17.006  15.900  1.00  0.00     0.119 A 
ATOM     16  C   UNL     1       6.491 -16.415  15.643  1.00  0.00     0.093 A 
ATOM     17  C   UNL     1       6.001 -16.328  14.334  1.00  0.00     0.130 A 
BRANCH  15  18
ATOM     18  O   UNL     1       8.226 -17.090  17.201  1.00  0.00    -0.508 OA
ATOM     19  H   UNL     1       7.866 -17.770  17.861  1.00  0.00     0.293 HD
ENDBRANCH  15  18
BRANCH  17  20
ATOM     20  O   UNL     1       4.772 -15.696  14.131  1.00  0.00    -0.507 OA
ATOM     21  H   UNL     1       4.465 -15.365  13.225  1.00  0.00     0.293 HD
ENDBRANCH  17  20
ENDBRANCH   1  12
BRANCH   2  22
ATOM     22  O   UNL     1       5.025 -18.906  12.255  1.00  0.00    -0.502 OA
ATOM     23  H   UNL     1       4.698 -18.758  13.202  1.00  0.00     0.293 HD
ENDBRANCH   2  22
BRANCH   6  24
ATOM     24  O   UNL     1       3.852 -17.288   7.312  1.00  0.00    -0.507 OA
ATOM     25  H   UNL     1       3.720 -17.373   6.316  1.00  0.00     0.293 HD
ENDBRANCH   6  24
BRANCH   8  26
ATOM     26  O   UNL     1       6.789 -13.532   6.915  1.00  0.00    -0.508 OA
ATOM     27  H   UNL     1       6.772 -12.569   7.231  1.00  0.00     0.293 HD
ENDBRANCH   8  26
TORSDOF 6
ENDMDL
MODEL 8
REMARK VINA RESULT:    -5.205      2.101      3.254
REMARK INTER + INTRA:          -6.612
REMARK INTER:                  -6.213
REMARK INTRA:                  -0.399
REMARK UNBOUND:                -0.342
REMARK SMILES O=c1c(O)c(-c2ccc(O)cc2O)oc2cc(O)cc(O)c12
REMARK SMILES IDX 5 1 3 2 2 3 1 4 22 5 20 6 19 7 17 8 16 9 15 10 14 11 6 12
REMARK SMILES IDX 8 13 7 14 9 15 11 16 12 17 10 18 13 20 4 22 21 24 18 26
REMARK H PARENT 10 19 13 21 4 23 21 25 18 27
REMARK Flexibility Score: inf
ROOT
ATOM      1  C   UNL     1      -5.134 -15.804  16.693  1.00  0.00     0.184 A 
ATOM      2  C   UNL     1      -6.028 -14.882  17.256  1.00  0.00     0.208 A 
ATOM      3  C   UNL     1      -7.403 -15.164  17.232  1.00  0.00     0.238 A 
ATOM      4  O   UNL     1      -8.194 -14.361  17.792  1.00  0.00    -0.285 OA
ATOM      5  C   UNL     1      -7.866 -16.353  16.619  1.00  0.00     0.111 A 
ATOM      6  C   UNL     1      -9.240 -16.723  16.501  1.00  0.00     0.134 A 
ATOM      7  C   UNL     1      -9.575 -17.981  15.984  1.00  0.00     0.093 A 
ATOM      8  C   UNL     1      -8.592 -18.854  15.522  1.00  0.00     0.123 A 
ATOM      9  C   UNL     1      -7.249 -18.480  15.578  1.00  0.00     0.094 A 
ATOM     10  C   UNL     1      -6.881 -17.247  16.122  1.00  0.00     0.146 A 
ATOM     11  O   UNL     1      -5.591 -16.936  16.170  1.00  0.00    -0.451 OA
ENDROOT
BRANCH   1  12
ATOM     12  C   UNL     1      -3.677 -15.549  16.670  1.00  0.00     0.063 A 
ATOM     13  C   UNL     1      -1.786 -14.355  15.711  1.00  0.00     0.047 A 
ATOM     14  C   UNL     1      -3.162 -14.577  15.794  1.00  0.00     0.020 A 
ATOM     15  C   UNL     1      -0.905 -15.103  16.493  1.00  0.00     0.119 A 
ATOM     16  C   UNL     1      -1.405 -16.076  17.368  1.00  0.00     0.093 A 
ATOM     17  C   UNL     1      -2.785 -16.301  17.469  1.00  0.00     0.130 A 
BRANCH  15  18
ATOM     18  O   UNL     1       0.465 -14.874  16.395  1.00  0.00    -0.508 OA
ATOM     19  H   UNL     1       1.127 -15.639  16.321  1.00  0.00     0.293 HD
ENDBRANCH  15  18
BRANCH  17  20
ATOM     20  O   UNL     1      -3.231 -17.257  18.384  1.00  0.00    -0.507 OA
ATOM     21  H   UNL     1      -2.604 -17.813  18.950  1.00  0.00     0.293 HD
ENDBRANCH  17  20
ENDBRANCH   1  12
BRANCH   2  22
ATOM     22  O   UNL     1      -5.542 -13.714  17.851  1.00  0.00    -0.502 OA
ATOM     23  H   UNL     1      -5.793 -12.791  17.518  1.00  0.00     0.293 HD
ENDBRANCH   2  22
BRANCH   6  24
ATOM     24  O   UNL     1     -10.306 -15.888  16.848  1.00  0.00    -0.507 OA
ATOM     25  H   UNL     1     -11.254 -16.195  17.000  1.00  0.00     0.293 HD
ENDBRANCH   6  24
BRANCH   8  26
ATOM     26  O   UNL     1      -8.963 -20.091  14.999  1.00  0.00    -0.508 OA
ATOM     27  H   UNL     1      -9.532 -20.742  15.529  1.00  0.00     0.293 HD
ENDBRANCH   8  26
TORSDOF 6
ENDMDL
MODEL 9
REMARK VINA RESULT:    -5.137     12.010     12.801
REMARK INTER + INTRA:          -6.530
REMARK INTER:                  -6.138
REMARK INTRA:                  -0.392
REMARK UNBOUND:                -0.342
REMARK SMILES O=c1c(O)c(-c2ccc(O)cc2O)oc2cc(O)cc(O)c12
REMARK SMILES IDX 5 1 3 2 2 3 1 4 22 5 20 6 19 7 17 8 16 9 15 10 14 11 6 12
REMARK SMILES IDX 8 13 7 14 9 15 11 16 12 17 10 18 13 20 4 22 21 24 18 26
REMARK H PARENT 10 19 13 21 4 23 21 25 18 27
REMARK Flexibility Score: inf
ROOT
ATOM      1  C   UNL     1       6.123 -17.074  11.766  1.00  0.00     0.184 A 
ATOM      2  C   UNL     1       5.681 -18.399  11.638  1.00  0.00     0.208 A 
ATOM      3  C   UNL     1       5.057 -18.797  10.446  1.00  0.00     0.238 A 
ATOM      4  O   UNL     1       4.719 -20.002  10.314  1.00  0.00    -0.285 OA
ATOM      5  C   UNL     1       4.858 -17.855   9.408  1.00  0.00     0.111 A 
ATOM      6  C   UNL     1       4.202 -18.135   8.171  1.00  0.00     0.134 A 
ATOM      7  C   UNL     1       4.170 -17.158   7.168  1.00  0.00     0.093 A 
ATOM      8  C   UNL     1       4.712 -15.892   7.380  1.00  0.00     0.123 A 
ATOM      9  C   UNL     1       5.305 -15.586   8.605  1.00  0.00     0.094 A 
ATOM     10  C   UNL     1       5.385 -16.551   9.612  1.00  0.00     0.146 A 
ATOM     11  O   UNL     1       5.970 -16.224  10.759  1.00  0.00    -0.451 OA
ENDROOT
BRANCH   1  12
ATOM     12  C   UNL     1       6.766 -16.594  13.009  1.00  0.00     0.063 A 
ATOM     13  C   UNL     1       6.559 -15.932  15.342  1.00  0.00     0.047 A 
ATOM     14  C   UNL     1       5.990 -16.437  14.171  1.00  0.00     0.020 A 
ATOM     15  C   UNL     1       7.906 -15.570  15.368  1.00  0.00     0.119 A 
ATOM     16  C   UNL     1       8.690 -15.719  14.217  1.00  0.00     0.093 A 
ATOM     17  C   UNL     1       8.134 -16.235  13.039  1.00  0.00     0.130 A 
BRANCH  15  18
ATOM     18  O   UNL     1       8.458 -15.063  16.542  1.00  0.00    -0.508 OA
ATOM     19  H   UNL     1       8.953 -14.177  16.556  1.00  0.00     0.293 HD
ENDBRANCH  15  18
BRANCH  17  20
ATOM     20  O   UNL     1       8.970 -16.397  11.932  1.00  0.00    -0.507 OA
ATOM     21  H   UNL     1       8.771 -17.044  11.181  1.00  0.00     0.293 HD
ENDBRANCH  17  20
ENDBRANCH   1  12
BRANCH   2  22
ATOM     22  O   UNL     1       5.888 -19.308  12.681  1.00  0.00    -0.502 OA
ATOM     23  H   UNL     1       5.387 -20.186  12.743  1.00  0.00     0.293 HD
ENDBRANCH   2  22
BRANCH   6  24
ATOM     24  O   UNL     1       3.548 -19.339   7.891  1.00  0.00    -0.507 OA
ATOM     25  H   UNL     1       2.713 -19.662   8.354  1.00  0.00     0.293 HD
ENDBRANCH   6  24
BRANCH   8  26
ATOM     26  O   UNL     1       4.649 -14.939   6.365  1.00  0.00    -0.508 OA
ATOM     27  H   UNL     1       5.381 -14.856   5.669  1.00  0.00     0.293 HD
ENDBRANCH   8  26
TORSDOF 6
ENDMDL
