MODEL 1
REMARK VINA RESULT:    -4.977      0.000      0.000
REMARK INTER + INTRA:          -5.793
REMARK INTER:                  -5.705
REMARK INTRA:                  -0.088
REMARK UNBOUND:                -0.088
REMARK SMILES COc1cc(C(=O)[O-])ccc1O
REMARK SMILES IDX 5 1 9 2 4 3 10 4 3 5 11 6 6 7 7 8 8 9 2 10 1 11 12 12
REMARK H PARENT 12 13
REMARK Flexibility Score: inf
ROOT
ATOM      1  C   UNL     1     -11.179  -5.590  -8.806  1.00  0.00     0.001 A 
ATOM      2  C   UNL     1     -10.739  -5.573  -7.472  1.00  0.00     0.014 A 
ATOM      3  C   UNL     1     -10.956  -4.461  -9.614  1.00  0.00     0.060 A 
ATOM      4  C   UNL     1     -10.089  -4.450  -6.958  1.00  0.00     0.051 A 
ATOM      5  C   UNL     1     -10.300  -3.324  -9.099  1.00  0.00     0.161 A 
ATOM      6  C   UNL     1      -9.868  -3.329  -7.760  1.00  0.00     0.157 A 
ENDROOT
BRANCH   1   7
ATOM      7  C   UNL     1     -11.868  -6.779  -9.356  1.00  0.00     0.072 C 
ATOM      8  O   UNL     1     -12.781  -6.649 -10.216  1.00  0.00    -0.545 OA
ATOM      9  O   UNL     1     -11.519  -8.055  -8.933  1.00  0.00    -0.545 OA
ENDBRANCH   1   7
BRANCH   5  10
ATOM     10  O   UNL     1     -10.064  -2.183  -9.882  1.00  0.00    -0.493 OA
ATOM     11  C   UNL     1     -10.962  -1.084 -10.001  1.00  0.00     0.278 C 
ENDBRANCH   5  10
BRANCH   6  12
ATOM     12  O   UNL     1      -9.215  -2.226  -7.211  1.00  0.00    -0.504 OA
ATOM     13  H   UNL     1      -9.032  -1.384  -7.744  1.00  0.00     0.293 HD
ENDBRANCH   6  12
TORSDOF 3
ENDMDL
MODEL 2
REMARK VINA RESULT:    -4.731      1.366      4.199
REMARK INTER + INTRA:          -5.510
REMARK INTER:                  -5.418
REMARK INTRA:                  -0.092
REMARK UNBOUND:                -0.088
REMARK SMILES COc1cc(C(=O)[O-])ccc1O
REMARK SMILES IDX 5 1 9 2 4 3 10 4 3 5 11 6 6 7 7 8 8 9 2 10 1 11 12 12
REMARK H PARENT 12 13
REMARK Flexibility Score: inf
ROOT
ATOM      1  C   UNL     1     -10.151  -3.445  -9.037  1.00  0.00     0.001 A 
ATOM      2  C   UNL     1      -9.766  -3.252  -7.700  1.00  0.00     0.014 A 
ATOM      3  C   UNL     1     -10.582  -4.718  -9.448  1.00  0.00     0.060 A 
ATOM      4  C   UNL     1      -9.812  -4.312  -6.793  1.00  0.00     0.051 A 
ATOM      5  C   UNL     1     -10.631  -5.792  -8.536  1.00  0.00     0.161 A 
ATOM      6  C   UNL     1     -10.240  -5.577  -7.201  1.00  0.00     0.157 A 
ENDROOT
BRANCH   1   7
ATOM      7  C   UNL     1     -10.105  -2.323 -10.003  1.00  0.00     0.072 C 
ATOM      8  O   UNL     1     -10.918  -1.364  -9.909  1.00  0.00    -0.545 OA
ATOM      9  O   UNL     1      -9.165  -2.311 -11.026  1.00  0.00    -0.545 OA
ENDBRANCH   1   7
BRANCH   5  10
ATOM     10  O   UNL     1     -11.057  -7.074  -8.917  1.00  0.00    -0.493 OA
ATOM     11  C   UNL     1     -12.377  -7.393  -9.345  1.00  0.00     0.278 C 
ENDBRANCH   5  10
BRANCH   6  12
ATOM     12  O   UNL     1     -10.272  -6.611  -6.266  1.00  0.00    -0.504 OA
ATOM     13  H   UNL     1      -9.718  -6.592  -5.418  1.00  0.00     0.293 HD
ENDBRANCH   6  12
TORSDOF 3
ENDMDL
MODEL 3
REMARK VINA RESULT:    -4.693      2.308      3.454
REMARK INTER + INTRA:          -5.467
REMARK INTER:                  -5.396
REMARK INTRA:                  -0.072
REMARK UNBOUND:                -0.088
REMARK SMILES COc1cc(C(=O)[O-])ccc1O
REMARK SMILES IDX 5 1 9 2 4 3 10 4 3 5 11 6 6 7 7 8 8 9 2 10 1 11 12 12
REMARK H PARENT 12 13
REMARK Flexibility Score: inf
ROOT
ATOM      1  C   UNL     1     -12.114  -6.477  -6.791  1.00  0.00     0.001 A 
ATOM      2  C   UNL     1     -12.534  -6.723  -8.109  1.00  0.00     0.014 A 
ATOM      3  C   UNL     1     -11.068  -5.565  -6.566  1.00  0.00     0.060 A 
ATOM      4  C   UNL     1     -11.920  -6.069  -9.179  1.00  0.00     0.051 A 
ATOM      5  C   UNL     1     -10.444  -4.902  -7.643  1.00  0.00     0.161 A 
ATOM      6  C   UNL     1     -10.881  -5.163  -8.955  1.00  0.00     0.157 A 
ENDROOT
BRANCH   1   7
ATOM      7  C   UNL     1     -12.762  -7.167  -5.653  1.00  0.00     0.072 C 
ATOM      8  O   UNL     1     -12.066  -7.727  -4.764  1.00  0.00    -0.545 OA
ATOM      9  O   UNL     1     -14.147  -7.207  -5.548  1.00  0.00    -0.545 OA
ENDBRANCH   1   7
BRANCH   5  10
ATOM     10  O   UNL     1      -9.398  -3.987  -7.449  1.00  0.00    -0.493 OA
ATOM     11  C   UNL     1      -9.569  -2.579  -7.323  1.00  0.00     0.278 C 
ENDBRANCH   5  10
BRANCH   6  12
ATOM     12  O   UNL     1     -10.293  -4.530 -10.049  1.00  0.00    -0.504 OA
ATOM     13  H   UNL     1     -10.085  -5.021 -10.911  1.00  0.00     0.293 HD
ENDBRANCH   6  12
TORSDOF 3
ENDMDL
MODEL 4
REMARK VINA RESULT:    -4.617      2.259      3.807
REMARK INTER + INTRA:          -5.379
REMARK INTER:                  -5.296
REMARK INTRA:                  -0.083
REMARK UNBOUND:                -0.088
REMARK SMILES COc1cc(C(=O)[O-])ccc1O
REMARK SMILES IDX 5 1 9 2 4 3 10 4 3 5 11 6 6 7 7 8 8 9 2 10 1 11 12 12
REMARK H PARENT 12 13
REMARK Flexibility Score: inf
ROOT
ATOM      1  C   UNL     1     -11.315  -5.705  -6.600  1.00  0.00     0.001 A 
ATOM      2  C   UNL     1     -10.224  -4.827  -6.711  1.00  0.00     0.014 A 
ATOM      3  C   UNL     1     -12.005  -6.087  -7.764  1.00  0.00     0.060 A 
ATOM      4  C   UNL     1      -9.833  -4.342  -7.960  1.00  0.00     0.051 A 
ATOM      5  C   UNL     1     -11.614  -5.600  -9.027  1.00  0.00     0.161 A 
ATOM      6  C   UNL     1     -10.519  -4.721  -9.115  1.00  0.00     0.157 A 
ENDROOT
BRANCH   1   7
ATOM      7  C   UNL     1     -11.733  -6.223  -5.278  1.00  0.00     0.072 C 
ATOM      8  O   UNL     1     -11.140  -5.854  -4.229  1.00  0.00    -0.545 OA
ATOM      9  O   UNL     1     -12.787  -7.123  -5.174  1.00  0.00    -0.545 OA
ENDBRANCH   1   7
BRANCH   5  10
ATOM     10  O   UNL     1     -12.284  -5.965 -10.206  1.00  0.00    -0.493 OA
ATOM     11  C   UNL     1     -12.957  -7.204 -10.403  1.00  0.00     0.278 C 
ENDBRANCH   5  10
BRANCH   6  12
ATOM     12  O   UNL     1     -10.098  -4.216 -10.345  1.00  0.00    -0.504 OA
ATOM     13  H   UNL     1      -9.127  -4.234 -10.634  1.00  0.00     0.293 HD
ENDBRANCH   6  12
TORSDOF 3
ENDMDL
MODEL 5
REMARK VINA RESULT:    -4.547      1.965      2.197
REMARK INTER + INTRA:          -5.299
REMARK INTER:                  -5.230
REMARK INTRA:                  -0.069
REMARK UNBOUND:                -0.088
REMARK SMILES COc1cc(C(=O)[O-])ccc1O
REMARK SMILES IDX 5 1 9 2 4 3 10 4 3 5 11 6 6 7 7 8 8 9 2 10 1 11 12 12
REMARK H PARENT 12 13
REMARK Flexibility Score: inf
ROOT
ATOM      1  C   UNL     1     -12.610  -6.277  -7.509  1.00  0.00     0.001 A 
ATOM      2  C   UNL     1     -12.113  -6.157  -6.202  1.00  0.00     0.014 A 
ATOM      3  C   UNL     1     -11.931  -5.636  -8.561  1.00  0.00     0.060 A 
ATOM      4  C   UNL     1     -10.959  -5.413  -5.951  1.00  0.00     0.051 A 
ATOM      5  C   UNL     1     -10.765  -4.883  -8.313  1.00  0.00     0.161 A 
ATOM      6  C   UNL     1     -10.284  -4.776  -6.995  1.00  0.00     0.157 A 
ENDROOT
BRANCH   1   7
ATOM      7  C   UNL     1     -13.833  -7.066  -7.781  1.00  0.00     0.072 C 
ATOM      8  O   UNL     1     -14.098  -7.454  -8.950  1.00  0.00    -0.545 OA
ATOM      9  O   UNL     1     -14.706  -7.391  -6.750  1.00  0.00    -0.545 OA
ENDBRANCH   1   7
BRANCH   5  10
ATOM     10  O   UNL     1     -10.066  -4.233  -9.342  1.00  0.00    -0.493 OA
ATOM     11  C   UNL     1     -10.252  -2.871  -9.711  1.00  0.00     0.278 C 
ENDBRANCH   5  10
BRANCH   6  12
ATOM     12  O   UNL     1      -9.135  -4.041  -6.705  1.00  0.00    -0.504 OA
ATOM     13  H   UNL     1      -8.352  -4.438  -6.200  1.00  0.00     0.293 HD
ENDBRANCH   6  12
TORSDOF 3
ENDMDL
MODEL 6
REMARK VINA RESULT:    -4.494      1.496      4.576
REMARK INTER + INTRA:          -5.238
REMARK INTER:                  -5.138
REMARK INTRA:                  -0.100
REMARK UNBOUND:                -0.088
REMARK SMILES COc1cc(C(=O)[O-])ccc1O
REMARK SMILES IDX 5 1 9 2 4 3 10 4 3 5 11 6 6 7 7 8 8 9 2 10 1 11 12 12
REMARK H PARENT 12 13
REMARK Flexibility Score: inf
ROOT
ATOM      1  C   UNL     1     -10.367  -4.803  -7.712  1.00  0.00     0.001 A 
ATOM      2  C   UNL     1     -10.745  -5.048  -6.382  1.00  0.00     0.014 A 
ATOM      3  C   UNL     1     -10.796  -5.685  -8.719  1.00  0.00     0.060 A 
ATOM      4  C   UNL     1     -11.536  -6.154  -6.066  1.00  0.00     0.051 A 
ATOM      5  C   UNL     1     -11.595  -6.804  -8.405  1.00  0.00     0.161 A 
ATOM      6  C   UNL     1     -11.961  -7.031  -7.065  1.00  0.00     0.157 A 
ENDROOT
BRANCH   1   7
ATOM      7  C   UNL     1      -9.529  -3.631  -8.053  1.00  0.00     0.072 C 
ATOM      8  O   UNL     1      -9.499  -2.624  -7.296  1.00  0.00    -0.545 OA
ATOM      9  O   UNL     1      -8.763  -3.624  -9.212  1.00  0.00    -0.545 OA
ENDBRANCH   1   7
BRANCH   5  10
ATOM     10  O   UNL     1     -12.038  -7.702  -9.388  1.00  0.00    -0.493 OA
ATOM     11  C   UNL     1     -13.031  -7.406 -10.365  1.00  0.00     0.278 C 
ENDBRANCH   5  10
BRANCH   6  12
ATOM     12  O   UNL     1     -12.750  -8.125  -6.710  1.00  0.00    -0.504 OA
ATOM     13  H   UNL     1     -13.150  -8.751  -7.400  1.00  0.00     0.293 HD
ENDBRANCH   6  12
TORSDOF 3
ENDMDL
MODEL 7
REMARK VINA RESULT:    -4.457     16.908     18.509
REMARK INTER + INTRA:          -5.196
REMARK INTER:                  -5.115
REMARK INTRA:                  -0.081
REMARK UNBOUND:                -0.088
REMARK SMILES COc1cc(C(=O)[O-])ccc1O
REMARK SMILES IDX 5 1 9 2 4 3 10 4 3 5 11 6 6 7 7 8 8 9 2 10 1 11 12 12
REMARK H PARENT 12 13
REMARK Flexibility Score: inf
ROOT
ATOM      1  C   UNL     1     -12.627   5.449   5.958  1.00  0.00     0.001 A 
ATOM      2  C   UNL     1     -12.984   4.872   7.188  1.00  0.00     0.014 A 
ATOM      3  C   UNL     1     -11.325   5.950   5.790  1.00  0.00     0.060 A 
ATOM      4  C   UNL     1     -12.055   4.798   8.228  1.00  0.00     0.051 A 
ATOM      5  C   UNL     1     -10.383   5.878   6.837  1.00  0.00     0.161 A 
ATOM      6  C   UNL     1     -10.761   5.296   8.061  1.00  0.00     0.157 A 
ENDROOT
BRANCH   1   7
ATOM      7  C   UNL     1     -13.608   5.529   4.852  1.00  0.00     0.072 C 
ATOM      8  O   UNL     1     -13.560   4.711   3.894  1.00  0.00    -0.545 OA
ATOM      9  O   UNL     1     -14.595   6.507   4.853  1.00  0.00    -0.545 OA
ENDBRANCH   1   7
BRANCH   5  10
ATOM     10  O   UNL     1      -9.076   6.370   6.698  1.00  0.00    -0.493 OA
ATOM     11  C   UNL     1      -8.744   7.641   6.149  1.00  0.00     0.278 C 
ENDBRANCH   5  10
BRANCH   6  12
ATOM     12  O   UNL     1      -9.862   5.204   9.123  1.00  0.00    -0.504 OA
ATOM     13  H   UNL     1      -8.898   5.507   9.044  1.00  0.00     0.293 HD
ENDBRANCH   6  12
TORSDOF 3
ENDMDL
MODEL 8
REMARK VINA RESULT:    -4.289      1.685      5.080
REMARK INTER + INTRA:          -5.003
REMARK INTER:                  -4.911
REMARK INTRA:                  -0.093
REMARK UNBOUND:                -0.088
REMARK SMILES COc1cc(C(=O)[O-])ccc1O
REMARK SMILES IDX 5 1 9 2 4 3 10 4 3 5 11 6 6 7 7 8 8 9 2 10 1 11 12 12
REMARK H PARENT 12 13
REMARK Flexibility Score: inf
ROOT
ATOM      1  C   UNL     1     -10.424  -4.821  -8.259  1.00  0.00     0.001 A 
ATOM      2  C   UNL     1     -11.406  -4.985  -9.249  1.00  0.00     0.014 A 
ATOM      3  C   UNL     1     -10.317  -5.780  -7.236  1.00  0.00     0.060 A 
ATOM      4  C   UNL     1     -12.263  -6.087  -9.217  1.00  0.00     0.051 A 
ATOM      5  C   UNL     1     -11.181  -6.894  -7.199  1.00  0.00     0.161 A 
ATOM      6  C   UNL     1     -12.158  -7.039  -8.201  1.00  0.00     0.157 A 
ENDROOT
BRANCH   1   7
ATOM      7  C   UNL     1      -9.511  -3.655  -8.289  1.00  0.00     0.072 C 
ATOM      8  O   UNL     1      -8.711  -3.495  -9.249  1.00  0.00    -0.545 OA
ATOM      9  O   UNL     1      -9.525  -2.722  -7.260  1.00  0.00    -0.545 OA
ENDBRANCH   1   7
BRANCH   5  10
ATOM     10  O   UNL     1     -11.098  -7.867  -6.190  1.00  0.00    -0.493 OA
ATOM     11  C   UNL     1     -11.750  -7.780  -4.928  1.00  0.00     0.278 C 
ENDBRANCH   5  10
BRANCH   6  12
ATOM     12  O   UNL     1     -13.032  -8.125  -8.203  1.00  0.00    -0.504 OA
ATOM     13  H   UNL     1     -13.745  -8.245  -8.913  1.00  0.00     0.293 HD
ENDBRANCH   6  12
TORSDOF 3
ENDMDL
MODEL 9
REMARK VINA RESULT:    -4.218     16.589     18.371
REMARK INTER + INTRA:          -4.923
REMARK INTER:                  -4.823
REMARK INTRA:                  -0.099
REMARK UNBOUND:                -0.088
REMARK SMILES COc1cc(C(=O)[O-])ccc1O
REMARK SMILES IDX 5 1 9 2 4 3 10 4 3 5 11 6 6 7 7 8 8 9 2 10 1 11 12 12
REMARK H PARENT 12 13
REMARK Flexibility Score: inf
ROOT
ATOM      1  C   UNL     1     -13.979   6.191   4.457  1.00  0.00     0.001 A 
ATOM      2  C   UNL     1     -13.296   4.977   4.279  1.00  0.00     0.014 A 
ATOM      3  C   UNL     1     -14.365   6.576   5.753  1.00  0.00     0.060 A 
ATOM      4  C   UNL     1     -13.004   4.165   5.376  1.00  0.00     0.051 A 
ATOM      5  C   UNL     1     -14.073   5.758   6.864  1.00  0.00     0.161 A 
ATOM      6  C   UNL     1     -13.388   4.546   6.664  1.00  0.00     0.157 A 
ENDROOT
BRANCH   1   7
ATOM      7  C   UNL     1     -14.290   7.057   3.297  1.00  0.00     0.072 C 
ATOM      8  O   UNL     1     -14.304   8.311   3.420  1.00  0.00    -0.545 OA
ATOM      9  O   UNL     1     -14.570   6.500   2.055  1.00  0.00    -0.545 OA
ENDBRANCH   1   7
BRANCH   5  10
ATOM     10  O   UNL     1     -14.446   6.116   8.170  1.00  0.00    -0.493 OA
ATOM     11  C   UNL     1     -13.690   6.972   9.020  1.00  0.00     0.278 C 
ENDBRANCH   5  10
BRANCH   6  12
ATOM     12  O   UNL     1     -13.079   3.708   7.735  1.00  0.00    -0.504 OA
ATOM     13  H   UNL     1     -12.222   3.169   7.770  1.00  0.00     0.293 HD
ENDBRANCH   6  12
TORSDOF 3
ENDMDL
