MODEL 1
REMARK VINA RESULT:    -3.368      0.000      0.000
REMARK INTER + INTRA:          -8.304
REMARK INTER:                  -6.124
REMARK INTRA:                  -2.180
REMARK UNBOUND:                -2.180
REMARK SMILES CCCCCC=CCC=CCCCCCCCC(=O)[O-]
REMARK SMILES IDX 11 1 12 2 13 3 14 4 15 5 16 6 17 7 18 8 19 9 20 10 10 11
REMARK SMILES IDX 9 12 8 13 7 14 6 15 5 16 4 17 3 18 2 19 1 20
REMARK H PARENT
REMARK Flexibility Score: inf
ROOT
ATOM      1  C   UNL     1      10.436  -4.827 -28.743  1.00  0.00     0.027 C 
ENDROOT
BRANCH   1   2
ATOM      2  C   UNL     1      10.964  -5.441 -27.437  1.00  0.00     0.004 C 
BRANCH   2   3
ATOM      3  C   UNL     1      10.116  -6.631 -26.961  1.00  0.00     0.000 C 
BRANCH   3   4
ATOM      4  C   UNL     1       8.801  -6.767 -27.746  1.00  0.00     0.000 C 
BRANCH   4   5
ATOM      5  C   UNL     1       7.577  -6.293 -26.944  1.00  0.00     0.000 C 
BRANCH   5   6
ATOM      6  C   UNL     1       6.411  -5.806 -27.831  1.00  0.00     0.006 C 
BRANCH   6   7
ATOM      7  C   UNL     1       6.629  -4.376 -28.341  1.00  0.00     0.053 C 
BRANCH   7   8
ATOM      8  C   UNL     1       6.313  -3.383 -27.269  1.00  0.00     0.041 C 
ATOM      9  O   UNL     1       5.458  -3.655 -26.385  1.00  0.00    -0.550 OA
ATOM     10  O   UNL     1       6.931  -2.138 -27.269  1.00  0.00    -0.550 OA
ENDBRANCH   7   8
ENDBRANCH   6   7
ENDBRANCH   5   6
ENDBRANCH   4   5
ENDBRANCH   3   4
ENDBRANCH   2   3
ENDBRANCH   1   2
BRANCH   1  11
ATOM     11  C   UNL     1      11.531  -4.707 -29.765  1.00  0.00    -0.031 C 
ATOM     12  C   UNL     1      11.721  -3.572 -30.456  1.00  0.00    -0.027 C 
BRANCH  12  13
ATOM     13  C   UNL     1      12.828  -3.435 -31.462  1.00  0.00     0.054 C 
BRANCH  13  14
ATOM     14  C   UNL     1      12.749  -4.535 -32.489  1.00  0.00    -0.027 C 
ATOM     15  C   UNL     1      11.958  -4.535 -33.579  1.00  0.00    -0.031 C 
BRANCH  15  16
ATOM     16  C   UNL     1      10.959  -3.463 -33.948  1.00  0.00     0.027 C 
BRANCH  16  17
ATOM     17  C   UNL     1       9.522  -4.009 -33.972  1.00  0.00     0.004 C 
BRANCH  17  18
ATOM     18  C   UNL     1       9.335  -5.302 -33.153  1.00  0.00     0.000 C 
BRANCH  18  19
ATOM     19  C   UNL     1       8.566  -5.099 -31.834  1.00  0.00    -0.003 C 
ATOM     20  C   UNL     1       7.842  -6.363 -31.374  1.00  0.00     0.004 C 
ENDBRANCH  18  19
ENDBRANCH  17  18
ENDBRANCH  16  17
ENDBRANCH  15  16
ENDBRANCH  13  14
ENDBRANCH  12  13
ENDBRANCH   1  11
TORSDOF 14
ENDMDL
MODEL 2
REMARK VINA RESULT:    -3.342      2.572      3.668
REMARK INTER + INTRA:          -8.257
REMARK INTER:                  -6.067
REMARK INTRA:                  -2.191
REMARK UNBOUND:                -2.180
REMARK SMILES CCCCCC=CCC=CCCCCCCCC(=O)[O-]
REMARK SMILES IDX 11 1 12 2 13 3 14 4 15 5 16 6 17 7 18 8 19 9 20 10 10 11
REMARK SMILES IDX 9 12 8 13 7 14 6 15 5 16 4 17 3 18 2 19 1 20
REMARK H PARENT
REMARK Flexibility Score: inf
ROOT
ATOM      1  C   UNL     1       7.194  -3.755 -29.508  1.00  0.00     0.027 C 
ENDROOT
BRANCH   1   2
ATOM      2  C   UNL     1       7.111  -3.352 -28.028  1.00  0.00     0.004 C 
BRANCH   2   3
ATOM      3  C   UNL     1       6.087  -4.191 -27.247  1.00  0.00     0.000 C 
BRANCH   3   4
ATOM      4  C   UNL     1       6.343  -5.701 -27.376  1.00  0.00     0.000 C 
BRANCH   4   5
ATOM      5  C   UNL     1       5.156  -6.456 -28.000  1.00  0.00     0.000 C 
BRANCH   5   6
ATOM      6  C   UNL     1       4.007  -5.530 -28.453  1.00  0.00     0.006 C 
BRANCH   6   7
ATOM      7  C   UNL     1       3.902  -5.442 -29.981  1.00  0.00     0.053 C 
BRANCH   7   8
ATOM      8  C   UNL     1       2.492  -5.671 -30.424  1.00  0.00     0.041 C 
ATOM      9  O   UNL     1       1.548  -5.600 -29.593  1.00  0.00    -0.550 OA
ATOM     10  O   UNL     1       2.223  -6.003 -31.746  1.00  0.00    -0.550 OA
ENDBRANCH   7   8
ENDBRANCH   6   7
ENDBRANCH   5   6
ENDBRANCH   4   5
ENDBRANCH   3   4
ENDBRANCH   2   3
ENDBRANCH   1   2
BRANCH   1  11
ATOM     11  C   UNL     1       8.619  -3.997 -29.923  1.00  0.00    -0.031 C 
ATOM     12  C   UNL     1       9.255  -5.136 -29.608  1.00  0.00    -0.027 C 
BRANCH  12  13
ATOM     13  C   UNL     1      10.670  -5.396 -30.039  1.00  0.00     0.054 C 
BRANCH  13  14
ATOM     14  C   UNL     1      11.480  -4.126 -29.990  1.00  0.00    -0.027 C 
ATOM     15  C   UNL     1      12.153  -3.584 -31.023  1.00  0.00    -0.031 C 
BRANCH  15  16
ATOM     16  C   UNL     1      12.273  -4.174 -32.409  1.00  0.00     0.027 C 
BRANCH  16  17
ATOM     17  C   UNL     1      11.513  -3.337 -33.451  1.00  0.00     0.004 C 
BRANCH  17  18
ATOM     18  C   UNL     1       9.995  -3.604 -33.474  1.00  0.00     0.000 C 
BRANCH  18  19
ATOM     19  C   UNL     1       9.617  -5.008 -33.982  1.00  0.00    -0.003 C 
ATOM     20  C   UNL     1       8.464  -5.630 -33.194  1.00  0.00     0.004 C 
ENDBRANCH  18  19
ENDBRANCH  17  18
ENDBRANCH  16  17
ENDBRANCH  15  16
ENDBRANCH  13  14
ENDBRANCH  12  13
ENDBRANCH   1  11
TORSDOF 14
ENDMDL
MODEL 3
REMARK VINA RESULT:    -3.320      2.672      4.539
REMARK INTER + INTRA:          -8.217
REMARK INTER:                  -5.654
REMARK INTRA:                  -2.563
REMARK UNBOUND:                -2.180
REMARK SMILES CCCCCC=CCC=CCCCCCCCC(=O)[O-]
REMARK SMILES IDX 11 1 12 2 13 3 14 4 15 5 16 6 17 7 18 8 19 9 20 10 10 11
REMARK SMILES IDX 9 12 8 13 7 14 6 15 5 16 4 17 3 18 2 19 1 20
REMARK H PARENT
REMARK Flexibility Score: inf
ROOT
ATOM      1  C   UNL     1       7.536  -3.672 -29.296  1.00  0.00     0.027 C 
ENDROOT
BRANCH   1   2
ATOM      2  C   UNL     1       6.785  -3.084 -28.091  1.00  0.00     0.004 C 
BRANCH   2   3
ATOM      3  C   UNL     1       6.138  -4.168 -27.215  1.00  0.00     0.000 C 
BRANCH   3   4
ATOM      4  C   UNL     1       4.954  -4.859 -27.912  1.00  0.00     0.000 C 
BRANCH   4   5
ATOM      5  C   UNL     1       5.221  -6.345 -28.207  1.00  0.00     0.000 C 
BRANCH   5   6
ATOM      6  C   UNL     1       4.798  -6.776 -29.627  1.00  0.00     0.006 C 
BRANCH   6   7
ATOM      7  C   UNL     1       4.791  -5.599 -30.612  1.00  0.00     0.053 C 
BRANCH   7   8
ATOM      8  C   UNL     1       3.442  -5.447 -31.238  1.00  0.00     0.041 C 
ATOM      9  O   UNL     1       2.402  -5.529 -30.531  1.00  0.00    -0.550 OA
ATOM     10  O   UNL     1       3.329  -5.255 -32.610  1.00  0.00    -0.550 OA
ENDBRANCH   7   8
ENDBRANCH   6   7
ENDBRANCH   5   6
ENDBRANCH   4   5
ENDBRANCH   3   4
ENDBRANCH   2   3
ENDBRANCH   1   2
BRANCH   1  11
ATOM     11  C   UNL     1       8.694  -4.520 -28.848  1.00  0.00    -0.031 C 
ATOM     12  C   UNL     1       8.835  -5.788 -29.266  1.00  0.00    -0.027 C 
BRANCH  12  13
ATOM     13  C   UNL     1      10.001  -6.635 -28.843  1.00  0.00     0.054 C 
BRANCH  13  14
ATOM     14  C   UNL     1      10.814  -5.927 -27.791  1.00  0.00    -0.027 C 
ATOM     15  C   UNL     1      12.040  -5.400 -27.969  1.00  0.00    -0.031 C 
BRANCH  15  16
ATOM     16  C   UNL     1      12.858  -5.468 -29.238  1.00  0.00     0.027 C 
BRANCH  16  17
ATOM     17  C   UNL     1      13.106  -4.072 -29.831  1.00  0.00     0.004 C 
BRANCH  17  18
ATOM     18  C   UNL     1      11.897  -3.498 -30.596  1.00  0.00     0.000 C 
BRANCH  18  19
ATOM     19  C   UNL     1      11.360  -4.427 -31.700  1.00  0.00    -0.003 C 
ATOM     20  C   UNL     1      10.032  -3.944 -32.284  1.00  0.00     0.004 C 
ENDBRANCH  18  19
ENDBRANCH  17  18
ENDBRANCH  16  17
ENDBRANCH  15  16
ENDBRANCH  13  14
ENDBRANCH  12  13
ENDBRANCH   1  11
TORSDOF 14
ENDMDL
MODEL 4
REMARK VINA RESULT:    -3.290      2.661      4.404
REMARK INTER + INTRA:          -8.163
REMARK INTER:                  -5.555
REMARK INTRA:                  -2.608
REMARK UNBOUND:                -2.180
REMARK SMILES CCCCCC=CCC=CCCCCCCCC(=O)[O-]
REMARK SMILES IDX 11 1 12 2 13 3 14 4 15 5 16 6 17 7 18 8 19 9 20 10 10 11
REMARK SMILES IDX 9 12 8 13 7 14 6 15 5 16 4 17 3 18 2 19 1 20
REMARK H PARENT
REMARK Flexibility Score: inf
ROOT
ATOM      1  C   UNL     1       7.012  -3.156 -29.134  1.00  0.00     0.027 C 
ENDROOT
BRANCH   1   2
ATOM      2  C   UNL     1       6.697  -3.304 -27.638  1.00  0.00     0.004 C 
BRANCH   2   3
ATOM      3  C   UNL     1       6.318  -4.743 -27.256  1.00  0.00     0.000 C 
BRANCH   3   4
ATOM      4  C   UNL     1       4.979  -5.181 -27.872  1.00  0.00     0.000 C 
BRANCH   4   5
ATOM      5  C   UNL     1       5.055  -6.564 -28.541  1.00  0.00     0.000 C 
BRANCH   5   6
ATOM      6  C   UNL     1       5.083  -6.501 -30.083  1.00  0.00     0.006 C 
BRANCH   6   7
ATOM      7  C   UNL     1       4.336  -5.276 -30.627  1.00  0.00     0.053 C 
BRANCH   7   8
ATOM      8  C   UNL     1       2.928  -5.634 -30.980  1.00  0.00     0.041 C 
ATOM      9  O   UNL     1       2.652  -6.057 -32.134  1.00  0.00    -0.550 OA
ATOM     10  O   UNL     1       1.912  -5.462 -30.048  1.00  0.00    -0.550 OA
ENDBRANCH   7   8
ENDBRANCH   6   7
ENDBRANCH   5   6
ENDBRANCH   4   5
ENDBRANCH   3   4
ENDBRANCH   2   3
ENDBRANCH   1   2
BRANCH   1  11
ATOM     11  C   UNL     1       8.138  -4.066 -29.542  1.00  0.00    -0.031 C 
ATOM     12  C   UNL     1       8.235  -4.541 -30.793  1.00  0.00    -0.027 C 
BRANCH  12  13
ATOM     13  C   UNL     1       9.369  -5.430 -31.216  1.00  0.00     0.054 C 
BRANCH  13  14
ATOM     14  C   UNL     1      10.340  -4.673 -32.084  1.00  0.00    -0.027 C 
ATOM     15  C   UNL     1      11.406  -3.977 -31.646  1.00  0.00    -0.031 C 
BRANCH  15  16
ATOM     16  C   UNL     1      11.799  -3.774 -30.201  1.00  0.00     0.027 C 
BRANCH  16  17
ATOM     17  C   UNL     1      12.777  -4.857 -29.720  1.00  0.00     0.004 C 
BRANCH  17  18
ATOM     18  C   UNL     1      12.153  -5.865 -28.736  1.00  0.00     0.000 C 
BRANCH  18  19
ATOM     19  C   UNL     1      11.043  -5.267 -27.851  1.00  0.00    -0.003 C 
ATOM     20  C   UNL     1      10.055  -6.321 -27.351  1.00  0.00     0.004 C 
ENDBRANCH  18  19
ENDBRANCH  17  18
ENDBRANCH  16  17
ENDBRANCH  15  16
ENDBRANCH  13  14
ENDBRANCH  12  13
ENDBRANCH   1  11
TORSDOF 14
ENDMDL
MODEL 5
REMARK VINA RESULT:    -3.227      2.751      4.366
REMARK INTER + INTRA:          -8.049
REMARK INTER:                  -5.101
REMARK INTRA:                  -2.948
REMARK UNBOUND:                -2.180
REMARK SMILES CCCCCC=CCC=CCCCCCCCC(=O)[O-]
REMARK SMILES IDX 11 1 12 2 13 3 14 4 15 5 16 6 17 7 18 8 19 9 20 10 10 11
REMARK SMILES IDX 9 12 8 13 7 14 6 15 5 16 4 17 3 18 2 19 1 20
REMARK H PARENT
REMARK Flexibility Score: inf
ROOT
ATOM      1  C   UNL     1       7.500  -3.754 -29.166  1.00  0.00     0.027 C 
ENDROOT
BRANCH   1   2
ATOM      2  C   UNL     1       7.280  -4.707 -27.981  1.00  0.00     0.004 C 
BRANCH   2   3
ATOM      3  C   UNL     1       5.968  -4.421 -27.232  1.00  0.00     0.000 C 
BRANCH   3   4
ATOM      4  C   UNL     1       4.737  -4.973 -27.970  1.00  0.00     0.000 C 
BRANCH   4   5
ATOM      5  C   UNL     1       4.880  -6.460 -28.339  1.00  0.00     0.000 C 
BRANCH   5   6
ATOM      6  C   UNL     1       4.519  -6.766 -29.807  1.00  0.00     0.006 C 
BRANCH   6   7
ATOM      7  C   UNL     1       4.002  -5.526 -30.549  1.00  0.00     0.053 C 
BRANCH   7   8
ATOM      8  C   UNL     1       2.566  -5.701 -30.926  1.00  0.00     0.041 C 
ATOM      9  O   UNL     1       2.255  -6.033 -32.101  1.00  0.00    -0.550 OA
ATOM     10  O   UNL     1       1.567  -5.457 -29.992  1.00  0.00    -0.550 OA
ENDBRANCH   7   8
ENDBRANCH   6   7
ENDBRANCH   5   6
ENDBRANCH   4   5
ENDBRANCH   3   4
ENDBRANCH   2   3
ENDBRANCH   1   2
BRANCH   1  11
ATOM     11  C   UNL     1       7.538  -4.508 -30.466  1.00  0.00    -0.031 C 
ATOM     12  C   UNL     1       7.945  -5.785 -30.522  1.00  0.00    -0.027 C 
BRANCH  12  13
ATOM     13  C   UNL     1       7.963  -6.553 -31.813  1.00  0.00     0.054 C 
BRANCH  13  14
ATOM     14  C   UNL     1       7.308  -5.757 -32.911  1.00  0.00    -0.027 C 
ATOM     15  C   UNL     1       7.949  -5.127 -33.915  1.00  0.00    -0.031 C 
BRANCH  15  16
ATOM     16  C   UNL     1       9.447  -5.050 -34.098  1.00  0.00     0.027 C 
BRANCH  16  17
ATOM     17  C   UNL     1      10.068  -3.938 -33.238  1.00  0.00     0.004 C 
BRANCH  17  18
ATOM     18  C   UNL     1      11.096  -4.448 -32.209  1.00  0.00     0.000 C 
BRANCH  18  19
ATOM     19  C   UNL     1      11.136  -3.625 -30.908  1.00  0.00    -0.003 C 
ATOM     20  C   UNL     1      11.334  -4.495 -29.666  1.00  0.00     0.004 C 
ENDBRANCH  18  19
ENDBRANCH  17  18
ENDBRANCH  16  17
ENDBRANCH  15  16
ENDBRANCH  13  14
ENDBRANCH  12  13
ENDBRANCH   1  11
TORSDOF 14
ENDMDL
MODEL 6
REMARK VINA RESULT:    -3.201      2.916      5.991
REMARK INTER + INTRA:          -8.001
REMARK INTER:                  -5.059
REMARK INTRA:                  -2.942
REMARK UNBOUND:                -2.180
REMARK SMILES CCCCCC=CCC=CCCCCCCCC(=O)[O-]
REMARK SMILES IDX 11 1 12 2 13 3 14 4 15 5 16 6 17 7 18 8 19 9 20 10 10 11
REMARK SMILES IDX 9 12 8 13 7 14 6 15 5 16 4 17 3 18 2 19 1 20
REMARK H PARENT
REMARK Flexibility Score: inf
ROOT
ATOM      1  C   UNL     1       9.537  -6.159 -27.645  1.00  0.00     0.027 C 
ENDROOT
BRANCH   1   2
ATOM      2  C   UNL     1      10.402  -4.970 -28.089  1.00  0.00     0.004 C 
BRANCH   2   3
ATOM      3  C   UNL     1      11.891  -5.333 -28.197  1.00  0.00     0.000 C 
BRANCH   3   4
ATOM      4  C   UNL     1      12.510  -4.888 -29.533  1.00  0.00     0.000 C 
BRANCH   4   5
ATOM      5  C   UNL     1      11.605  -3.920 -30.315  1.00  0.00     0.000 C 
BRANCH   5   6
ATOM      6  C   UNL     1      11.376  -4.341 -31.782  1.00  0.00     0.006 C 
BRANCH   6   7
ATOM      7  C   UNL     1      10.105  -3.716 -32.372  1.00  0.00     0.053 C 
BRANCH   7   8
ATOM      8  C   UNL     1       9.873  -4.213 -33.763  1.00  0.00     0.041 C 
ATOM      9  O   UNL     1       8.861  -4.917 -34.024  1.00  0.00    -0.550 OA
ATOM     10  O   UNL     1      10.796  -3.936 -34.764  1.00  0.00    -0.550 OA
ENDBRANCH   7   8
ENDBRANCH   6   7
ENDBRANCH   5   6
ENDBRANCH   4   5
ENDBRANCH   3   4
ENDBRANCH   2   3
ENDBRANCH   1   2
BRANCH   1  11
ATOM     11  C   UNL     1       8.665  -6.643 -28.771  1.00  0.00    -0.031 C 
ATOM     12  C   UNL     1       8.531  -5.938 -29.905  1.00  0.00    -0.027 C 
BRANCH  12  13
ATOM     13  C   UNL     1       7.681  -6.425 -31.043  1.00  0.00     0.054 C 
BRANCH  13  14
ATOM     14  C   UNL     1       6.499  -5.514 -31.248  1.00  0.00    -0.027 C 
ATOM     15  C   UNL     1       5.281  -5.672 -30.696  1.00  0.00    -0.031 C 
BRANCH  15  16
ATOM     16  C   UNL     1       4.851  -6.822 -29.815  1.00  0.00     0.027 C 
BRANCH  16  17
ATOM     17  C   UNL     1       5.019  -6.490 -28.324  1.00  0.00     0.004 C 
BRANCH  17  18
ATOM     18  C   UNL     1       4.889  -4.988 -28.004  1.00  0.00     0.000 C 
BRANCH  18  19
ATOM     19  C   UNL     1       6.077  -4.415 -27.208  1.00  0.00    -0.003 C 
ATOM     20  C   UNL     1       6.841  -3.341 -27.981  1.00  0.00     0.004 C 
ENDBRANCH  18  19
ENDBRANCH  17  18
ENDBRANCH  16  17
ENDBRANCH  15  16
ENDBRANCH  13  14
ENDBRANCH  12  13
ENDBRANCH   1  11
TORSDOF 14
ENDMDL
MODEL 7
REMARK VINA RESULT:    -3.200      2.262      4.050
REMARK INTER + INTRA:          -7.999
REMARK INTER:                  -5.491
REMARK INTRA:                  -2.509
REMARK UNBOUND:                -2.180
REMARK SMILES CCCCCC=CCC=CCCCCCCCC(=O)[O-]
REMARK SMILES IDX 11 1 12 2 13 3 14 4 15 5 16 6 17 7 18 8 19 9 20 10 10 11
REMARK SMILES IDX 9 12 8 13 7 14 6 15 5 16 4 17 3 18 2 19 1 20
REMARK H PARENT
REMARK Flexibility Score: inf
ROOT
ATOM      1  C   UNL     1       7.741  -3.675 -29.442  1.00  0.00     0.027 C 
ENDROOT
BRANCH   1   2
ATOM      2  C   UNL     1       6.669  -4.743 -29.170  1.00  0.00     0.004 C 
BRANCH   2   3
ATOM      3  C   UNL     1       6.194  -4.741 -27.708  1.00  0.00     0.000 C 
BRANCH   3   4
ATOM      4  C   UNL     1       6.707  -5.958 -26.922  1.00  0.00     0.000 C 
BRANCH   4   5
ATOM      5  C   UNL     1       7.770  -6.761 -27.693  1.00  0.00     0.000 C 
BRANCH   5   6
ATOM      6  C   UNL     1       9.075  -6.976 -26.897  1.00  0.00     0.006 C 
BRANCH   6   7
ATOM      7  C   UNL     1      10.213  -6.078 -27.397  1.00  0.00     0.053 C 
BRANCH   7   8
ATOM      8  C   UNL     1      11.313  -6.012 -26.386  1.00  0.00     0.041 C 
ATOM      9  O   UNL     1      11.205  -6.627 -25.292  1.00  0.00    -0.550 OA
ATOM     10  O   UNL     1      12.440  -5.237 -26.633  1.00  0.00    -0.550 OA
ENDBRANCH   7   8
ENDBRANCH   6   7
ENDBRANCH   5   6
ENDBRANCH   4   5
ENDBRANCH   3   4
ENDBRANCH   2   3
ENDBRANCH   1   2
BRANCH   1  11
ATOM     11  C   UNL     1       8.643  -4.090 -30.571  1.00  0.00    -0.031 C 
ATOM     12  C   UNL     1       8.594  -5.328 -31.086  1.00  0.00    -0.027 C 
BRANCH  12  13
ATOM     13  C   UNL     1       9.475  -5.744 -32.229  1.00  0.00     0.054 C 
BRANCH  13  14
ATOM     14  C   UNL     1       9.324  -4.790 -33.386  1.00  0.00    -0.027 C 
ATOM     15  C   UNL     1      10.325  -4.113 -33.981  1.00  0.00    -0.031 C 
BRANCH  15  16
ATOM     16  C   UNL     1      11.778  -4.134 -33.565  1.00  0.00     0.027 C 
BRANCH  16  17
ATOM     17  C   UNL     1      12.110  -2.987 -32.597  1.00  0.00     0.004 C 
BRANCH  17  18
ATOM     18  C   UNL     1      13.065  -3.392 -31.457  1.00  0.00     0.000 C 
BRANCH  18  19
ATOM     19  C   UNL     1      12.353  -4.001 -30.235  1.00  0.00    -0.003 C 
ATOM     20  C   UNL     1      12.520  -5.517 -30.151  1.00  0.00     0.004 C 
ENDBRANCH  18  19
ENDBRANCH  17  18
ENDBRANCH  16  17
ENDBRANCH  15  16
ENDBRANCH  13  14
ENDBRANCH  12  13
ENDBRANCH   1  11
TORSDOF 14
ENDMDL
MODEL 8
REMARK VINA RESULT:    -3.091      3.005      6.798
REMARK INTER + INTRA:          -7.800
REMARK INTER:                  -5.392
REMARK INTRA:                  -2.408
REMARK UNBOUND:                -2.180
REMARK SMILES CCCCCC=CCC=CCCCCCCCC(=O)[O-]
REMARK SMILES IDX 11 1 12 2 13 3 14 4 15 5 16 6 17 7 18 8 19 9 20 10 10 11
REMARK SMILES IDX 9 12 8 13 7 14 6 15 5 16 4 17 3 18 2 19 1 20
REMARK H PARENT
REMARK Flexibility Score: inf
ROOT
ATOM      1  C   UNL     1       8.521  -5.751 -31.577  1.00  0.00     0.027 C 
ENDROOT
BRANCH   1   2
ATOM      2  C   UNL     1       9.647  -6.470 -30.818  1.00  0.00     0.004 C 
BRANCH   2   3
ATOM      3  C   UNL     1       9.934  -5.833 -29.449  1.00  0.00     0.000 C 
BRANCH   3   4
ATOM      4  C   UNL     1      10.384  -4.368 -29.566  1.00  0.00     0.000 C 
BRANCH   4   5
ATOM      5  C   UNL     1      11.866  -4.229 -29.957  1.00  0.00     0.000 C 
BRANCH   5   6
ATOM      6  C   UNL     1      12.085  -3.449 -31.271  1.00  0.00     0.006 C 
BRANCH   6   7
ATOM      7  C   UNL     1      12.380  -4.379 -32.455  1.00  0.00     0.053 C 
BRANCH   7   8
ATOM      8  C   UNL     1      11.447  -4.098 -33.589  1.00  0.00     0.041 C 
ATOM      9  O   UNL     1      11.728  -4.487 -34.753  1.00  0.00    -0.550 OA
ATOM     10  O   UNL     1      10.285  -3.368 -33.369  1.00  0.00    -0.550 OA
ENDBRANCH   7   8
ENDBRANCH   6   7
ENDBRANCH   5   6
ENDBRANCH   4   5
ENDBRANCH   3   4
ENDBRANCH   2   3
ENDBRANCH   1   2
BRANCH   1  11
ATOM     11  C   UNL     1       7.177  -6.316 -31.212  1.00  0.00    -0.031 C 
ATOM     12  C   UNL     1       6.039  -5.698 -31.565  1.00  0.00    -0.027 C 
BRANCH  12  13
ATOM     13  C   UNL     1       4.692  -6.267 -31.225  1.00  0.00     0.054 C 
BRANCH  13  14
ATOM     14  C   UNL     1       3.981  -5.386 -30.231  1.00  0.00    -0.027 C 
ATOM     15  C   UNL     1       4.196  -5.369 -28.902  1.00  0.00    -0.031 C 
BRANCH  15  16
ATOM     16  C   UNL     1       5.146  -6.270 -28.148  1.00  0.00     0.027 C 
BRANCH  16  17
ATOM     17  C   UNL     1       6.362  -5.496 -27.614  1.00  0.00     0.004 C 
BRANCH  17  18
ATOM     18  C   UNL     1       6.011  -4.111 -27.035  1.00  0.00     0.000 C 
BRANCH  18  19
ATOM     19  C   UNL     1       6.853  -2.960 -27.616  1.00  0.00    -0.003 C 
ATOM     20  C   UNL     1       7.099  -3.110 -29.117  1.00  0.00     0.004 C 
ENDBRANCH  18  19
ENDBRANCH  17  18
ENDBRANCH  16  17
ENDBRANCH  15  16
ENDBRANCH  13  14
ENDBRANCH  12  13
ENDBRANCH   1  11
TORSDOF 14
ENDMDL
MODEL 9
REMARK VINA RESULT:    -3.088      1.969      4.271
REMARK INTER + INTRA:          -7.795
REMARK INTER:                  -5.723
REMARK INTRA:                  -2.072
REMARK UNBOUND:                -2.180
REMARK SMILES CCCCCC=CCC=CCCCCCCCC(=O)[O-]
REMARK SMILES IDX 11 1 12 2 13 3 14 4 15 5 16 6 17 7 18 8 19 9 20 10 10 11
REMARK SMILES IDX 9 12 8 13 7 14 6 15 5 16 4 17 3 18 2 19 1 20
REMARK H PARENT
REMARK Flexibility Score: inf
ROOT
ATOM      1  C   UNL     1       6.666  -5.610 -32.239  1.00  0.00     0.027 C 
ENDROOT
BRANCH   1   2
ATOM      2  C   UNL     1       5.575  -6.650 -31.944  1.00  0.00     0.004 C 
BRANCH   2   3
ATOM      3  C   UNL     1       4.158  -6.088 -32.140  1.00  0.00     0.000 C 
BRANCH   3   4
ATOM      4  C   UNL     1       3.687  -5.250 -30.940  1.00  0.00     0.000 C 
BRANCH   4   5
ATOM      5  C   UNL     1       3.230  -6.114 -29.752  1.00  0.00     0.000 C 
BRANCH   5   6
ATOM      6  C   UNL     1       3.874  -5.705 -28.410  1.00  0.00     0.006 C 
BRANCH   6   7
ATOM      7  C   UNL     1       5.130  -4.847 -28.607  1.00  0.00     0.053 C 
BRANCH   7   8
ATOM      8  C   UNL     1       5.865  -4.688 -27.316  1.00  0.00     0.041 C 
ATOM      9  O   UNL     1       5.731  -3.636 -26.635  1.00  0.00    -0.550 OA
ATOM     10  O   UNL     1       6.733  -5.683 -26.882  1.00  0.00    -0.550 OA
ENDBRANCH   7   8
ENDBRANCH   6   7
ENDBRANCH   5   6
ENDBRANCH   4   5
ENDBRANCH   3   4
ENDBRANCH   2   3
ENDBRANCH   1   2
BRANCH   1  11
ATOM     11  C   UNL     1       7.754  -5.660 -31.203  1.00  0.00    -0.031 C 
ATOM     12  C   UNL     1       8.203  -4.545 -30.606  1.00  0.00    -0.027 C 
BRANCH  12  13
ATOM     13  C   UNL     1       9.273  -4.588 -29.553  1.00  0.00     0.054 C 
BRANCH  13  14
ATOM     14  C   UNL     1      10.428  -5.442 -30.007  1.00  0.00    -0.027 C 
ATOM     15  C   UNL     1      11.633  -4.987 -30.402  1.00  0.00    -0.031 C 
BRANCH  15  16
ATOM     16  C   UNL     1      12.036  -3.535 -30.520  1.00  0.00     0.027 C 
BRANCH  16  17
ATOM     17  C   UNL     1      12.580  -3.208 -31.919  1.00  0.00     0.004 C 
BRANCH  17  18
ATOM     18  C   UNL     1      11.986  -4.086 -33.038  1.00  0.00     0.000 C 
BRANCH  18  19
ATOM     19  C   UNL     1      10.936  -3.366 -33.904  1.00  0.00    -0.003 C 
ATOM     20  C   UNL     1       9.643  -4.169 -34.052  1.00  0.00     0.004 C 
ENDBRANCH  18  19
ENDBRANCH  17  18
ENDBRANCH  16  17
ENDBRANCH  15  16
ENDBRANCH  13  14
ENDBRANCH  12  13
ENDBRANCH   1  11
TORSDOF 14
ENDMDL
