MODEL 1
REMARK VINA RESULT:    -3.964      0.000      0.000
REMARK INTER + INTRA:          -6.379
REMARK INTER:                  -5.818
REMARK INTRA:                  -0.561
REMARK UNBOUND:                -0.561
REMARK SMILES O=C([O-])CCCCCCCC(=O)[O-]
REMARK SMILES IDX 7 1 6 2 5 3 4 4 2 5 1 6 3 7 8 8 9 9 10 10 11 11 12 12 13 13
REMARK H PARENT
REMARK Flexibility Score: inf
ROOT
ATOM      1  C   UNL     1      -0.553   8.090  -8.438  1.00  0.00     0.000 C 
ENDROOT
BRANCH   1   2
ATOM      2  C   UNL     1      -0.992   6.831  -9.207  1.00  0.00     0.000 C 
BRANCH   2   3
ATOM      3  C   UNL     1      -1.256   7.113 -10.694  1.00  0.00     0.006 C 
BRANCH   3   4
ATOM      4  C   UNL     1      -2.734   6.955 -11.075  1.00  0.00     0.053 C 
BRANCH   4   5
ATOM      5  C   UNL     1      -3.412   8.288 -11.096  1.00  0.00     0.041 C 
ATOM      6  O   UNL     1      -4.664   8.363 -10.982  1.00  0.00    -0.550 OA
ATOM      7  O   UNL     1      -2.667   9.444 -11.290  1.00  0.00    -0.550 OA
ENDBRANCH   4   5
ENDBRANCH   3   4
ENDBRANCH   2   3
ENDBRANCH   1   2
BRANCH   1   8
ATOM      8  C   UNL     1       0.853   7.949  -7.831  1.00  0.00     0.000 C 
BRANCH   8   9
ATOM      9  C   UNL     1       1.903   7.498  -8.861  1.00  0.00     0.006 C 
BRANCH   9  10
ATOM     10  C   UNL     1       2.308   8.634  -9.810  1.00  0.00     0.053 C 
BRANCH  10  11
ATOM     11  C   UNL     1       2.168   8.234 -11.246  1.00  0.00     0.041 C 
ATOM     12  O   UNL     1       1.661   9.031 -12.079  1.00  0.00    -0.550 OA
ATOM     13  O   UNL     1       2.629   6.995 -11.672  1.00  0.00    -0.550 OA
ENDBRANCH  10  11
ENDBRANCH   9  10
ENDBRANCH   8   9
ENDBRANCH   1   8
TORSDOF 8
ENDMDL
MODEL 2
REMARK VINA RESULT:    -3.959      2.409      6.197
REMARK INTER + INTRA:          -6.372
REMARK INTER:                  -6.094
REMARK INTRA:                  -0.278
REMARK UNBOUND:                -0.561
REMARK SMILES O=C([O-])CCCCCCCC(=O)[O-]
REMARK SMILES IDX 7 1 6 2 5 3 4 4 2 5 1 6 3 7 8 8 9 9 10 10 11 11 12 12 13 13
REMARK H PARENT
REMARK Flexibility Score: inf
ROOT
ATOM      1  C   UNL     1      -2.619   7.189 -10.683  1.00  0.00     0.000 C 
ENDROOT
BRANCH   1   2
ATOM      2  C   UNL     1      -1.385   6.568 -11.360  1.00  0.00     0.000 C 
BRANCH   2   3
ATOM      3  C   UNL     1      -0.079   6.897 -10.619  1.00  0.00     0.006 C 
BRANCH   3   4
ATOM      4  C   UNL     1      -0.222   6.799  -9.094  1.00  0.00     0.053 C 
BRANCH   4   5
ATOM      5  C   UNL     1       0.944   7.449  -8.419  1.00  0.00     0.041 C 
ATOM      6  O   UNL     1       2.100   6.968  -8.550  1.00  0.00    -0.550 OA
ATOM      7  O   UNL     1       0.747   8.558  -7.606  1.00  0.00    -0.550 OA
ENDBRANCH   4   5
ENDBRANCH   3   4
ENDBRANCH   2   3
ENDBRANCH   1   2
BRANCH   1   8
ATOM      8  C   UNL     1      -3.631   7.746 -11.698  1.00  0.00     0.000 C 
BRANCH   8   9
ATOM      9  C   UNL     1      -3.762   9.278 -11.626  1.00  0.00     0.006 C 
BRANCH   9  10
ATOM     10  C   UNL     1      -4.764   9.723 -10.552  1.00  0.00     0.053 C 
BRANCH  10  11
ATOM     11  C   UNL     1      -5.768  10.691 -11.096  1.00  0.00     0.041 C 
ATOM     12  O   UNL     1      -6.434  10.402 -12.125  1.00  0.00    -0.550 OA
ATOM     13  O   UNL     1      -5.993  11.898 -10.448  1.00  0.00    -0.550 OA
ENDBRANCH  10  11
ENDBRANCH   9  10
ENDBRANCH   8   9
ENDBRANCH   1   8
TORSDOF 8
ENDMDL
MODEL 3
REMARK VINA RESULT:    -3.926      2.515      3.881
REMARK INTER + INTRA:          -6.323
REMARK INTER:                  -5.995
REMARK INTRA:                  -0.328
REMARK UNBOUND:                -0.561
REMARK SMILES O=C([O-])CCCCCCCC(=O)[O-]
REMARK SMILES IDX 7 1 6 2 5 3 4 4 2 5 1 6 3 7 8 8 9 9 10 10 11 11 12 12 13 13
REMARK H PARENT
REMARK Flexibility Score: inf
ROOT
ATOM      1  C   UNL     1      -2.985   7.069 -11.431  1.00  0.00     0.000 C 
ENDROOT
BRANCH   1   2
ATOM      2  C   UNL     1      -4.112   8.014 -11.884  1.00  0.00     0.000 C 
BRANCH   2   3
ATOM      3  C   UNL     1      -4.560   8.972 -10.770  1.00  0.00     0.006 C 
BRANCH   3   4
ATOM      4  C   UNL     1      -4.519  10.444 -11.201  1.00  0.00     0.053 C 
BRANCH   4   5
ATOM      5  C   UNL     1      -5.897  11.027 -11.197  1.00  0.00     0.041 C 
ATOM      6  O   UNL     1      -6.179  11.979 -10.422  1.00  0.00    -0.550 OA
ATOM      7  O   UNL     1      -6.882  10.489 -12.014  1.00  0.00    -0.550 OA
ENDBRANCH   4   5
ENDBRANCH   3   4
ENDBRANCH   2   3
ENDBRANCH   1   2
BRANCH   1   8
ATOM      8  C   UNL     1      -1.723   7.826 -10.987  1.00  0.00     0.000 C 
BRANCH   8   9
ATOM      9  C   UNL     1      -0.748   6.942 -10.191  1.00  0.00     0.006 C 
BRANCH   9  10
ATOM     10  C   UNL     1      -0.601   7.408  -8.736  1.00  0.00     0.053 C 
BRANCH  10  11
ATOM     11  C   UNL     1       0.822   7.348  -8.274  1.00  0.00     0.041 C 
ATOM     12  O   UNL     1       1.098   7.473  -7.052  1.00  0.00    -0.550 OA
ATOM     13  O   UNL     1       1.842   7.120  -9.189  1.00  0.00    -0.550 OA
ENDBRANCH  10  11
ENDBRANCH   9  10
ENDBRANCH   8   9
ENDBRANCH   1   8
TORSDOF 8
ENDMDL
MODEL 4
REMARK VINA RESULT:    -3.895      0.158      4.897
REMARK INTER + INTRA:          -6.278
REMARK INTER:                  -5.722
REMARK INTRA:                  -0.556
REMARK UNBOUND:                -0.561
REMARK SMILES O=C([O-])CCCCCCCC(=O)[O-]
REMARK SMILES IDX 7 1 6 2 5 3 4 4 2 5 1 6 3 7 8 8 9 9 10 10 11 11 12 12 13 13
REMARK H PARENT
REMARK Flexibility Score: inf
ROOT
ATOM      1  C   UNL     1      -0.473   8.129  -8.461  1.00  0.00     0.000 C 
ENDROOT
BRANCH   1   2
ATOM      2  C   UNL     1       0.876   7.692  -7.863  1.00  0.00     0.000 C 
BRANCH   2   3
ATOM      3  C   UNL     1       1.938   7.422  -8.940  1.00  0.00     0.006 C 
BRANCH   3   4
ATOM      4  C   UNL     1       2.187   8.635  -9.845  1.00  0.00     0.053 C 
BRANCH   4   5
ATOM      5  C   UNL     1       2.103   8.238 -11.285  1.00  0.00     0.041 C 
ATOM      6  O   UNL     1       1.499   8.972 -12.110  1.00  0.00    -0.550 OA
ATOM      7  O   UNL     1       2.651   7.033 -11.707  1.00  0.00    -0.550 OA
ENDBRANCH   4   5
ENDBRANCH   3   4
ENDBRANCH   2   3
ENDBRANCH   1   2
BRANCH   1   8
ATOM      8  C   UNL     1      -1.243   6.959  -9.096  1.00  0.00     0.000 C 
BRANCH   8   9
ATOM      9  C   UNL     1      -1.316   7.059 -10.630  1.00  0.00     0.006 C 
BRANCH   9  10
ATOM     10  C   UNL     1      -2.761   7.006 -11.145  1.00  0.00     0.053 C 
BRANCH  10  11
ATOM     11  C   UNL     1      -3.407   8.356 -11.125  1.00  0.00     0.041 C 
ATOM     12  O   UNL     1      -2.700   9.398 -11.157  1.00  0.00    -0.550 OA
ATOM     13  O   UNL     1      -4.792   8.466 -11.107  1.00  0.00    -0.550 OA
ENDBRANCH  10  11
ENDBRANCH   9  10
ENDBRANCH   8   9
ENDBRANCH   1   8
TORSDOF 8
ENDMDL
MODEL 5
REMARK VINA RESULT:    -3.881      1.718      5.791
REMARK INTER + INTRA:          -6.257
REMARK INTER:                  -5.879
REMARK INTRA:                  -0.379
REMARK UNBOUND:                -0.561
REMARK SMILES O=C([O-])CCCCCCCC(=O)[O-]
REMARK SMILES IDX 7 1 6 2 5 3 4 4 2 5 1 6 3 7 8 8 9 9 10 10 11 11 12 12 13 13
REMARK H PARENT
REMARK Flexibility Score: inf
ROOT
ATOM      1  C   UNL     1      -1.992   8.346  -9.989  1.00  0.00     0.000 C 
ENDROOT
BRANCH   1   2
ATOM      2  C   UNL     1      -1.463   7.594  -8.755  1.00  0.00     0.000 C 
BRANCH   2   3
ATOM      3  C   UNL     1      -0.217   6.750  -9.069  1.00  0.00     0.006 C 
BRANCH   3   4
ATOM      4  C   UNL     1       1.089   7.454  -8.680  1.00  0.00     0.053 C 
BRANCH   4   5
ATOM      5  C   UNL     1       1.890   7.780  -9.901  1.00  0.00     0.041 C 
ATOM      6  O   UNL     1       1.605   7.247 -11.005  1.00  0.00    -0.550 OA
ATOM      7  O   UNL     1       2.981   8.634  -9.810  1.00  0.00    -0.550 OA
ENDBRANCH   4   5
ENDBRANCH   3   4
ENDBRANCH   2   3
ENDBRANCH   1   2
BRANCH   1   8
ATOM      8  C   UNL     1      -2.754   7.428 -10.958  1.00  0.00     0.000 C 
BRANCH   8   9
ATOM      9  C   UNL     1      -4.063   8.056 -11.468  1.00  0.00     0.006 C 
BRANCH   9  10
ATOM     10  C   UNL     1      -4.429   9.333 -10.699  1.00  0.00     0.053 C 
BRANCH  10  11
ATOM     11  C   UNL     1      -5.027  10.370 -11.599  1.00  0.00     0.041 C 
ATOM     12  O   UNL     1      -4.367  11.397 -11.908  1.00  0.00    -0.550 OA
ATOM     13  O   UNL     1      -6.300  10.186 -12.123  1.00  0.00    -0.550 OA
ENDBRANCH  10  11
ENDBRANCH   9  10
ENDBRANCH   8   9
ENDBRANCH   1   8
TORSDOF 8
ENDMDL
MODEL 6
REMARK VINA RESULT:    -3.838      2.161      4.936
REMARK INTER + INTRA:          -6.194
REMARK INTER:                  -5.398
REMARK INTRA:                  -0.796
REMARK UNBOUND:                -0.561
REMARK SMILES O=C([O-])CCCCCCCC(=O)[O-]
REMARK SMILES IDX 7 1 6 2 5 3 4 4 2 5 1 6 3 7 8 8 9 9 10 10 11 11 12 12 13 13
REMARK H PARENT
REMARK Flexibility Score: inf
ROOT
ATOM      1  C   UNL     1       1.246   8.889 -11.970  1.00  0.00     0.000 C 
ENDROOT
BRANCH   1   2
ATOM      2  C   UNL     1       2.528   9.474 -11.349  1.00  0.00     0.000 C 
BRANCH   2   3
ATOM      3  C   UNL     1       2.766   8.979  -9.914  1.00  0.00     0.006 C 
BRANCH   3   4
ATOM      4  C   UNL     1       1.556   9.209  -8.999  1.00  0.00     0.053 C 
BRANCH   4   5
ATOM      5  C   UNL     1       1.167   7.935  -8.317  1.00  0.00     0.041 C 
ATOM      6  O   UNL     1       1.900   6.916  -8.415  1.00  0.00    -0.550 OA
ATOM      7  O   UNL     1      -0.028   7.860  -7.614  1.00  0.00    -0.550 OA
ENDBRANCH   4   5
ENDBRANCH   3   4
ENDBRANCH   2   3
ENDBRANCH   1   2
BRANCH   1   8
ATOM      8  C   UNL     1       1.286   7.355 -12.069  1.00  0.00     0.000 C 
BRANCH   8   9
ATOM      9  C   UNL     1      -0.018   6.694 -11.588  1.00  0.00     0.006 C 
BRANCH   9  10
ATOM     10  C   UNL     1      -1.064   7.729 -11.153  1.00  0.00     0.053 C 
BRANCH  10  11
ATOM     11  C   UNL     1      -2.317   7.076 -10.656  1.00  0.00     0.041 C 
ATOM     12  O   UNL     1      -3.401   7.229 -11.279  1.00  0.00    -0.550 OA
ATOM     13  O   UNL     1      -2.281   6.271  -9.525  1.00  0.00    -0.550 OA
ENDBRANCH  10  11
ENDBRANCH   9  10
ENDBRANCH   8   9
ENDBRANCH   1   8
TORSDOF 8
ENDMDL
MODEL 7
REMARK VINA RESULT:    -3.814     15.584     16.756
REMARK INTER + INTRA:          -6.160
REMARK INTER:                  -5.830
REMARK INTRA:                  -0.330
REMARK UNBOUND:                -0.561
REMARK SMILES O=C([O-])CCCCCCCC(=O)[O-]
REMARK SMILES IDX 7 1 6 2 5 3 4 4 2 5 1 6 3 7 8 8 9 9 10 10 11 11 12 12 13 13
REMARK H PARENT
REMARK Flexibility Score: inf
ROOT
ATOM      1  C   UNL     1       1.979  13.363   4.697  1.00  0.00     0.000 C 
ENDROOT
BRANCH   1   2
ATOM      2  C   UNL     1       0.531  13.768   5.021  1.00  0.00     0.000 C 
BRANCH   2   3
ATOM      3  C   UNL     1      -0.497  13.017   4.160  1.00  0.00     0.006 C 
BRANCH   3   4
ATOM      4  C   UNL     1      -1.609  12.367   4.994  1.00  0.00     0.053 C 
BRANCH   4   5
ATOM      5  C   UNL     1      -1.180  11.017   5.475  1.00  0.00     0.041 C 
ATOM      6  O   UNL     1      -0.607  10.895   6.590  1.00  0.00    -0.550 OA
ATOM      7  O   UNL     1      -1.369   9.900   4.672  1.00  0.00    -0.550 OA
ENDBRANCH   4   5
ENDBRANCH   3   4
ENDBRANCH   2   3
ENDBRANCH   1   2
BRANCH   1   8
ATOM      8  C   UNL     1       2.747  12.876   5.938  1.00  0.00     0.000 C 
BRANCH   8   9
ATOM      9  C   UNL     1       4.249  13.204   5.874  1.00  0.00     0.006 C 
BRANCH   9  10
ATOM     10  C   UNL     1       5.071  12.339   6.839  1.00  0.00     0.053 C 
BRANCH  10  11
ATOM     11  C   UNL     1       5.685  11.162   6.145  1.00  0.00     0.041 C 
ATOM     12  O   UNL     1       5.112  10.041   6.172  1.00  0.00    -0.550 OA
ATOM     13  O   UNL     1       6.872  11.311   5.440  1.00  0.00    -0.550 OA
ENDBRANCH  10  11
ENDBRANCH   9  10
ENDBRANCH   8   9
ENDBRANCH   1   8
TORSDOF 8
ENDMDL
MODEL 8
REMARK VINA RESULT:    -3.783      1.431      1.842
REMARK INTER + INTRA:          -6.113
REMARK INTER:                  -5.686
REMARK INTRA:                  -0.427
REMARK UNBOUND:                -0.561
REMARK SMILES O=C([O-])CCCCCCCC(=O)[O-]
REMARK SMILES IDX 7 1 6 2 5 3 4 4 2 5 1 6 3 7 8 8 9 9 10 10 11 11 12 12 13 13
REMARK H PARENT
REMARK Flexibility Score: inf
ROOT
ATOM      1  C   UNL     1      -1.271   7.623  -9.552  1.00  0.00     0.000 C 
ENDROOT
BRANCH   1   2
ATOM      2  C   UNL     1      -2.013   7.021 -10.759  1.00  0.00     0.000 C 
BRANCH   2   3
ATOM      3  C   UNL     1      -3.202   7.885 -11.209  1.00  0.00     0.006 C 
BRANCH   3   4
ATOM      4  C   UNL     1      -3.057   9.355 -10.796  1.00  0.00     0.053 C 
BRANCH   4   5
ATOM      5  C   UNL     1      -4.398   9.946 -10.494  1.00  0.00     0.041 C 
ATOM      6  O   UNL     1      -5.433   9.233 -10.558  1.00  0.00    -0.550 OA
ATOM      7  O   UNL     1      -4.509  11.297 -10.187  1.00  0.00    -0.550 OA
ENDBRANCH   4   5
ENDBRANCH   3   4
ENDBRANCH   2   3
ENDBRANCH   1   2
BRANCH   1   8
ATOM      8  C   UNL     1      -0.296   6.627  -8.903  1.00  0.00     0.000 C 
BRANCH   8   9
ATOM      9  C   UNL     1       1.016   7.290  -8.448  1.00  0.00     0.006 C 
BRANCH   9  10
ATOM     10  C   UNL     1       1.332   8.558  -9.253  1.00  0.00     0.053 C 
BRANCH  10  11
ATOM     11  C   UNL     1       2.396   8.314 -10.278  1.00  0.00     0.041 C 
ATOM     12  O   UNL     1       3.450   9.002 -10.273  1.00  0.00    -0.550 OA
ATOM     13  O   UNL     1       2.238   7.304 -11.218  1.00  0.00    -0.550 OA
ENDBRANCH  10  11
ENDBRANCH   9  10
ENDBRANCH   8   9
ENDBRANCH   1   8
TORSDOF 8
ENDMDL
MODEL 9
REMARK VINA RESULT:    -3.686      1.942      2.374
REMARK INTER + INTRA:          -5.971
REMARK INTER:                  -5.446
REMARK INTRA:                  -0.525
REMARK UNBOUND:                -0.561
REMARK SMILES O=C([O-])CCCCCCCC(=O)[O-]
REMARK SMILES IDX 7 1 6 2 5 3 4 4 2 5 1 6 3 7 8 8 9 9 10 10 11 11 12 12 13 13
REMARK H PARENT
REMARK Flexibility Score: inf
ROOT
ATOM      1  C   UNL     1       0.734   7.943  -8.001  1.00  0.00     0.000 C 
ENDROOT
BRANCH   1   2
ATOM      2  C   UNL     1      -0.056   6.883  -8.788  1.00  0.00     0.000 C 
BRANCH   2   3
ATOM      3  C   UNL     1      -1.459   7.370  -9.187  1.00  0.00     0.006 C 
BRANCH   3   4
ATOM      4  C   UNL     1      -1.544   7.793 -10.659  1.00  0.00     0.053 C 
BRANCH   4   5
ATOM      5  C   UNL     1      -2.106   6.683 -11.489  1.00  0.00     0.041 C 
ATOM      6  O   UNL     1      -3.314   6.706 -11.842  1.00  0.00    -0.550 OA
ATOM      7  O   UNL     1      -1.308   5.599 -11.833  1.00  0.00    -0.550 OA
ENDBRANCH   4   5
ENDBRANCH   3   4
ENDBRANCH   2   3
ENDBRANCH   1   2
BRANCH   1   8
ATOM      8  C   UNL     1       1.495   8.913  -8.919  1.00  0.00     0.000 C 
BRANCH   8   9
ATOM      9  C   UNL     1       2.271   8.191 -10.035  1.00  0.00     0.006 C 
BRANCH   9  10
ATOM     10  C   UNL     1       2.348   9.027 -11.320  1.00  0.00     0.053 C 
BRANCH  10  11
ATOM     11  C   UNL     1       3.686   9.680 -11.477  1.00  0.00     0.041 C 
ATOM     12  O   UNL     1       4.741   9.015 -11.302  1.00  0.00    -0.550 OA
ATOM     13  O   UNL     1       3.769  11.015 -11.852  1.00  0.00    -0.550 OA
ENDBRANCH  10  11
ENDBRANCH   9  10
ENDBRANCH   8   9
ENDBRANCH   1   8
TORSDOF 8
ENDMDL
