MODEL 1
REMARK VINA RESULT:    -2.611      0.000      0.000
REMARK INTER + INTRA:          -3.230
REMARK INTER:                  -3.985
REMARK INTRA:                   0.755
REMARK UNBOUND:                 0.755
REMARK SMILES CC1=CCC[C@@H](C)C(=O)C[C@@H](C(C)C)C(=O)C1
REMARK SMILES IDX 8 1 9 2 6 3 7 4 5 5 4 6 3 7 2 8 1 9 10 11 11 12 15 13 16 14
REMARK SMILES IDX 17 15 12 17 13 18 14 19
REMARK H PARENT
REMARK Flexibility Score: 70.00
ROOT
ATOM      1  C   UNL     1      11.763  16.000  25.065  1.00  0.00     0.136 C 
ATOM      2  O   UNL     1      11.101  16.391  24.115  1.00  0.00    -0.299 OA
ENDROOT
BRANCH   1   3
ATOM      3  C   UNL     1      11.657  14.552  25.505  1.00  0.00     0.053 C 
ATOM      4  C   UNL     1      10.988  13.724  24.402  1.00  0.00     0.016 C 
BRANCH   3   5
ATOM      5  C   UNL     1      10.890  14.384  26.840  1.00  0.00     0.015 C 
BRANCH   5   6
ATOM      6  C   UNL     1      11.777  14.152  28.078  1.00  0.00     0.028 C 
BRANCH   6   7
ATOM      7  C   UNL     1      13.105  13.521  27.724  1.00  0.00    -0.028 C 
ATOM      8  C   UNL     1      14.294  14.167  27.703  1.00  0.00    -0.070 CG0
ATOM      9  C   UNL     1      15.512  13.392  27.269  1.00  0.00     0.039 C 
ATOM     10  G   UNL     1      14.455  15.618  28.124  1.00  0.00     0.000 G0
ENDBRANCH   6   7
ENDBRANCH   5   6
ENDBRANCH   3   5
ENDBRANCH   1   3
BRANCH   1  11
ATOM     11  C   UNL     1      12.741  16.942  25.742  1.00  0.00     0.087 C 
BRANCH  11  12
ATOM     12  C   UNL     1      14.246  16.536  25.661  1.00  0.00     0.066 C 
BRANCH  12  13
ATOM     13  C   UNL     1      14.934  16.514  27.018  1.00  0.00     0.140 C 
ATOM     14  O   UNL     1      15.917  17.211  27.217  1.00  0.00    -0.299 OA
BRANCH  13  15
ATOM     15  C   UNL     1      14.453  15.609  28.125  1.00  0.00     0.106 CG0
ATOM     16  G   UNL     1      14.322  14.164  27.675  1.00  0.00     0.000 G0
ENDBRANCH  13  15
ENDBRANCH  12  13
BRANCH  12  17
ATOM     17  C   UNL     1      15.077  17.312  24.587  1.00  0.00    -0.006 C 
ATOM     18  C   UNL     1      14.334  17.382  23.243  1.00  0.00     0.008 C 
ATOM     19  C   UNL     1      15.509  18.725  25.019  1.00  0.00     0.008 C 
ENDBRANCH  12  17
ENDBRANCH  11  12
ENDBRANCH   1  11
TORSDOF 1
ENDMDL
MODEL 2
REMARK VINA RESULT:    -2.413      1.505      1.906
REMARK INTER + INTRA:          -2.928
REMARK INTER:                  -3.781
REMARK INTRA:                   0.854
REMARK UNBOUND:                 0.755
REMARK SMILES CC1=CCC[C@@H](C)C(=O)C[C@@H](C(C)C)C(=O)C1
REMARK SMILES IDX 8 1 9 2 6 3 7 4 5 5 4 6 3 7 2 8 1 9 10 11 11 12 15 13 16 14
REMARK SMILES IDX 17 15 12 17 13 18 14 19
REMARK H PARENT
REMARK Flexibility Score: 70.00
ROOT
ATOM      1  C   UNL     1      13.480  16.126  24.896  1.00  0.00     0.136 C 
ATOM      2  O   UNL     1      14.226  15.554  24.115  1.00  0.00    -0.299 OA
ENDROOT
BRANCH   1   3
ATOM      3  C   UNL     1      12.315  15.369  25.507  1.00  0.00     0.053 C 
ATOM      4  C   UNL     1      11.161  15.295  24.500  1.00  0.00     0.016 C 
BRANCH   3   5
ATOM      5  C   UNL     1      11.825  15.991  26.838  1.00  0.00     0.015 C 
BRANCH   5   6
ATOM      6  C   UNL     1      12.328  15.286  28.112  1.00  0.00     0.028 C 
BRANCH   6   7
ATOM      7  C   UNL     1      13.770  14.847  27.996  1.00  0.00    -0.028 C 
ATOM      8  C   UNL     1      14.838  15.680  27.964  1.00  0.00    -0.070 CG0
ATOM      9  C   UNL     1      16.204  15.069  27.786  1.00  0.00     0.039 C 
ATOM     10  G   UNL     1      14.718  17.185  28.129  1.00  0.00     0.000 G0
ENDBRANCH   6   7
ENDBRANCH   5   6
ENDBRANCH   3   5
ENDBRANCH   1   3
BRANCH   1  11
ATOM     11  C   UNL     1      13.770  17.557  25.307  1.00  0.00     0.087 C 
BRANCH  11  12
ATOM     12  C   UNL     1      15.262  17.885  25.626  1.00  0.00     0.066 C 
BRANCH  12  13
ATOM     13  C   UNL     1      15.551  17.969  27.117  1.00  0.00     0.140 C 
ATOM     14  O   UNL     1      16.489  18.639  27.522  1.00  0.00    -0.299 OA
BRANCH  13  15
ATOM     15  C   UNL     1      14.726  17.201  28.119  1.00  0.00     0.106 CG0
ATOM     16  G   UNL     1      14.859  15.697  27.947  1.00  0.00     0.000 G0
ENDBRANCH  13  15
ENDBRANCH  12  13
BRANCH  12  17
ATOM     17  C   UNL     1      15.848  19.104  24.839  1.00  0.00    -0.006 C 
ATOM     18  C   UNL     1      17.382  19.041  24.763  1.00  0.00     0.008 C 
ATOM     19  C   UNL     1      15.263  19.286  23.427  1.00  0.00     0.008 C 
ENDBRANCH  12  17
ENDBRANCH  11  12
ENDBRANCH   1  11
TORSDOF 1
ENDMDL
MODEL 3
REMARK VINA RESULT:    -2.284      1.780      3.513
REMARK INTER + INTRA:          -2.731
REMARK INTER:                  -4.577
REMARK INTRA:                   1.845
REMARK UNBOUND:                 0.755
REMARK SMILES CC1=CCC[C@@H](C)C(=O)C[C@@H](C(C)C)C(=O)C1
REMARK SMILES IDX 8 1 9 2 6 3 7 4 5 5 4 6 3 7 2 8 1 9 10 11 11 12 15 13 16 14
REMARK SMILES IDX 17 15 12 17 13 18 14 19
REMARK H PARENT
REMARK Flexibility Score: 70.00
ROOT
ATOM      1  C   UNL     1      15.198  14.602  27.415  1.00  0.00     0.136 C 
ATOM      2  O   UNL     1      15.655  14.499  26.286  1.00  0.00    -0.299 OA
ENDROOT
BRANCH   1   3
ATOM      3  C   UNL     1      14.671  13.368  28.123  1.00  0.00     0.053 C 
ATOM      4  C   UNL     1      15.535  12.155  27.760  1.00  0.00     0.016 C 
BRANCH   3   5
ATOM      5  C   UNL     1      13.183  13.080  27.803  1.00  0.00     0.015 C 
BRANCH   5   6
ATOM      6  C   UNL     1      12.254  14.309  27.859  1.00  0.00     0.028 C 
BRANCH   6   7
ATOM      7  C   UNL     1      11.465  14.491  26.582  1.00  0.00    -0.028 C 
ATOM      8  C   UNL     1      11.819  15.300  25.556  1.00  0.00    -0.070 CG0
ATOM      9  C   UNL     1      10.881  15.403  24.381  1.00  0.00     0.039 C 
ATOM     10  G   UNL     1      13.124  16.077  25.527  1.00  0.00     0.000 G0
ENDBRANCH   6   7
ENDBRANCH   5   6
ENDBRANCH   3   5
ENDBRANCH   1   3
BRANCH   1  11
ATOM     11  C   UNL     1      15.234  15.942  28.125  1.00  0.00     0.087 C 
BRANCH  11  12
ATOM     12  C   UNL     1      14.742  17.167  27.293  1.00  0.00     0.066 C 
BRANCH  12  13
ATOM     13  C   UNL     1      13.357  16.969  26.696  1.00  0.00     0.140 C 
ATOM     14  O   UNL     1      12.387  17.510  27.205  1.00  0.00    -0.299 OA
BRANCH  13  15
ATOM     15  C   UNL     1      13.140  16.075  25.500  1.00  0.00     0.106 CG0
ATOM     16  G   UNL     1      11.827  15.315  25.577  1.00  0.00     0.000 G0
ENDBRANCH  13  15
ENDBRANCH  12  13
BRANCH  12  17
ATOM     17  C   UNL     1      15.770  17.702  26.242  1.00  0.00    -0.006 C 
ATOM     18  C   UNL     1      15.081  18.549  25.160  1.00  0.00     0.008 C 
ATOM     19  C   UNL     1      16.947  18.487  26.849  1.00  0.00     0.008 C 
ENDBRANCH  12  17
ENDBRANCH  11  12
ENDBRANCH   1  11
TORSDOF 1
ENDMDL
MODEL 4
REMARK VINA RESULT:    -2.132      1.776      2.788
REMARK INTER + INTRA:          -2.499
REMARK INTER:                  -4.794
REMARK INTRA:                   2.295
REMARK UNBOUND:                 0.755
REMARK SMILES CC1=CCC[C@@H](C)C(=O)C[C@@H](C(C)C)C(=O)C1
REMARK SMILES IDX 8 1 9 2 6 3 7 4 5 5 4 6 3 7 2 8 1 9 10 11 11 12 15 13 16 14
REMARK SMILES IDX 17 15 12 17 13 18 14 19
REMARK H PARENT
REMARK Flexibility Score: 70.00
ROOT
ATOM      1  C   UNL     1      12.795  15.780  24.973  1.00  0.00     0.136 C 
ATOM      2  O   UNL     1      11.744  16.060  24.416  1.00  0.00    -0.299 OA
ENDROOT
BRANCH   1   3
ATOM      3  C   UNL     1      12.785  14.827  26.154  1.00  0.00     0.053 C 
ATOM      4  C   UNL     1      11.358  14.319  26.396  1.00  0.00     0.016 C 
BRANCH   3   5
ATOM      5  C   UNL     1      13.353  15.465  27.446  1.00  0.00     0.015 C 
BRANCH   5   6
ATOM      6  C   UNL     1      14.779  15.019  27.821  1.00  0.00     0.028 C 
BRANCH   6   7
ATOM      7  C   UNL     1      15.725  16.189  27.975  1.00  0.00    -0.028 C 
ATOM      8  C   UNL     1      15.381  17.492  27.847  1.00  0.00    -0.070 CG0
ATOM      9  C   UNL     1      16.469  18.527  27.977  1.00  0.00     0.039 C 
ATOM     10  G   UNL     1      13.952  17.951  27.611  1.00  0.00     0.000 G0
ENDBRANCH   6   7
ENDBRANCH   5   6
ENDBRANCH   3   5
ENDBRANCH   1   3
BRANCH   1  11
ATOM     11  C   UNL     1      14.104  16.322  24.431  1.00  0.00     0.087 C 
BRANCH  11  12
ATOM     12  C   UNL     1      14.597  17.665  25.055  1.00  0.00     0.066 C 
BRANCH  12  13
ATOM     13  C   UNL     1      13.667  18.201  26.133  1.00  0.00     0.140 C 
ATOM     14  O   UNL     1      12.680  18.851  25.823  1.00  0.00    -0.299 OA
BRANCH  13  15
ATOM     15  C   UNL     1      13.960  17.985  27.597  1.00  0.00     0.106 CG0
ATOM     16  G   UNL     1      15.376  17.490  27.838  1.00  0.00     0.000 G0
ENDBRANCH  13  15
ENDBRANCH  12  13
BRANCH  12  17
ATOM     17  C   UNL     1      14.995  18.764  24.015  1.00  0.00    -0.006 C 
ATOM     18  C   UNL     1      16.481  19.139  24.133  1.00  0.00     0.008 C 
ATOM     19  C   UNL     1      14.662  18.405  22.555  1.00  0.00     0.008 C 
ENDBRANCH  12  17
ENDBRANCH  11  12
ENDBRANCH   1  11
TORSDOF 1
ENDMDL
MODEL 5
REMARK VINA RESULT:    -1.732      1.750      3.462
REMARK INTER + INTRA:          -1.888
REMARK INTER:                  -5.631
REMARK INTRA:                   3.742
REMARK UNBOUND:                 0.755
REMARK SMILES CC1=CCC[C@@H](C)C(=O)C[C@@H](C(C)C)C(=O)C1
REMARK SMILES IDX 8 1 9 2 6 3 7 4 5 5 4 6 3 7 2 8 1 9 10 11 11 12 15 13 16 14
REMARK SMILES IDX 17 15 12 17 13 18 14 19
REMARK H PARENT
REMARK Flexibility Score: 70.00
ROOT
ATOM      1  C   UNL     1      14.974  16.945  25.216  1.00  0.00     0.136 C 
ATOM      2  O   UNL     1      15.739  17.896  25.150  1.00  0.00    -0.299 OA
ENDROOT
BRANCH   1   3
ATOM      3  C   UNL     1      13.593  17.053  24.596  1.00  0.00     0.053 C 
ATOM      4  C   UNL     1      12.763  18.091  25.360  1.00  0.00     0.016 C 
BRANCH   3   5
ATOM      5  C   UNL     1      12.846  15.697  24.553  1.00  0.00     0.015 C 
BRANCH   5   6
ATOM      6  C   UNL     1      11.470  15.687  25.247  1.00  0.00     0.028 C 
BRANCH   6   7
ATOM      7  C   UNL     1      11.166  14.358  25.901  1.00  0.00    -0.028 C 
ATOM      8  C   UNL     1      11.720  13.912  27.053  1.00  0.00    -0.070 CG0
ATOM      9  C   UNL     1      11.342  12.534  27.531  1.00  0.00     0.039 C 
ATOM     10  G   UNL     1      12.675  14.746  27.890  1.00  0.00     0.000 G0
ENDBRANCH   6   7
ENDBRANCH   5   6
ENDBRANCH   3   5
ENDBRANCH   1   3
BRANCH   1  11
ATOM     11  C   UNL     1      15.438  15.644  25.843  1.00  0.00     0.087 C 
BRANCH  11  12
ATOM     12  C   UNL     1      15.154  15.483  27.369  1.00  0.00     0.066 C 
BRANCH  12  13
ATOM     13  C   UNL     1      14.128  14.404  27.678  1.00  0.00     0.140 C 
ATOM     14  O   UNL     1      14.464  13.230  27.707  1.00  0.00    -0.299 OA
BRANCH  13  15
ATOM     15  C   UNL     1      12.677  14.746  27.909  1.00  0.00     0.106 CG0
ATOM     16  G   UNL     1      11.741  13.899  27.063  1.00  0.00     0.000 G0
ENDBRANCH  13  15
ENDBRANCH  12  13
BRANCH  12  17
ATOM     17  C   UNL     1      14.854  16.821  28.124  1.00  0.00    -0.006 C 
ATOM     18  C   UNL     1      15.933  17.879  27.845  1.00  0.00     0.008 C 
ATOM     19  C   UNL     1      13.460  17.409  27.842  1.00  0.00     0.008 C 
ENDBRANCH  12  17
ENDBRANCH  11  12
ENDBRANCH   1  11
TORSDOF 1
ENDMDL
MODEL 6
REMARK VINA RESULT:    -1.602      1.943      3.787
REMARK INTER + INTRA:          -1.690
REMARK INTER:                  -2.556
REMARK INTRA:                   0.866
REMARK UNBOUND:                 0.755
REMARK SMILES CC1=CCC[C@@H](C)C(=O)C[C@@H](C(C)C)C(=O)C1
REMARK SMILES IDX 8 1 9 2 6 3 7 4 5 5 4 6 3 7 2 8 1 9 10 11 11 12 15 13 16 14
REMARK SMILES IDX 17 15 12 17 13 18 14 19
REMARK H PARENT
REMARK Flexibility Score: 70.00
ROOT
ATOM      1  C   UNL     1      15.125  17.472  27.635  1.00  0.00     0.136 C 
ATOM      2  O   UNL     1      14.115  17.957  28.125  1.00  0.00    -0.299 OA
ENDROOT
BRANCH   1   3
ATOM      3  C   UNL     1      15.514  16.047  27.981  1.00  0.00     0.053 C 
ATOM      4  C   UNL     1      16.564  15.541  26.985  1.00  0.00     0.016 C 
BRANCH   3   5
ATOM      5  C   UNL     1      14.301  15.085  28.016  1.00  0.00     0.015 C 
BRANCH   5   6
ATOM      6  C   UNL     1      14.048  14.305  26.711  1.00  0.00     0.028 C 
BRANCH   6   7
ATOM      7  C   UNL     1      12.759  14.718  26.035  1.00  0.00    -0.028 C 
ATOM      8  C   UNL     1      12.642  15.710  25.120  1.00  0.00    -0.070 CG0
ATOM      9  C   UNL     1      11.266  16.024  24.592  1.00  0.00     0.039 C 
ATOM     10  G   UNL     1      13.832  16.489  24.588  1.00  0.00     0.000 G0
ENDBRANCH   6   7
ENDBRANCH   5   6
ENDBRANCH   3   5
ENDBRANCH   1   3
BRANCH   1  11
ATOM     11  C   UNL     1      15.932  18.269  26.628  1.00  0.00     0.087 C 
BRANCH  11  12
ATOM     12  C   UNL     1      15.184  18.670  25.319  1.00  0.00     0.066 C 
BRANCH  12  13
ATOM     13  C   UNL     1      13.876  17.920  25.122  1.00  0.00     0.140 C 
ATOM     14  O   UNL     1      12.815  18.449  25.419  1.00  0.00    -0.299 OA
BRANCH  13  15
ATOM     15  C   UNL     1      13.856  16.504  24.602  1.00  0.00     0.106 CG0
ATOM     16  G   UNL     1      12.648  15.724  25.093  1.00  0.00     0.000 G0
ENDBRANCH  13  15
ENDBRANCH  12  13
BRANCH  12  17
ATOM     17  C   UNL     1      16.070  18.666  24.029  1.00  0.00    -0.006 C 
ATOM     18  C   UNL     1      15.372  19.384  22.863  1.00  0.00     0.008 C 
ATOM     19  C   UNL     1      17.482  19.247  24.229  1.00  0.00     0.008 C 
ENDBRANCH  12  17
ENDBRANCH  11  12
ENDBRANCH   1  11
TORSDOF 1
ENDMDL
MODEL 7
REMARK VINA RESULT:    -1.502      1.675      4.127
REMARK INTER + INTRA:          -1.538
REMARK INTER:                  -2.268
REMARK INTRA:                   0.730
REMARK UNBOUND:                 0.755
REMARK SMILES CC1=CCC[C@@H](C)C(=O)C[C@@H](C(C)C)C(=O)C1
REMARK SMILES IDX 8 1 9 2 6 3 7 4 5 5 4 6 3 7 2 8 1 9 10 11 11 12 15 13 16 14
REMARK SMILES IDX 17 15 12 17 13 18 14 19
REMARK H PARENT
REMARK Flexibility Score: 70.00
ROOT
ATOM      1  C   UNL     1      14.654  16.968  24.530  1.00  0.00     0.136 C 
ATOM      2  O   UNL     1      15.742  16.415  24.457  1.00  0.00    -0.299 OA
ENDROOT
BRANCH   1   3
ATOM      3  C   UNL     1      14.591  18.478  24.664  1.00  0.00     0.053 C 
ATOM      4  C   UNL     1      15.006  19.133  23.341  1.00  0.00     0.016 C 
BRANCH   3   5
ATOM      5  C   UNL     1      15.464  19.016  25.825  1.00  0.00     0.015 C 
BRANCH   5   6
ATOM      6  C   UNL     1      15.175  18.390  27.203  1.00  0.00     0.028 C 
BRANCH   6   7
ATOM      7  C   UNL     1      16.025  17.168  27.468  1.00  0.00    -0.028 C 
ATOM      8  C   UNL     1      15.552  15.957  27.849  1.00  0.00    -0.070 CG0
ATOM      9  C   UNL     1      16.551  14.864  28.125  1.00  0.00     0.039 C 
ATOM     10  G   UNL     1      14.070  15.651  27.978  1.00  0.00     0.000 G0
ENDBRANCH   6   7
ENDBRANCH   5   6
ENDBRANCH   3   5
ENDBRANCH   1   3
BRANCH   1  11
ATOM     11  C   UNL     1      13.383  16.151  24.407  1.00  0.00     0.087 C 
BRANCH  11  12
ATOM     12  C   UNL     1      12.647  15.829  25.746  1.00  0.00     0.066 C 
BRANCH  12  13
ATOM     13  C   UNL     1      13.491  15.015  26.713  1.00  0.00     0.140 C 
ATOM     14  O   UNL     1      13.690  13.828  26.503  1.00  0.00    -0.299 OA
BRANCH  13  15
ATOM     15  C   UNL     1      14.061  15.632  27.966  1.00  0.00     0.106 CG0
ATOM     16  G   UNL     1      15.537  15.966  27.826  1.00  0.00     0.000 G0
ENDBRANCH  13  15
ENDBRANCH  12  13
BRANCH  12  17
ATOM     17  C   UNL     1      11.206  15.243  25.577  1.00  0.00    -0.006 C 
ATOM     18  C   UNL     1      10.942  14.806  24.127  1.00  0.00     0.008 C 
ATOM     19  C   UNL     1      10.875  14.088  26.538  1.00  0.00     0.008 C 
ENDBRANCH  12  17
ENDBRANCH  11  12
ENDBRANCH   1  11
TORSDOF 1
ENDMDL
MODEL 8
REMARK VINA RESULT:    -0.208      2.004      3.631
REMARK INTER + INTRA:           0.438
REMARK INTER:                  -2.049
REMARK INTRA:                   2.486
REMARK UNBOUND:                 0.755
REMARK SMILES CC1=CCC[C@@H](C)C(=O)C[C@@H](C(C)C)C(=O)C1
REMARK SMILES IDX 8 1 9 2 6 3 7 4 5 5 4 6 3 7 2 8 1 9 10 11 11 12 15 13 16 14
REMARK SMILES IDX 17 15 12 17 13 18 14 19
REMARK H PARENT
REMARK Flexibility Score: 70.00
ROOT
ATOM      1  C   UNL     1      15.217  14.754  26.911  1.00  0.00     0.136 C 
ATOM      2  O   UNL     1      14.951  14.459  25.755  1.00  0.00    -0.299 OA
ENDROOT
BRANCH   1   3
ATOM      3  C   UNL     1      14.932  13.759  28.021  1.00  0.00     0.053 C 
ATOM      4  C   UNL     1      15.778  12.496  27.813  1.00  0.00     0.016 C 
BRANCH   3   5
ATOM      5  C   UNL     1      13.432  13.388  28.124  1.00  0.00     0.015 C 
BRANCH   5   6
ATOM      6  C   UNL     1      12.486  14.249  27.266  1.00  0.00     0.028 C 
BRANCH   6   7
ATOM      7  C   UNL     1      12.176  15.581  27.911  1.00  0.00    -0.028 C 
ATOM      8  C   UNL     1      12.303  16.787  27.309  1.00  0.00    -0.070 CG0
ATOM      9  C   UNL     1      12.003  18.018  28.125  1.00  0.00     0.039 C 
ATOM     10  G   UNL     1      12.701  16.947  25.852  1.00  0.00     0.000 G0
ENDBRANCH   6   7
ENDBRANCH   5   6
ENDBRANCH   3   5
ENDBRANCH   1   3
BRANCH   1  11
ATOM     11  C   UNL     1      15.901  16.073  27.215  1.00  0.00     0.087 C 
BRANCH  11  12
ATOM     12  C   UNL     1      15.089  17.359  26.865  1.00  0.00     0.066 C 
BRANCH  12  13
ATOM     13  C   UNL     1      14.169  17.179  25.668  1.00  0.00     0.140 C 
ATOM     14  O   UNL     1      14.621  17.231  24.534  1.00  0.00    -0.299 OA
BRANCH  13  15
ATOM     15  C   UNL     1      12.684  16.977  25.844  1.00  0.00     0.106 CG0
ATOM     16  G   UNL     1      12.293  16.809  27.303  1.00  0.00     0.000 G0
ENDBRANCH  13  15
ENDBRANCH  12  13
BRANCH  12  17
ATOM     17  C   UNL     1      15.942  18.666  26.766  1.00  0.00    -0.006 C 
ATOM     18  C   UNL     1      17.041  18.705  27.841  1.00  0.00     0.008 C 
ATOM     19  C   UNL     1      16.561  18.916  25.379  1.00  0.00     0.008 C 
ENDBRANCH  12  17
ENDBRANCH  11  12
ENDBRANCH   1  11
TORSDOF 1
ENDMDL
MODEL 9
REMARK VINA RESULT:    -0.057      2.408      3.614
REMARK INTER + INTRA:           0.667
REMARK INTER:                  -0.854
REMARK INTRA:                   1.522
REMARK UNBOUND:                 0.755
REMARK SMILES CC1=CCC[C@@H](C)C(=O)C[C@@H](C(C)C)C(=O)C1
REMARK SMILES IDX 8 1 9 2 6 3 7 4 5 5 4 6 3 7 2 8 1 9 10 11 11 12 15 13 16 14
REMARK SMILES IDX 17 15 12 17 13 18 14 19
REMARK H PARENT
REMARK Flexibility Score: 70.00
ROOT
ATOM      1  C   UNL     1      13.632  16.741  25.064  1.00  0.00     0.136 C 
ATOM      2  O   UNL     1      14.133  15.735  24.584  1.00  0.00    -0.299 OA
ENDROOT
BRANCH   1   3
ATOM      3  C   UNL     1      12.883  16.649  26.380  1.00  0.00     0.053 C 
ATOM      4  C   UNL     1      12.821  18.032  27.038  1.00  0.00     0.016 C 
BRANCH   3   5
ATOM      5  C   UNL     1      13.505  15.619  27.355  1.00  0.00     0.015 C 
BRANCH   5   6
ATOM      6  C   UNL     1      15.032  15.726  27.530  1.00  0.00     0.028 C 
BRANCH   6   7
ATOM      7  C   UNL     1      15.456  17.075  28.065  1.00  0.00    -0.028 C 
ATOM      8  C   UNL     1      16.251  17.957  27.415  1.00  0.00    -0.070 CG0
ATOM      9  C   UNL     1      16.619  19.234  28.125  1.00  0.00     0.039 C 
ATOM     10  G   UNL     1      16.759  17.727  26.001  1.00  0.00     0.000 G0
ENDBRANCH   6   7
ENDBRANCH   5   6
ENDBRANCH   3   5
ENDBRANCH   1   3
BRANCH   1  11
ATOM     11  C   UNL     1      13.832  18.082  24.382  1.00  0.00     0.087 C 
BRANCH  11  12
ATOM     12  C   UNL     1      15.284  18.394  23.904  1.00  0.00     0.066 C 
BRANCH  12  13
ATOM     13  C   UNL     1      16.216  18.795  25.037  1.00  0.00     0.140 C 
ATOM     14  O   UNL     1      16.551  19.962  25.170  1.00  0.00    -0.299 OA
BRANCH  13  15
ATOM     15  C   UNL     1      16.778  17.768  25.989  1.00  0.00     0.106 CG0
ATOM     16  G   UNL     1      16.263  17.950  27.406  1.00  0.00     0.000 G0
ENDBRANCH  13  15
ENDBRANCH  12  13
BRANCH  12  17
ATOM     17  C   UNL     1      15.377  19.371  22.685  1.00  0.00    -0.006 C 
ATOM     18  C   UNL     1      14.655  18.804  21.452  1.00  0.00     0.008 C 
ATOM     19  C   UNL     1      14.872  20.796  22.976  1.00  0.00     0.008 C 
ENDBRANCH  12  17
ENDBRANCH  11  12
ENDBRANCH   1  11
TORSDOF 1
ENDMDL
