MODEL 1
REMARK VINA RESULT:    -4.411      0.000      0.000
REMARK INTER + INTRA:          -4.841
REMARK INTER:                  -4.669
REMARK INTRA:                  -0.172
REMARK UNBOUND:                -0.172
REMARK SMILES CC(C)[C@H]1CC[C@@H](C)CC1=O
REMARK SMILES IDX 8 1 7 2 6 3 5 4 4 5 10 6 11 7 9 8 2 9 1 10 3 11
REMARK H PARENT
REMARK Flexibility Score: inf
ROOT
ATOM      1  C   UNL     1      -6.026  -4.835   6.020  1.00  0.00     0.008 C 
ATOM      2  C   UNL     1      -7.156  -5.656   6.662  1.00  0.00    -0.007 C 
ATOM      3  C   UNL     1      -7.381  -7.001   5.934  1.00  0.00     0.004 C 
ATOM      4  C   UNL     1      -7.997  -6.818   4.537  1.00  0.00     0.012 C 
ATOM      5  C   UNL     1      -9.330  -6.037   4.599  1.00  0.00     0.058 C 
ATOM      6  C   UNL     1      -9.134  -4.758   5.399  1.00  0.00     0.136 C 
ATOM      7  O   UNL     1      -9.585  -3.687   5.024  1.00  0.00    -0.299 OA
ATOM      8  C   UNL     1      -8.463  -4.846   6.743  1.00  0.00     0.079 C 
ENDROOT
BRANCH   5   9
ATOM      9  C   UNL     1      -9.966  -5.868   3.182  1.00  0.00    -0.007 C 
ATOM     10  C   UNL     1      -8.962  -6.179   2.060  1.00  0.00     0.008 C 
ATOM     11  C   UNL     1     -11.272  -6.657   2.972  1.00  0.00     0.008 C 
ENDBRANCH   5   9
TORSDOF 1
ENDMDL
MODEL 2
REMARK VINA RESULT:    -4.375      1.807      4.056
REMARK INTER + INTRA:          -4.803
REMARK INTER:                  -4.721
REMARK INTRA:                  -0.082
REMARK UNBOUND:                -0.172
REMARK SMILES CC(C)[C@H]1CC[C@@H](C)CC1=O
REMARK SMILES IDX 8 1 7 2 6 3 5 4 4 5 10 6 11 7 9 8 2 9 1 10 3 11
REMARK H PARENT
REMARK Flexibility Score: inf
ROOT
ATOM      1  C   UNL     1      -8.015  -7.338   2.074  1.00  0.00     0.008 C 
ATOM      2  C   UNL     1      -8.936  -7.866   3.185  1.00  0.00    -0.007 C 
ATOM      3  C   UNL     1     -10.071  -6.871   3.520  1.00  0.00     0.004 C 
ATOM      4  C   UNL     1      -9.555  -5.610   4.232  1.00  0.00     0.012 C 
ATOM      5  C   UNL     1      -8.780  -5.959   5.522  1.00  0.00     0.058 C 
ATOM      6  C   UNL     1      -7.725  -7.011   5.214  1.00  0.00     0.136 C 
ATOM      7  O   UNL     1      -6.587  -6.930   5.647  1.00  0.00    -0.299 OA
ATOM      8  C   UNL     1      -8.138  -8.239   4.447  1.00  0.00     0.079 C 
ENDROOT
BRANCH   5   9
ATOM      9  C   UNL     1      -8.274  -4.676   6.256  1.00  0.00    -0.007 C 
ATOM     10  C   UNL     1      -9.156  -3.454   5.954  1.00  0.00     0.008 C 
ATOM     11  C   UNL     1      -8.085  -4.843   7.776  1.00  0.00     0.008 C 
ENDBRANCH   5   9
TORSDOF 1
ENDMDL
MODEL 3
REMARK VINA RESULT:    -4.242      1.764      2.714
REMARK INTER + INTRA:          -4.662
REMARK INTER:                  -4.503
REMARK INTRA:                  -0.159
REMARK UNBOUND:                -0.172
REMARK SMILES CC(C)[C@H]1CC[C@@H](C)CC1=O
REMARK SMILES IDX 8 1 7 2 6 3 5 4 4 5 10 6 11 7 9 8 2 9 1 10 3 11
REMARK H PARENT
REMARK Flexibility Score: inf
ROOT
ATOM      1  C   UNL     1      -8.344  -5.080   8.215  1.00  0.00     0.008 C 
ATOM      2  C   UNL     1      -7.690  -4.389   7.007  1.00  0.00    -0.007 C 
ATOM      3  C   UNL     1      -8.735  -3.940   5.960  1.00  0.00     0.004 C 
ATOM      4  C   UNL     1      -9.376  -5.128   5.223  1.00  0.00     0.012 C 
ATOM      5  C   UNL     1      -8.313  -6.018   4.541  1.00  0.00     0.058 C 
ATOM      6  C   UNL     1      -7.231  -6.382   5.546  1.00  0.00     0.136 C 
ATOM      7  O   UNL     1      -6.793  -7.517   5.640  1.00  0.00    -0.299 OA
ATOM      8  C   UNL     1      -6.612  -5.281   6.365  1.00  0.00     0.079 C 
ENDROOT
BRANCH   5   9
ATOM      9  C   UNL     1      -8.966  -7.213   3.776  1.00  0.00    -0.007 C 
ATOM     10  C   UNL     1     -10.499  -7.102   3.737  1.00  0.00     0.008 C 
ATOM     11  C   UNL     1      -8.406  -7.447   2.360  1.00  0.00     0.008 C 
ENDBRANCH   5   9
TORSDOF 1
ENDMDL
MODEL 4
REMARK VINA RESULT:    -3.992      1.753      4.474
REMARK INTER + INTRA:          -4.398
REMARK INTER:                  -4.243
REMARK INTRA:                  -0.155
REMARK UNBOUND:                -0.172
REMARK SMILES CC(C)[C@H]1CC[C@@H](C)CC1=O
REMARK SMILES IDX 8 1 7 2 6 3 5 4 4 5 10 6 11 7 9 8 2 9 1 10 3 11
REMARK H PARENT
REMARK Flexibility Score: inf
ROOT
ATOM      1  C   UNL     1     -11.598  -6.745   1.074  1.00  0.00     0.008 C 
ATOM      2  C   UNL     1     -10.193  -6.141   0.918  1.00  0.00    -0.007 C 
ATOM      3  C   UNL     1      -9.094  -7.228   0.894  1.00  0.00     0.004 C 
ATOM      4  C   UNL     1      -8.902  -7.901   2.263  1.00  0.00     0.012 C 
ATOM      5  C   UNL     1      -8.581  -6.868   3.367  1.00  0.00     0.058 C 
ATOM      6  C   UNL     1      -9.607  -5.746   3.330  1.00  0.00     0.136 C 
ATOM      7  O   UNL     1     -10.118  -5.306   4.348  1.00  0.00    -0.299 OA
ATOM      8  C   UNL     1      -9.908  -5.092   2.009  1.00  0.00     0.079 C 
ENDROOT
BRANCH   5   9
ATOM      9  C   UNL     1      -8.366  -7.555   4.754  1.00  0.00    -0.007 C 
ATOM     10  C   UNL     1      -8.209  -9.079   4.624  1.00  0.00     0.008 C 
ATOM     11  C   UNL     1      -7.214  -6.963   5.588  1.00  0.00     0.008 C 
ENDBRANCH   5   9
TORSDOF 1
ENDMDL
MODEL 5
REMARK VINA RESULT:    -3.860      1.370      4.104
REMARK INTER + INTRA:          -4.258
REMARK INTER:                  -4.112
REMARK INTRA:                  -0.146
REMARK UNBOUND:                -0.172
REMARK SMILES CC(C)[C@H]1CC[C@@H](C)CC1=O
REMARK SMILES IDX 8 1 7 2 6 3 5 4 4 5 10 6 11 7 9 8 2 9 1 10 3 11
REMARK H PARENT
REMARK Flexibility Score: inf
ROOT
ATOM      1  C   UNL     1     -10.593  -8.638   3.393  1.00  0.00     0.008 C 
ATOM      2  C   UNL     1      -9.336  -8.023   2.757  1.00  0.00    -0.007 C 
ATOM      3  C   UNL     1      -8.041  -8.496   3.456  1.00  0.00     0.004 C 
ATOM      4  C   UNL     1      -7.890  -7.913   4.871  1.00  0.00     0.012 C 
ATOM      5  C   UNL     1      -7.933  -6.368   4.859  1.00  0.00     0.058 C 
ATOM      6  C   UNL     1      -9.157  -5.898   4.087  1.00  0.00     0.136 C 
ATOM      7  O   UNL     1      -9.874  -5.000   4.499  1.00  0.00    -0.299 OA
ATOM      8  C   UNL     1      -9.417  -6.486   2.726  1.00  0.00     0.079 C 
ENDROOT
BRANCH   5   9
ATOM      9  C   UNL     1      -7.759  -5.775   6.294  1.00  0.00    -0.007 C 
ATOM     10  C   UNL     1      -7.197  -6.811   7.280  1.00  0.00     0.008 C 
ATOM     11  C   UNL     1      -6.937  -4.473   6.351  1.00  0.00     0.008 C 
ENDBRANCH   5   9
TORSDOF 1
ENDMDL
MODEL 6
REMARK VINA RESULT:    -3.759      2.626      4.123
REMARK INTER + INTRA:          -4.151
REMARK INTER:                  -4.123
REMARK INTRA:                  -0.028
REMARK UNBOUND:                -0.172
REMARK SMILES CC(C)[C@H]1CC[C@@H](C)CC1=O
REMARK SMILES IDX 8 1 7 2 6 3 5 4 4 5 10 6 11 7 9 8 2 9 1 10 3 11
REMARK H PARENT
REMARK Flexibility Score: inf
ROOT
ATOM      1  C   UNL     1      -7.414 -10.105   2.281  1.00  0.00     0.008 C 
ATOM      2  C   UNL     1      -8.654 -10.125   3.189  1.00  0.00    -0.007 C 
ATOM      3  C   UNL     1      -9.838  -9.346   2.571  1.00  0.00     0.004 C 
ATOM      4  C   UNL     1      -9.595  -7.827   2.550  1.00  0.00     0.012 C 
ATOM      5  C   UNL     1      -9.298  -7.277   3.964  1.00  0.00     0.058 C 
ATOM      6  C   UNL     1      -8.199  -8.104   4.612  1.00  0.00     0.136 C 
ATOM      7  O   UNL     1      -7.272  -7.586   5.216  1.00  0.00    -0.299 OA
ATOM      8  C   UNL     1      -8.326  -9.604   4.600  1.00  0.00     0.079 C 
ENDROOT
BRANCH   5   9
ATOM      9  C   UNL     1      -9.071  -5.731   3.945  1.00  0.00    -0.007 C 
ATOM     10  C   UNL     1      -9.903  -5.041   2.852  1.00  0.00     0.008 C 
ATOM     11  C   UNL     1      -9.285  -5.039   5.304  1.00  0.00     0.008 C 
ENDBRANCH   5   9
TORSDOF 1
ENDMDL
MODEL 7
REMARK VINA RESULT:    -3.558      2.302      5.222
REMARK INTER + INTRA:          -3.938
REMARK INTER:                  -3.777
REMARK INTRA:                  -0.161
REMARK UNBOUND:                -0.172
REMARK SMILES CC(C)[C@H]1CC[C@@H](C)CC1=O
REMARK SMILES IDX 8 1 7 2 6 3 5 4 4 5 10 6 11 7 9 8 2 9 1 10 3 11
REMARK H PARENT
REMARK Flexibility Score: inf
ROOT
ATOM      1  C   UNL     1     -11.135  -5.604  -0.115  1.00  0.00     0.008 C 
ATOM      2  C   UNL     1     -11.220  -7.028   0.460  1.00  0.00    -0.007 C 
ATOM      3  C   UNL     1     -11.807  -7.041   1.891  1.00  0.00     0.004 C 
ATOM      4  C   UNL     1     -10.846  -6.434   2.926  1.00  0.00     0.012 C 
ATOM      5  C   UNL     1      -9.477  -7.150   2.925  1.00  0.00     0.058 C 
ATOM      6  C   UNL     1      -8.941  -7.224   1.503  1.00  0.00     0.136 C 
ATOM      7  O   UNL     1      -7.777  -6.971   1.239  1.00  0.00    -0.299 OA
ATOM      8  C   UNL     1      -9.851  -7.733   0.418  1.00  0.00     0.079 C 
ENDROOT
BRANCH   5   9
ATOM      9  C   UNL     1      -8.508  -6.545   3.991  1.00  0.00    -0.007 C 
ATOM     10  C   UNL     1      -9.191  -5.458   4.837  1.00  0.00     0.008 C 
ATOM     11  C   UNL     1      -7.828  -7.588   4.899  1.00  0.00     0.008 C 
ENDBRANCH   5   9
TORSDOF 1
ENDMDL
MODEL 8
REMARK VINA RESULT:    -3.519      2.890      5.280
REMARK INTER + INTRA:          -3.896
REMARK INTER:                  -3.723
REMARK INTRA:                  -0.174
REMARK UNBOUND:                -0.172
REMARK SMILES CC(C)[C@H]1CC[C@@H](C)CC1=O
REMARK SMILES IDX 8 1 7 2 6 3 5 4 4 5 10 6 11 7 9 8 2 9 1 10 3 11
REMARK H PARENT
REMARK Flexibility Score: inf
ROOT
ATOM      1  C   UNL     1     -11.661  -9.163   1.075  1.00  0.00     0.008 C 
ATOM      2  C   UNL     1     -10.424  -9.950   1.536  1.00  0.00    -0.007 C 
ATOM      3  C   UNL     1     -10.350 -10.064   3.076  1.00  0.00     0.004 C 
ATOM      4  C   UNL     1     -10.030  -8.720   3.751  1.00  0.00     0.012 C 
ATOM      5  C   UNL     1      -8.713  -8.112   3.217  1.00  0.00     0.058 C 
ATOM      6  C   UNL     1      -8.743  -8.088   1.696  1.00  0.00     0.136 C 
ATOM      7  O   UNL     1      -8.378  -7.112   1.059  1.00  0.00    -0.299 OA
ATOM      8  C   UNL     1      -9.128  -9.346   0.965  1.00  0.00     0.079 C 
ENDROOT
BRANCH   5   9
ATOM      9  C   UNL     1      -8.378  -6.757   3.917  1.00  0.00    -0.007 C 
ATOM     10  C   UNL     1      -9.623  -5.872   4.084  1.00  0.00     0.008 C 
ATOM     11  C   UNL     1      -7.632  -6.899   5.258  1.00  0.00     0.008 C 
ENDBRANCH   5   9
TORSDOF 1
ENDMDL
MODEL 9
REMARK VINA RESULT:    -3.397      3.621      4.943
REMARK INTER + INTRA:          -3.768
REMARK INTER:                  -3.584
REMARK INTRA:                  -0.183
REMARK UNBOUND:                -0.172
REMARK SMILES CC(C)[C@H]1CC[C@@H](C)CC1=O
REMARK SMILES IDX 8 1 7 2 6 3 5 4 4 5 10 6 11 7 9 8 2 9 1 10 3 11
REMARK H PARENT
REMARK Flexibility Score: inf
ROOT
ATOM      1  C   UNL     1      -9.456  -8.544   4.112  1.00  0.00     0.008 C 
ATOM      2  C   UNL     1      -8.359  -7.910   3.242  1.00  0.00    -0.007 C 
ATOM      3  C   UNL     1      -8.710  -6.463   2.827  1.00  0.00     0.004 C 
ATOM      4  C   UNL     1      -9.866  -6.406   1.815  1.00  0.00     0.012 C 
ATOM      5  C   UNL     1      -9.561  -7.243   0.552  1.00  0.00     0.058 C 
ATOM      6  C   UNL     1      -9.120  -8.640   0.961  1.00  0.00     0.136 C 
ATOM      7  O   UNL     1      -9.544  -9.640   0.401  1.00  0.00    -0.299 OA
ATOM      8  C   UNL     1      -8.049  -8.778   2.008  1.00  0.00     0.079 C 
ENDROOT
BRANCH   5   9
ATOM      9  C   UNL     1     -10.727  -7.168  -0.485  1.00  0.00    -0.007 C 
ATOM     10  C   UNL     1     -12.099  -7.063   0.199  1.00  0.00     0.008 C 
ATOM     11  C   UNL     1     -10.566  -6.063  -1.547  1.00  0.00     0.008 C 
ENDBRANCH   5   9
TORSDOF 1
ENDMDL
