MODEL 1
REMARK VINA RESULT:    -8.403      0.000      0.000
REMARK INTER + INTRA:         -10.337
REMARK INTER:                 -10.122
REMARK INTRA:                  -0.215
REMARK UNBOUND:                -0.215
REMARK SMILES O=c1c(O)c(-c2ccc(O)c(O)c2)oc2cc(O)cc(O)c12
REMARK SMILES IDX 5 1 3 2 2 3 1 4 22 5 20 6 19 7 17 8 16 9 15 10 14 11 6 12
REMARK SMILES IDX 7 13 8 14 9 15 13 16 11 17 10 18 12 20 4 22 21 24 18 26
REMARK H PARENT 10 19 12 21 4 23 21 25 18 27
REMARK Flexibility Score: inf
ROOT
ATOM      1  C   UNL     1      -5.744   5.251 -12.063  1.00  0.00     0.180 A 
ATOM      2  C   UNL     1      -4.722   6.105 -11.616  1.00  0.00     0.208 A 
ATOM      3  C   UNL     1      -3.756   5.605 -10.729  1.00  0.00     0.238 A 
ATOM      4  O   UNL     1      -2.802   6.354 -10.391  1.00  0.00    -0.285 OA
ATOM      5  C   UNL     1      -3.855   4.274 -10.255  1.00  0.00     0.111 A 
ATOM      6  C   UNL     1      -2.958   3.676  -9.318  1.00  0.00     0.134 A 
ATOM      7  C   UNL     1      -3.092   2.318  -9.005  1.00  0.00     0.093 A 
ATOM      8  C   UNL     1      -4.129   1.553  -9.542  1.00  0.00     0.123 A 
ATOM      9  C   UNL     1      -5.042   2.141 -10.413  1.00  0.00     0.094 A 
ATOM     10  C   UNL     1      -4.912   3.483 -10.777  1.00  0.00     0.146 A 
ATOM     11  O   UNL     1      -5.793   3.997 -11.627  1.00  0.00    -0.452 OA
ENDROOT
BRANCH   1  12
ATOM     12  C   UNL     1      -6.790   5.700 -13.010  1.00  0.00     0.025 A 
ATOM     13  C   UNL     1      -6.765   5.238 -14.335  1.00  0.00     0.016 A 
ATOM     14  C   UNL     1      -7.731   5.665 -15.252  1.00  0.00     0.051 A 
ATOM     15  C   UNL     1      -8.722   6.571 -14.864  1.00  0.00     0.157 A 
ATOM     16  C   UNL     1      -7.774   6.629 -12.627  1.00  0.00     0.062 A 
ATOM     17  C   UNL     1      -8.743   7.061 -13.547  1.00  0.00     0.158 A 
BRANCH  15  18
ATOM     18  O   UNL     1      -9.672   6.978 -15.799  1.00  0.00    -0.504 OA
ATOM     19  H   UNL     1     -10.628   6.643 -15.776  1.00  0.00     0.293 HD
ENDBRANCH  15  18
BRANCH  17  20
ATOM     20  O   UNL     1      -9.719   7.975 -13.157  1.00  0.00    -0.504 OA
ATOM     21  H   UNL     1     -10.444   8.283 -13.795  1.00  0.00     0.293 HD
ENDBRANCH  17  20
ENDBRANCH   1  12
BRANCH   2  22
ATOM     22  O   UNL     1      -4.686   7.438 -12.035  1.00  0.00    -0.502 OA
ATOM     23  H   UNL     1      -3.864   8.019 -11.929  1.00  0.00     0.293 HD
ENDBRANCH   2  22
BRANCH   6  24
ATOM     24  O   UNL     1      -1.941   4.369  -8.655  1.00  0.00    -0.507 OA
ATOM     25  H   UNL     1      -1.812   4.387  -7.654  1.00  0.00     0.293 HD
ENDBRANCH   6  24
BRANCH   8  26
ATOM     26  O   UNL     1      -4.265   0.207  -9.210  1.00  0.00    -0.508 OA
ATOM     27  H   UNL     1      -4.640  -0.084  -8.315  1.00  0.00     0.293 HD
ENDBRANCH   8  26
TORSDOF 6
ENDMDL
MODEL 2
REMARK VINA RESULT:    -8.316      3.741      7.423
REMARK INTER + INTRA:         -10.232
REMARK INTER:                 -10.431
REMARK INTRA:                   0.199
REMARK UNBOUND:                -0.215
REMARK SMILES O=c1c(O)c(-c2ccc(O)c(O)c2)oc2cc(O)cc(O)c12
REMARK SMILES IDX 5 1 3 2 2 3 1 4 22 5 20 6 19 7 17 8 16 9 15 10 14 11 6 12
REMARK SMILES IDX 7 13 8 14 9 15 13 16 11 17 10 18 12 20 4 22 21 24 18 26
REMARK H PARENT 10 19 12 21 4 23 21 25 18 27
REMARK Flexibility Score: inf
ROOT
ATOM      1  C   UNL     1      -5.838   0.150  -9.717  1.00  0.00     0.180 A 
ATOM      2  C   UNL     1      -6.579   1.177 -10.325  1.00  0.00     0.208 A 
ATOM      3  C   UNL     1      -6.019   2.461 -10.414  1.00  0.00     0.238 A 
ATOM      4  O   UNL     1      -6.658   3.356 -11.026  1.00  0.00    -0.285 OA
ATOM      5  C   UNL     1      -4.747   2.717  -9.846  1.00  0.00     0.111 A 
ATOM      6  C   UNL     1      -4.102   3.991  -9.838  1.00  0.00     0.134 A 
ATOM      7  C   UNL     1      -2.798   4.101  -9.341  1.00  0.00     0.093 A 
ATOM      8  C   UNL     1      -2.140   2.999  -8.792  1.00  0.00     0.123 A 
ATOM      9  C   UNL     1      -2.782   1.764  -8.745  1.00  0.00     0.094 A 
ATOM     10  C   UNL     1      -4.068   1.613  -9.268  1.00  0.00     0.146 A 
ATOM     11  O   UNL     1      -4.633   0.413  -9.221  1.00  0.00    -0.452 OA
ENDROOT
BRANCH   1  12
ATOM     12  C   UNL     1      -6.355  -1.232  -9.598  1.00  0.00     0.025 A 
ATOM     13  C   UNL     1      -7.103  -1.781 -10.651  1.00  0.00     0.016 A 
ATOM     14  C   UNL     1      -7.619  -3.077 -10.552  1.00  0.00     0.051 A 
ATOM     15  C   UNL     1      -7.409  -3.835  -9.396  1.00  0.00     0.157 A 
ATOM     16  C   UNL     1      -6.164  -1.987  -8.428  1.00  0.00     0.062 A 
ATOM     17  C   UNL     1      -6.682  -3.288  -8.326  1.00  0.00     0.158 A 
BRANCH  15  18
ATOM     18  O   UNL     1      -7.933  -5.125  -9.327  1.00  0.00    -0.504 OA
ATOM     19  H   UNL     1      -7.560  -5.888  -9.879  1.00  0.00     0.293 HD
ENDBRANCH  15  18
BRANCH  17  20
ATOM     20  O   UNL     1      -6.482  -4.032  -7.165  1.00  0.00    -0.504 OA
ATOM     21  H   UNL     1      -5.564  -4.371  -6.903  1.00  0.00     0.293 HD
ENDBRANCH  17  20
ENDBRANCH   1  12
BRANCH   2  22
ATOM     22  O   UNL     1      -7.865   0.923 -10.812  1.00  0.00    -0.502 OA
ATOM     23  H   UNL     1      -8.231  -0.015 -10.918  1.00  0.00     0.293 HD
ENDBRANCH   2  22
BRANCH   6  24
ATOM     24  O   UNL     1      -4.701   5.175 -10.280  1.00  0.00    -0.507 OA
ATOM     25  H   UNL     1      -4.248   5.873 -10.851  1.00  0.00     0.293 HD
ENDBRANCH   6  24
BRANCH   8  26
ATOM     26  O   UNL     1      -0.849   3.122  -8.284  1.00  0.00    -0.508 OA
ATOM     27  H   UNL     1      -0.448   2.416  -7.679  1.00  0.00     0.293 HD
ENDBRANCH   8  26
TORSDOF 6
ENDMDL
MODEL 3
REMARK VINA RESULT:    -8.092      2.260      3.512
REMARK INTER + INTRA:          -9.963
REMARK INTER:                  -9.642
REMARK INTRA:                  -0.321
REMARK UNBOUND:                -0.215
REMARK SMILES O=c1c(O)c(-c2ccc(O)c(O)c2)oc2cc(O)cc(O)c12
REMARK SMILES IDX 5 1 3 2 2 3 1 4 22 5 20 6 19 7 17 8 16 9 15 10 14 11 6 12
REMARK SMILES IDX 7 13 8 14 9 15 13 16 11 17 10 18 12 20 4 22 21 24 18 26
REMARK H PARENT 10 19 12 21 4 23 21 25 18 27
REMARK Flexibility Score: inf
ROOT
ATOM      1  C   UNL     1      -5.213   5.577 -11.686  1.00  0.00     0.180 A 
ATOM      2  C   UNL     1      -6.223   4.603 -11.613  1.00  0.00     0.208 A 
ATOM      3  C   UNL     1      -6.000   3.446 -10.850  1.00  0.00     0.238 A 
ATOM      4  O   UNL     1      -6.936   2.614 -10.729  1.00  0.00    -0.285 OA
ATOM      5  C   UNL     1      -4.749   3.250 -10.216  1.00  0.00     0.111 A 
ATOM      6  C   UNL     1      -4.396   2.094  -9.455  1.00  0.00     0.134 A 
ATOM      7  C   UNL     1      -3.168   2.058  -8.784  1.00  0.00     0.093 A 
ATOM      8  C   UNL     1      -2.253   3.106  -8.898  1.00  0.00     0.123 A 
ATOM      9  C   UNL     1      -2.565   4.214  -9.683  1.00  0.00     0.094 A 
ATOM     10  C   UNL     1      -3.798   4.297 -10.333  1.00  0.00     0.146 A 
ATOM     11  O   UNL     1      -4.062   5.380 -11.053  1.00  0.00    -0.452 OA
ENDROOT
BRANCH   1  12
ATOM     12  C   UNL     1      -5.380   6.830 -12.457  1.00  0.00     0.025 A 
ATOM     13  C   UNL     1      -5.908   7.965 -11.823  1.00  0.00     0.016 A 
ATOM     14  C   UNL     1      -6.093   9.153 -12.537  1.00  0.00     0.051 A 
ATOM     15  C   UNL     1      -5.771   9.219 -13.895  1.00  0.00     0.157 A 
ATOM     16  C   UNL     1      -5.076   6.891 -13.829  1.00  0.00     0.062 A 
ATOM     17  C   UNL     1      -5.264   8.082 -14.548  1.00  0.00     0.158 A 
BRANCH  15  18
ATOM     18  O   UNL     1      -5.964  10.417 -14.581  1.00  0.00    -0.504 OA
ATOM     19  H   UNL     1      -5.778  10.506 -15.573  1.00  0.00     0.293 HD
ENDBRANCH  15  18
BRANCH  17  20
ATOM     20  O   UNL     1      -4.953   8.136 -15.905  1.00  0.00    -0.504 OA
ATOM     21  H   UNL     1      -5.627   7.876 -16.615  1.00  0.00     0.293 HD
ENDBRANCH  17  20
ENDBRANCH   1  12
BRANCH   2  22
ATOM     22  O   UNL     1      -7.422   4.780 -12.309  1.00  0.00    -0.502 OA
ATOM     23  H   UNL     1      -7.944   5.647 -12.284  1.00  0.00     0.293 HD
ENDBRANCH   2  22
BRANCH   6  24
ATOM     24  O   UNL     1      -5.197   0.953  -9.346  1.00  0.00    -0.507 OA
ATOM     25  H   UNL     1      -5.948   0.836  -8.683  1.00  0.00     0.293 HD
ENDBRANCH   6  24
BRANCH   8  26
ATOM     26  O   UNL     1      -1.025   3.054  -8.241  1.00  0.00    -0.508 OA
ATOM     27  H   UNL     1      -0.844   3.604  -7.410  1.00  0.00     0.293 HD
ENDBRANCH   8  26
TORSDOF 6
ENDMDL
MODEL 4
REMARK VINA RESULT:    -8.054      2.486      4.354
REMARK INTER + INTRA:          -9.916
REMARK INTER:                  -9.916
REMARK INTRA:                  -0.000
REMARK UNBOUND:                -0.215
REMARK SMILES O=c1c(O)c(-c2ccc(O)c(O)c2)oc2cc(O)cc(O)c12
REMARK SMILES IDX 5 1 3 2 2 3 1 4 22 5 20 6 19 7 17 8 16 9 15 10 14 11 6 12
REMARK SMILES IDX 7 13 8 14 9 15 13 16 11 17 10 18 12 20 4 22 21 24 18 26
REMARK H PARENT 10 19 12 21 4 23 21 25 18 27
REMARK Flexibility Score: inf
ROOT
ATOM      1  C   UNL     1      -5.156   2.968 -10.995  1.00  0.00     0.180 A 
ATOM      2  C   UNL     1      -4.137   2.588 -10.107  1.00  0.00     0.208 A 
ATOM      3  C   UNL     1      -4.300   1.422  -9.342  1.00  0.00     0.238 A 
ATOM      4  O   UNL     1      -3.352   1.048  -8.603  1.00  0.00    -0.285 OA
ATOM      5  C   UNL     1      -5.503   0.681  -9.433  1.00  0.00     0.111 A 
ATOM      6  C   UNL     1      -5.796  -0.491  -8.671  1.00  0.00     0.134 A 
ATOM      7  C   UNL     1      -6.975  -1.202  -8.923  1.00  0.00     0.093 A 
ATOM      8  C   UNL     1      -7.903  -0.748  -9.863  1.00  0.00     0.123 A 
ATOM      9  C   UNL     1      -7.653   0.425 -10.572  1.00  0.00     0.094 A 
ATOM     10  C   UNL     1      -6.467   1.134 -10.371  1.00  0.00     0.146 A 
ATOM     11  O   UNL     1      -6.260   2.235 -11.084  1.00  0.00    -0.452 OA
ENDROOT
BRANCH   1  12
ATOM     12  C   UNL     1      -5.050   4.176 -11.846  1.00  0.00     0.025 A 
ATOM     13  C   UNL     1      -4.769   5.416 -11.251  1.00  0.00     0.016 A 
ATOM     14  C   UNL     1      -4.685   6.572 -12.031  1.00  0.00     0.051 A 
ATOM     15  C   UNL     1      -4.898   6.511 -13.412  1.00  0.00     0.157 A 
ATOM     16  C   UNL     1      -5.286   4.119 -13.231  1.00  0.00     0.062 A 
ATOM     17  C   UNL     1      -5.205   5.280 -14.016  1.00  0.00     0.158 A 
BRANCH  15  18
ATOM     18  O   UNL     1      -4.806   7.680 -14.165  1.00  0.00    -0.504 OA
ATOM     19  H   UNL     1      -5.571   8.012 -14.740  1.00  0.00     0.293 HD
ENDBRANCH  15  18
BRANCH  17  20
ATOM     20  O   UNL     1      -5.432   5.213 -15.389  1.00  0.00    -0.504 OA
ATOM     21  H   UNL     1      -6.294   5.547 -15.802  1.00  0.00     0.293 HD
ENDBRANCH  17  20
ENDBRANCH   1  12
BRANCH   2  22
ATOM     22  O   UNL     1      -2.988   3.375  -9.974  1.00  0.00    -0.502 OA
ATOM     23  H   UNL     1      -3.023   4.386  -9.933  1.00  0.00     0.293 HD
ENDBRANCH   2  22
BRANCH   6  24
ATOM     24  O   UNL     1      -4.982  -0.983  -7.647  1.00  0.00    -0.507 OA
ATOM     25  H   UNL     1      -4.745  -1.955  -7.513  1.00  0.00     0.293 HD
ENDBRANCH   6  24
BRANCH   8  26
ATOM     26  O   UNL     1      -9.083  -1.452 -10.095  1.00  0.00    -0.508 OA
ATOM     27  H   UNL     1      -9.917  -0.991 -10.437  1.00  0.00     0.293 HD
ENDBRANCH   8  26
TORSDOF 6
ENDMDL
MODEL 5
REMARK VINA RESULT:    -7.932      4.352      7.489
REMARK INTER + INTRA:          -9.770
REMARK INTER:                  -9.583
REMARK INTRA:                  -0.187
REMARK UNBOUND:                -0.215
REMARK SMILES O=c1c(O)c(-c2ccc(O)c(O)c2)oc2cc(O)cc(O)c12
REMARK SMILES IDX 5 1 3 2 2 3 1 4 22 5 20 6 19 7 17 8 16 9 15 10 14 11 6 12
REMARK SMILES IDX 7 13 8 14 9 15 13 16 11 17 10 18 12 20 4 22 21 24 18 26
REMARK H PARENT 10 19 12 21 4 23 21 25 18 27
REMARK Flexibility Score: inf
ROOT
ATOM      1  C   UNL     1      -5.437   0.490  -9.539  1.00  0.00     0.180 A 
ATOM      2  C   UNL     1      -5.852  -0.022 -10.779  1.00  0.00     0.208 A 
ATOM      3  C   UNL     1      -6.636  -1.187 -10.808  1.00  0.00     0.238 A 
ATOM      4  O   UNL     1      -7.066  -1.597 -11.917  1.00  0.00    -0.285 OA
ATOM      5  C   UNL     1      -6.948  -1.857  -9.600  1.00  0.00     0.111 A 
ATOM      6  C   UNL     1      -7.697  -3.070  -9.513  1.00  0.00     0.134 A 
ATOM      7  C   UNL     1      -8.035  -3.584  -8.256  1.00  0.00     0.093 A 
ATOM      8  C   UNL     1      -7.597  -2.966  -7.083  1.00  0.00     0.123 A 
ATOM      9  C   UNL     1      -6.819  -1.813  -7.158  1.00  0.00     0.094 A 
ATOM     10  C   UNL     1      -6.499  -1.254  -8.396  1.00  0.00     0.146 A 
ATOM     11  O   UNL     1      -5.773  -0.143  -8.420  1.00  0.00    -0.452 OA
ENDROOT
BRANCH   1  12
ATOM     12  C   UNL     1      -4.622   1.720  -9.427  1.00  0.00     0.025 A 
ATOM     13  C   UNL     1      -5.182   2.954  -9.793  1.00  0.00     0.016 A 
ATOM     14  C   UNL     1      -4.424   4.126  -9.715  1.00  0.00     0.051 A 
ATOM     15  C   UNL     1      -3.094   4.082  -9.287  1.00  0.00     0.157 A 
ATOM     16  C   UNL     1      -3.277   1.674  -9.017  1.00  0.00     0.062 A 
ATOM     17  C   UNL     1      -2.514   2.849  -8.940  1.00  0.00     0.158 A 
BRANCH  15  18
ATOM     18  O   UNL     1      -2.363   5.267  -9.217  1.00  0.00    -0.504 OA
ATOM     19  H   UNL     1      -1.494   5.334  -8.700  1.00  0.00     0.293 HD
ENDBRANCH  15  18
BRANCH  17  20
ATOM     20  O   UNL     1      -1.185   2.795  -8.526  1.00  0.00    -0.504 OA
ATOM     21  H   UNL     1      -0.420   2.874  -9.184  1.00  0.00     0.293 HD
ENDBRANCH  17  20
ENDBRANCH   1  12
BRANCH   2  22
ATOM     22  O   UNL     1      -5.470   0.611 -11.966  1.00  0.00    -0.502 OA
ATOM     23  H   UNL     1      -5.423   1.618 -12.055  1.00  0.00     0.293 HD
ENDBRANCH   2  22
BRANCH   6  24
ATOM     24  O   UNL     1      -8.110  -3.817 -10.621  1.00  0.00    -0.507 OA
ATOM     25  H   UNL     1      -7.535  -4.483 -11.115  1.00  0.00     0.293 HD
ENDBRANCH   6  24
BRANCH   8  26
ATOM     26  O   UNL     1      -7.924  -3.495  -5.836  1.00  0.00    -0.508 OA
ATOM     27  H   UNL     1      -8.886  -3.651  -5.561  1.00  0.00     0.293 HD
ENDBRANCH   8  26
TORSDOF 6
ENDMDL
MODEL 6
REMARK VINA RESULT:    -7.717      1.999      6.845
REMARK INTER + INTRA:          -9.510
REMARK INTER:                  -9.281
REMARK INTRA:                  -0.229
REMARK UNBOUND:                -0.215
REMARK SMILES O=c1c(O)c(-c2ccc(O)c(O)c2)oc2cc(O)cc(O)c12
REMARK SMILES IDX 5 1 3 2 2 3 1 4 22 5 20 6 19 7 17 8 16 9 15 10 14 11 6 12
REMARK SMILES IDX 7 13 8 14 9 15 13 16 11 17 10 18 12 20 4 22 21 24 18 26
REMARK H PARENT 10 19 12 21 4 23 21 25 18 27
REMARK Flexibility Score: inf
ROOT
ATOM      1  C   UNL     1      -6.382   5.310 -12.392  1.00  0.00     0.180 A 
ATOM      2  C   UNL     1      -5.793   6.521 -11.993  1.00  0.00     0.208 A 
ATOM      3  C   UNL     1      -6.195   7.713 -12.616  1.00  0.00     0.238 A 
ATOM      4  O   UNL     1      -5.717   8.801 -12.202  1.00  0.00    -0.285 OA
ATOM      5  C   UNL     1      -7.140   7.674 -13.670  1.00  0.00     0.111 A 
ATOM      6  C   UNL     1      -7.587   8.814 -14.404  1.00  0.00     0.134 A 
ATOM      7  C   UNL     1      -8.605   8.669 -15.354  1.00  0.00     0.093 A 
ATOM      8  C   UNL     1      -9.147   7.414 -15.643  1.00  0.00     0.123 A 
ATOM      9  C   UNL     1      -8.679   6.287 -14.972  1.00  0.00     0.094 A 
ATOM     10  C   UNL     1      -7.692   6.406 -13.991  1.00  0.00     0.146 A 
ATOM     11  O   UNL     1      -7.291   5.308 -13.362  1.00  0.00    -0.452 OA
ENDROOT
BRANCH   1  12
ATOM     12  C   UNL     1      -6.021   4.015 -11.772  1.00  0.00     0.025 A 
ATOM     13  C   UNL     1      -6.921   3.399 -10.887  1.00  0.00     0.016 A 
ATOM     14  C   UNL     1      -6.593   2.186 -10.275  1.00  0.00     0.051 A 
ATOM     15  C   UNL     1      -5.358   1.581 -10.522  1.00  0.00     0.157 A 
ATOM     16  C   UNL     1      -4.771   3.415 -12.004  1.00  0.00     0.062 A 
ATOM     17  C   UNL     1      -4.439   2.199 -11.387  1.00  0.00     0.158 A 
BRANCH  15  18
ATOM     18  O   UNL     1      -5.059   0.370  -9.899  1.00  0.00    -0.504 OA
ATOM     19  H   UNL     1      -4.768  -0.448 -10.422  1.00  0.00     0.293 HD
ENDBRANCH  15  18
BRANCH  17  20
ATOM     20  O   UNL     1      -3.200   1.607 -11.628  1.00  0.00    -0.504 OA
ATOM     21  H   UNL     1      -2.597   1.310 -10.871  1.00  0.00     0.293 HD
ENDBRANCH  17  20
ENDBRANCH   1  12
BRANCH   2  22
ATOM     22  O   UNL     1      -4.805   6.530 -11.003  1.00  0.00    -0.502 OA
ATOM     23  H   UNL     1      -4.449   5.682 -10.582  1.00  0.00     0.293 HD
ENDBRANCH   2  22
BRANCH   6  24
ATOM     24  O   UNL     1      -7.053  10.098 -14.258  1.00  0.00    -0.507 OA
ATOM     25  H   UNL     1      -7.423  10.930 -14.692  1.00  0.00     0.293 HD
ENDBRANCH   6  24
BRANCH   8  26
ATOM     26  O   UNL     1     -10.147   7.276 -16.603  1.00  0.00    -0.508 OA
ATOM     27  H   UNL     1     -10.746   8.052 -16.861  1.00  0.00     0.293 HD
ENDBRANCH   8  26
TORSDOF 6
ENDMDL
MODEL 7
REMARK VINA RESULT:    -7.716      2.990      6.488
REMARK INTER + INTRA:          -9.509
REMARK INTER:                  -9.187
REMARK INTRA:                  -0.321
REMARK UNBOUND:                -0.215
REMARK SMILES O=c1c(O)c(-c2ccc(O)c(O)c2)oc2cc(O)cc(O)c12
REMARK SMILES IDX 5 1 3 2 2 3 1 4 22 5 20 6 19 7 17 8 16 9 15 10 14 11 6 12
REMARK SMILES IDX 7 13 8 14 9 15 13 16 11 17 10 18 12 20 4 22 21 24 18 26
REMARK H PARENT 10 19 12 21 4 23 21 25 18 27
REMARK Flexibility Score: inf
ROOT
ATOM      1  C   UNL     1      -5.860   1.265 -10.373  1.00  0.00     0.180 A 
ATOM      2  C   UNL     1      -4.658   1.426  -9.665  1.00  0.00     0.208 A 
ATOM      3  C   UNL     1      -4.004   2.668  -9.704  1.00  0.00     0.238 A 
ATOM      4  O   UNL     1      -2.967   2.826  -9.008  1.00  0.00    -0.285 OA
ATOM      5  C   UNL     1      -4.530   3.717 -10.497  1.00  0.00     0.111 A 
ATOM      6  C   UNL     1      -3.927   5.003 -10.647  1.00  0.00     0.134 A 
ATOM      7  C   UNL     1      -4.595   5.997 -11.371  1.00  0.00     0.093 A 
ATOM      8  C   UNL     1      -5.811   5.735 -12.005  1.00  0.00     0.123 A 
ATOM      9  C   UNL     1      -6.380   4.467 -11.910  1.00  0.00     0.094 A 
ATOM     10  C   UNL     1      -5.758   3.466 -11.162  1.00  0.00     0.146 A 
ATOM     11  O   UNL     1      -6.347   2.278 -11.081  1.00  0.00    -0.452 OA
ENDROOT
BRANCH   1  12
ATOM     12  C   UNL     1      -6.614  -0.008 -10.367  1.00  0.00     0.025 A 
ATOM     13  C   UNL     1      -6.302  -0.999 -11.312  1.00  0.00     0.016 A 
ATOM     14  C   UNL     1      -7.015  -2.201 -11.339  1.00  0.00     0.051 A 
ATOM     15  C   UNL     1      -8.059  -2.425 -10.437  1.00  0.00     0.157 A 
ATOM     16  C   UNL     1      -7.679  -0.226  -9.475  1.00  0.00     0.062 A 
ATOM     17  C   UNL     1      -8.397  -1.431  -9.502  1.00  0.00     0.158 A 
BRANCH  15  18
ATOM     18  O   UNL     1      -8.750  -3.634 -10.486  1.00  0.00    -0.504 OA
ATOM     19  H   UNL     1      -8.289  -4.510 -10.701  1.00  0.00     0.293 HD
ENDBRANCH  15  18
BRANCH  17  20
ATOM     20  O   UNL     1      -9.446  -1.641  -8.609  1.00  0.00    -0.504 OA
ATOM     21  H   UNL     1     -10.120  -2.385  -8.746  1.00  0.00     0.293 HD
ENDBRANCH  17  20
ENDBRANCH   1  12
BRANCH   2  22
ATOM     22  O   UNL     1      -4.113   0.354  -8.950  1.00  0.00    -0.502 OA
ATOM     23  H   UNL     1      -3.275   0.444  -8.390  1.00  0.00     0.293 HD
ENDBRANCH   2  22
BRANCH   6  24
ATOM     24  O   UNL     1      -2.674   5.346 -10.131  1.00  0.00    -0.507 OA
ATOM     25  H   UNL     1      -2.060   6.044 -10.522  1.00  0.00     0.293 HD
ENDBRANCH   6  24
BRANCH   8  26
ATOM     26  O   UNL     1      -6.459   6.726 -12.739  1.00  0.00    -0.508 OA
ATOM     27  H   UNL     1      -5.988   7.233 -13.478  1.00  0.00     0.293 HD
ENDBRANCH   8  26
TORSDOF 6
ENDMDL
MODEL 8
REMARK VINA RESULT:    -7.572      2.431      7.371
REMARK INTER + INTRA:          -9.335
REMARK INTER:                  -9.025
REMARK INTRA:                  -0.311
REMARK UNBOUND:                -0.215
REMARK SMILES O=c1c(O)c(-c2ccc(O)c(O)c2)oc2cc(O)cc(O)c12
REMARK SMILES IDX 5 1 3 2 2 3 1 4 22 5 20 6 19 7 17 8 16 9 15 10 14 11 6 12
REMARK SMILES IDX 7 13 8 14 9 15 13 16 11 17 10 18 12 20 4 22 21 24 18 26
REMARK H PARENT 10 19 12 21 4 23 21 25 18 27
REMARK Flexibility Score: inf
ROOT
ATOM      1  C   UNL     1      -6.820   6.606 -13.752  1.00  0.00     0.180 A 
ATOM      2  C   UNL     1      -6.152   7.841 -13.760  1.00  0.00     0.208 A 
ATOM      3  C   UNL     1      -6.743   8.931 -14.420  1.00  0.00     0.238 A 
ATOM      4  O   UNL     1      -6.174  10.052 -14.360  1.00  0.00    -0.285 OA
ATOM      5  C   UNL     1      -7.967   8.758 -15.112  1.00  0.00     0.111 A 
ATOM      6  C   UNL     1      -8.633   9.781 -15.853  1.00  0.00     0.134 A 
ATOM      7  C   UNL     1      -9.892   9.523 -16.406  1.00  0.00     0.093 A 
ATOM      8  C   UNL     1     -10.481   8.261 -16.303  1.00  0.00     0.123 A 
ATOM      9  C   UNL     1      -9.814   7.240 -15.629  1.00  0.00     0.094 A 
ATOM     10  C   UNL     1      -8.574   7.478 -15.032  1.00  0.00     0.146 A 
ATOM     11  O   UNL     1      -7.983   6.482 -14.382  1.00  0.00    -0.452 OA
ENDROOT
BRANCH   1  12
ATOM     12  C   UNL     1      -6.269   5.416 -13.066  1.00  0.00     0.025 A 
ATOM     13  C   UNL     1      -5.327   4.612 -13.729  1.00  0.00     0.016 A 
ATOM     14  C   UNL     1      -4.808   3.472 -13.108  1.00  0.00     0.051 A 
ATOM     15  C   UNL     1      -5.234   3.108 -11.828  1.00  0.00     0.157 A 
ATOM     16  C   UNL     1      -6.712   5.036 -11.787  1.00  0.00     0.062 A 
ATOM     17  C   UNL     1      -6.194   3.890 -11.164  1.00  0.00     0.158 A 
BRANCH  15  18
ATOM     18  O   UNL     1      -4.697   1.968 -11.233  1.00  0.00    -0.504 OA
ATOM     19  H   UNL     1      -4.214   2.000 -10.343  1.00  0.00     0.293 HD
ENDBRANCH  15  18
BRANCH  17  20
ATOM     20  O   UNL     1      -6.633   3.526  -9.892  1.00  0.00    -0.504 OA
ATOM     21  H   UNL     1      -7.022   2.610  -9.707  1.00  0.00     0.293 HD
ENDBRANCH  17  20
ENDBRANCH   1  12
BRANCH   2  22
ATOM     22  O   UNL     1      -4.907   7.972 -13.137  1.00  0.00    -0.502 OA
ATOM     23  H   UNL     1      -4.797   7.952 -12.131  1.00  0.00     0.293 HD
ENDBRANCH   2  22
BRANCH   6  24
ATOM     24  O   UNL     1      -8.097  11.050 -16.093  1.00  0.00    -0.507 OA
ATOM     25  H   UNL     1      -7.908  11.741 -15.384  1.00  0.00     0.293 HD
ENDBRANCH   6  24
BRANCH   8  26
ATOM     26  O   UNL     1     -11.727   8.008 -16.872  1.00  0.00    -0.508 OA
ATOM     27  H   UNL     1     -12.548   7.845 -16.301  1.00  0.00     0.293 HD
ENDBRANCH   8  26
TORSDOF 6
ENDMDL
MODEL 9
REMARK VINA RESULT:    -7.395      2.545      6.990
REMARK INTER + INTRA:          -9.123
REMARK INTER:                  -8.850
REMARK INTRA:                  -0.272
REMARK UNBOUND:                -0.215
REMARK SMILES O=c1c(O)c(-c2ccc(O)c(O)c2)oc2cc(O)cc(O)c12
REMARK SMILES IDX 5 1 3 2 2 3 1 4 22 5 20 6 19 7 17 8 16 9 15 10 14 11 6 12
REMARK SMILES IDX 7 13 8 14 9 15 13 16 11 17 10 18 12 20 4 22 21 24 18 26
REMARK H PARENT 10 19 12 21 4 23 21 25 18 27
REMARK Flexibility Score: inf
ROOT
ATOM      1  C   UNL     1      -5.289   5.865 -12.076  1.00  0.00     0.180 A 
ATOM      2  C   UNL     1      -6.647   6.215 -12.156  1.00  0.00     0.208 A 
ATOM      3  C   UNL     1      -7.002   7.439 -12.746  1.00  0.00     0.238 A 
ATOM      4  O   UNL     1      -8.223   7.711 -12.881  1.00  0.00    -0.285 OA
ATOM      5  C   UNL     1      -5.992   8.323 -13.199  1.00  0.00     0.111 A 
ATOM      6  C   UNL     1      -6.234   9.609 -13.771  1.00  0.00     0.134 A 
ATOM      7  C   UNL     1      -5.162  10.350 -14.281  1.00  0.00     0.093 A 
ATOM      8  C   UNL     1      -3.850   9.883 -14.180  1.00  0.00     0.123 A 
ATOM      9  C   UNL     1      -3.598   8.655 -13.573  1.00  0.00     0.094 A 
ATOM     10  C   UNL     1      -4.650   7.874 -13.091  1.00  0.00     0.146 A 
ATOM     11  O   UNL     1      -4.365   6.701 -12.539  1.00  0.00    -0.452 OA
ENDROOT
BRANCH   1  12
ATOM     12  C   UNL     1      -4.838   4.587 -11.482  1.00  0.00     0.025 A 
ATOM     13  C   UNL     1      -4.191   4.596 -10.236  1.00  0.00     0.016 A 
ATOM     14  C   UNL     1      -3.738   3.403  -9.665  1.00  0.00     0.051 A 
ATOM     15  C   UNL     1      -3.909   2.188 -10.336  1.00  0.00     0.157 A 
ATOM     16  C   UNL     1      -4.990   3.367 -12.165  1.00  0.00     0.062 A 
ATOM     17  C   UNL     1      -4.533   2.169 -11.594  1.00  0.00     0.158 A 
BRANCH  15  18
ATOM     18  O   UNL     1      -3.449   1.014  -9.741  1.00  0.00    -0.504 OA
ATOM     19  H   UNL     1      -2.621   0.532 -10.069  1.00  0.00     0.293 HD
ENDBRANCH  15  18
BRANCH  17  20
ATOM     20  O   UNL     1      -4.695   0.963 -12.275  1.00  0.00    -0.504 OA
ATOM     21  H   UNL     1      -3.925   0.318 -12.402  1.00  0.00     0.293 HD
ENDBRANCH  17  20
ENDBRANCH   1  12
BRANCH   2  22
ATOM     22  O   UNL     1      -7.626   5.363 -11.635  1.00  0.00    -0.502 OA
ATOM     23  H   UNL     1      -8.616   5.538 -11.750  1.00  0.00     0.293 HD
ENDBRANCH   2  22
BRANCH   6  24
ATOM     24  O   UNL     1      -7.494  10.210 -13.842  1.00  0.00    -0.507 OA
ATOM     25  H   UNL     1      -8.030  10.331 -14.689  1.00  0.00     0.293 HD
ENDBRANCH   6  24
BRANCH   8  26
ATOM     26  O   UNL     1      -2.787  10.636 -14.674  1.00  0.00    -0.508 OA
ATOM     27  H   UNL     1      -1.863  10.238 -14.790  1.00  0.00     0.293 HD
ENDBRANCH   8  26
TORSDOF 6
ENDMDL
