MODEL 1
REMARK VINA RESULT:    -4.611      0.000      0.000
REMARK INTER + INTRA:          -5.249
REMARK INTER:                  -5.016
REMARK INTRA:                  -0.234
REMARK UNBOUND:                -0.234
REMARK SMILES O=C([O-])c1ccccc1O
REMARK SMILES IDX 4 1 9 2 5 3 8 4 6 5 7 6 2 7 1 8 3 9 10 10
REMARK H PARENT 10 11
REMARK Flexibility Score: inf
ROOT
ATOM      1  C   UNL     1      21.297   0.640 -20.854  1.00  0.00     0.039 A 
ATOM      2  C   UNL     1      20.662  -0.618 -20.987  1.00  0.00     0.124 A 
ATOM      3  C   UNL     1      21.430   1.201 -19.569  1.00  0.00     0.014 A 
ATOM      4  C   UNL     1      20.178  -1.281 -19.849  1.00  0.00     0.047 A 
ATOM      5  C   UNL     1      20.943   0.529 -18.444  1.00  0.00     0.001 A 
ATOM      6  C   UNL     1      20.319  -0.709 -18.583  1.00  0.00     0.004 A 
ENDROOT
BRANCH   1   7
ATOM      7  C   UNL     1      21.826   1.382 -22.027  1.00  0.00     0.075 C 
ATOM      8  O   UNL     1      21.832   2.640 -22.050  1.00  0.00    -0.545 OA
ATOM      9  O   UNL     1      22.326   0.691 -23.125  1.00  0.00    -0.545 OA
ENDBRANCH   1   7
BRANCH   2  10
ATOM     10  O   UNL     1      20.509  -1.212 -22.240  1.00  0.00    -0.507 OA
ATOM     11  H   UNL     1      21.272  -1.250 -22.907  1.00  0.00     0.293 HD
ENDBRANCH   2  10
TORSDOF 2
ENDMDL
MODEL 2
REMARK VINA RESULT:    -4.545      1.376      1.719
REMARK INTER + INTRA:          -5.177
REMARK INTER:                  -4.922
REMARK INTRA:                  -0.254
REMARK UNBOUND:                -0.234
REMARK SMILES O=C([O-])c1ccccc1O
REMARK SMILES IDX 4 1 9 2 5 3 8 4 6 5 7 6 2 7 1 8 3 9 10 10
REMARK H PARENT 10 11
REMARK Flexibility Score: inf
ROOT
ATOM      1  C   UNL     1      20.603   0.308 -19.771  1.00  0.00     0.039 A 
ATOM      2  C   UNL     1      19.338  -0.296 -19.576  1.00  0.00     0.124 A 
ATOM      3  C   UNL     1      21.339   0.723 -18.644  1.00  0.00     0.014 A 
ATOM      4  C   UNL     1      18.841  -0.471 -18.275  1.00  0.00     0.047 A 
ATOM      5  C   UNL     1      20.831   0.543 -17.355  1.00  0.00     0.001 A 
ATOM      6  C   UNL     1      19.584  -0.054 -17.171  1.00  0.00     0.004 A 
ENDROOT
BRANCH   1   7
ATOM      7  C   UNL     1      21.174   0.516 -21.127  1.00  0.00     0.075 C 
ATOM      8  O   UNL     1      21.644   1.633 -21.469  1.00  0.00    -0.545 OA
ATOM      9  O   UNL     1      21.198  -0.527 -22.044  1.00  0.00    -0.545 OA
ENDBRANCH   1   7
BRANCH   2  10
ATOM     10  O   UNL     1      18.575  -0.723 -20.663  1.00  0.00    -0.507 OA
ATOM     11  H   UNL     1      17.619  -1.039 -20.551  1.00  0.00     0.293 HD
ENDBRANCH   2  10
TORSDOF 2
ENDMDL
MODEL 3
REMARK VINA RESULT:    -4.525      1.522      2.404
REMARK INTER + INTRA:          -5.155
REMARK INTER:                  -4.905
REMARK INTRA:                  -0.251
REMARK UNBOUND:                -0.234
REMARK SMILES O=C([O-])c1ccccc1O
REMARK SMILES IDX 4 1 9 2 5 3 8 4 6 5 7 6 2 7 1 8 3 9 10 10
REMARK H PARENT 10 11
REMARK Flexibility Score: inf
ROOT
ATOM      1  C   UNL     1      20.597   0.272 -20.092  1.00  0.00     0.039 A 
ATOM      2  C   UNL     1      21.096   0.679 -18.832  1.00  0.00     0.124 A 
ATOM      3  C   UNL     1      19.456  -0.553 -20.137  1.00  0.00     0.014 A 
ATOM      4  C   UNL     1      20.454   0.257 -17.657  1.00  0.00     0.047 A 
ATOM      5  C   UNL     1      18.827  -0.965 -18.959  1.00  0.00     0.001 A 
ATOM      6  C   UNL     1      19.325  -0.561 -17.721  1.00  0.00     0.004 A 
ENDROOT
BRANCH   1   7
ATOM      7  C   UNL     1      21.239   0.691 -21.365  1.00  0.00     0.075 C 
ATOM      8  O   UNL     1      21.541   1.894 -21.575  1.00  0.00    -0.545 OA
ATOM      9  O   UNL     1      21.518  -0.249 -22.351  1.00  0.00    -0.545 OA
ENDBRANCH   1   7
BRANCH   2  10
ATOM     10  O   UNL     1      22.222   1.496 -18.740  1.00  0.00    -0.507 OA
ATOM     11  H   UNL     1      23.155   1.139 -18.915  1.00  0.00     0.293 HD
ENDBRANCH   2  10
TORSDOF 2
ENDMDL
MODEL 4
REMARK VINA RESULT:    -4.411      1.899      3.498
REMARK INTER + INTRA:          -5.032
REMARK INTER:                  -4.791
REMARK INTRA:                  -0.241
REMARK UNBOUND:                -0.234
REMARK SMILES O=C([O-])c1ccccc1O
REMARK SMILES IDX 4 1 9 2 5 3 8 4 6 5 7 6 2 7 1 8 3 9 10 10
REMARK H PARENT 10 11
REMARK Flexibility Score: inf
ROOT
ATOM      1  C   UNL     1      20.678   0.326 -18.806  1.00  0.00     0.039 A 
ATOM      2  C   UNL     1      21.487   1.291 -19.454  1.00  0.00     0.124 A 
ATOM      3  C   UNL     1      20.946   0.008 -17.460  1.00  0.00     0.014 A 
ATOM      4  C   UNL     1      22.532   1.910 -18.752  1.00  0.00     0.047 A 
ATOM      5  C   UNL     1      21.991   0.632 -16.774  1.00  0.00     0.001 A 
ATOM      6  C   UNL     1      22.782   1.582 -17.418  1.00  0.00     0.004 A 
ENDROOT
BRANCH   1   7
ATOM      7  C   UNL     1      19.559  -0.358 -19.504  1.00  0.00     0.075 C 
ATOM      8  O   UNL     1      18.503  -0.665 -18.893  1.00  0.00    -0.545 OA
ATOM      9  O   UNL     1      19.664  -0.672 -20.854  1.00  0.00    -0.545 OA
ENDBRANCH   1   7
BRANCH   2  10
ATOM     10  O   UNL     1      21.257   1.637 -20.785  1.00  0.00    -0.507 OA
ATOM     11  H   UNL     1      20.655   2.412 -21.037  1.00  0.00     0.293 HD
ENDBRANCH   2  10
TORSDOF 2
ENDMDL
MODEL 5
REMARK VINA RESULT:    -4.361     18.124     19.835
REMARK INTER + INTRA:          -4.978
REMARK INTER:                  -4.727
REMARK INTRA:                  -0.250
REMARK UNBOUND:                -0.234
REMARK SMILES O=C([O-])c1ccccc1O
REMARK SMILES IDX 4 1 9 2 5 3 8 4 6 5 7 6 2 7 1 8 3 9 10 10
REMARK H PARENT 10 11
REMARK Flexibility Score: inf
ROOT
ATOM      1  C   UNL     1       8.772  -6.676  -6.985  1.00  0.00     0.039 A 
ATOM      2  C   UNL     1      10.003  -6.039  -7.277  1.00  0.00     0.124 A 
ATOM      3  C   UNL     1       8.206  -7.533  -7.947  1.00  0.00     0.014 A 
ATOM      4  C   UNL     1      10.633  -6.270  -8.510  1.00  0.00     0.047 A 
ATOM      5  C   UNL     1       8.844  -7.753  -9.171  1.00  0.00     0.001 A 
ATOM      6  C   UNL     1      10.056  -7.123  -9.451  1.00  0.00     0.004 A 
ENDROOT
BRANCH   1   7
ATOM      7  C   UNL     1       8.065  -6.465  -5.695  1.00  0.00     0.075 C 
ATOM      8  O   UNL     1       7.857  -5.306  -5.251  1.00  0.00    -0.545 OA
ATOM      9  O   UNL     1       7.620  -7.554  -4.954  1.00  0.00    -0.545 OA
ENDBRANCH   1   7
BRANCH   2  10
ATOM     10  O   UNL     1      10.601  -5.183  -6.354  1.00  0.00    -0.507 OA
ATOM     11  H   UNL     1      10.981  -5.525  -5.479  1.00  0.00     0.293 HD
ENDBRANCH   2  10
TORSDOF 2
ENDMDL
MODEL 6
REMARK VINA RESULT:    -4.248      2.570      4.024
REMARK INTER + INTRA:          -4.855
REMARK INTER:                  -4.605
REMARK INTRA:                  -0.250
REMARK UNBOUND:                -0.234
REMARK SMILES O=C([O-])c1ccccc1O
REMARK SMILES IDX 4 1 9 2 5 3 8 4 6 5 7 6 2 7 1 8 3 9 10 10
REMARK H PARENT 10 11
REMARK Flexibility Score: inf
ROOT
ATOM      1  C   UNL     1      20.763   0.218 -19.418  1.00  0.00     0.039 A 
ATOM      2  C   UNL     1      21.436   1.230 -20.144  1.00  0.00     0.124 A 
ATOM      3  C   UNL     1      20.319  -0.929 -20.103  1.00  0.00     0.014 A 
ATOM      4  C   UNL     1      21.649   1.076 -21.522  1.00  0.00     0.047 A 
ATOM      5  C   UNL     1      20.538  -1.069 -21.476  1.00  0.00     0.001 A 
ATOM      6  C   UNL     1      21.202  -0.068 -22.185  1.00  0.00     0.004 A 
ENDROOT
BRANCH   1   7
ATOM      7  C   UNL     1      20.513   0.332 -17.958  1.00  0.00     0.075 C 
ATOM      8  O   UNL     1      21.445   0.612 -17.159  1.00  0.00    -0.545 OA
ATOM      9  O   UNL     1      19.236   0.131 -17.448  1.00  0.00    -0.545 OA
ENDBRANCH   1   7
BRANCH   2  10
ATOM     10  O   UNL     1      21.893   2.383 -19.506  1.00  0.00    -0.507 OA
ATOM     11  H   UNL     1      21.361   2.829 -18.768  1.00  0.00     0.293 HD
ENDBRANCH   2  10
TORSDOF 2
ENDMDL
MODEL 7
REMARK VINA RESULT:    -4.243      2.270      3.019
REMARK INTER + INTRA:          -4.849
REMARK INTER:                  -4.623
REMARK INTRA:                  -0.226
REMARK UNBOUND:                -0.234
REMARK SMILES O=C([O-])c1ccccc1O
REMARK SMILES IDX 4 1 9 2 5 3 8 4 6 5 7 6 2 7 1 8 3 9 10 10
REMARK H PARENT 10 11
REMARK Flexibility Score: inf
ROOT
ATOM      1  C   UNL     1      21.120   0.635 -18.632  1.00  0.00     0.039 A 
ATOM      2  C   UNL     1      20.740   0.442 -19.982  1.00  0.00     0.124 A 
ATOM      3  C   UNL     1      20.379  -0.007 -17.620  1.00  0.00     0.014 A 
ATOM      4  C   UNL     1      19.643  -0.377 -20.289  1.00  0.00     0.047 A 
ATOM      5  C   UNL     1      19.289  -0.819 -17.940  1.00  0.00     0.001 A 
ATOM      6  C   UNL     1      18.921  -1.004 -19.272  1.00  0.00     0.004 A 
ENDROOT
BRANCH   1   7
ATOM      7  C   UNL     1      22.273   1.491 -18.254  1.00  0.00     0.075 C 
ATOM      8  O   UNL     1      22.603   2.483 -18.955  1.00  0.00    -0.545 OA
ATOM      9  O   UNL     1      23.012   1.207 -17.111  1.00  0.00    -0.545 OA
ENDBRANCH   1   7
BRANCH   2  10
ATOM     10  O   UNL     1      21.445   1.057 -21.016  1.00  0.00    -0.507 OA
ATOM     11  H   UNL     1      20.999   1.711 -21.649  1.00  0.00     0.293 HD
ENDBRANCH   2  10
TORSDOF 2
ENDMDL
MODEL 8
REMARK VINA RESULT:    -4.205     18.846     19.762
REMARK INTER + INTRA:          -4.807
REMARK INTER:                  -4.558
REMARK INTRA:                  -0.249
REMARK UNBOUND:                -0.234
REMARK SMILES O=C([O-])c1ccccc1O
REMARK SMILES IDX 4 1 9 2 5 3 8 4 6 5 7 6 2 7 1 8 3 9 10 10
REMARK H PARENT 10 11
REMARK Flexibility Score: inf
ROOT
ATOM      1  C   UNL     1       6.168   4.387  -8.912  1.00  0.00     0.039 A 
ATOM      2  C   UNL     1       6.382   3.363  -7.958  1.00  0.00     0.124 A 
ATOM      3  C   UNL     1       5.030   5.207  -8.784  1.00  0.00     0.014 A 
ATOM      4  C   UNL     1       5.467   3.182  -6.910  1.00  0.00     0.047 A 
ATOM      5  C   UNL     1       4.127   5.015  -7.735  1.00  0.00     0.001 A 
ATOM      6  C   UNL     1       4.345   4.004  -6.799  1.00  0.00     0.004 A 
ENDROOT
BRANCH   1   7
ATOM      7  C   UNL     1       7.106   4.619 -10.039  1.00  0.00     0.075 C 
ATOM      8  O   UNL     1       6.682   4.906 -11.189  1.00  0.00    -0.545 OA
ATOM      9  O   UNL     1       8.479   4.523  -9.840  1.00  0.00    -0.545 OA
ENDBRANCH   1   7
BRANCH   2  10
ATOM     10  O   UNL     1       7.496   2.528  -8.045  1.00  0.00    -0.507 OA
ATOM     11  H   UNL     1       7.636   1.758  -7.400  1.00  0.00     0.293 HD
ENDBRANCH   2  10
TORSDOF 2
ENDMDL
MODEL 9
REMARK VINA RESULT:    -4.102     17.146     18.351
REMARK INTER + INTRA:          -4.695
REMARK INTER:                  -4.447
REMARK INTRA:                  -0.249
REMARK UNBOUND:                -0.234
REMARK SMILES O=C([O-])c1ccccc1O
REMARK SMILES IDX 4 1 9 2 5 3 8 4 6 5 7 6 2 7 1 8 3 9 10 10
REMARK H PARENT 10 11
REMARK Flexibility Score: inf
ROOT
ATOM      1  C   UNL     1      12.787   3.032  -4.768  1.00  0.00     0.039 A 
ATOM      2  C   UNL     1      12.053   3.107  -5.976  1.00  0.00     0.124 A 
ATOM      3  C   UNL     1      13.991   3.755  -4.659  1.00  0.00     0.014 A 
ATOM      4  C   UNL     1      12.531   3.891  -7.036  1.00  0.00     0.047 A 
ATOM      5  C   UNL     1      14.455   4.533  -5.723  1.00  0.00     0.001 A 
ATOM      6  C   UNL     1      13.726   4.601  -6.910  1.00  0.00     0.004 A 
ENDROOT
BRANCH   1   7
ATOM      7  C   UNL     1      12.325   2.216  -3.616  1.00  0.00     0.075 C 
ATOM      8  O   UNL     1      11.119   2.227  -3.255  1.00  0.00    -0.545 OA
ATOM      9  O   UNL     1      13.224   1.423  -2.913  1.00  0.00    -0.545 OA
ENDBRANCH   1   7
BRANCH   2  10
ATOM     10  O   UNL     1      10.856   2.408  -6.128  1.00  0.00    -0.507 OA
ATOM     11  H   UNL     1      10.431   1.907  -5.356  1.00  0.00     0.293 HD
ENDBRANCH   2  10
TORSDOF 2
ENDMDL
