MODEL 1
REMARK VINA RESULT:    -4.262      0.000      0.000
REMARK INTER + INTRA:          -7.749
REMARK INTER:                  -6.504
REMARK INTRA:                  -1.245
REMARK UNBOUND:                -1.245
REMARK SMILES CCCCCCCCCCC(=O)[O-]
REMARK SMILES IDX 7 1 8 2 9 3 10 4 11 5 12 6 13 7 6 8 5 9 4 10 3 11 2 12 1 13
REMARK H PARENT
REMARK Flexibility Score: inf
ROOT
ATOM      1  C   UNL     1      63.147  29.318  13.172  1.00  0.00     0.000 C 
ENDROOT
BRANCH   1   2
ATOM      2  C   UNL     1      61.679  29.164  13.604  1.00  0.00     0.000 C 
BRANCH   2   3
ATOM      3  C   UNL     1      60.721  29.001  12.409  1.00  0.00     0.006 C 
BRANCH   3   4
ATOM      4  C   UNL     1      60.773  30.152  11.391  1.00  0.00     0.053 C 
BRANCH   4   5
ATOM      5  C   UNL     1      61.244  29.692  10.045  1.00  0.00     0.041 C 
ATOM      6  O   UNL     1      61.218  30.477   9.063  1.00  0.00    -0.550 OA
ATOM      7  O   UNL     1      61.744  28.405   9.886  1.00  0.00    -0.550 OA
ENDBRANCH   4   5
ENDBRANCH   3   4
ENDBRANCH   2   3
ENDBRANCH   1   2
BRANCH   1   8
ATOM      8  C   UNL     1      63.930  30.285  14.076  1.00  0.00     0.000 C 
BRANCH   8   9
ATOM      9  C   UNL     1      64.676  31.372  13.283  1.00  0.00    -0.000 C 
BRANCH   9  10
ATOM     10  C   UNL     1      63.714  32.424  12.690  1.00  0.00    -0.000 C 
BRANCH  10  11
ATOM     11  C   UNL     1      62.903  33.185  13.753  1.00  0.00    -0.000 C 
BRANCH  11  12
ATOM     12  C   UNL     1      61.397  33.200  13.460  1.00  0.00    -0.003 C 
ATOM     13  C   UNL     1      60.615  32.490  14.561  1.00  0.00     0.004 C 
ENDBRANCH  11  12
ENDBRANCH  10  11
ENDBRANCH   9  10
ENDBRANCH   8   9
ENDBRANCH   1   8
TORSDOF 9
ENDMDL
MODEL 2
REMARK VINA RESULT:    -4.236      2.760      4.690
REMARK INTER + INTRA:          -7.709
REMARK INTER:                  -6.428
REMARK INTRA:                  -1.282
REMARK UNBOUND:                -1.245
REMARK SMILES CCCCCCCCCCC(=O)[O-]
REMARK SMILES IDX 7 1 8 2 9 3 10 4 11 5 12 6 13 7 6 8 5 9 4 10 3 11 2 12 1 13
REMARK H PARENT
REMARK Flexibility Score: inf
ROOT
ATOM      1  C   UNL     1      62.488  29.014  13.431  1.00  0.00     0.000 C 
ENDROOT
BRANCH   1   2
ATOM      2  C   UNL     1      62.657  30.319  14.228  1.00  0.00     0.000 C 
BRANCH   2   3
ATOM      3  C   UNL     1      63.073  31.508  13.341  1.00  0.00     0.006 C 
BRANCH   3   4
ATOM      4  C   UNL     1      61.909  32.413  12.904  1.00  0.00     0.053 C 
BRANCH   4   5
ATOM      5  C   UNL     1      61.134  32.937  14.075  1.00  0.00     0.041 C 
ATOM      6  O   UNL     1      61.535  33.957  14.694  1.00  0.00    -0.550 OA
ATOM      7  O   UNL     1      59.951  32.318  14.460  1.00  0.00    -0.550 OA
ENDBRANCH   4   5
ENDBRANCH   3   4
ENDBRANCH   2   3
ENDBRANCH   1   2
BRANCH   1   8
ATOM      8  C   UNL     1      61.012  28.653  13.197  1.00  0.00     0.000 C 
BRANCH   8   9
ATOM      9  C   UNL     1      60.463  29.209  11.872  1.00  0.00    -0.000 C 
BRANCH   9  10
ATOM     10  C   UNL     1      61.434  28.976  10.695  1.00  0.00    -0.000 C 
BRANCH  10  11
ATOM     11  C   UNL     1      61.709  30.241   9.864  1.00  0.00    -0.000 C 
BRANCH  11  12
ATOM     12  C   UNL     1      63.160  30.332   9.375  1.00  0.00    -0.003 C 
ATOM     13  C   UNL     1      64.072  29.417  10.188  1.00  0.00     0.004 C 
ENDBRANCH  11  12
ENDBRANCH  10  11
ENDBRANCH   9  10
ENDBRANCH   8   9
ENDBRANCH   1   8
TORSDOF 9
ENDMDL
MODEL 3
REMARK VINA RESULT:    -4.233      1.472      2.337
REMARK INTER + INTRA:          -7.706
REMARK INTER:                  -6.656
REMARK INTRA:                  -1.050
REMARK UNBOUND:                -1.245
REMARK SMILES CCCCCCCCCCC(=O)[O-]
REMARK SMILES IDX 7 1 8 2 9 3 10 4 11 5 12 6 13 7 6 8 5 9 4 10 3 11 2 12 1 13
REMARK H PARENT
REMARK Flexibility Score: inf
ROOT
ATOM      1  C   UNL     1      64.328  29.761  13.034  1.00  0.00     0.000 C 
ENDROOT
BRANCH   1   2
ATOM      2  C   UNL     1      64.345  30.470  11.669  1.00  0.00     0.000 C 
BRANCH   2   3
ATOM      3  C   UNL     1      63.986  29.528  10.504  1.00  0.00     0.006 C 
BRANCH   3   4
ATOM      4  C   UNL     1      62.997  30.121   9.489  1.00  0.00     0.053 C 
BRANCH   4   5
ATOM      5  C   UNL     1      61.688  29.392   9.486  1.00  0.00     0.041 C 
ATOM      6  O   UNL     1      60.658  29.938   9.960  1.00  0.00    -0.550 OA
ATOM      7  O   UNL     1      61.600  28.122   8.928  1.00  0.00    -0.550 OA
ENDBRANCH   4   5
ENDBRANCH   3   4
ENDBRANCH   2   3
ENDBRANCH   1   2
BRANCH   1   8
ATOM      8  C   UNL     1      62.946  29.186  13.383  1.00  0.00     0.000 C 
BRANCH   8   9
ATOM      9  C   UNL     1      62.077  30.168  14.189  1.00  0.00    -0.000 C 
BRANCH   9  10
ATOM     10  C   UNL     1      60.949  30.784  13.334  1.00  0.00    -0.000 C 
BRANCH  10  11
ATOM     11  C   UNL     1      61.255  32.212  12.851  1.00  0.00    -0.000 C 
BRANCH  11  12
ATOM     12  C   UNL     1      62.295  32.929  13.722  1.00  0.00    -0.003 C 
ATOM     13  C   UNL     1      61.621  33.834  14.750  1.00  0.00     0.004 C 
ENDBRANCH  11  12
ENDBRANCH  10  11
ENDBRANCH   9  10
ENDBRANCH   8   9
ENDBRANCH   1   8
TORSDOF 9
ENDMDL
MODEL 4
REMARK VINA RESULT:    -4.199      1.296      2.639
REMARK INTER + INTRA:          -7.654
REMARK INTER:                  -6.595
REMARK INTRA:                  -1.059
REMARK UNBOUND:                -1.245
REMARK SMILES CCCCCCCCCCC(=O)[O-]
REMARK SMILES IDX 7 1 8 2 9 3 10 4 11 5 12 6 13 7 6 8 5 9 4 10 3 11 2 12 1 13
REMARK H PARENT
REMARK Flexibility Score: inf
ROOT
ATOM      1  C   UNL     1      61.945  30.033  14.076  1.00  0.00     0.000 C 
ENDROOT
BRANCH   1   2
ATOM      2  C   UNL     1      63.064  29.466  13.186  1.00  0.00     0.000 C 
BRANCH   2   3
ATOM      3  C   UNL     1      63.128  30.145  11.805  1.00  0.00     0.006 C 
BRANCH   3   4
ATOM      4  C   UNL     1      63.238  29.171  10.621  1.00  0.00     0.053 C 
BRANCH   4   5
ATOM      5  C   UNL     1      61.967  29.102   9.829  1.00  0.00     0.041 C 
ATOM      6  O   UNL     1      61.688  28.068   9.169  1.00  0.00    -0.550 OA
ATOM      7  O   UNL     1      61.077  30.168   9.849  1.00  0.00    -0.550 OA
ENDBRANCH   4   5
ENDBRANCH   3   4
ENDBRANCH   2   3
ENDBRANCH   1   2
BRANCH   1   8
ATOM      8  C   UNL     1      60.971  30.932  13.298  1.00  0.00     0.000 C 
BRANCH   8   9
ATOM      9  C   UNL     1      60.571  32.197  14.078  1.00  0.00    -0.000 C 
BRANCH   9  10
ATOM     10  C   UNL     1      61.514  33.383  13.788  1.00  0.00    -0.000 C 
BRANCH  10  11
ATOM     11  C   UNL     1      62.339  33.827  15.009  1.00  0.00    -0.000 C 
BRANCH  11  12
ATOM     12  C   UNL     1      63.831  33.497  14.874  1.00  0.00    -0.003 C 
ATOM     13  C   UNL     1      64.207  33.231  13.419  1.00  0.00     0.004 C 
ENDBRANCH  11  12
ENDBRANCH  10  11
ENDBRANCH   9  10
ENDBRANCH   8   9
ENDBRANCH   1   8
TORSDOF 9
ENDMDL
MODEL 5
REMARK VINA RESULT:    -4.144      2.012      2.572
REMARK INTER + INTRA:          -7.569
REMARK INTER:                  -6.444
REMARK INTRA:                  -1.125
REMARK UNBOUND:                -1.245
REMARK SMILES CCCCCCCCCCC(=O)[O-]
REMARK SMILES IDX 7 1 8 2 9 3 10 4 11 5 12 6 13 7 6 8 5 9 4 10 3 11 2 12 1 13
REMARK H PARENT
REMARK Flexibility Score: inf
ROOT
ATOM      1  C   UNL     1      64.150  30.325  11.295  1.00  0.00     0.000 C 
ENDROOT
BRANCH   1   2
ATOM      2  C   UNL     1      62.854  30.186  10.478  1.00  0.00     0.000 C 
BRANCH   2   3
ATOM      3  C   UNL     1      62.003  28.978  10.913  1.00  0.00     0.006 C 
BRANCH   3   4
ATOM      4  C   UNL     1      60.621  29.344  11.476  1.00  0.00     0.053 C 
BRANCH   4   5
ATOM      5  C   UNL     1      60.393  28.756  12.835  1.00  0.00     0.041 C 
ATOM      6  O   UNL     1      61.285  28.841  13.719  1.00  0.00    -0.550 OA
ATOM      7  O   UNL     1      59.182  28.144  13.135  1.00  0.00    -0.550 OA
ENDBRANCH   4   5
ENDBRANCH   3   4
ENDBRANCH   2   3
ENDBRANCH   1   2
BRANCH   1   8
ATOM      8  C   UNL     1      63.910  30.945  12.680  1.00  0.00     0.000 C 
BRANCH   8   9
ATOM      9  C   UNL     1      64.059  32.477  12.684  1.00  0.00    -0.000 C 
BRANCH   9  10
ATOM     10  C   UNL     1      62.886  33.175  13.405  1.00  0.00    -0.000 C 
BRANCH  10  11
ATOM     11  C   UNL     1      61.512  32.569  13.074  1.00  0.00    -0.000 C 
BRANCH  11  12
ATOM     12  C   UNL     1      60.632  32.366  14.315  1.00  0.00    -0.003 C 
ATOM     13  C   UNL     1      61.484  32.132  15.560  1.00  0.00     0.004 C 
ENDBRANCH  11  12
ENDBRANCH  10  11
ENDBRANCH   9  10
ENDBRANCH   8   9
ENDBRANCH   1   8
TORSDOF 9
ENDMDL
MODEL 6
REMARK VINA RESULT:    -4.094      2.637      4.658
REMARK INTER + INTRA:          -7.493
REMARK INTER:                  -6.267
REMARK INTRA:                  -1.226
REMARK UNBOUND:                -1.245
REMARK SMILES CCCCCCCCCCC(=O)[O-]
REMARK SMILES IDX 7 1 8 2 9 3 10 4 11 5 12 6 13 7 6 8 5 9 4 10 3 11 2 12 1 13
REMARK H PARENT
REMARK Flexibility Score: inf
ROOT
ATOM      1  C   UNL     1      64.282  30.983  13.769  1.00  0.00     0.000 C 
ENDROOT
BRANCH   1   2
ATOM      2  C   UNL     1      63.935  32.275  13.011  1.00  0.00     0.000 C 
BRANCH   2   3
ATOM      3  C   UNL     1      63.252  33.326  13.906  1.00  0.00     0.006 C 
BRANCH   3   4
ATOM      4  C   UNL     1      61.729  33.423  13.723  1.00  0.00     0.053 C 
BRANCH   4   5
ATOM      5  C   UNL     1      60.986  32.632  14.756  1.00  0.00     0.041 C 
ATOM      6  O   UNL     1      59.822  32.217  14.520  1.00  0.00    -0.550 OA
ATOM      7  O   UNL     1      61.594  32.324  15.967  1.00  0.00    -0.550 OA
ENDBRANCH   4   5
ENDBRANCH   3   4
ENDBRANCH   2   3
ENDBRANCH   1   2
BRANCH   1   8
ATOM      8  C   UNL     1      63.687  29.731  13.104  1.00  0.00     0.000 C 
BRANCH   8   9
ATOM      9  C   UNL     1      62.308  29.351  13.671  1.00  0.00    -0.000 C 
BRANCH   9  10
ATOM     10  C   UNL     1      61.261  29.131  12.558  1.00  0.00    -0.000 C 
BRANCH  10  11
ATOM     11  C   UNL     1      61.024  30.375  11.683  1.00  0.00    -0.000 C 
BRANCH  11  12
ATOM     12  C   UNL     1      61.457  30.171  10.225  1.00  0.00    -0.003 C 
ATOM     13  C   UNL     1      61.928  28.739   9.986  1.00  0.00     0.004 C 
ENDBRANCH  11  12
ENDBRANCH  10  11
ENDBRANCH   9  10
ENDBRANCH   8   9
ENDBRANCH   1   8
TORSDOF 9
ENDMDL
MODEL 7
REMARK VINA RESULT:    -4.089     13.680     14.798
REMARK INTER + INTRA:          -7.485
REMARK INTER:                  -6.387
REMARK INTRA:                  -1.098
REMARK UNBOUND:                -1.245
REMARK SMILES CCCCCCCCCCC(=O)[O-]
REMARK SMILES IDX 7 1 8 2 9 3 10 4 11 5 12 6 13 7 6 8 5 9 4 10 3 11 2 12 1 13
REMARK H PARENT
REMARK Flexibility Score: inf
ROOT
ATOM      1  C   UNL     1      63.190  30.355  25.331  1.00  0.00     0.000 C 
ENDROOT
BRANCH   1   2
ATOM      2  C   UNL     1      62.851  28.865  25.155  1.00  0.00     0.000 C 
BRANCH   2   3
ATOM      3  C   UNL     1      61.412  28.526  25.588  1.00  0.00     0.006 C 
BRANCH   3   4
ATOM      4  C   UNL     1      61.315  27.451  26.683  1.00  0.00     0.053 C 
BRANCH   4   5
ATOM      5  C   UNL     1      61.793  27.956  28.010  1.00  0.00     0.041 C 
ATOM      6  O   UNL     1      62.488  27.217  28.756  1.00  0.00    -0.550 OA
ATOM      7  O   UNL     1      61.500  29.254  28.408  1.00  0.00    -0.550 OA
ENDBRANCH   4   5
ENDBRANCH   3   4
ENDBRANCH   2   3
ENDBRANCH   1   2
BRANCH   1   8
ATOM      8  C   UNL     1      64.354  30.583  26.308  1.00  0.00     0.000 C 
BRANCH   8   9
ATOM      9  C   UNL     1      64.971  29.270  26.820  1.00  0.00    -0.000 C 
BRANCH   9  10
ATOM     10  C   UNL     1      66.454  29.126  26.414  1.00  0.00    -0.000 C 
BRANCH  10  11
ATOM     11  C   UNL     1      66.681  28.141  25.254  1.00  0.00    -0.000 C 
BRANCH  11  12
ATOM     12  C   UNL     1      66.004  26.783  25.482  1.00  0.00    -0.003 C 
ATOM     13  C   UNL     1      65.329  26.284  24.207  1.00  0.00     0.004 C 
ENDBRANCH  11  12
ENDBRANCH  10  11
ENDBRANCH   9  10
ENDBRANCH   8   9
ENDBRANCH   1   8
TORSDOF 9
ENDMDL
MODEL 8
REMARK VINA RESULT:    -4.085      2.739      4.591
REMARK INTER + INTRA:          -7.480
REMARK INTER:                  -6.218
REMARK INTRA:                  -1.261
REMARK UNBOUND:                -1.245
REMARK SMILES CCCCCCCCCCC(=O)[O-]
REMARK SMILES IDX 7 1 8 2 9 3 10 4 11 5 12 6 13 7 6 8 5 9 4 10 3 11 2 12 1 13
REMARK H PARENT
REMARK Flexibility Score: inf
ROOT
ATOM      1  C   UNL     1      64.359  30.098  11.805  1.00  0.00     0.000 C 
ENDROOT
BRANCH   1   2
ATOM      2  C   UNL     1      63.880  31.558  11.885  1.00  0.00     0.000 C 
BRANCH   2   3
ATOM      3  C   UNL     1      63.253  31.905  13.249  1.00  0.00     0.006 C 
BRANCH   3   4
ATOM      4  C   UNL     1      62.334  33.136  13.231  1.00  0.00     0.053 C 
BRANCH   4   5
ATOM      5  C   UNL     1      61.227  33.026  14.235  1.00  0.00     0.041 C 
ATOM      6  O   UNL     1      60.276  32.224  14.045  1.00  0.00    -0.550 OA
ATOM      7  O   UNL     1      61.264  33.786  15.398  1.00  0.00    -0.550 OA
ENDBRANCH   4   5
ENDBRANCH   3   4
ENDBRANCH   2   3
ENDBRANCH   1   2
BRANCH   1   8
ATOM      8  C   UNL     1      63.875  29.388  10.531  1.00  0.00     0.000 C 
BRANCH   8   9
ATOM      9  C   UNL     1      62.703  30.116   9.849  1.00  0.00    -0.000 C 
BRANCH   9  10
ATOM     10  C   UNL     1      61.351  29.420  10.114  1.00  0.00    -0.000 C 
BRANCH  10  11
ATOM     11  C   UNL     1      60.598  29.984  11.332  1.00  0.00    -0.000 C 
BRANCH  11  12
ATOM     12  C   UNL     1      60.241  28.907  12.365  1.00  0.00    -0.003 C 
ATOM     13  C   UNL     1      61.288  28.838  13.473  1.00  0.00     0.004 C 
ENDBRANCH  11  12
ENDBRANCH  10  11
ENDBRANCH   9  10
ENDBRANCH   8   9
ENDBRANCH   1   8
TORSDOF 9
ENDMDL
MODEL 9
REMARK VINA RESULT:    -4.074     12.543     13.950
REMARK INTER + INTRA:          -7.463
REMARK INTER:                  -6.284
REMARK INTRA:                  -1.178
REMARK UNBOUND:                -1.245
REMARK SMILES CCCCCCCCCCC(=O)[O-]
REMARK SMILES IDX 7 1 8 2 9 3 10 4 11 5 12 6 13 7 6 8 5 9 4 10 3 11 2 12 1 13
REMARK H PARENT
REMARK Flexibility Score: inf
ROOT
ATOM      1  C   UNL     1      64.526  29.059  26.763  1.00  0.00     0.000 C 
ENDROOT
BRANCH   1   2
ATOM      2  C   UNL     1      63.470  30.082  26.311  1.00  0.00     0.000 C 
BRANCH   2   3
ATOM      3  C   UNL     1      62.437  29.482  25.338  1.00  0.00     0.006 C 
BRANCH   3   4
ATOM      4  C   UNL     1      62.351  27.947  25.370  1.00  0.00     0.053 C 
BRANCH   4   5
ATOM      5  C   UNL     1      61.222  27.465  26.230  1.00  0.00     0.041 C 
ATOM      6  O   UNL     1      61.338  27.464  27.484  1.00  0.00    -0.550 OA
ATOM      7  O   UNL     1      60.032  27.050  25.647  1.00  0.00    -0.550 OA
ENDBRANCH   4   5
ENDBRANCH   3   4
ENDBRANCH   2   3
ENDBRANCH   1   2
BRANCH   1   8
ATOM      8  C   UNL     1      65.951  29.461  26.351  1.00  0.00     0.000 C 
BRANCH   8   9
ATOM      9  C   UNL     1      66.692  28.345  25.594  1.00  0.00    -0.000 C 
BRANCH   9  10
ATOM     10  C   UNL     1      65.939  26.999  25.657  1.00  0.00    -0.000 C 
BRANCH  10  11
ATOM     11  C   UNL     1      65.710  26.357  24.278  1.00  0.00    -0.000 C 
BRANCH  11  12
ATOM     12  C   UNL     1      65.777  27.370  23.128  1.00  0.00    -0.003 C 
ATOM     13  C   UNL     1      64.429  27.494  22.425  1.00  0.00     0.004 C 
ENDBRANCH  11  12
ENDBRANCH  10  11
ENDBRANCH   9  10
ENDBRANCH   8   9
ENDBRANCH   1   8
TORSDOF 9
ENDMDL
