MODEL 1
REMARK VINA RESULT:    -5.214      0.000      0.000
REMARK INTER + INTRA:          -7.049
REMARK INTER:                  -6.739
REMARK INTRA:                  -0.311
REMARK UNBOUND:                -0.311
REMARK SMILES CCO[C@H]1O[C@@H](CO)[C@H](O)[C@H](O)[C@H]1O
REMARK SMILES IDX 4 1 13 2 11 3 9 4 6 5 5 6 3 7 2 8 1 9 14 10 12 12 7 14 8 15
REMARK SMILES IDX 10 17
REMARK H PARENT 14 11 12 13 8 16 10 18
REMARK Flexibility Score: inf
ROOT
ATOM      1  C   UNL     1     -15.486  41.288  40.174  1.00  0.00     0.281 C 
ATOM      2  C   UNL     1     -15.476  41.899  38.735  1.00  0.00     0.202 C 
ATOM      3  C   UNL     1     -14.063  42.395  38.373  1.00  0.00     0.179 C 
ATOM      4  C   UNL     1     -13.523  43.357  39.456  1.00  0.00     0.177 C 
ATOM      5  C   UNL     1     -13.905  42.859  40.883  1.00  0.00     0.178 C 
ATOM      6  O   UNL     1     -14.256  41.486  40.866  1.00  0.00    -0.341 OA
ENDROOT
BRANCH   1   7
ATOM      7  O   UNL     1     -15.863  39.917  40.170  1.00  0.00    -0.350 OA
BRANCH   7   8
ATOM      8  C   UNL     1     -16.682  39.582  41.274  1.00  0.00     0.160 C 
ATOM      9  C   UNL     1     -17.351  40.843  41.797  1.00  0.00     0.035 C 
ENDBRANCH   7   8
ENDBRANCH   1   7
BRANCH   2  10
ATOM     10  O   UNL     1     -15.908  40.971  37.772  1.00  0.00    -0.385 OA
ATOM     11  H   UNL     1     -16.191  40.158  38.267  1.00  0.00     0.211 HD
ENDBRANCH   2  10
BRANCH   3  12
ATOM     12  O   UNL     1     -14.027  42.986  37.095  1.00  0.00    -0.387 OA
ATOM     13  H   UNL     1     -13.519  43.834  37.162  1.00  0.00     0.211 HD
ENDBRANCH   3  12
BRANCH   5  14
ATOM     14  C   UNL     1     -12.745  43.047  41.873  1.00  0.00     0.191 C 
BRANCH  14  15
ATOM     15  O   UNL     1     -11.805  43.965  41.383  1.00  0.00    -0.394 OA
ATOM     16  H   UNL     1     -10.996  43.443  41.142  1.00  0.00     0.210 HD
ENDBRANCH  14  15
ENDBRANCH   5  14
BRANCH   4  17
ATOM     17  O   UNL     1     -14.047  44.646  39.252  1.00  0.00    -0.387 OA
ATOM     18  H   UNL     1     -14.896  44.696  39.761  1.00  0.00     0.211 HD
ENDBRANCH   4  17
TORSDOF 7
ENDMDL
MODEL 2
REMARK VINA RESULT:    -4.855      2.467      5.611
REMARK INTER + INTRA:          -6.585
REMARK INTER:                  -6.243
REMARK INTRA:                  -0.342
REMARK UNBOUND:                -0.311
REMARK SMILES CCO[C@H]1O[C@@H](CO)[C@H](O)[C@H](O)[C@H]1O
REMARK SMILES IDX 4 1 13 2 11 3 9 4 6 5 5 6 3 7 2 8 1 9 14 10 12 12 7 14 8 15
REMARK SMILES IDX 10 17
REMARK H PARENT 14 11 12 13 8 16 10 18
REMARK Flexibility Score: inf
ROOT
ATOM      1  C   UNL     1     -12.405  43.943  37.816  1.00  0.00     0.281 C 
ATOM      2  C   UNL     1     -13.160  44.006  39.183  1.00  0.00     0.202 C 
ATOM      3  C   UNL     1     -13.951  42.706  39.420  1.00  0.00     0.179 C 
ATOM      4  C   UNL     1     -14.875  42.397  38.220  1.00  0.00     0.177 C 
ATOM      5  C   UNL     1     -14.161  42.720  36.871  1.00  0.00     0.178 C 
ATOM      6  O   UNL     1     -12.756  42.797  37.044  1.00  0.00    -0.341 OA
ENDROOT
BRANCH   1   7
ATOM      7  O   UNL     1     -10.997  44.045  37.977  1.00  0.00    -0.350 OA
BRANCH   7   8
ATOM      8  C   UNL     1     -10.288  43.469  36.896  1.00  0.00     0.160 C 
ATOM      9  C   UNL     1      -8.826  43.875  36.988  1.00  0.00     0.035 C 
ENDBRANCH   7   8
ENDBRANCH   1   7
BRANCH   2  10
ATOM     10  O   UNL     1     -12.277  44.220  40.256  1.00  0.00    -0.385 OA
ATOM     11  H   UNL     1     -12.821  44.173  41.086  1.00  0.00     0.211 HD
ENDBRANCH   2  10
BRANCH   3  12
ATOM     12  O   UNL     1     -14.673  42.746  40.628  1.00  0.00    -0.387 OA
ATOM     13  H   UNL     1     -15.085  43.644  40.713  1.00  0.00     0.211 HD
ENDBRANCH   3  12
BRANCH   5  14
ATOM     14  C   UNL     1     -14.457  41.650  35.809  1.00  0.00     0.191 C 
BRANCH  14  15
ATOM     15  O   UNL     1     -15.584  40.890  36.156  1.00  0.00    -0.394 OA
ATOM     16  H   UNL     1     -16.321  41.534  36.321  1.00  0.00     0.210 HD
ENDBRANCH  14  15
ENDBRANCH   5  14
BRANCH   4  17
ATOM     17  O   UNL     1     -16.056  43.155  38.320  1.00  0.00    -0.387 OA
ATOM     18  H   UNL     1     -16.609  42.932  37.527  1.00  0.00     0.211 HD
ENDBRANCH   4  17
TORSDOF 7
ENDMDL
MODEL 3
REMARK VINA RESULT:    -4.780     12.090     13.879
REMARK INTER + INTRA:          -6.488
REMARK INTER:                  -6.159
REMARK INTRA:                  -0.329
REMARK UNBOUND:                -0.311
REMARK SMILES CCO[C@H]1O[C@@H](CO)[C@H](O)[C@H](O)[C@H]1O
REMARK SMILES IDX 4 1 13 2 11 3 9 4 6 5 5 6 3 7 2 8 1 9 14 10 12 12 7 14 8 15
REMARK SMILES IDX 10 17
REMARK H PARENT 14 11 12 13 8 16 10 18
REMARK Flexibility Score: inf
ROOT
ATOM      1  C   UNL     1      -7.349  41.155  28.630  1.00  0.00     0.281 C 
ATOM      2  C   UNL     1      -6.549  40.386  27.529  1.00  0.00     0.202 C 
ATOM      3  C   UNL     1      -5.589  39.369  28.174  1.00  0.00     0.179 C 
ATOM      4  C   UNL     1      -4.687  40.053  29.227  1.00  0.00     0.177 C 
ATOM      5  C   UNL     1      -5.495  41.099  30.056  1.00  0.00     0.178 C 
ATOM      6  O   UNL     1      -6.889  40.867  29.949  1.00  0.00    -0.341 OA
ENDROOT
BRANCH   1   7
ATOM      7  O   UNL     1      -8.751  40.949  28.515  1.00  0.00    -0.350 OA
BRANCH   7   8
ATOM      8  C   UNL     1      -9.457  41.413  29.650  1.00  0.00     0.160 C 
ATOM      9  C   UNL     1     -10.950  41.299  29.386  1.00  0.00     0.035 C 
ENDBRANCH   7   8
ENDBRANCH   1   7
BRANCH   2  10
ATOM     10  O   UNL     1      -7.403  39.721  26.632  1.00  0.00    -0.385 OA
ATOM     11  H   UNL     1      -6.822  39.292  25.951  1.00  0.00     0.211 HD
ENDBRANCH   2  10
BRANCH   3  12
ATOM     12  O   UNL     1      -4.826  38.684  27.210  1.00  0.00    -0.387 OA
ATOM     13  H   UNL     1      -4.901  37.712  27.390  1.00  0.00     0.211 HD
ENDBRANCH   3  12
BRANCH   5  14
ATOM     14  C   UNL     1      -5.113  41.053  31.543  1.00  0.00     0.191 C 
BRANCH  14  15
ATOM     15  O   UNL     1      -3.722  41.125  31.711  1.00  0.00    -0.394 OA
ATOM     16  H   UNL     1      -3.401  40.192  31.825  1.00  0.00     0.210 HD
ENDBRANCH  14  15
ENDBRANCH   5  14
BRANCH   4  17
ATOM     17  O   UNL     1      -3.609  40.692  28.588  1.00  0.00    -0.387 OA
ATOM     18  H   UNL     1      -3.689  40.493  27.620  1.00  0.00     0.211 HD
ENDBRANCH   4  17
TORSDOF 7
ENDMDL
MODEL 4
REMARK VINA RESULT:    -4.694     12.496     14.648
REMARK INTER + INTRA:          -6.377
REMARK INTER:                  -6.239
REMARK INTRA:                  -0.138
REMARK UNBOUND:                -0.311
REMARK SMILES CCO[C@H]1O[C@@H](CO)[C@H](O)[C@H](O)[C@H]1O
REMARK SMILES IDX 4 1 13 2 11 3 9 4 6 5 5 6 3 7 2 8 1 9 14 10 12 12 7 14 8 15
REMARK SMILES IDX 10 17
REMARK H PARENT 14 11 12 13 8 16 10 18
REMARK Flexibility Score: inf
ROOT
ATOM      1  C   UNL     1      -5.775  40.302  28.051  1.00  0.00     0.281 C 
ATOM      2  C   UNL     1      -4.766  41.386  28.552  1.00  0.00     0.202 C 
ATOM      3  C   UNL     1      -5.273  42.029  29.856  1.00  0.00     0.179 C 
ATOM      4  C   UNL     1      -6.714  42.561  29.684  1.00  0.00     0.177 C 
ATOM      5  C   UNL     1      -7.574  41.573  28.837  1.00  0.00     0.178 C 
ATOM      6  O   UNL     1      -6.985  40.285  28.805  1.00  0.00    -0.341 OA
ENDROOT
BRANCH   1   7
ATOM      7  O   UNL     1      -5.185  39.010  27.990  1.00  0.00    -0.350 OA
BRANCH   7   8
ATOM      8  C   UNL     1      -5.740  38.215  26.959  1.00  0.00     0.160 C 
ATOM      9  C   UNL     1      -5.017  36.878  26.920  1.00  0.00     0.035 C 
ENDBRANCH   7   8
ENDBRANCH   1   7
BRANCH   2  10
ATOM     10  O   UNL     1      -3.484  40.848  28.761  1.00  0.00    -0.385 OA
ATOM     11  H   UNL     1      -3.592  40.100  29.406  1.00  0.00     0.211 HD
ENDBRANCH   2  10
BRANCH   3  12
ATOM     12  O   UNL     1      -4.404  43.037  30.315  1.00  0.00    -0.387 OA
ATOM     13  H   UNL     1      -4.903  43.607  30.955  1.00  0.00     0.211 HD
ENDBRANCH   3  12
BRANCH   5  14
ATOM     14  C   UNL     1      -8.996  41.438  29.405  1.00  0.00     0.191 C 
BRANCH  14  15
ATOM     15  O   UNL     1      -9.859  40.846  28.472  1.00  0.00    -0.394 OA
ATOM     16  H   UNL     1     -10.330  41.587  28.010  1.00  0.00     0.210 HD
ENDBRANCH  14  15
ENDBRANCH   5  14
BRANCH   4  17
ATOM     17  O   UNL     1      -6.686  43.818  29.055  1.00  0.00    -0.387 OA
ATOM     18  H   UNL     1      -7.348  44.390  29.522  1.00  0.00     0.211 HD
ENDBRANCH   4  17
TORSDOF 7
ENDMDL
MODEL 5
REMARK VINA RESULT:    -4.632      2.584      3.474
REMARK INTER + INTRA:          -6.297
REMARK INTER:                  -6.156
REMARK INTRA:                  -0.140
REMARK UNBOUND:                -0.311
REMARK SMILES CCO[C@H]1O[C@@H](CO)[C@H](O)[C@H](O)[C@H]1O
REMARK SMILES IDX 4 1 13 2 11 3 9 4 6 5 5 6 3 7 2 8 1 9 14 10 12 12 7 14 8 15
REMARK SMILES IDX 10 17
REMARK H PARENT 14 11 12 13 8 16 10 18
REMARK Flexibility Score: inf
ROOT
ATOM      1  C   UNL     1     -14.111  43.629  38.677  1.00  0.00     0.281 C 
ATOM      2  C   UNL     1     -15.026  44.307  37.605  1.00  0.00     0.202 C 
ATOM      3  C   UNL     1     -14.472  44.054  36.190  1.00  0.00     0.179 C 
ATOM      4  C   UNL     1     -12.989  44.480  36.095  1.00  0.00     0.177 C 
ATOM      5  C   UNL     1     -12.213  44.089  37.390  1.00  0.00     0.178 C 
ATOM      6  O   UNL     1     -12.911  43.096  38.121  1.00  0.00    -0.341 OA
ENDROOT
BRANCH   1   7
ATOM      7  O   UNL     1     -14.810  42.649  39.434  1.00  0.00    -0.350 OA
BRANCH   7   8
ATOM      8  C   UNL     1     -14.110  42.275  40.606  1.00  0.00     0.160 C 
ATOM      9  C   UNL     1     -14.894  41.190  41.327  1.00  0.00     0.035 C 
ENDBRANCH   7   8
ENDBRANCH   1   7
BRANCH   2  10
ATOM     10  O   UNL     1     -16.350  43.841  37.681  1.00  0.00    -0.385 OA
ATOM     11  H   UNL     1     -16.575  43.778  38.646  1.00  0.00     0.211 HD
ENDBRANCH   2  10
BRANCH   3  12
ATOM     12  O   UNL     1     -15.253  44.682  35.202  1.00  0.00    -0.387 OA
ATOM     13  H   UNL     1     -14.646  45.193  34.608  1.00  0.00     0.211 HD
ENDBRANCH   3  12
BRANCH   5  14
ATOM     14  C   UNL     1     -10.812  43.550  37.064  1.00  0.00     0.191 C 
BRANCH  14  15
ATOM     15  O   UNL     1      -9.852  44.069  37.944  1.00  0.00    -0.394 OA
ATOM     16  H   UNL     1      -9.556  44.936  37.563  1.00  0.00     0.210 HD
ENDBRANCH  14  15
ENDBRANCH   5  14
BRANCH   4  17
ATOM     17  O   UNL     1     -12.905  45.870  35.898  1.00  0.00    -0.387 OA
ATOM     18  H   UNL     1     -12.940  46.291  36.796  1.00  0.00     0.211 HD
ENDBRANCH   4  17
TORSDOF 7
ENDMDL
MODEL 6
REMARK VINA RESULT:    -4.604      1.271      3.809
REMARK INTER + INTRA:          -6.261
REMARK INTER:                  -6.056
REMARK INTRA:                  -0.204
REMARK UNBOUND:                -0.311
REMARK SMILES CCO[C@H]1O[C@@H](CO)[C@H](O)[C@H](O)[C@H]1O
REMARK SMILES IDX 4 1 13 2 11 3 9 4 6 5 5 6 3 7 2 8 1 9 14 10 12 12 7 14 8 15
REMARK SMILES IDX 10 17
REMARK H PARENT 14 11 12 13 8 16 10 18
REMARK Flexibility Score: inf
ROOT
ATOM      1  C   UNL     1     -14.335  42.692  38.525  1.00  0.00     0.281 C 
ATOM      2  C   UNL     1     -15.466  41.626  38.687  1.00  0.00     0.202 C 
ATOM      3  C   UNL     1     -16.030  41.656  40.120  1.00  0.00     0.179 C 
ATOM      4  C   UNL     1     -14.896  41.516  41.161  1.00  0.00     0.177 C 
ATOM      5  C   UNL     1     -13.640  42.332  40.729  1.00  0.00     0.178 C 
ATOM      6  O   UNL     1     -13.976  43.309  39.759  1.00  0.00    -0.341 OA
ENDROOT
BRANCH   1   7
ATOM      7  O   UNL     1     -14.652  43.662  37.535  1.00  0.00    -0.350 OA
BRANCH   7   8
ATOM      8  C   UNL     1     -13.529  44.015  36.749  1.00  0.00     0.160 C 
ATOM      9  C   UNL     1     -12.659  42.785  36.545  1.00  0.00     0.035 C 
ENDBRANCH   7   8
ENDBRANCH   1   7
BRANCH   2  10
ATOM     10  O   UNL     1     -16.510  41.829  37.767  1.00  0.00    -0.385 OA
ATOM     11  H   UNL     1     -16.286  42.654  37.261  1.00  0.00     0.211 HD
ENDBRANCH   2  10
BRANCH   3  12
ATOM     12  O   UNL     1     -17.027  40.681  40.310  1.00  0.00    -0.387 OA
ATOM     13  H   UNL     1     -16.845  39.928  39.691  1.00  0.00     0.211 HD
ENDBRANCH   3  12
BRANCH   5  14
ATOM     14  C   UNL     1     -12.994  43.046  41.927  1.00  0.00     0.191 C 
BRANCH  14  15
ATOM     15  O   UNL     1     -11.882  43.801  41.527  1.00  0.00    -0.394 OA
ATOM     16  H   UNL     1     -12.003  43.996  40.561  1.00  0.00     0.210 HD
ENDBRANCH  14  15
ENDBRANCH   5  14
BRANCH   4  17
ATOM     17  O   UNL     1     -14.549  40.161  41.308  1.00  0.00    -0.387 OA
ATOM     18  H   UNL     1     -14.665  39.935  42.266  1.00  0.00     0.211 HD
ENDBRANCH   4  17
TORSDOF 7
ENDMDL
MODEL 7
REMARK VINA RESULT:    -4.490      3.627      6.011
REMARK INTER + INTRA:          -6.114
REMARK INTER:                  -5.767
REMARK INTRA:                  -0.346
REMARK UNBOUND:                -0.311
REMARK SMILES CCO[C@H]1O[C@@H](CO)[C@H](O)[C@H](O)[C@H]1O
REMARK SMILES IDX 4 1 13 2 11 3 9 4 6 5 5 6 3 7 2 8 1 9 14 10 12 12 7 14 8 15
REMARK SMILES IDX 10 17
REMARK H PARENT 14 11 12 13 8 16 10 18
REMARK Flexibility Score: inf
ROOT
ATOM      1  C   UNL     1     -13.214  44.648  35.087  1.00  0.00     0.281 C 
ATOM      2  C   UNL     1     -14.673  44.358  35.567  1.00  0.00     0.202 C 
ATOM      3  C   UNL     1     -14.791  44.576  37.087  1.00  0.00     0.179 C 
ATOM      4  C   UNL     1     -13.719  43.759  37.845  1.00  0.00     0.177 C 
ATOM      5  C   UNL     1     -12.356  43.793  37.087  1.00  0.00     0.178 C 
ATOM      6  O   UNL     1     -12.311  44.870  36.167  1.00  0.00    -0.341 OA
ENDROOT
BRANCH   1   7
ATOM      7  O   UNL     1     -13.162  45.710  34.143  1.00  0.00    -0.350 OA
BRANCH   7   8
ATOM      8  C   UNL     1     -12.092  46.602  34.396  1.00  0.00     0.160 C 
ATOM      9  C   UNL     1     -12.640  48.016  34.504  1.00  0.00     0.035 C 
ENDBRANCH   7   8
ENDBRANCH   1   7
BRANCH   2  10
ATOM     10  O   UNL     1     -15.610  45.169  34.903  1.00  0.00    -0.385 OA
ATOM     11  H   UNL     1     -16.509  44.864  35.196  1.00  0.00     0.211 HD
ENDBRANCH   2  10
BRANCH   3  12
ATOM     12  O   UNL     1     -16.086  44.288  37.558  1.00  0.00    -0.387 OA
ATOM     13  H   UNL     1     -16.000  43.756  38.391  1.00  0.00     0.211 HD
ENDBRANCH   3  12
BRANCH   5  14
ATOM     14  C   UNL     1     -11.176  43.943  38.061  1.00  0.00     0.191 C 
BRANCH  14  15
ATOM     15  O   UNL     1     -11.619  43.971  39.392  1.00  0.00    -0.394 OA
ATOM     16  H   UNL     1     -11.501  44.904  39.711  1.00  0.00     0.210 HD
ENDBRANCH  14  15
ENDBRANCH   5  14
BRANCH   4  17
ATOM     17  O   UNL     1     -14.146  42.426  37.984  1.00  0.00    -0.387 OA
ATOM     18  H   UNL     1     -13.334  41.879  38.142  1.00  0.00     0.211 HD
ENDBRANCH   4  17
TORSDOF 7
ENDMDL
MODEL 8
REMARK VINA RESULT:    -4.464      2.848      4.692
REMARK INTER + INTRA:          -6.079
REMARK INTER:                  -5.676
REMARK INTRA:                  -0.403
REMARK UNBOUND:                -0.311
REMARK SMILES CCO[C@H]1O[C@@H](CO)[C@H](O)[C@H](O)[C@H]1O
REMARK SMILES IDX 4 1 13 2 11 3 9 4 6 5 5 6 3 7 2 8 1 9 14 10 12 12 7 14 8 15
REMARK SMILES IDX 10 17
REMARK H PARENT 14 11 12 13 8 16 10 18
REMARK Flexibility Score: inf
ROOT
ATOM      1  C   UNL     1     -13.549  44.372  37.641  1.00  0.00     0.281 C 
ATOM      2  C   UNL     1     -14.913  44.018  36.963  1.00  0.00     0.202 C 
ATOM      3  C   UNL     1     -14.871  42.589  36.388  1.00  0.00     0.179 C 
ATOM      4  C   UNL     1     -13.652  42.407  35.454  1.00  0.00     0.177 C 
ATOM      5  C   UNL     1     -12.395  43.122  36.036  1.00  0.00     0.178 C 
ATOM      6  O   UNL     1     -12.550  43.380  37.421  1.00  0.00    -0.341 OA
ENDROOT
BRANCH   1   7
ATOM      7  O   UNL     1     -13.699  44.657  39.026  1.00  0.00    -0.350 OA
BRANCH   7   8
ATOM      8  C   UNL     1     -12.869  43.844  39.834  1.00  0.00     0.160 C 
ATOM      9  C   UNL     1     -13.737  42.860  40.603  1.00  0.00     0.035 C 
ENDBRANCH   7   8
ENDBRANCH   1   7
BRANCH   2  10
ATOM     10  O   UNL     1     -15.987  44.130  37.863  1.00  0.00    -0.385 OA
ATOM     11  H   UNL     1     -15.623  44.544  38.689  1.00  0.00     0.211 HD
ENDBRANCH   2  10
BRANCH   3  12
ATOM     12  O   UNL     1     -16.073  42.252  35.737  1.00  0.00    -0.387 OA
ATOM     13  H   UNL     1     -16.800  42.251  36.412  1.00  0.00     0.211 HD
ENDBRANCH   3  12
BRANCH   5  14
ATOM     14  C   UNL     1     -11.127  42.275  35.843  1.00  0.00     0.191 C 
BRANCH  14  15
ATOM     15  O   UNL     1     -11.387  41.150  35.047  1.00  0.00    -0.394 OA
ATOM     16  H   UNL     1     -11.932  40.531  35.599  1.00  0.00     0.210 HD
ENDBRANCH  14  15
ENDBRANCH   5  14
BRANCH   4  17
ATOM     17  O   UNL     1     -13.944  42.930  34.182  1.00  0.00    -0.387 OA
ATOM     18  H   UNL     1     -13.081  43.019  33.702  1.00  0.00     0.211 HD
ENDBRANCH   4  17
TORSDOF 7
ENDMDL
