MODEL 1
REMARK VINA RESULT:    -3.388      0.000      0.000
REMARK INTER + INTRA:          -4.179
REMARK INTER:                  -4.081
REMARK INTRA:                  -0.098
REMARK UNBOUND:                -0.098
REMARK SMILES CC[C@@H](C)[C@H]([NH3+])C(=O)[O-]
REMARK SMILES IDX 3 1 4 2 5 3 6 4 7 8 8 9 9 10 2 11 1 12
REMARK H PARENT 6 5 6 6 6 7
REMARK Flexibility Score: inf
ROOT
ATOM      1  C   UNL     1      27.521  14.467 -15.739  1.00  0.00     0.050 C 
ATOM      2  C   UNL     1      26.387  13.654 -15.086  1.00  0.00     0.014 C 
ENDROOT
BRANCH   1   3
ATOM      3  C   UNL     1      26.937  15.481 -16.772  1.00  0.00     0.230 C 
BRANCH   3   4
ATOM      4  N   UNL     1      25.795  16.228 -16.225  1.00  0.00    -0.350 N 
ATOM      5  H   UNL     1      25.333  16.768 -16.994  1.00  0.00     0.345 HD
ATOM      6  H   UNL     1      26.124  16.910 -15.504  1.00  0.00     0.345 HD
ATOM      7  H   UNL     1      25.084  15.593 -15.798  1.00  0.00     0.345 HD
ENDBRANCH   3   4
BRANCH   3   8
ATOM      8  C   UNL     1      26.568  14.824 -18.082  1.00  0.00     0.099 C 
ATOM      9  O   UNL     1      25.362  14.775 -18.443  1.00  0.00    -0.544 OA
ATOM     10  O   UNL     1      27.550  14.299 -18.914  1.00  0.00    -0.544 OA
ENDBRANCH   3   8
ENDBRANCH   1   3
BRANCH   1  11
ATOM     11  C   UNL     1      28.416  15.140 -14.665  1.00  0.00     0.006 C 
ATOM     12  C   UNL     1      27.971  14.822 -13.236  1.00  0.00     0.004 C 
ENDBRANCH   1  11
TORSDOF 4
ENDMDL
MODEL 2
REMARK VINA RESULT:    -3.152      4.511      5.374
REMARK INTER + INTRA:          -3.895
REMARK INTER:                  -3.836
REMARK INTRA:                  -0.059
REMARK UNBOUND:                -0.098
REMARK SMILES CC[C@@H](C)[C@H]([NH3+])C(=O)[O-]
REMARK SMILES IDX 3 1 4 2 5 3 6 4 7 8 8 9 9 10 2 11 1 12
REMARK H PARENT 6 5 6 6 6 7
REMARK Flexibility Score: inf
ROOT
ATOM      1  C   UNL     1      27.749  14.246 -13.691  1.00  0.00     0.050 C 
ATOM      2  C   UNL     1      27.045  12.997 -14.256  1.00  0.00     0.014 C 
ENDROOT
BRANCH   1   3
ATOM      3  C   UNL     1      29.017  13.834 -12.879  1.00  0.00     0.230 C 
BRANCH   3   4
ATOM      4  N   UNL     1      29.095  12.379 -12.680  1.00  0.00    -0.350 N 
ATOM      5  H   UNL     1      29.835  12.165 -11.972  1.00  0.00     0.345 HD
ATOM      6  H   UNL     1      29.358  11.907 -13.575  1.00  0.00     0.345 HD
ATOM      7  H   UNL     1      28.190  11.985 -12.337  1.00  0.00     0.345 HD
ENDBRANCH   3   4
BRANCH   3   8
ATOM      8  C   UNL     1      29.119  14.560 -11.558  1.00  0.00     0.099 C 
ATOM      9  O   UNL     1      28.388  15.560 -11.332  1.00  0.00    -0.544 OA
ATOM     10  O   UNL     1      29.991  14.115 -10.570  1.00  0.00    -0.544 OA
ENDBRANCH   3   8
ENDBRANCH   1   3
BRANCH   1  11
ATOM     11  C   UNL     1      28.052  15.272 -14.814  1.00  0.00     0.006 C 
ATOM     12  C   UNL     1      26.982  15.292 -15.907  1.00  0.00     0.004 C 
ENDBRANCH   1  11
TORSDOF 4
ENDMDL
MODEL 3
REMARK VINA RESULT:    -3.151      2.420      3.122
REMARK INTER + INTRA:          -3.894
REMARK INTER:                  -3.809
REMARK INTRA:                  -0.085
REMARK UNBOUND:                -0.098
REMARK SMILES CC[C@@H](C)[C@H]([NH3+])C(=O)[O-]
REMARK SMILES IDX 3 1 4 2 5 3 6 4 7 8 8 9 9 10 2 11 1 12
REMARK H PARENT 6 5 6 6 6 7
REMARK Flexibility Score: inf
ROOT
ATOM      1  C   UNL     1      28.659  14.033 -12.998  1.00  0.00     0.050 C 
ATOM      2  C   UNL     1      27.458  13.073 -12.896  1.00  0.00     0.014 C 
ENDROOT
BRANCH   1   3
ATOM      3  C   UNL     1      28.711  14.690 -14.414  1.00  0.00     0.230 C 
BRANCH   3   4
ATOM      4  N   UNL     1      27.669  15.714 -14.583  1.00  0.00    -0.350 N 
ATOM      5  H   UNL     1      27.976  16.601 -14.120  1.00  0.00     0.345 HD
ATOM      6  H   UNL     1      26.781  15.402 -14.126  1.00  0.00     0.345 HD
ATOM      7  H   UNL     1      27.485  15.917 -15.591  1.00  0.00     0.345 HD
ENDBRANCH   3   4
BRANCH   3   8
ATOM      8  C   UNL     1      28.645  13.671 -15.527  1.00  0.00     0.099 C 
ATOM      9  O   UNL     1      27.733  13.744 -16.393  1.00  0.00    -0.544 OA
ATOM     10  O   UNL     1      29.602  12.668 -15.628  1.00  0.00    -0.544 OA
ENDBRANCH   3   8
ENDBRANCH   1   3
BRANCH   1  11
ATOM     11  C   UNL     1      28.644  15.071 -11.845  1.00  0.00     0.006 C 
ATOM     12  C   UNL     1      28.382  14.438 -10.477  1.00  0.00     0.004 C 
ENDBRANCH   1  11
TORSDOF 4
ENDMDL
MODEL 4
REMARK VINA RESULT:    -3.136     15.735     16.262
REMARK INTER + INTRA:          -3.875
REMARK INTER:                  -3.836
REMARK INTRA:                  -0.039
REMARK UNBOUND:                -0.098
REMARK SMILES CC[C@@H](C)[C@H]([NH3+])C(=O)[O-]
REMARK SMILES IDX 3 1 4 2 5 3 6 4 7 8 8 9 9 10 2 11 1 12
REMARK H PARENT 6 5 6 6 6 7
REMARK Flexibility Score: inf
ROOT
ATOM      1  C   UNL     1      37.375  26.651 -13.126  1.00  0.00     0.050 C 
ATOM      2  C   UNL     1      37.713  25.929 -11.807  1.00  0.00     0.014 C 
ENDROOT
BRANCH   1   3
ATOM      3  C   UNL     1      36.354  27.804 -12.868  1.00  0.00     0.230 C 
BRANCH   3   4
ATOM      4  N   UNL     1      35.671  27.654 -11.575  1.00  0.00    -0.350 N 
ATOM      5  H   UNL     1      35.365  28.595 -11.233  1.00  0.00     0.345 HD
ATOM      6  H   UNL     1      36.327  27.252 -10.866  1.00  0.00     0.345 HD
ATOM      7  H   UNL     1      34.827  27.042 -11.649  1.00  0.00     0.345 HD
ENDBRANCH   3   4
BRANCH   3   8
ATOM      8  C   UNL     1      35.350  27.948 -13.988  1.00  0.00     0.099 C 
ATOM      9  O   UNL     1      34.133  27.702 -13.778  1.00  0.00    -0.544 OA
ATOM     10  O   UNL     1      35.750  28.383 -15.246  1.00  0.00    -0.544 OA
ENDBRANCH   3   8
ENDBRANCH   1   3
BRANCH   1  11
ATOM     11  C   UNL     1      38.664  27.130 -13.845  1.00  0.00     0.006 C 
ATOM     12  C   UNL     1      39.871  26.233 -13.564  1.00  0.00     0.004 C 
ENDBRANCH   1  11
TORSDOF 4
ENDMDL
MODEL 5
REMARK VINA RESULT:    -3.133      9.395     10.423
REMARK INTER + INTRA:          -3.872
REMARK INTER:                  -3.737
REMARK INTRA:                  -0.134
REMARK UNBOUND:                -0.098
REMARK SMILES CC[C@@H](C)[C@H]([NH3+])C(=O)[O-]
REMARK SMILES IDX 3 1 4 2 5 3 6 4 7 8 8 9 9 10 2 11 1 12
REMARK H PARENT 6 5 6 6 6 7
REMARK Flexibility Score: inf
ROOT
ATOM      1  C   UNL     1      31.499  20.524 -22.779  1.00  0.00     0.050 C 
ATOM      2  C   UNL     1      30.263  19.671 -22.437  1.00  0.00     0.014 C 
ENDROOT
BRANCH   1   3
ATOM      3  C   UNL     1      32.311  20.847 -21.486  1.00  0.00     0.230 C 
BRANCH   3   4
ATOM      4  N   UNL     1      31.606  20.414 -20.271  1.00  0.00    -0.350 N 
ATOM      5  H   UNL     1      31.452  21.240 -19.646  1.00  0.00     0.345 HD
ATOM      6  H   UNL     1      32.186  19.718 -19.747  1.00  0.00     0.345 HD
ATOM      7  H   UNL     1      30.677  19.991 -20.491  1.00  0.00     0.345 HD
ENDBRANCH   3   4
BRANCH   3   8
ATOM      8  C   UNL     1      32.691  22.306 -21.391  1.00  0.00     0.099 C 
ATOM      9  O   UNL     1      32.687  22.887 -20.273  1.00  0.00    -0.544 OA
ATOM     10  O   UNL     1      33.080  23.012 -22.524  1.00  0.00    -0.544 OA
ENDBRANCH   3   8
ENDBRANCH   1   3
BRANCH   1  11
ATOM     11  C   UNL     1      32.356  19.847 -23.882  1.00  0.00     0.006 C 
ATOM     12  C   UNL     1      33.640  19.220 -23.337  1.00  0.00     0.004 C 
ENDBRANCH   1  11
TORSDOF 4
ENDMDL
MODEL 6
REMARK VINA RESULT:    -3.106     16.035     16.510
REMARK INTER + INTRA:          -3.839
REMARK INTER:                  -3.750
REMARK INTRA:                  -0.090
REMARK UNBOUND:                -0.098
REMARK SMILES CC[C@@H](C)[C@H]([NH3+])C(=O)[O-]
REMARK SMILES IDX 3 1 4 2 5 3 6 4 7 8 8 9 9 10 2 11 1 12
REMARK H PARENT 6 5 6 6 6 7
REMARK Flexibility Score: inf
ROOT
ATOM      1  C   UNL     1      37.636  27.682 -13.693  1.00  0.00     0.050 C 
ATOM      2  C   UNL     1      38.743  28.459 -14.431  1.00  0.00     0.014 C 
ENDROOT
BRANCH   1   3
ATOM      3  C   UNL     1      36.280  27.809 -14.458  1.00  0.00     0.230 C 
BRANCH   3   4
ATOM      4  N   UNL     1      36.357  28.785 -15.554  1.00  0.00    -0.350 N 
ATOM      5  H   UNL     1      35.422  28.860 -16.019  1.00  0.00     0.345 HD
ATOM      6  H   UNL     1      37.048  28.467 -16.272  1.00  0.00     0.345 HD
ATOM      7  H   UNL     1      36.629  29.734 -15.212  1.00  0.00     0.345 HD
ENDBRANCH   3   4
BRANCH   3   8
ATOM      8  C   UNL     1      35.125  28.129 -13.538  1.00  0.00     0.099 C 
ATOM      9  O   UNL     1      34.088  28.676 -13.997  1.00  0.00    -0.544 OA
ATOM     10  O   UNL     1      35.179  27.794 -12.190  1.00  0.00    -0.544 OA
ENDBRANCH   3   8
ENDBRANCH   1   3
BRANCH   1  11
ATOM     11  C   UNL     1      38.058  26.210 -13.444  1.00  0.00     0.006 C 
ATOM     12  C   UNL     1      37.990  25.813 -11.968  1.00  0.00     0.004 C 
ENDBRANCH   1  11
TORSDOF 4
ENDMDL
MODEL 7
REMARK VINA RESULT:    -3.068     15.591     16.366
REMARK INTER + INTRA:          -3.793
REMARK INTER:                  -3.649
REMARK INTRA:                  -0.145
REMARK UNBOUND:                -0.098
REMARK SMILES CC[C@@H](C)[C@H]([NH3+])C(=O)[O-]
REMARK SMILES IDX 3 1 4 2 5 3 6 4 7 8 8 9 9 10 2 11 1 12
REMARK H PARENT 6 5 6 6 6 7
REMARK Flexibility Score: inf
ROOT
ATOM      1  C   UNL     1      37.177  27.243 -13.858  1.00  0.00     0.050 C 
ATOM      2  C   UNL     1      37.714  26.335 -12.736  1.00  0.00     0.014 C 
ENDROOT
BRANCH   1   3
ATOM      3  C   UNL     1      35.947  28.061 -13.353  1.00  0.00     0.230 C 
BRANCH   3   4
ATOM      4  N   UNL     1      35.550  27.674 -11.991  1.00  0.00    -0.350 N 
ATOM      5  H   UNL     1      34.527  27.453 -11.977  1.00  0.00     0.345 HD
ATOM      6  H   UNL     1      35.718  28.467 -11.329  1.00  0.00     0.345 HD
ATOM      7  H   UNL     1      36.073  26.833 -11.659  1.00  0.00     0.345 HD
ENDBRANCH   3   4
BRANCH   3   8
ATOM      8  C   UNL     1      34.769  27.977 -14.296  1.00  0.00     0.099 C 
ATOM      9  O   UNL     1      33.645  27.606 -13.867  1.00  0.00    -0.544 OA
ATOM     10  O   UNL     1      34.904  28.338 -15.632  1.00  0.00    -0.544 OA
ENDBRANCH   3   8
ENDBRANCH   1   3
BRANCH   1  11
ATOM     11  C   UNL     1      38.304  28.136 -14.441  1.00  0.00     0.006 C 
ATOM     12  C   UNL     1      38.199  29.595 -13.993  1.00  0.00     0.004 C 
ENDBRANCH   1  11
TORSDOF 4
ENDMDL
MODEL 8
REMARK VINA RESULT:    -3.045      9.730     10.790
REMARK INTER + INTRA:          -3.766
REMARK INTER:                  -3.639
REMARK INTRA:                  -0.127
REMARK UNBOUND:                -0.098
REMARK SMILES CC[C@@H](C)[C@H]([NH3+])C(=O)[O-]
REMARK SMILES IDX 3 1 4 2 5 3 6 4 7 8 8 9 9 10 2 11 1 12
REMARK H PARENT 6 5 6 6 6 7
REMARK Flexibility Score: inf
ROOT
ATOM      1  C   UNL     1      33.005  20.079 -22.872  1.00  0.00     0.050 C 
ATOM      2  C   UNL     1      34.317  19.753 -23.612  1.00  0.00     0.014 C 
ENDROOT
BRANCH   1   3
ATOM      3  C   UNL     1      33.013  21.561 -22.381  1.00  0.00     0.230 C 
BRANCH   3   4
ATOM      4  N   UNL     1      34.325  22.197 -22.570  1.00  0.00    -0.350 N 
ATOM      5  H   UNL     1      34.950  21.550 -23.105  1.00  0.00     0.345 HD
ATOM      6  H   UNL     1      34.771  22.383 -21.643  1.00  0.00     0.345 HD
ATOM      7  H   UNL     1      34.249  23.093 -23.102  1.00  0.00     0.345 HD
ENDBRANCH   3   4
BRANCH   3   8
ATOM      8  C   UNL     1      32.555  21.698 -20.948  1.00  0.00     0.099 C 
ATOM      9  O   UNL     1      32.546  22.830 -20.395  1.00  0.00    -0.544 OA
ATOM     10  O   UNL     1      32.107  20.590 -20.238  1.00  0.00    -0.544 OA
ENDBRANCH   3   8
ENDBRANCH   1   3
BRANCH   1  11
ATOM     11  C   UNL     1      31.771  19.734 -23.746  1.00  0.00     0.006 C 
ATOM     12  C   UNL     1      30.799  18.778 -23.051  1.00  0.00     0.004 C 
ENDBRANCH   1  11
TORSDOF 4
ENDMDL
MODEL 9
REMARK VINA RESULT:    -2.982     15.943     16.795
REMARK INTER + INTRA:          -3.690
REMARK INTER:                  -3.586
REMARK INTRA:                  -0.105
REMARK UNBOUND:                -0.098
REMARK SMILES CC[C@@H](C)[C@H]([NH3+])C(=O)[O-]
REMARK SMILES IDX 3 1 4 2 5 3 6 4 7 8 8 9 9 10 2 11 1 12
REMARK H PARENT 6 5 6 6 6 7
REMARK Flexibility Score: inf
ROOT
ATOM      1  C   UNL     1      35.300  28.854 -14.161  1.00  0.00     0.050 C 
ATOM      2  C   UNL     1      34.570  27.582 -14.631  1.00  0.00     0.014 C 
ENDROOT
BRANCH   1   3
ATOM      3  C   UNL     1      36.614  28.479 -13.406  1.00  0.00     0.230 C 
BRANCH   3   4
ATOM      4  N   UNL     1      37.604  27.858 -14.298  1.00  0.00    -0.350 N 
ATOM      5  H   UNL     1      38.530  27.815 -13.812  1.00  0.00     0.345 HD
ATOM      6  H   UNL     1      37.720  28.434 -15.163  1.00  0.00     0.345 HD
ATOM      7  H   UNL     1      37.329  26.886 -14.566  1.00  0.00     0.345 HD
ENDBRANCH   3   4
BRANCH   3   8
ATOM      8  C   UNL     1      36.358  27.604 -12.200  1.00  0.00     0.099 C 
ATOM      9  O   UNL     1      37.057  26.574 -12.011  1.00  0.00    -0.544 OA
ATOM     10  O   UNL     1      35.379  27.943 -11.274  1.00  0.00    -0.544 OA
ENDBRANCH   3   8
ENDBRANCH   1   3
BRANCH   1  11
ATOM     11  C   UNL     1      35.536  29.831 -15.344  1.00  0.00     0.006 C 
ATOM     12  C   UNL     1      35.175  29.222 -16.700  1.00  0.00     0.004 C 
ENDBRANCH   1  11
TORSDOF 4
ENDMDL
