MODEL 1
REMARK VINA RESULT:    -1.928      0.000      0.000
REMARK INTER + INTRA:          -2.308
REMARK INTER:                  -2.266
REMARK INTRA:                  -0.042
REMARK UNBOUND:                -0.042
REMARK SMILES CCCCC(=O)[O-]
REMARK SMILES IDX 4 1 5 2 6 3 7 4 3 5 2 6 1 7
REMARK H PARENT
REMARK Flexibility Score: inf
ROOT
ATOM      1  C   UNL     1     -10.448   6.731 -14.735  1.00  0.00     0.053 C 
ENDROOT
BRANCH   1   2
ATOM      2  C   UNL     1      -9.884   6.471 -16.098  1.00  0.00     0.041 C 
ATOM      3  O   UNL     1     -10.544   5.808 -16.941  1.00  0.00    -0.550 OA
ATOM      4  O   UNL     1      -8.615   6.933 -16.427  1.00  0.00    -0.550 OA
ENDBRANCH   1   2
BRANCH   1   5
ATOM      5  C   UNL     1     -11.930   7.124 -14.798  1.00  0.00     0.006 C 
BRANCH   5   6
ATOM      6  C   UNL     1     -12.802   6.250 -13.886  1.00  0.00    -0.003 C 
ATOM      7  C   UNL     1     -14.248   6.737 -13.875  1.00  0.00     0.004 C 
ENDBRANCH   5   6
ENDBRANCH   1   5
TORSDOF 3
ENDMDL
MODEL 2
REMARK VINA RESULT:    -1.694      7.805      9.122
REMARK INTER + INTRA:          -2.033
REMARK INTER:                  -1.966
REMARK INTRA:                  -0.067
REMARK UNBOUND:                -0.042
REMARK SMILES CCCCC(=O)[O-]
REMARK SMILES IDX 4 1 5 2 6 3 7 4 3 5 2 6 1 7
REMARK H PARENT
REMARK Flexibility Score: inf
ROOT
ATOM      1  C   UNL     1     -20.102   4.490 -16.753  1.00  0.00     0.053 C 
ENDROOT
BRANCH   1   2
ATOM      2  C   UNL     1     -19.769   4.271 -15.309  1.00  0.00     0.041 C 
ATOM      3  O   UNL     1     -19.140   5.151 -14.664  1.00  0.00    -0.550 OA
ATOM      4  O   UNL     1     -20.125   3.082 -14.684  1.00  0.00    -0.550 OA
ENDBRANCH   1   2
BRANCH   1   5
ATOM      5  C   UNL     1     -19.690   5.891 -17.227  1.00  0.00     0.006 C 
BRANCH   5   6
ATOM      6  C   UNL     1     -18.543   5.845 -18.247  1.00  0.00    -0.003 C 
ATOM      7  C   UNL     1     -17.509   6.930 -17.960  1.00  0.00     0.004 C 
ENDBRANCH   5   6
ENDBRANCH   1   5
TORSDOF 3
ENDMDL
MODEL 3
REMARK VINA RESULT:    -1.518      7.450      8.150
REMARK INTER + INTRA:          -1.826
REMARK INTER:                  -1.771
REMARK INTRA:                  -0.055
REMARK UNBOUND:                -0.042
REMARK SMILES CCCCC(=O)[O-]
REMARK SMILES IDX 4 1 5 2 6 3 7 4 3 5 2 6 1 7
REMARK H PARENT
REMARK Flexibility Score: inf
ROOT
ATOM      1  C   UNL     1     -19.544   6.193 -16.814  1.00  0.00     0.053 C 
ENDROOT
BRANCH   1   2
ATOM      2  C   UNL     1     -18.539   6.125 -17.923  1.00  0.00     0.041 C 
ATOM      3  O   UNL     1     -18.576   5.180 -18.755  1.00  0.00    -0.550 OA
ATOM      4  O   UNL     1     -17.542   7.088 -18.020  1.00  0.00    -0.550 OA
ENDBRANCH   1   2
BRANCH   1   5
ATOM      5  C   UNL     1     -19.998   4.795 -16.372  1.00  0.00     0.006 C 
BRANCH   5   6
ATOM      6  C   UNL     1     -19.900   4.608 -14.851  1.00  0.00    -0.003 C 
ATOM      7  C   UNL     1     -18.675   5.321 -14.287  1.00  0.00     0.004 C 
ENDBRANCH   5   6
ENDBRANCH   1   5
TORSDOF 3
ENDMDL
MODEL 4
REMARK VINA RESULT:    -1.342      7.822      8.326
REMARK INTER + INTRA:          -1.620
REMARK INTER:                  -1.522
REMARK INTRA:                  -0.098
REMARK UNBOUND:                -0.042
REMARK SMILES CCCCC(=O)[O-]
REMARK SMILES IDX 4 1 5 2 6 3 7 4 3 5 2 6 1 7
REMARK H PARENT
REMARK Flexibility Score: inf
ROOT
ATOM      1  C   UNL     1     -19.967   5.982 -16.778  1.00  0.00     0.053 C 
ENDROOT
BRANCH   1   2
ATOM      2  C   UNL     1     -18.711   6.117 -17.583  1.00  0.00     0.041 C 
ATOM      3  O   UNL     1     -17.842   6.971 -17.263  1.00  0.00    -0.550 OA
ATOM      4  O   UNL     1     -18.514   5.322 -18.706  1.00  0.00    -0.550 OA
ENDBRANCH   1   2
BRANCH   1   5
ATOM      5  C   UNL     1     -20.022   4.644 -16.028  1.00  0.00     0.006 C 
BRANCH   5   6
ATOM      6  C   UNL     1     -19.404   4.740 -14.625  1.00  0.00    -0.003 C 
ATOM      7  C   UNL     1     -19.649   6.115 -14.009  1.00  0.00     0.004 C 
ENDBRANCH   5   6
ENDBRANCH   1   5
TORSDOF 3
ENDMDL
MODEL 5
REMARK VINA RESULT:    -1.280     10.586     10.976
REMARK INTER + INTRA:          -1.547
REMARK INTER:                  -1.480
REMARK INTRA:                  -0.067
REMARK UNBOUND:                -0.042
REMARK SMILES CCCCC(=O)[O-]
REMARK SMILES IDX 4 1 5 2 6 3 7 4 3 5 2 6 1 7
REMARK H PARENT
REMARK Flexibility Score: inf
ROOT
ATOM      1  C   UNL     1     -19.164   0.278 -15.558  1.00  0.00     0.053 C 
ENDROOT
BRANCH   1   2
ATOM      2  C   UNL     1     -19.778  -1.087 -15.498  1.00  0.00     0.041 C 
ATOM      3  O   UNL     1     -20.033  -1.713 -16.560  1.00  0.00    -0.550 OA
ATOM      4  O   UNL     1     -20.097  -1.654 -14.270  1.00  0.00    -0.550 OA
ENDBRANCH   1   2
BRANCH   1   5
ATOM      5  C   UNL     1     -19.183   0.972 -14.190  1.00  0.00     0.006 C 
BRANCH   5   6
ATOM      6  C   UNL     1     -20.102   2.203 -14.176  1.00  0.00    -0.003 C 
ATOM      7  C   UNL     1     -20.125   2.887 -15.540  1.00  0.00     0.004 C 
ENDBRANCH   5   6
ENDBRANCH   1   5
TORSDOF 3
ENDMDL
MODEL 6
REMARK VINA RESULT:    -1.144     22.523     23.151
REMARK INTER + INTRA:          -1.386
REMARK INTER:                  -1.288
REMARK INTRA:                  -0.098
REMARK UNBOUND:                -0.042
REMARK SMILES CCCCC(=O)[O-]
REMARK SMILES IDX 4 1 5 2 6 3 7 4 3 5 2 6 1 7
REMARK H PARENT
REMARK Flexibility Score: inf
ROOT
ATOM      1  C   UNL     1     -15.935 -10.941 -29.007  1.00  0.00     0.053 C 
ENDROOT
BRANCH   1   2
ATOM      2  C   UNL     1     -14.648 -10.495 -29.631  1.00  0.00     0.041 C 
ATOM      3  O   UNL     1     -14.339 -10.879 -30.789  1.00  0.00    -0.550 OA
ATOM      4  O   UNL     1     -13.774  -9.681 -28.919  1.00  0.00    -0.550 OA
ENDBRANCH   1   2
BRANCH   1   5
ATOM      5  C   UNL     1     -16.973 -11.337 -30.065  1.00  0.00     0.006 C 
BRANCH   5   6
ATOM      6  C   UNL     1     -17.872 -10.159 -30.467  1.00  0.00    -0.003 C 
ATOM      7  C   UNL     1     -17.467  -9.597 -31.827  1.00  0.00     0.004 C 
ENDBRANCH   5   6
ENDBRANCH   1   5
TORSDOF 3
ENDMDL
MODEL 7
REMARK VINA RESULT:    -1.061      7.148      8.304
REMARK INTER + INTRA:          -1.290
REMARK INTER:                  -1.171
REMARK INTRA:                  -0.119
REMARK UNBOUND:                -0.042
REMARK SMILES CCCCC(=O)[O-]
REMARK SMILES IDX 4 1 5 2 6 3 7 4 3 5 2 6 1 7
REMARK H PARENT
REMARK Flexibility Score: inf
ROOT
ATOM      1  C   UNL     1     -19.616   4.853 -15.097  1.00  0.00     0.053 C 
ENDROOT
BRANCH   1   2
ATOM      2  C   UNL     1     -19.762   5.376 -16.493  1.00  0.00     0.041 C 
ATOM      3  O   UNL     1     -19.698   4.589 -17.474  1.00  0.00    -0.550 OA
ATOM      4  O   UNL     1     -19.936   6.737 -16.712  1.00  0.00    -0.550 OA
ENDBRANCH   1   2
BRANCH   1   5
ATOM      5  C   UNL     1     -19.019   5.906 -14.153  1.00  0.00     0.006 C 
BRANCH   5   6
ATOM      6  C   UNL     1     -17.484   5.865 -14.135  1.00  0.00    -0.003 C 
ATOM      7  C   UNL     1     -16.892   7.117 -14.777  1.00  0.00     0.004 C 
ENDBRANCH   5   6
ENDBRANCH   1   5
TORSDOF 3
ENDMDL
MODEL 8
REMARK VINA RESULT:    -0.976     22.599     23.432
REMARK INTER + INTRA:          -1.190
REMARK INTER:                  -1.144
REMARK INTRA:                  -0.046
REMARK UNBOUND:                -0.042
REMARK SMILES CCCCC(=O)[O-]
REMARK SMILES IDX 4 1 5 2 6 3 7 4 3 5 2 6 1 7
REMARK H PARENT
REMARK Flexibility Score: inf
ROOT
ATOM      1  C   UNL     1     -16.231 -10.766 -30.724  1.00  0.00     0.053 C 
ENDROOT
BRANCH   1   2
ATOM      2  C   UNL     1     -17.467  -9.972 -31.017  1.00  0.00     0.041 C 
ATOM      3  O   UNL     1     -18.425  -9.968 -30.200  1.00  0.00    -0.550 OA
ATOM      4  O   UNL     1     -17.573  -9.262 -32.207  1.00  0.00    -0.550 OA
ENDBRANCH   1   2
BRANCH   1   5
ATOM      5  C   UNL     1     -15.747 -10.556 -29.283  1.00  0.00     0.006 C 
BRANCH   5   6
ATOM      6  C   UNL     1     -14.265 -10.156 -29.220  1.00  0.00    -0.003 C 
ATOM      7  C   UNL     1     -13.533 -10.555 -30.498  1.00  0.00     0.004 C 
ENDBRANCH   5   6
ENDBRANCH   1   5
TORSDOF 3
ENDMDL
