MODEL 1
REMARK VINA RESULT:    -5.331      0.000      0.000
REMARK INTER + INTRA:          -7.898
REMARK INTER:                  -7.200
REMARK INTRA:                  -0.698
REMARK UNBOUND:                -0.698
REMARK SMILES CC(=O)CCC=C(C)CCC=C(C)C
REMARK SMILES IDX 7 1 6 2 8 3 9 4 10 5 11 6 13 7 12 8 14 9 5 10 4 11 2 12 3 13
REMARK SMILES IDX 1 14
REMARK H PARENT
REMARK Flexibility Score: inf
ROOT
ATOM      1  C   UNL     1      12.977  18.874  58.481  1.00  0.00    -0.077 C 
ATOM      2  C   UNL     1      11.756  19.000  57.914  1.00  0.00    -0.028 C 
ATOM      3  C   UNL     1      13.185  18.119  59.772  1.00  0.00     0.039 C 
ENDROOT
BRANCH   1   4
ATOM      4  C   UNL     1      14.188  19.444  57.769  1.00  0.00     0.034 C 
BRANCH   4   5
ATOM      5  C   UNL     1      14.744  18.468  56.724  1.00  0.00     0.032 C 
BRANCH   5   6
ATOM      6  C   UNL     1      14.494  18.948  55.313  1.00  0.00    -0.028 C 
ATOM      7  C   UNL     1      13.394  16.813  54.601  1.00  0.00     0.039 C 
ATOM      8  C   UNL     1      13.917  18.206  54.342  1.00  0.00    -0.080 C 
ATOM      9  C   UNL     1      13.782  18.808  52.967  1.00  0.00     0.039 C 
ENDBRANCH   5   6
ENDBRANCH   4   5
ENDBRANCH   1   4
BRANCH   2  10
ATOM     10  C   UNL     1      10.476  18.484  58.521  1.00  0.00     0.035 C 
BRANCH  10  11
ATOM     11  C   UNL     1       9.667  19.629  59.139  1.00  0.00     0.079 C 
BRANCH  11  12
ATOM     12  C   UNL     1       9.070  19.206  60.456  1.00  0.00     0.130 C 
ATOM     13  O   UNL     1       8.274  18.280  60.485  1.00  0.00    -0.300 OA
ATOM     14  C   UNL     1       9.441  19.890  61.739  1.00  0.00     0.087 C 
ENDBRANCH  11  12
ENDBRANCH  10  11
ENDBRANCH   2  10
TORSDOF 6
ENDMDL
MODEL 2
REMARK VINA RESULT:    -5.124      2.967      6.727
REMARK INTER + INTRA:          -7.618
REMARK INTER:                  -6.964
REMARK INTRA:                  -0.655
REMARK UNBOUND:                -0.698
REMARK SMILES CC(=O)CCC=C(C)CCC=C(C)C
REMARK SMILES IDX 7 1 6 2 8 3 9 4 10 5 11 6 13 7 12 8 14 9 5 10 4 11 2 12 3 13
REMARK SMILES IDX 1 14
REMARK H PARENT
REMARK Flexibility Score: inf
ROOT
ATOM      1  C   UNL     1      12.581  18.937  57.083  1.00  0.00    -0.077 C 
ATOM      2  C   UNL     1      12.911  18.479  55.854  1.00  0.00    -0.028 C 
ATOM      3  C   UNL     1      13.624  19.212  58.140  1.00  0.00     0.039 C 
ENDROOT
BRANCH   1   4
ATOM      4  C   UNL     1      11.132  19.253  57.392  1.00  0.00     0.034 C 
BRANCH   4   5
ATOM      5  C   UNL     1      10.522  18.231  58.362  1.00  0.00     0.032 C 
BRANCH   5   6
ATOM      6  C   UNL     1      10.258  18.831  59.723  1.00  0.00    -0.028 C 
ATOM      7  C   UNL     1       7.775  18.556  59.550  1.00  0.00     0.039 C 
ATOM      8  C   UNL     1       9.030  19.011  60.257  1.00  0.00    -0.080 C 
ATOM      9  C   UNL     1       8.926  19.670  61.607  1.00  0.00     0.039 C 
ENDBRANCH   5   6
ENDBRANCH   4   5
ENDBRANCH   1   4
BRANCH   2  10
ATOM     10  C   UNL     1      14.312  18.124  55.423  1.00  0.00     0.035 C 
BRANCH  10  11
ATOM     11  C   UNL     1      14.946  19.272  54.632  1.00  0.00     0.079 C 
BRANCH  11  12
ATOM     12  C   UNL     1      16.125  19.842  55.375  1.00  0.00     0.130 C 
ATOM     13  O   UNL     1      16.472  20.993  55.160  1.00  0.00    -0.300 OA
ATOM     14  C   UNL     1      16.879  19.030  56.387  1.00  0.00     0.087 C 
ENDBRANCH  11  12
ENDBRANCH  10  11
ENDBRANCH   2  10
TORSDOF 6
ENDMDL
MODEL 3
REMARK VINA RESULT:    -5.120      3.264      6.711
REMARK INTER + INTRA:          -7.614
REMARK INTER:                  -7.056
REMARK INTRA:                  -0.558
REMARK UNBOUND:                -0.698
REMARK SMILES CC(=O)CCC=C(C)CCC=C(C)C
REMARK SMILES IDX 7 1 6 2 8 3 9 4 10 5 11 6 13 7 12 8 14 9 5 10 4 11 2 12 3 13
REMARK SMILES IDX 1 14
REMARK H PARENT
REMARK Flexibility Score: inf
ROOT
ATOM      1  C   UNL     1      11.628  18.623  58.223  1.00  0.00    -0.077 C 
ATOM      2  C   UNL     1      12.940  18.848  58.466  1.00  0.00    -0.028 C 
ATOM      3  C   UNL     1      11.095  18.430  56.824  1.00  0.00     0.039 C 
ENDROOT
BRANCH   1   4
ATOM      4  C   UNL     1      10.671  18.490  59.391  1.00  0.00     0.034 C 
BRANCH   4   5
ATOM      5  C   UNL     1       9.470  19.435  59.252  1.00  0.00     0.032 C 
BRANCH   5   6
ATOM      6  C   UNL     1       8.183  18.784  59.699  1.00  0.00    -0.028 C 
ATOM      7  C   UNL     1       7.388  18.357  57.362  1.00  0.00     0.039 C 
ATOM      8  C   UNL     1       7.226  18.322  58.864  1.00  0.00    -0.080 C 
ATOM      9  C   UNL     1       5.972  17.741  59.463  1.00  0.00     0.039 C 
ENDBRANCH   5   6
ENDBRANCH   4   5
ENDBRANCH   1   4
BRANCH   2  10
ATOM     10  C   UNL     1      13.990  19.006  57.396  1.00  0.00     0.035 C 
BRANCH  10  11
ATOM     11  C   UNL     1      15.181  19.815  57.918  1.00  0.00     0.079 C 
BRANCH  11  12
ATOM     12  C   UNL     1      16.127  20.154  56.796  1.00  0.00     0.130 C 
ATOM     13  O   UNL     1      16.323  21.324  56.507  1.00  0.00    -0.300 OA
ATOM     14  C   UNL     1      16.846  19.083  56.029  1.00  0.00     0.087 C 
ENDBRANCH  11  12
ENDBRANCH  10  11
ENDBRANCH   2  10
TORSDOF 6
ENDMDL
MODEL 4
REMARK VINA RESULT:    -4.906     11.075     12.233
REMARK INTER + INTRA:          -7.324
REMARK INTER:                  -6.296
REMARK INTRA:                  -1.028
REMARK UNBOUND:                -0.698
REMARK SMILES CC(=O)CCC=C(C)CCC=C(C)C
REMARK SMILES IDX 7 1 6 2 8 3 9 4 10 5 11 6 13 7 12 8 14 9 5 10 4 11 2 12 3 13
REMARK SMILES IDX 1 14
REMARK H PARENT
REMARK Flexibility Score: inf
ROOT
ATOM      1  C   UNL     1      21.082  11.085  52.792  1.00  0.00    -0.077 C 
ATOM      2  C   UNL     1      20.425  10.360  53.726  1.00  0.00    -0.028 C 
ATOM      3  C   UNL     1      21.606  10.464  51.520  1.00  0.00     0.039 C 
ENDROOT
BRANCH   1   4
ATOM      4  C   UNL     1      21.238  12.579  52.989  1.00  0.00     0.034 C 
BRANCH   4   5
ATOM      5  C   UNL     1      19.878  13.288  53.060  1.00  0.00     0.032 C 
BRANCH   5   6
ATOM      6  C   UNL     1      19.519  13.955  51.753  1.00  0.00    -0.028 C 
ATOM      7  C   UNL     1      17.995  12.102  51.032  1.00  0.00     0.039 C 
ATOM      8  C   UNL     1      18.700  13.421  50.820  1.00  0.00    -0.080 C 
ATOM      9  C   UNL     1      18.478  14.186  49.541  1.00  0.00     0.039 C 
ENDBRANCH   5   6
ENDBRANCH   4   5
ENDBRANCH   1   4
BRANCH   2  10
ATOM     10  C   UNL     1      20.207   8.870  53.652  1.00  0.00     0.035 C 
BRANCH  10  11
ATOM     11  C   UNL     1      18.814   8.550  53.101  1.00  0.00     0.079 C 
BRANCH  11  12
ATOM     12  C   UNL     1      17.839   8.317  54.225  1.00  0.00     0.130 C 
ATOM     13  O   UNL     1      18.119   7.523  55.109  1.00  0.00    -0.300 OA
ATOM     14  C   UNL     1      16.532   9.052  54.291  1.00  0.00     0.087 C 
ENDBRANCH  11  12
ENDBRANCH  10  11
ENDBRANCH   2  10
TORSDOF 6
ENDMDL
MODEL 5
REMARK VINA RESULT:    -4.890      2.969      6.689
REMARK INTER + INTRA:          -7.303
REMARK INTER:                  -6.645
REMARK INTRA:                  -0.657
REMARK UNBOUND:                -0.698
REMARK SMILES CC(=O)CCC=C(C)CCC=C(C)C
REMARK SMILES IDX 7 1 6 2 8 3 9 4 10 5 11 6 13 7 12 8 14 9 5 10 4 11 2 12 3 13
REMARK SMILES IDX 1 14
REMARK H PARENT
REMARK Flexibility Score: inf
ROOT
ATOM      1  C   UNL     1      10.525  19.949  58.554  1.00  0.00    -0.077 C 
ATOM      2  C   UNL     1      11.440  18.957  58.468  1.00  0.00    -0.028 C 
ATOM      3  C   UNL     1      10.426  21.039  57.514  1.00  0.00     0.039 C 
ENDROOT
BRANCH   1   4
ATOM      4  C   UNL     1       9.519  19.932  59.687  1.00  0.00     0.034 C 
BRANCH   4   5
ATOM      5  C   UNL     1       8.985  18.518  59.952  1.00  0.00     0.032 C 
BRANCH   5   6
ATOM      6  C   UNL     1       7.482  18.501  60.107  1.00  0.00    -0.028 C 
ATOM      7  C   UNL     1       7.064  18.110  57.669  1.00  0.00     0.039 C 
ATOM      8  C   UNL     1       6.607  18.349  59.089  1.00  0.00    -0.080 C 
ATOM      9  C   UNL     1       5.133  18.404  59.397  1.00  0.00     0.039 C 
ENDBRANCH   5   6
ENDBRANCH   4   5
ENDBRANCH   1   4
BRANCH   2  10
ATOM     10  C   UNL     1      12.497  18.862  57.396  1.00  0.00     0.035 C 
BRANCH  10  11
ATOM     11  C   UNL     1      13.885  19.157  57.972  1.00  0.00     0.079 C 
BRANCH  11  12
ATOM     12  C   UNL     1      14.935  19.078  56.895  1.00  0.00     0.130 C 
ATOM     13  O   UNL     1      16.074  19.447  57.138  1.00  0.00    -0.300 OA
ATOM     14  C   UNL     1      14.617  18.542  55.530  1.00  0.00     0.087 C 
ENDBRANCH  11  12
ENDBRANCH  10  11
ENDBRANCH   2  10
TORSDOF 6
ENDMDL
MODEL 6
REMARK VINA RESULT:    -4.859      1.617      3.139
REMARK INTER + INTRA:          -7.260
REMARK INTER:                  -6.576
REMARK INTRA:                  -0.685
REMARK UNBOUND:                -0.698
REMARK SMILES CC(=O)CCC=C(C)CCC=C(C)C
REMARK SMILES IDX 7 1 6 2 8 3 9 4 10 5 11 6 13 7 12 8 14 9 5 10 4 11 2 12 3 13
REMARK SMILES IDX 1 14
REMARK H PARENT
REMARK Flexibility Score: inf
ROOT
ATOM      1  C   UNL     1      11.571  17.272  55.304  1.00  0.00    -0.077 C 
ATOM      2  C   UNL     1      11.135  18.278  56.097  1.00  0.00    -0.028 C 
ATOM      3  C   UNL     1      10.666  16.140  54.877  1.00  0.00     0.039 C 
ENDROOT
BRANCH   1   4
ATOM      4  C   UNL     1      12.987  17.313  54.767  1.00  0.00     0.034 C 
BRANCH   4   5
ATOM      5  C   UNL     1      13.519  18.750  54.677  1.00  0.00     0.032 C 
BRANCH   5   6
ATOM      6  C   UNL     1      14.966  18.844  55.102  1.00  0.00    -0.028 C 
ATOM      7  C   UNL     1      14.408  19.391  57.482  1.00  0.00     0.039 C 
ATOM      8  C   UNL     1      15.380  19.161  56.349  1.00  0.00    -0.080 C 
ATOM      9  C   UNL     1      16.861  19.264  56.607  1.00  0.00     0.039 C 
ENDBRANCH   5   6
ENDBRANCH   4   5
ENDBRANCH   1   4
BRANCH   2  10
ATOM     10  C   UNL     1       9.754  18.352  56.699  1.00  0.00     0.035 C 
BRANCH  10  11
ATOM     11  C   UNL     1       9.808  18.944  58.111  1.00  0.00     0.079 C 
BRANCH  11  12
ATOM     12  C   UNL     1       8.618  18.499  58.919  1.00  0.00     0.130 C 
ATOM     13  O   UNL     1       7.607  18.125  58.345  1.00  0.00    -0.300 OA
ATOM     14  C   UNL     1       8.649  18.491  60.419  1.00  0.00     0.087 C 
ENDBRANCH  11  12
ENDBRANCH  10  11
ENDBRANCH   2  10
TORSDOF 6
ENDMDL
MODEL 7
REMARK VINA RESULT:    -4.831      8.071      9.871
REMARK INTER + INTRA:          -7.223
REMARK INTER:                  -5.720
REMARK INTRA:                  -1.503
REMARK UNBOUND:                -0.698
REMARK SMILES CC(=O)CCC=C(C)CCC=C(C)C
REMARK SMILES IDX 7 1 6 2 8 3 9 4 10 5 11 6 13 7 12 8 14 9 5 10 4 11 2 12 3 13
REMARK SMILES IDX 1 14
REMARK H PARENT
REMARK Flexibility Score: inf
ROOT
ATOM      1  C   UNL     1       5.069  25.399  54.140  1.00  0.00    -0.077 C 
ATOM      2  C   UNL     1       5.499  25.283  52.863  1.00  0.00    -0.028 C 
ATOM      3  C   UNL     1       4.099  24.416  54.750  1.00  0.00     0.039 C 
ENDROOT
BRANCH   1   4
ATOM      4  C   UNL     1       5.629  26.506  55.011  1.00  0.00     0.034 C 
BRANCH   4   5
ATOM      5  C   UNL     1       7.128  26.315  55.279  1.00  0.00     0.032 C 
BRANCH   5   6
ATOM      6  C   UNL     1       7.403  25.076  56.099  1.00  0.00    -0.028 C 
ATOM      7  C   UNL     1       8.741  23.972  54.292  1.00  0.00     0.039 C 
ATOM      8  C   UNL     1       8.099  24.005  55.659  1.00  0.00    -0.080 C 
ATOM      9  C   UNL     1       8.248  22.821  56.579  1.00  0.00     0.039 C 
ENDBRANCH   5   6
ENDBRANCH   4   5
ENDBRANCH   1   4
BRANCH   2  10
ATOM     10  C   UNL     1       5.018  24.233  51.893  1.00  0.00     0.035 C 
BRANCH  10  11
ATOM     11  C   UNL     1       6.067  23.131  51.720  1.00  0.00     0.079 C 
BRANCH  11  12
ATOM     12  C   UNL     1       5.601  21.848  52.358  1.00  0.00     0.130 C 
ATOM     13  O   UNL     1       4.821  21.126  51.756  1.00  0.00    -0.300 OA
ATOM     14  C   UNL     1       6.084  21.429  53.715  1.00  0.00     0.087 C 
ENDBRANCH  11  12
ENDBRANCH  10  11
ENDBRANCH   2  10
TORSDOF 6
ENDMDL
MODEL 8
REMARK VINA RESULT:    -4.799      5.027      6.933
REMARK INTER + INTRA:          -7.180
REMARK INTER:                  -6.360
REMARK INTRA:                  -0.821
REMARK UNBOUND:                -0.698
REMARK SMILES CC(=O)CCC=C(C)CCC=C(C)C
REMARK SMILES IDX 7 1 6 2 8 3 9 4 10 5 11 6 13 7 12 8 14 9 5 10 4 11 2 12 3 13
REMARK SMILES IDX 1 14
REMARK H PARENT
REMARK Flexibility Score: inf
ROOT
ATOM      1  C   UNL     1       9.631  21.815  56.519  1.00  0.00    -0.077 C 
ATOM      2  C   UNL     1       8.669  22.741  56.732  1.00  0.00    -0.028 C 
ATOM      3  C   UNL     1       9.817  21.150  55.175  1.00  0.00     0.039 C 
ENDROOT
BRANCH   1   4
ATOM      4  C   UNL     1      10.599  21.481  57.636  1.00  0.00     0.034 C 
BRANCH   4   5
ATOM      5  C   UNL     1      10.700  19.967  57.866  1.00  0.00     0.032 C 
BRANCH   5   6
ATOM      6  C   UNL     1       9.852  19.514  59.031  1.00  0.00    -0.028 C 
ATOM      7  C   UNL     1       8.053  18.563  57.570  1.00  0.00     0.039 C 
ATOM      8  C   UNL     1       8.648  18.910  58.915  1.00  0.00    -0.080 C 
ATOM      9  C   UNL     1       7.898  18.562  60.173  1.00  0.00     0.039 C 
ENDBRANCH   5   6
ENDBRANCH   4   5
ENDBRANCH   1   4
BRANCH   2  10
ATOM     10  C   UNL     1       7.643  23.158  55.708  1.00  0.00     0.035 C 
BRANCH  10  11
ATOM     11  C   UNL     1       8.102  24.411  54.957  1.00  0.00     0.079 C 
BRANCH  11  12
ATOM     12  C   UNL     1       7.017  25.456  54.954  1.00  0.00     0.130 C 
ATOM     13  O   UNL     1       6.251  25.525  54.005  1.00  0.00    -0.300 OA
ATOM     14  C   UNL     1       6.846  26.410  56.100  1.00  0.00     0.087 C 
ENDBRANCH  11  12
ENDBRANCH  10  11
ENDBRANCH   2  10
TORSDOF 6
ENDMDL
MODEL 9
REMARK VINA RESULT:    -4.789      2.911      6.467
REMARK INTER + INTRA:          -7.167
REMARK INTER:                  -6.143
REMARK INTRA:                  -1.023
REMARK UNBOUND:                -0.698
REMARK SMILES CC(=O)CCC=C(C)CCC=C(C)C
REMARK SMILES IDX 7 1 6 2 8 3 9 4 10 5 11 6 13 7 12 8 14 9 5 10 4 11 2 12 3 13
REMARK SMILES IDX 1 14
REMARK H PARENT
REMARK Flexibility Score: inf
ROOT
ATOM      1  C   UNL     1      11.052  18.774  57.840  1.00  0.00    -0.077 C 
ATOM      2  C   UNL     1      10.870  17.934  56.795  1.00  0.00    -0.028 C 
ATOM      3  C   UNL     1      11.562  20.183  57.654  1.00  0.00     0.039 C 
ENDROOT
BRANCH   1   4
ATOM      4  C   UNL     1      10.668  18.318  59.233  1.00  0.00     0.034 C 
BRANCH   4   5
ATOM      5  C   UNL     1       9.584  19.214  59.845  1.00  0.00     0.032 C 
BRANCH   5   6
ATOM      6  C   UNL     1       8.271  18.483  60.006  1.00  0.00    -0.028 C 
ATOM      7  C   UNL     1       7.399  19.209  57.773  1.00  0.00     0.039 C 
ATOM      8  C   UNL     1       7.270  18.496  59.099  1.00  0.00    -0.080 C 
ATOM      9  C   UNL     1       5.998  17.758  59.425  1.00  0.00     0.039 C 
ENDBRANCH   5   6
ENDBRANCH   4   5
ENDBRANCH   1   4
BRANCH   2  10
ATOM     10  C   UNL     1      11.216  18.263  55.365  1.00  0.00     0.035 C 
BRANCH  10  11
ATOM     11  C   UNL     1      12.438  17.465  54.903  1.00  0.00     0.079 C 
BRANCH  11  12
ATOM     12  C   UNL     1      13.664  18.340  54.870  1.00  0.00     0.130 C 
ATOM     13  O   UNL     1      13.896  19.012  53.877  1.00  0.00    -0.300 OA
ATOM     14  C   UNL     1      14.602  18.416  56.039  1.00  0.00     0.087 C 
ENDBRANCH  11  12
ENDBRANCH  10  11
ENDBRANCH   2  10
TORSDOF 6
ENDMDL
