MODEL 1
REMARK VINA RESULT:    -4.144      0.000      0.000
REMARK INTER + INTRA:          -5.173
REMARK INTER:                  -5.113
REMARK INTRA:                  -0.060
REMARK UNBOUND:                -0.060
REMARK SMILES CCCCCC(=O)[O-]
REMARK SMILES IDX 4 1 5 2 6 3 7 4 8 5 3 6 2 7 1 8
REMARK H PARENT
REMARK Flexibility Score: inf
ROOT
ATOM      1  C   UNL     1      20.801 -21.640  15.061  1.00  0.00     0.006 C 
ENDROOT
BRANCH   1   2
ATOM      2  C   UNL     1      19.608 -20.706  14.796  1.00  0.00     0.053 C 
BRANCH   2   3
ATOM      3  C   UNL     1      19.984 -19.257  14.848  1.00  0.00     0.041 C 
ATOM      4  O   UNL     1      20.023 -18.649  15.951  1.00  0.00    -0.550 OA
ATOM      5  O   UNL     1      20.261 -18.567  13.674  1.00  0.00    -0.550 OA
ENDBRANCH   2   3
ENDBRANCH   1   2
BRANCH   1   6
ATOM      6  C   UNL     1      20.444 -23.137  15.026  1.00  0.00     0.000 C 
BRANCH   6   7
ATOM      7  C   UNL     1      19.946 -23.605  13.651  1.00  0.00    -0.003 C 
ATOM      8  C   UNL     1      20.542 -24.961  13.283  1.00  0.00     0.004 C 
ENDBRANCH   6   7
ENDBRANCH   1   6
TORSDOF 4
ENDMDL
MODEL 2
REMARK VINA RESULT:    -3.947      2.981      4.772
REMARK INTER + INTRA:          -4.930
REMARK INTER:                  -4.870
REMARK INTRA:                  -0.060
REMARK UNBOUND:                -0.060
REMARK SMILES CCCCCC(=O)[O-]
REMARK SMILES IDX 4 1 5 2 6 3 7 4 8 5 3 6 2 7 1 8
REMARK H PARENT
REMARK Flexibility Score: inf
ROOT
ATOM      1  C   UNL     1      20.832 -21.646  14.821  1.00  0.00     0.006 C 
ENDROOT
BRANCH   1   2
ATOM      2  C   UNL     1      20.467 -23.103  15.154  1.00  0.00     0.053 C 
BRANCH   2   3
ATOM      3  C   UNL     1      20.118 -23.905  13.938  1.00  0.00     0.041 C 
ATOM      4  O   UNL     1      19.136 -23.578  13.220  1.00  0.00    -0.550 OA
ATOM      5  O   UNL     1      20.858 -25.035  13.614  1.00  0.00    -0.550 OA
ENDBRANCH   2   3
ENDBRANCH   1   2
BRANCH   1   6
ATOM      6  C   UNL     1      19.665 -20.655  14.987  1.00  0.00     0.000 C 
BRANCH   6   7
ATOM      7  C   UNL     1      20.051 -19.209  14.645  1.00  0.00    -0.003 C 
ATOM      8  C   UNL     1      19.992 -18.316  15.882  1.00  0.00     0.004 C 
ENDBRANCH   6   7
ENDBRANCH   1   6
TORSDOF 4
ENDMDL
MODEL 3
REMARK VINA RESULT:    -3.670      2.828      4.140
REMARK INTER + INTRA:          -4.589
REMARK INTER:                  -4.526
REMARK INTRA:                  -0.062
REMARK UNBOUND:                -0.060
REMARK SMILES CCCCCC(=O)[O-]
REMARK SMILES IDX 4 1 5 2 6 3 7 4 8 5 3 6 2 7 1 8
REMARK H PARENT
REMARK Flexibility Score: inf
ROOT
ATOM      1  C   UNL     1      20.879 -25.435  13.319  1.00  0.00     0.006 C 
ENDROOT
BRANCH   1   2
ATOM      2  C   UNL     1      20.031 -24.202  12.961  1.00  0.00     0.053 C 
BRANCH   2   3
ATOM      3  C   UNL     1      20.144 -23.107  13.977  1.00  0.00     0.041 C 
ATOM      4  O   UNL     1      21.065 -23.128  14.835  1.00  0.00    -0.550 OA
ATOM      5  O   UNL     1      19.211 -22.078  13.997  1.00  0.00    -0.550 OA
ENDBRANCH   2   3
ENDBRANCH   1   2
BRANCH   1   6
ATOM      6  C   UNL     1      20.258 -26.772  12.875  1.00  0.00     0.000 C 
BRANCH   6   7
ATOM      7  C   UNL     1      21.254 -27.940  12.915  1.00  0.00    -0.003 C 
ATOM      8  C   UNL     1      21.633 -28.291  14.351  1.00  0.00     0.004 C 
ENDBRANCH   6   7
ENDBRANCH   1   6
TORSDOF 4
ENDMDL
MODEL 4
REMARK VINA RESULT:    -2.876     15.355     16.466
REMARK INTER + INTRA:          -3.609
REMARK INTER:                  -3.529
REMARK INTRA:                  -0.080
REMARK UNBOUND:                -0.060
REMARK SMILES CCCCCC(=O)[O-]
REMARK SMILES IDX 4 1 5 2 6 3 7 4 8 5 3 6 2 7 1 8
REMARK H PARENT
REMARK Flexibility Score: inf
ROOT
ATOM      1  C   UNL     1       8.858 -32.609  15.323  1.00  0.00     0.006 C 
ENDROOT
BRANCH   1   2
ATOM      2  C   UNL     1       7.708 -32.886  16.307  1.00  0.00     0.053 C 
BRANCH   2   3
ATOM      3  C   UNL     1       8.115 -32.705  17.738  1.00  0.00     0.041 C 
ATOM      4  O   UNL     1       9.155 -32.056  18.026  1.00  0.00    -0.550 OA
ATOM      5  O   UNL     1       7.362 -33.282  18.753  1.00  0.00    -0.550 OA
ENDBRANCH   2   3
ENDBRANCH   1   2
BRANCH   1   6
ATOM      6  C   UNL     1       8.501 -32.886  13.851  1.00  0.00     0.000 C 
BRANCH   6   7
ATOM      7  C   UNL     1       9.614 -32.477  12.875  1.00  0.00    -0.003 C 
ATOM      8  C   UNL     1      10.971 -32.436  13.574  1.00  0.00     0.004 C 
ENDBRANCH   6   7
ENDBRANCH   1   6
TORSDOF 4
ENDMDL
MODEL 5
REMARK VINA RESULT:    -2.822     16.694     17.630
REMARK INTER + INTRA:          -3.542
REMARK INTER:                  -3.313
REMARK INTRA:                  -0.228
REMARK UNBOUND:                -0.060
REMARK SMILES CCCCCC(=O)[O-]
REMARK SMILES IDX 4 1 5 2 6 3 7 4 8 5 3 6 2 7 1 8
REMARK H PARENT
REMARK Flexibility Score: inf
ROOT
ATOM      1  C   UNL     1       7.343 -34.317  17.945  1.00  0.00     0.006 C 
ENDROOT
BRANCH   1   2
ATOM      2  C   UNL     1       7.387 -32.779  17.930  1.00  0.00     0.053 C 
BRANCH   2   3
ATOM      3  C   UNL     1       8.744 -32.243  17.588  1.00  0.00     0.041 C 
ATOM      4  O   UNL     1       9.500 -31.800  18.494  1.00  0.00    -0.550 OA
ATOM      5  O   UNL     1       9.162 -32.201  16.264  1.00  0.00    -0.550 OA
ENDBRANCH   2   3
ENDBRANCH   1   2
BRANCH   1   6
ATOM      6  C   UNL     1       6.656 -34.934  16.712  1.00  0.00     0.000 C 
BRANCH   6   7
ATOM      7  C   UNL     1       5.876 -33.907  15.880  1.00  0.00    -0.003 C 
ATOM      8  C   UNL     1       6.366 -33.884  14.435  1.00  0.00     0.004 C 
ENDBRANCH   6   7
ENDBRANCH   1   6
TORSDOF 4
ENDMDL
MODEL 6
REMARK VINA RESULT:    -2.796     16.323     17.277
REMARK INTER + INTRA:          -3.510
REMARK INTER:                  -3.375
REMARK INTRA:                  -0.135
REMARK UNBOUND:                -0.060
REMARK SMILES CCCCCC(=O)[O-]
REMARK SMILES IDX 4 1 5 2 6 3 7 4 8 5 3 6 2 7 1 8
REMARK H PARENT
REMARK Flexibility Score: inf
ROOT
ATOM      1  C   UNL     1       7.296 -33.233  15.555  1.00  0.00     0.006 C 
ENDROOT
BRANCH   1   2
ATOM      2  C   UNL     1       6.814 -32.493  16.816  1.00  0.00     0.053 C 
BRANCH   2   3
ATOM      3  C   UNL     1       7.582 -32.879  18.042  1.00  0.00     0.041 C 
ATOM      4  O   UNL     1       7.296 -33.935  18.667  1.00  0.00    -0.550 OA
ATOM      5  O   UNL     1       8.595 -32.054  18.516  1.00  0.00    -0.550 OA
ENDBRANCH   2   3
ENDBRANCH   1   2
BRANCH   1   6
ATOM      6  C   UNL     1       8.715 -32.841  15.104  1.00  0.00     0.000 C 
BRANCH   6   7
ATOM      7  C   UNL     1       8.864 -32.779  13.578  1.00  0.00    -0.003 C 
ATOM      8  C   UNL     1       7.501 -32.792  12.890  1.00  0.00     0.004 C 
ENDBRANCH   6   7
ENDBRANCH   1   6
TORSDOF 4
ENDMDL
MODEL 7
REMARK VINA RESULT:    -2.778     22.589     23.545
REMARK INTER + INTRA:          -3.488
REMARK INTER:                  -3.318
REMARK INTRA:                  -0.170
REMARK UNBOUND:                -0.060
REMARK SMILES CCCCCC(=O)[O-]
REMARK SMILES IDX 4 1 5 2 6 3 7 4 8 5 3 6 2 7 1 8
REMARK H PARENT
REMARK Flexibility Score: inf
ROOT
ATOM      1  C   UNL     1      15.496 -36.902  32.720  1.00  0.00     0.006 C 
ENDROOT
BRANCH   1   2
ATOM      2  C   UNL     1      15.932 -36.904  31.245  1.00  0.00     0.053 C 
BRANCH   2   3
ATOM      3  C   UNL     1      16.238 -35.531  30.730  1.00  0.00     0.041 C 
ATOM      4  O   UNL     1      17.102 -35.367  29.828  1.00  0.00    -0.550 OA
ATOM      5  O   UNL     1      15.590 -34.426  31.269  1.00  0.00    -0.550 OA
ENDBRANCH   2   3
ENDBRANCH   1   2
BRANCH   1   6
ATOM      6  C   UNL     1      14.199 -37.686  32.990  1.00  0.00     0.000 C 
BRANCH   6   7
ATOM      7  C   UNL     1      12.957 -37.027  32.372  1.00  0.00    -0.003 C 
ATOM      8  C   UNL     1      12.237 -37.987  31.429  1.00  0.00     0.004 C 
ENDBRANCH   6   7
ENDBRANCH   1   6
TORSDOF 4
ENDMDL
MODEL 8
REMARK VINA RESULT:    -2.776     16.837     17.852
REMARK INTER + INTRA:          -3.486
REMARK INTER:                  -3.253
REMARK INTRA:                  -0.233
REMARK UNBOUND:                -0.060
REMARK SMILES CCCCCC(=O)[O-]
REMARK SMILES IDX 4 1 5 2 6 3 7 4 8 5 3 6 2 7 1 8
REMARK H PARENT
REMARK Flexibility Score: inf
ROOT
ATOM      1  C   UNL     1       7.274 -32.859  15.603  1.00  0.00     0.006 C 
ENDROOT
BRANCH   1   2
ATOM      2  C   UNL     1       8.607 -32.917  16.370  1.00  0.00     0.053 C 
BRANCH   2   3
ATOM      3  C   UNL     1       8.462 -32.533  17.811  1.00  0.00     0.041 C 
ATOM      4  O   UNL     1       7.460 -32.913  18.473  1.00  0.00    -0.550 OA
ATOM      5  O   UNL     1       9.418 -31.727  18.416  1.00  0.00    -0.550 OA
ENDBRANCH   2   3
ENDBRANCH   1   2
BRANCH   1   6
ATOM      6  C   UNL     1       6.805 -34.222  15.061  1.00  0.00     0.000 C 
BRANCH   6   7
ATOM      7  C   UNL     1       5.930 -34.996  16.058  1.00  0.00    -0.003 C 
ATOM      8  C   UNL     1       6.705 -36.151  16.687  1.00  0.00     0.004 C 
ENDBRANCH   6   7
ENDBRANCH   1   6
TORSDOF 4
ENDMDL
MODEL 9
REMARK VINA RESULT:    -2.736     16.682     17.632
REMARK INTER + INTRA:          -3.436
REMARK INTER:                  -3.239
REMARK INTRA:                  -0.197
REMARK UNBOUND:                -0.060
REMARK SMILES CCCCCC(=O)[O-]
REMARK SMILES IDX 4 1 5 2 6 3 7 4 8 5 3 6 2 7 1 8
REMARK H PARENT
REMARK Flexibility Score: inf
ROOT
ATOM      1  C   UNL     1       7.308 -32.862  16.621  1.00  0.00     0.006 C 
ENDROOT
BRANCH   1   2
ATOM      2  C   UNL     1       8.691 -32.527  16.034  1.00  0.00     0.053 C 
BRANCH   2   3
ATOM      3  C   UNL     1       8.796 -32.856  14.576  1.00  0.00     0.041 C 
ATOM      4  O   UNL     1       7.757 -32.998  13.879  1.00  0.00    -0.550 OA
ATOM      5  O   UNL     1      10.044 -33.038  13.993  1.00  0.00    -0.550 OA
ENDBRANCH   2   3
ENDBRANCH   1   2
BRANCH   1   6
ATOM      6  C   UNL     1       7.352 -33.857  17.795  1.00  0.00     0.000 C 
BRANCH   6   7
ATOM      7  C   UNL     1       7.244 -35.321  17.347  1.00  0.00    -0.003 C 
ATOM      8  C   UNL     1       6.200 -35.484  16.245  1.00  0.00     0.004 C 
ENDBRANCH   6   7
ENDBRANCH   1   6
TORSDOF 4
ENDMDL
