MODEL 1
REMARK VINA RESULT:    20.816      0.000      0.000
REMARK INTER + INTRA:          31.965
REMARK INTER:                  31.768
REMARK INTRA:                   0.197
REMARK UNBOUND:                 0.197
REMARK SMILES OC[C@@H]1O[C@H](O[C@@]2(CO)O[C@H](CO)[C@H](O)[C@@H]2O)[C@H](O)[C@@H](O)[C@H]1O
REMARK SMILES IDX 6 1 5 2 3 3 22 4 4 5 20 6 18 7 2 8 1 9 23 11 21 13 19 15
REMARK SMILES IDX 7 17 16 18 10 19 14 20 11 21 8 22 9 23 17 25 15 27 12 29
REMARK SMILES IDX 13 30
REMARK H PARENT 1 10 23 12 21 14 19 16 9 24 17 26 15 28 13 31
REMARK Flexibility Score: inf
ROOT
ATOM      1  O   UNL     1     -11.845   8.687 -32.825  1.00  0.00    -0.313 OA
ENDROOT
BRANCH   1   2
ATOM      2  C   UNL     1     -12.977   8.951 -33.649  1.00  0.00     0.285 C 
ATOM      3  C   UNL     1     -13.997   6.803 -33.345  1.00  0.00     0.178 C 
ATOM      4  C   UNL     1     -15.116   7.390 -32.451  1.00  0.00     0.177 C 
ATOM      5  O   UNL     1     -13.452   7.754 -34.256  1.00  0.00    -0.341 OA
ATOM      6  C   UNL     1     -14.649   8.693 -31.779  1.00  0.00     0.179 C 
ATOM      7  C   UNL     1     -14.078   9.654 -32.833  1.00  0.00     0.202 C 
BRANCH   3   8
ATOM      8  C   UNL     1     -12.911   6.040 -32.559  1.00  0.00     0.191 C 
BRANCH   8   9
ATOM      9  O   UNL     1     -13.248   4.682 -32.478  1.00  0.00    -0.394 OA
ATOM     10  H   UNL     1     -14.062   4.566 -33.033  1.00  0.00     0.210 HD
ENDBRANCH   8   9
ENDBRANCH   3   8
BRANCH   4  11
ATOM     11  O   UNL     1     -16.247   7.633 -33.251  1.00  0.00    -0.387 OA
ATOM     12  H   UNL     1     -16.464   8.599 -33.168  1.00  0.00     0.211 HD
ENDBRANCH   4  11
BRANCH   6  13
ATOM     13  O   UNL     1     -15.691   9.290 -31.044  1.00  0.00    -0.387 OA
ATOM     14  H   UNL     1     -16.062   8.610 -30.424  1.00  0.00     0.211 HD
ENDBRANCH   6  13
BRANCH   7  15
ATOM     15  O   UNL     1     -13.561  10.792 -32.193  1.00  0.00    -0.385 OA
ATOM     16  H   UNL     1     -13.772  11.569 -32.776  1.00  0.00     0.211 HD
ENDBRANCH   7  15
ENDBRANCH   1   2
BRANCH   1  17
ATOM     17  C   UNL     1     -10.741   9.570 -33.011  1.00  0.00     0.224 C 
ATOM     18  C   UNL     1     -11.193  11.059 -33.132  1.00  0.00     0.208 C 
ATOM     19  O   UNL     1     -10.148   9.215 -34.250  1.00  0.00    -0.337 OA
ATOM     20  C   UNL     1     -10.460  11.578 -34.348  1.00  0.00     0.180 C 
ATOM     21  C   UNL     1     -10.309  10.289 -35.150  1.00  0.00     0.179 C 
BRANCH  17  22
ATOM     22  C   UNL     1      -9.665   9.308 -31.925  1.00  0.00     0.225 C 
BRANCH  22  23
ATOM     23  O   UNL     1      -8.875  10.449 -31.728  1.00  0.00    -0.391 OA
ATOM     24  H   UNL     1      -7.934  10.135 -31.706  1.00  0.00     0.210 HD
ENDBRANCH  22  23
ENDBRANCH  17  22
BRANCH  18  25
ATOM     25  O   UNL     1     -11.014  11.839 -31.971  1.00  0.00    -0.385 OA
ATOM     26  H   UNL     1     -10.440  11.347 -31.332  1.00  0.00     0.211 HD
ENDBRANCH  18  25
BRANCH  20  27
ATOM     27  O   UNL     1      -9.210  12.118 -33.996  1.00  0.00    -0.387 OA
ATOM     28  H   UNL     1      -8.577  11.874 -34.720  1.00  0.00     0.211 HD
ENDBRANCH  20  27
BRANCH  21  29
ATOM     29  C   UNL     1      -9.165  10.307 -36.173  1.00  0.00     0.191 C 
BRANCH  29  30
ATOM     30  O   UNL     1      -9.057  11.570 -36.771  1.00  0.00    -0.394 OA
ATOM     31  H   UNL     1      -8.593  12.148 -36.111  1.00  0.00     0.210 HD
ENDBRANCH  29  30
ENDBRANCH  21  29
ENDBRANCH   1  17
TORSDOF 13
ENDMDL
MODEL 2
REMARK VINA RESULT:    21.795      1.473      6.085
REMARK INTER + INTRA:          33.460
REMARK INTER:                  33.148
REMARK INTRA:                   0.312
REMARK UNBOUND:                 0.197
REMARK SMILES OC[C@@H]1O[C@H](O[C@@]2(CO)O[C@H](CO)[C@H](O)[C@@H]2O)[C@H](O)[C@@H](O)[C@H]1O
REMARK SMILES IDX 6 1 5 2 3 3 22 4 4 5 20 6 18 7 2 8 1 9 23 11 21 13 19 15
REMARK SMILES IDX 7 17 16 18 10 19 14 20 11 21 8 22 9 23 17 25 15 27 12 29
REMARK SMILES IDX 13 30
REMARK H PARENT 1 10 23 12 21 14 19 16 9 24 17 26 15 28 13 31
REMARK Flexibility Score: inf
ROOT
ATOM      1  O   UNL     1     -12.424   9.714 -32.903  1.00  0.00    -0.313 OA
ENDROOT
BRANCH   1   2
ATOM      2  C   UNL     1     -11.214   9.477 -33.616  1.00  0.00     0.285 C 
ATOM      3  C   UNL     1     -11.244  11.549 -34.824  1.00  0.00     0.178 C 
ATOM      4  C   UNL     1     -10.074  12.125 -33.990  1.00  0.00     0.177 C 
ATOM      5  O   UNL     1     -11.239  10.124 -34.884  1.00  0.00    -0.341 OA
ATOM      6  C   UNL     1     -10.003  11.447 -32.611  1.00  0.00     0.179 C 
ATOM      7  C   UNL     1     -10.003   9.920 -32.772  1.00  0.00     0.202 C 
BRANCH   3   8
ATOM      8  C   UNL     1     -12.623  12.124 -34.440  1.00  0.00     0.191 C 
BRANCH   8   9
ATOM      9  O   UNL     1     -12.769  12.116 -33.045  1.00  0.00    -0.394 OA
ATOM     10  H   UNL     1     -13.689  12.438 -32.862  1.00  0.00     0.210 HD
ENDBRANCH   8   9
ENDBRANCH   3   8
BRANCH   4  11
ATOM     11  O   UNL     1      -8.876  11.917 -34.697  1.00  0.00    -0.387 OA
ATOM     12  H   UNL     1      -8.143  12.312 -34.155  1.00  0.00     0.211 HD
ENDBRANCH   4  11
BRANCH   6  13
ATOM     13  O   UNL     1      -8.882  11.891 -31.882  1.00  0.00    -0.387 OA
ATOM     14  H   UNL     1      -9.191  12.186 -30.986  1.00  0.00     0.211 HD
ENDBRANCH   6  13
BRANCH   7  15
ATOM     15  O   UNL     1     -10.044   9.318 -31.505  1.00  0.00    -0.385 OA
ATOM     16  H   UNL     1     -10.980   9.018 -31.360  1.00  0.00     0.211 HD
ENDBRANCH   7  15
ENDBRANCH   1   2
BRANCH   1  17
ATOM     17  C   UNL     1     -13.161   8.543 -32.555  1.00  0.00     0.224 C 
ATOM     18  C   UNL     1     -14.040   8.029 -33.737  1.00  0.00     0.208 C 
ATOM     19  O   UNL     1     -14.047   8.923 -31.514  1.00  0.00    -0.337 OA
ATOM     20  C   UNL     1     -15.400   7.791 -33.120  1.00  0.00     0.180 C 
ATOM     21  C   UNL     1     -15.371   8.814 -31.988  1.00  0.00     0.179 C 
BRANCH  17  22
ATOM     22  C   UNL     1     -12.209   7.480 -31.947  1.00  0.00     0.225 C 
BRANCH  22  23
ATOM     23  O   UNL     1     -12.832   6.225 -31.909  1.00  0.00    -0.391 OA
ATOM     24  H   UNL     1     -13.564   6.257 -32.579  1.00  0.00     0.210 HD
ENDBRANCH  22  23
ENDBRANCH  17  22
BRANCH  18  25
ATOM     25  O   UNL     1     -13.520   6.920 -34.436  1.00  0.00    -0.385 OA
ATOM     26  H   UNL     1     -12.540   7.023 -34.532  1.00  0.00     0.211 HD
ENDBRANCH  18  25
BRANCH  20  27
ATOM     27  O   UNL     1     -15.514   6.479 -32.630  1.00  0.00    -0.387 OA
ATOM     28  H   UNL     1     -16.395   6.134 -32.930  1.00  0.00     0.211 HD
ENDBRANCH  20  27
BRANCH  21  29
ATOM     29  C   UNL     1     -16.331   8.507 -30.831  1.00  0.00     0.191 C 
BRANCH  29  30
ATOM     30  O   UNL     1     -16.529   9.646 -30.038  1.00  0.00    -0.394 OA
ATOM     31  H   UNL     1     -16.698   9.314 -29.118  1.00  0.00     0.210 HD
ENDBRANCH  29  30
ENDBRANCH  21  29
ENDBRANCH   1  17
TORSDOF 13
ENDMDL
MODEL 3
REMARK VINA RESULT:    22.435      1.356      5.907
REMARK INTER + INTRA:          34.436
REMARK INTER:                  34.725
REMARK INTRA:                  -0.289
REMARK UNBOUND:                 0.197
REMARK SMILES OC[C@@H]1O[C@H](O[C@@]2(CO)O[C@H](CO)[C@H](O)[C@@H]2O)[C@H](O)[C@@H](O)[C@H]1O
REMARK SMILES IDX 6 1 5 2 3 3 22 4 4 5 20 6 18 7 2 8 1 9 23 11 21 13 19 15
REMARK SMILES IDX 7 17 16 18 10 19 14 20 11 21 8 22 9 23 17 25 15 27 12 29
REMARK SMILES IDX 13 30
REMARK H PARENT 1 10 23 12 21 14 19 16 9 24 17 26 15 28 13 31
REMARK Flexibility Score: inf
ROOT
ATOM      1  O   UNL     1     -11.794   8.608 -32.971  1.00  0.00    -0.313 OA
ENDROOT
BRANCH   1   2
ATOM      2  C   UNL     1     -11.554   9.819 -32.261  1.00  0.00     0.285 C 
ATOM      3  C   UNL     1      -9.168   9.760 -32.496  1.00  0.00     0.178 C 
ATOM      4  C   UNL     1      -9.176  10.925 -33.515  1.00  0.00     0.177 C 
ATOM      5  O   UNL     1     -10.287   9.783 -31.613  1.00  0.00    -0.341 OA
ATOM      6  C   UNL     1     -10.533  11.008 -34.237  1.00  0.00     0.179 C 
ATOM      7  C   UNL     1     -11.675  11.027 -33.211  1.00  0.00     0.202 C 
BRANCH   3   8
ATOM      8  C   UNL     1      -8.943   8.375 -33.137  1.00  0.00     0.191 C 
BRANCH   8   9
ATOM      9  O   UNL     1      -9.071   8.470 -34.530  1.00  0.00    -0.394 OA
ATOM     10  H   UNL     1      -8.343   7.916 -34.913  1.00  0.00     0.210 HD
ENDBRANCH   8   9
ENDBRANCH   3   8
BRANCH   4  11
ATOM     11  O   UNL     1      -8.916  12.124 -32.827  1.00  0.00    -0.387 OA
ATOM     12  H   UNL     1      -9.267  12.866 -33.387  1.00  0.00     0.211 HD
ENDBRANCH   4  11
BRANCH   6  13
ATOM     13  O   UNL     1     -10.587  12.125 -35.093  1.00  0.00    -0.387 OA
ATOM     14  H   UNL     1      -9.689  12.547 -35.110  1.00  0.00     0.211 HD
ENDBRANCH   6  13
BRANCH   7  15
ATOM     15  O   UNL     1     -12.907  10.996 -33.885  1.00  0.00    -0.385 OA
ATOM     16  H   UNL     1     -12.995  10.088 -34.279  1.00  0.00     0.211 HD
ENDBRANCH   7  15
ENDBRANCH   1   2
BRANCH   1  17
ATOM     17  C   UNL     1     -12.942   7.875 -32.548  1.00  0.00     0.224 C 
ATOM     18  C   UNL     1     -14.114   7.975 -33.572  1.00  0.00     0.208 C 
ATOM     19  O   UNL     1     -13.387   8.486 -31.348  1.00  0.00    -0.337 OA
ATOM     20  C   UNL     1     -15.323   8.315 -32.730  1.00  0.00     0.180 C 
ATOM     21  C   UNL     1     -14.655   9.059 -31.578  1.00  0.00     0.179 C 
BRANCH  17  22
ATOM     22  C   UNL     1     -12.535   6.426 -32.171  1.00  0.00     0.225 C 
BRANCH  22  23
ATOM     23  O   UNL     1     -13.319   5.496 -32.868  1.00  0.00    -0.391 OA
ATOM     24  H   UNL     1     -13.994   5.162 -32.221  1.00  0.00     0.210 HD
ENDBRANCH  22  23
ENDBRANCH  17  22
BRANCH  18  25
ATOM     25  O   UNL     1     -14.286   6.847 -34.403  1.00  0.00    -0.385 OA
ATOM     26  H   UNL     1     -15.185   6.878 -34.815  1.00  0.00     0.211 HD
ENDBRANCH  18  25
BRANCH  20  27
ATOM     27  O   UNL     1     -15.977   7.152 -32.286  1.00  0.00    -0.387 OA
ATOM     28  H   UNL     1     -16.431   7.385 -31.435  1.00  0.00     0.211 HD
ENDBRANCH  20  27
BRANCH  21  29
ATOM     29  C   UNL     1     -15.474   9.087 -30.281  1.00  0.00     0.191 C 
BRANCH  29  30
ATOM     30  O   UNL     1     -16.840   9.223 -30.562  1.00  0.00    -0.394 OA
ATOM     31  H   UNL     1     -17.196   8.301 -30.652  1.00  0.00     0.210 HD
ENDBRANCH  29  30
ENDBRANCH  21  29
ENDBRANCH   1  17
TORSDOF 13
ENDMDL
MODEL 4
REMARK VINA RESULT:    23.492      1.569      3.203
REMARK INTER + INTRA:          36.050
REMARK INTER:                  36.825
REMARK INTRA:                  -0.775
REMARK UNBOUND:                 0.197
REMARK SMILES OC[C@@H]1O[C@H](O[C@@]2(CO)O[C@H](CO)[C@H](O)[C@@H]2O)[C@H](O)[C@@H](O)[C@H]1O
REMARK SMILES IDX 6 1 5 2 3 3 22 4 4 5 20 6 18 7 2 8 1 9 23 11 21 13 19 15
REMARK SMILES IDX 7 17 16 18 10 19 14 20 11 21 8 22 9 23 17 25 15 27 12 29
REMARK SMILES IDX 13 30
REMARK H PARENT 1 10 23 12 21 14 19 16 9 24 17 26 15 28 13 31
REMARK Flexibility Score: inf
ROOT
ATOM      1  O   UNL     1     -13.304   9.755 -32.679  1.00  0.00    -0.313 OA
ENDROOT
BRANCH   1   2
ATOM      2  C   UNL     1     -13.254   8.433 -32.152  1.00  0.00     0.285 C 
ATOM      3  C   UNL     1     -15.426   8.500 -31.140  1.00  0.00     0.178 C 
ATOM      4  C   UNL     1     -16.018   7.537 -32.197  1.00  0.00     0.177 C 
ATOM      5  O   UNL     1     -14.022   8.335 -30.957  1.00  0.00    -0.341 OA
ATOM      6  C   UNL     1     -15.212   7.603 -33.506  1.00  0.00     0.179 C 
ATOM      7  C   UNL     1     -13.716   7.416 -33.214  1.00  0.00     0.202 C 
BRANCH   3   8
ATOM      8  C   UNL     1     -15.831   9.974 -31.346  1.00  0.00     0.191 C 
BRANCH   8   9
ATOM      9  O   UNL     1     -16.416  10.475 -30.175  1.00  0.00    -0.394 OA
ATOM     10  H   UNL     1     -16.249   9.796 -29.471  1.00  0.00     0.210 HD
ENDBRANCH   8   9
ENDBRANCH   3   8
BRANCH   4  11
ATOM     11  O   UNL     1     -15.995   6.231 -31.676  1.00  0.00    -0.387 OA
ATOM     12  H   UNL     1     -16.509   5.656 -32.302  1.00  0.00     0.211 HD
ENDBRANCH   4  11
BRANCH   6  13
ATOM     13  O   UNL     1     -15.679   6.659 -34.440  1.00  0.00    -0.387 OA
ATOM     14  H   UNL     1     -15.704   7.092 -35.333  1.00  0.00     0.211 HD
ENDBRANCH   6  13
BRANCH   7  15
ATOM     15  O   UNL     1     -12.986   7.584 -34.401  1.00  0.00    -0.385 OA
ATOM     16  H   UNL     1     -12.100   7.156 -34.256  1.00  0.00     0.211 HD
ENDBRANCH   7  15
ENDBRANCH   1   2
BRANCH   1  17
ATOM     17  C   UNL     1     -12.037  10.388 -32.849  1.00  0.00     0.224 C 
ATOM     18  C   UNL     1     -11.758  10.753 -34.340  1.00  0.00     0.208 C 
ATOM     19  O   UNL     1     -11.059   9.435 -32.465  1.00  0.00    -0.337 OA
ATOM     20  C   UNL     1     -10.358  10.244 -34.598  1.00  0.00     0.180 C 
ATOM     21  C   UNL     1     -10.298   9.089 -33.602  1.00  0.00     0.179 C 
BRANCH  17  22
ATOM     22  C   UNL     1     -11.901  11.572 -31.857  1.00  0.00     0.225 C 
BRANCH  22  23
ATOM     23  O   UNL     1     -10.574  11.701 -31.422  1.00  0.00    -0.391 OA
ATOM     24  H   UNL     1     -10.185  10.788 -31.445  1.00  0.00     0.210 HD
ENDBRANCH  22  23
ENDBRANCH  17  22
BRANCH  18  25
ATOM     25  O   UNL     1     -11.951  12.110 -34.674  1.00  0.00    -0.385 OA
ATOM     26  H   UNL     1     -11.460  12.679 -34.029  1.00  0.00     0.211 HD
ENDBRANCH  18  25
BRANCH  20  27
ATOM     27  O   UNL     1      -9.397  11.229 -34.308  1.00  0.00    -0.387 OA
ATOM     28  H   UNL     1      -8.945  11.451 -35.163  1.00  0.00     0.211 HD
ENDBRANCH  20  27
BRANCH  21  29
ATOM     29  C   UNL     1      -8.878   8.679 -33.191  1.00  0.00     0.191 C 
BRANCH  29  30
ATOM     30  O   UNL     1      -8.913   7.590 -32.308  1.00  0.00    -0.394 OA
ATOM     31  H   UNL     1      -8.397   6.864 -32.746  1.00  0.00     0.210 HD
ENDBRANCH  29  30
ENDBRANCH  21  29
ENDBRANCH   1  17
TORSDOF 13
ENDMDL
MODEL 5
REMARK VINA RESULT:    23.748      1.483      6.141
REMARK INTER + INTRA:          36.440
REMARK INTER:                  36.465
REMARK INTRA:                  -0.024
REMARK UNBOUND:                 0.197
REMARK SMILES OC[C@@H]1O[C@H](O[C@@]2(CO)O[C@H](CO)[C@H](O)[C@@H]2O)[C@H](O)[C@@H](O)[C@H]1O
REMARK SMILES IDX 6 1 5 2 3 3 22 4 4 5 20 6 18 7 2 8 1 9 23 11 21 13 19 15
REMARK SMILES IDX 7 17 16 18 10 19 14 20 11 21 8 22 9 23 17 25 15 27 12 29
REMARK SMILES IDX 13 30
REMARK H PARENT 1 10 23 12 21 14 19 16 9 24 17 26 15 28 13 31
REMARK Flexibility Score: inf
ROOT
ATOM      1  O   UNL     1     -12.259   9.638 -32.426  1.00  0.00    -0.313 OA
ENDROOT
BRANCH   1   2
ATOM      2  C   UNL     1     -12.348  10.203 -33.730  1.00  0.00     0.285 C 
ATOM      3  C   UNL     1     -10.973  12.109 -33.255  1.00  0.00     0.178 C 
ATOM      4  C   UNL     1      -9.802  11.554 -34.101  1.00  0.00     0.177 C 
ATOM      5  O   UNL     1     -12.246  11.622 -33.675  1.00  0.00    -0.341 OA
ATOM      6  C   UNL     1      -9.877  10.020 -34.195  1.00  0.00     0.179 C 
ATOM      7  C   UNL     1     -11.278   9.588 -34.652  1.00  0.00     0.202 C 
BRANCH   3   8
ATOM      8  C   UNL     1     -10.758  11.978 -31.733  1.00  0.00     0.191 C 
BRANCH   8   9
ATOM      9  O   UNL     1      -9.781  11.006 -31.474  1.00  0.00    -0.394 OA
ATOM     10  H   UNL     1      -9.990  10.637 -30.577  1.00  0.00     0.210 HD
ENDBRANCH   8   9
ENDBRANCH   3   8
BRANCH   4  11
ATOM     11  O   UNL     1      -9.866  12.125 -35.385  1.00  0.00    -0.387 OA
ATOM     12  H   UNL     1      -9.926  13.109 -35.266  1.00  0.00     0.211 HD
ENDBRANCH   4  11
BRANCH   6  13
ATOM     13  O   UNL     1      -8.875   9.512 -35.044  1.00  0.00    -0.387 OA
ATOM     14  H   UNL     1      -9.093   8.566 -35.249  1.00  0.00     0.211 HD
ENDBRANCH   6  13
BRANCH   7  15
ATOM     15  O   UNL     1     -11.362   8.186 -34.632  1.00  0.00    -0.385 OA
ATOM     16  H   UNL     1     -10.590   7.845 -35.157  1.00  0.00     0.211 HD
ENDBRANCH   7  15
ENDBRANCH   1   2
BRANCH   1  17
ATOM     17  C   UNL     1     -13.200   8.602 -32.149  1.00  0.00     0.224 C 
ATOM     18  C   UNL     1     -14.287   8.482 -33.262  1.00  0.00     0.208 C 
ATOM     19  O   UNL     1     -13.869   8.977 -30.955  1.00  0.00    -0.337 OA
ATOM     20  C   UNL     1     -15.596   8.430 -32.507  1.00  0.00     0.180 C 
ATOM     21  C   UNL     1     -15.224   9.222 -31.257  1.00  0.00     0.179 C 
BRANCH  17  22
ATOM     22  C   UNL     1     -12.454   7.280 -31.831  1.00  0.00     0.225 C 
BRANCH  22  23
ATOM     23  O   UNL     1     -12.664   6.338 -32.847  1.00  0.00    -0.391 OA
ATOM     24  H   UNL     1     -12.186   5.515 -32.566  1.00  0.00     0.210 HD
ENDBRANCH  22  23
ENDBRANCH  17  22
BRANCH  18  25
ATOM     25  O   UNL     1     -14.102   7.422 -34.173  1.00  0.00    -0.385 OA
ATOM     26  H   UNL     1     -13.726   6.641 -33.695  1.00  0.00     0.211 HD
ENDBRANCH  18  25
BRANCH  20  27
ATOM     27  O   UNL     1     -15.951   7.106 -32.195  1.00  0.00    -0.387 OA
ATOM     28  H   UNL     1     -16.774   6.899 -32.708  1.00  0.00     0.211 HD
ENDBRANCH  20  27
BRANCH  21  29
ATOM     29  C   UNL     1     -16.107   8.931 -30.036  1.00  0.00     0.191 C 
BRANCH  29  30
ATOM     30  O   UNL     1     -16.698  10.110 -29.561  1.00  0.00    -0.394 OA
ATOM     31  H   UNL     1     -15.952  10.695 -29.269  1.00  0.00     0.210 HD
ENDBRANCH  29  30
ENDBRANCH  21  29
ENDBRANCH   1  17
TORSDOF 13
ENDMDL
