MODEL 1
REMARK VINA RESULT:    -5.243      0.000      0.000
REMARK INTER + INTRA:          -9.233
REMARK INTER:                  -8.308
REMARK INTRA:                  -0.925
REMARK UNBOUND:                -0.925
REMARK SMILES CCCCCCCCCCCC(=O)[O-]
REMARK SMILES IDX 7 1 8 2 9 3 10 4 11 5 12 6 13 7 14 8 6 9 5 10 4 11 3 12 2 13
REMARK SMILES IDX 1 14
REMARK H PARENT
REMARK Flexibility Score: inf
ROOT
ATOM      1  C   UNL     1      17.604   7.168  49.521  1.00  0.00     0.000 C 
ENDROOT
BRANCH   1   2
ATOM      2  C   UNL     1      16.278   7.897  49.769  1.00  0.00     0.000 C 
BRANCH   2   3
ATOM      3  C   UNL     1      15.083   6.968  49.504  1.00  0.00     0.000 C 
BRANCH   3   4
ATOM      4  C   UNL     1      14.617   6.997  48.037  1.00  0.00     0.006 C 
BRANCH   4   5
ATOM      5  C   UNL     1      15.001   8.277  47.277  1.00  0.00     0.053 C 
BRANCH   5   6
ATOM      6  C   UNL     1      15.813   7.982  46.054  1.00  0.00     0.041 C 
ATOM      7  O   UNL     1      16.896   7.346  46.149  1.00  0.00    -0.550 OA
ATOM      8  O   UNL     1      15.357   8.380  44.802  1.00  0.00    -0.550 OA
ENDBRANCH   5   6
ENDBRANCH   4   5
ENDBRANCH   3   4
ENDBRANCH   2   3
ENDBRANCH   1   2
BRANCH   1   9
ATOM      9  C   UNL     1      18.648   8.114  48.915  1.00  0.00     0.000 C 
BRANCH   9  10
ATOM     10  C   UNL     1      19.605   8.642  49.995  1.00  0.00    -0.000 C 
BRANCH  10  11
ATOM     11  C   UNL     1      19.172  10.004  50.565  1.00  0.00    -0.000 C 
BRANCH  11  12
ATOM     12  C   UNL     1      18.440   9.942  51.921  1.00  0.00    -0.000 C 
BRANCH  12  13
ATOM     13  C   UNL     1      18.691   8.662  52.736  1.00  0.00    -0.003 C 
ATOM     14  C   UNL     1      19.673   8.872  53.888  1.00  0.00     0.004 C 
ENDBRANCH  12  13
ENDBRANCH  11  12
ENDBRANCH  10  11
ENDBRANCH   9  10
ENDBRANCH   1   9
TORSDOF 10
ENDMDL
MODEL 2
REMARK VINA RESULT:    -5.163      3.175      6.336
REMARK INTER + INTRA:          -9.107
REMARK INTER:                  -7.933
REMARK INTRA:                  -1.173
REMARK UNBOUND:                -0.925
REMARK SMILES CCCCCCCCCCCC(=O)[O-]
REMARK SMILES IDX 7 1 8 2 9 3 10 4 11 5 12 6 13 7 14 8 6 9 5 10 4 11 3 12 2 13
REMARK SMILES IDX 1 14
REMARK H PARENT
REMARK Flexibility Score: inf
ROOT
ATOM      1  C   UNL     1      16.860   8.534  49.967  1.00  0.00     0.000 C 
ENDROOT
BRANCH   1   2
ATOM      2  C   UNL     1      17.939   9.490  49.444  1.00  0.00     0.000 C 
BRANCH   2   3
ATOM      3  C   UNL     1      19.293   8.776  49.320  1.00  0.00     0.000 C 
BRANCH   3   4
ATOM      4  C   UNL     1      20.204   9.007  50.539  1.00  0.00     0.006 C 
BRANCH   4   5
ATOM      5  C   UNL     1      20.098   7.922  51.623  1.00  0.00     0.053 C 
BRANCH   5   6
ATOM      6  C   UNL     1      19.601   8.473  52.923  1.00  0.00     0.041 C 
ATOM      7  O   UNL     1      18.503   9.088  52.972  1.00  0.00    -0.550 OA
ATOM      8  O   UNL     1      20.333   8.278  54.088  1.00  0.00    -0.550 OA
ENDBRANCH   5   6
ENDBRANCH   4   5
ENDBRANCH   3   4
ENDBRANCH   2   3
ENDBRANCH   1   2
BRANCH   1   9
ATOM      9  C   UNL     1      17.184   7.083  49.594  1.00  0.00     0.000 C 
BRANCH   9  10
ATOM     10  C   UNL     1      15.920   6.210  49.635  1.00  0.00    -0.000 C 
BRANCH  10  11
ATOM     11  C   UNL     1      14.642   6.990  49.279  1.00  0.00    -0.000 C 
BRANCH  11  12
ATOM     12  C   UNL     1      14.259   6.970  47.785  1.00  0.00    -0.000 C 
BRANCH  12  13
ATOM     13  C   UNL     1      14.656   8.229  46.996  1.00  0.00    -0.003 C 
ATOM     14  C   UNL     1      15.935   8.042  46.180  1.00  0.00     0.004 C 
ENDBRANCH  12  13
ENDBRANCH  11  12
ENDBRANCH  10  11
ENDBRANCH   9  10
ENDBRANCH   1   9
TORSDOF 10
ENDMDL
MODEL 3
REMARK VINA RESULT:    -4.996      3.027      6.092
REMARK INTER + INTRA:          -8.842
REMARK INTER:                  -7.844
REMARK INTRA:                  -0.998
REMARK UNBOUND:                -0.925
REMARK SMILES CCCCCCCCCCCC(=O)[O-]
REMARK SMILES IDX 7 1 8 2 9 3 10 4 11 5 12 6 13 7 14 8 6 9 5 10 4 11 3 12 2 13
REMARK SMILES IDX 1 14
REMARK H PARENT
REMARK Flexibility Score: inf
ROOT
ATOM      1  C   UNL     1      16.070   7.253  50.081  1.00  0.00     0.000 C 
ENDROOT
BRANCH   1   2
ATOM      2  C   UNL     1      17.501   7.710  49.774  1.00  0.00     0.000 C 
BRANCH   2   3
ATOM      3  C   UNL     1      17.534   9.200  49.400  1.00  0.00     0.000 C 
BRANCH   3   4
ATOM      4  C   UNL     1      18.592   9.991  50.190  1.00  0.00     0.006 C 
BRANCH   4   5
ATOM      5  C   UNL     1      18.341  10.043  51.706  1.00  0.00     0.053 C 
BRANCH   5   6
ATOM      6  C   UNL     1      19.159   9.032  52.447  1.00  0.00     0.041 C 
ATOM      7  O   UNL     1      18.924   8.793  53.660  1.00  0.00    -0.550 OA
ATOM      8  O   UNL     1      20.161   8.329  51.789  1.00  0.00    -0.550 OA
ENDBRANCH   5   6
ENDBRANCH   4   5
ENDBRANCH   3   4
ENDBRANCH   2   3
ENDBRANCH   1   2
BRANCH   1   9
ATOM      9  C   UNL     1      15.751   5.930  49.375  1.00  0.00     0.000 C 
BRANCH   9  10
ATOM     10  C   UNL     1      14.409   6.013  48.632  1.00  0.00    -0.000 C 
BRANCH  10  11
ATOM     11  C   UNL     1      13.999   7.459  48.297  1.00  0.00    -0.000 C 
BRANCH  11  12
ATOM     12  C   UNL     1      14.227   7.879  46.830  1.00  0.00    -0.000 C 
BRANCH  12  13
ATOM     13  C   UNL     1      15.589   8.534  46.546  1.00  0.00    -0.003 C 
ATOM     14  C   UNL     1      16.676   7.519  46.191  1.00  0.00     0.004 C 
ENDBRANCH  12  13
ENDBRANCH  11  12
ENDBRANCH  10  11
ENDBRANCH   9  10
ENDBRANCH   1   9
TORSDOF 10
ENDMDL
MODEL 4
REMARK VINA RESULT:    -4.820      3.005      5.917
REMARK INTER + INTRA:          -8.562
REMARK INTER:                  -7.423
REMARK INTRA:                  -1.138
REMARK UNBOUND:                -0.925
REMARK SMILES CCCCCCCCCCCC(=O)[O-]
REMARK SMILES IDX 7 1 8 2 9 3 10 4 11 5 12 6 13 7 14 8 6 9 5 10 4 11 3 12 2 13
REMARK SMILES IDX 1 14
REMARK H PARENT
REMARK Flexibility Score: inf
ROOT
ATOM      1  C   UNL     1      17.495   7.178  49.314  1.00  0.00     0.000 C 
ENDROOT
BRANCH   1   2
ATOM      2  C   UNL     1      16.920   8.387  50.060  1.00  0.00     0.000 C 
BRANCH   2   3
ATOM      3  C   UNL     1      17.619   9.684  49.624  1.00  0.00     0.000 C 
BRANCH   3   4
ATOM      4  C   UNL     1      18.725  10.124  50.600  1.00  0.00     0.006 C 
BRANCH   4   5
ATOM      5  C   UNL     1      18.387   9.899  52.082  1.00  0.00     0.053 C 
BRANCH   5   6
ATOM      6  C   UNL     1      19.296   8.894  52.720  1.00  0.00     0.041 C 
ATOM      7  O   UNL     1      19.481   8.908  53.965  1.00  0.00    -0.550 OA
ATOM      8  O   UNL     1      19.912   7.920  51.944  1.00  0.00    -0.550 OA
ENDBRANCH   5   6
ENDBRANCH   4   5
ENDBRANCH   3   4
ENDBRANCH   2   3
ENDBRANCH   1   2
BRANCH   1   9
ATOM      9  C   UNL     1      18.011   7.580  47.927  1.00  0.00     0.000 C 
BRANCH   9  10
ATOM     10  C   UNL     1      17.058   7.096  46.824  1.00  0.00    -0.000 C 
BRANCH  10  11
ATOM     11  C   UNL     1      16.036   8.168  46.403  1.00  0.00    -0.000 C 
BRANCH  11  12
ATOM     12  C   UNL     1      14.633   8.013  47.025  1.00  0.00    -0.000 C 
BRANCH  12  13
ATOM     13  C   UNL     1      14.415   6.715  47.821  1.00  0.00    -0.003 C 
ATOM     14  C   UNL     1      13.481   6.899  49.016  1.00  0.00     0.004 C 
ENDBRANCH  12  13
ENDBRANCH  11  12
ENDBRANCH  10  11
ENDBRANCH   9  10
ENDBRANCH   1   9
TORSDOF 10
ENDMDL
MODEL 5
REMARK VINA RESULT:    -4.541      1.555      2.739
REMARK INTER + INTRA:          -8.121
REMARK INTER:                  -7.282
REMARK INTRA:                  -0.839
REMARK UNBOUND:                -0.925
REMARK SMILES CCCCCCCCCCCC(=O)[O-]
REMARK SMILES IDX 7 1 8 2 9 3 10 4 11 5 12 6 13 7 14 8 6 9 5 10 4 11 3 12 2 13
REMARK SMILES IDX 1 14
REMARK H PARENT
REMARK Flexibility Score: inf
ROOT
ATOM      1  C   UNL     1      20.276   9.233  49.548  1.00  0.00     0.000 C 
ENDROOT
BRANCH   1   2
ATOM      2  C   UNL     1      19.687   8.312  48.473  1.00  0.00     0.000 C 
BRANCH   2   3
ATOM      3  C   UNL     1      18.585   7.417  49.061  1.00  0.00     0.000 C 
BRANCH   3   4
ATOM      4  C   UNL     1      17.250   7.539  48.306  1.00  0.00     0.006 C 
BRANCH   4   5
ATOM      5  C   UNL     1      16.060   6.868  49.011  1.00  0.00     0.053 C 
BRANCH   5   6
ATOM      6  C   UNL     1      14.787   7.025  48.240  1.00  0.00     0.041 C 
ATOM      7  O   UNL     1      14.781   7.655  47.149  1.00  0.00    -0.550 OA
ATOM      8  O   UNL     1      13.613   6.449  48.708  1.00  0.00    -0.550 OA
ENDBRANCH   5   6
ENDBRANCH   4   5
ENDBRANCH   3   4
ENDBRANCH   2   3
ENDBRANCH   1   2
BRANCH   1   9
ATOM      9  C   UNL     1      19.366  10.442  49.795  1.00  0.00     0.000 C 
BRANCH   9  10
ATOM     10  C   UNL     1      18.838  10.447  51.238  1.00  0.00    -0.000 C 
BRANCH  10  11
ATOM     11  C   UNL     1      17.774   9.363  51.489  1.00  0.00    -0.000 C 
BRANCH  11  12
ATOM     12  C   UNL     1      18.107   8.370  52.620  1.00  0.00    -0.000 C 
BRANCH  12  13
ATOM     13  C   UNL     1      19.604   8.235  52.947  1.00  0.00    -0.003 C 
ATOM     14  C   UNL     1      19.976   8.843  54.299  1.00  0.00     0.004 C 
ENDBRANCH  12  13
ENDBRANCH  11  12
ENDBRANCH  10  11
ENDBRANCH   9  10
ENDBRANCH   1   9
TORSDOF 10
ENDMDL
MODEL 6
REMARK VINA RESULT:    -4.502      1.922      2.583
REMARK INTER + INTRA:          -8.058
REMARK INTER:                  -7.317
REMARK INTRA:                  -0.741
REMARK UNBOUND:                -0.925
REMARK SMILES CCCCCCCCCCCC(=O)[O-]
REMARK SMILES IDX 7 1 8 2 9 3 10 4 11 5 12 6 13 7 14 8 6 9 5 10 4 11 3 12 2 13
REMARK SMILES IDX 1 14
REMARK H PARENT
REMARK Flexibility Score: inf
ROOT
ATOM      1  C   UNL     1      17.978   8.134  48.164  1.00  0.00     0.000 C 
ENDROOT
BRANCH   1   2
ATOM      2  C   UNL     1      17.574   7.201  47.017  1.00  0.00     0.000 C 
BRANCH   2   3
ATOM      3  C   UNL     1      16.366   7.763  46.251  1.00  0.00     0.000 C 
BRANCH   3   4
ATOM      4  C   UNL     1      15.317   8.405  47.177  1.00  0.00     0.006 C 
BRANCH   4   5
ATOM      5  C   UNL     1      14.086   7.525  47.444  1.00  0.00     0.053 C 
BRANCH   5   6
ATOM      6  C   UNL     1      14.272   6.648  48.643  1.00  0.00     0.041 C 
ATOM      7  O   UNL     1      14.205   5.395  48.529  1.00  0.00    -0.550 OA
ATOM      8  O   UNL     1      14.551   7.212  49.882  1.00  0.00    -0.550 OA
ENDBRANCH   5   6
ENDBRANCH   4   5
ENDBRANCH   3   4
ENDBRANCH   2   3
ENDBRANCH   1   2
BRANCH   1   9
ATOM      9  C   UNL     1      17.987   7.388  49.504  1.00  0.00     0.000 C 
BRANCH   9  10
ATOM     10  C   UNL     1      17.542   8.309  50.650  1.00  0.00    -0.000 C 
BRANCH  10  11
ATOM     11  C   UNL     1      18.483   9.510  50.853  1.00  0.00    -0.000 C 
BRANCH  11  12
ATOM     12  C   UNL     1      18.790   9.857  52.323  1.00  0.00    -0.000 C 
BRANCH  12  13
ATOM     13  C   UNL     1      18.766   8.662  53.292  1.00  0.00    -0.003 C 
ATOM     14  C   UNL     1      20.085   8.474  54.040  1.00  0.00     0.004 C 
ENDBRANCH  12  13
ENDBRANCH  11  12
ENDBRANCH  10  11
ENDBRANCH   9  10
ENDBRANCH   1   9
TORSDOF 10
ENDMDL
MODEL 7
REMARK VINA RESULT:    -4.474      1.123      2.249
REMARK INTER + INTRA:          -8.015
REMARK INTER:                  -7.668
REMARK INTRA:                  -0.347
REMARK UNBOUND:                -0.925
REMARK SMILES CCCCCCCCCCCC(=O)[O-]
REMARK SMILES IDX 7 1 8 2 9 3 10 4 11 5 12 6 13 7 14 8 6 9 5 10 4 11 3 12 2 13
REMARK SMILES IDX 1 14
REMARK H PARENT
REMARK Flexibility Score: inf
ROOT
ATOM      1  C   UNL     1      16.834   7.486  50.138  1.00  0.00     0.000 C 
ENDROOT
BRANCH   1   2
ATOM      2  C   UNL     1      15.311   7.330  50.070  1.00  0.00     0.000 C 
BRANCH   2   3
ATOM      3  C   UNL     1      14.913   6.257  49.045  1.00  0.00     0.000 C 
BRANCH   3   4
ATOM      4  C   UNL     1      14.224   6.845  47.801  1.00  0.00     0.006 C 
BRANCH   4   5
ATOM      5  C   UNL     1      14.840   8.161  47.299  1.00  0.00     0.053 C 
BRANCH   5   6
ATOM      6  C   UNL     1      15.898   7.928  46.267  1.00  0.00     0.041 C 
ATOM      7  O   UNL     1      15.720   8.308  45.079  1.00  0.00    -0.550 OA
ATOM      8  O   UNL     1      17.097   7.322  46.622  1.00  0.00    -0.550 OA
ENDBRANCH   5   6
ENDBRANCH   4   5
ENDBRANCH   3   4
ENDBRANCH   2   3
ENDBRANCH   1   2
BRANCH   1   9
ATOM      9  C   UNL     1      17.256   8.923  49.808  1.00  0.00     0.000 C 
BRANCH   9  10
ATOM     10  C   UNL     1      17.906   9.598  51.025  1.00  0.00    -0.000 C 
BRANCH  10  11
ATOM     11  C   UNL     1      19.080   8.786  51.604  1.00  0.00    -0.000 C 
BRANCH  11  12
ATOM     12  C   UNL     1      20.339   8.736  50.716  1.00  0.00    -0.000 C 
BRANCH  12  13
ATOM     13  C   UNL     1      20.254   9.558  49.419  1.00  0.00    -0.003 C 
ATOM     14  C   UNL     1      20.950  10.914  49.524  1.00  0.00     0.004 C 
ENDBRANCH  12  13
ENDBRANCH  11  12
ENDBRANCH  10  11
ENDBRANCH   9  10
ENDBRANCH   1   9
TORSDOF 10
ENDMDL
MODEL 8
REMARK VINA RESULT:    -4.209      3.130      4.169
REMARK INTER + INTRA:          -7.594
REMARK INTER:                  -7.259
REMARK INTRA:                  -0.335
REMARK UNBOUND:                -0.925
REMARK SMILES CCCCCCCCCCCC(=O)[O-]
REMARK SMILES IDX 7 1 8 2 9 3 10 4 11 5 12 6 13 7 14 8 6 9 5 10 4 11 3 12 2 13
REMARK SMILES IDX 1 14
REMARK H PARENT
REMARK Flexibility Score: inf
ROOT
ATOM      1  C   UNL     1      19.801   8.866  50.393  1.00  0.00     0.000 C 
ENDROOT
BRANCH   1   2
ATOM      2  C   UNL     1      18.729   8.120  49.590  1.00  0.00     0.000 C 
BRANCH   2   3
ATOM      3  C   UNL     1      17.328   8.669  49.902  1.00  0.00     0.000 C 
BRANCH   3   4
ATOM      4  C   UNL     1      16.266   7.562  50.024  1.00  0.00     0.006 C 
BRANCH   4   5
ATOM      5  C   UNL     1      16.046   6.752  48.736  1.00  0.00     0.053 C 
BRANCH   5   6
ATOM      6  C   UNL     1      14.687   6.982  48.153  1.00  0.00     0.041 C 
ATOM      7  O   UNL     1      13.677   6.426  48.660  1.00  0.00    -0.550 OA
ATOM      8  O   UNL     1      14.529   7.836  47.068  1.00  0.00    -0.550 OA
ENDBRANCH   5   6
ENDBRANCH   4   5
ENDBRANCH   3   4
ENDBRANCH   2   3
ENDBRANCH   1   2
BRANCH   1   9
ATOM      9  C   UNL     1      19.787  10.365  50.070  1.00  0.00     0.000 C 
BRANCH   9  10
ATOM     10  C   UNL     1      20.885  10.720  49.056  1.00  0.00    -0.000 C 
BRANCH  10  11
ATOM     11  C   UNL     1      21.825  11.832  49.557  1.00  0.00    -0.000 C 
BRANCH  11  12
ATOM     12  C   UNL     1      22.565  12.609  48.450  1.00  0.00    -0.000 C 
BRANCH  12  13
ATOM     13  C   UNL     1      23.511  13.713  48.952  1.00  0.00    -0.003 C 
ATOM     14  C   UNL     1      23.201  14.160  50.380  1.00  0.00     0.004 C 
ENDBRANCH  12  13
ENDBRANCH  11  12
ENDBRANCH  10  11
ENDBRANCH   9  10
ENDBRANCH   1   9
TORSDOF 10
ENDMDL
MODEL 9
REMARK VINA RESULT:    -4.106      8.000     10.714
REMARK INTER + INTRA:          -7.432
REMARK INTER:                  -6.362
REMARK INTRA:                  -1.070
REMARK UNBOUND:                -0.925
REMARK SMILES CCCCCCCCCCCC(=O)[O-]
REMARK SMILES IDX 7 1 8 2 9 3 10 4 11 5 12 6 13 7 14 8 6 9 5 10 4 11 3 12 2 13
REMARK SMILES IDX 1 14
REMARK H PARENT
REMARK Flexibility Score: inf
ROOT
ATOM      1  C   UNL     1      12.772   0.018  46.525  1.00  0.00     0.000 C 
ENDROOT
BRANCH   1   2
ATOM      2  C   UNL     1      13.437   1.396  46.623  1.00  0.00     0.000 C 
BRANCH   2   3
ATOM      3  C   UNL     1      13.765   1.744  48.084  1.00  0.00     0.000 C 
BRANCH   3   4
ATOM      4  C   UNL     1      15.201   1.356  48.482  1.00  0.00     0.006 C 
BRANCH   4   5
ATOM      5  C   UNL     1      16.129   1.061  47.293  1.00  0.00     0.053 C 
BRANCH   5   6
ATOM      6  C   UNL     1      16.972  -0.154  47.525  1.00  0.00     0.041 C 
ATOM      7  O   UNL     1      18.228  -0.060  47.541  1.00  0.00    -0.550 OA
ATOM      8  O   UNL     1      16.371  -1.385  47.757  1.00  0.00    -0.550 OA
ENDBRANCH   5   6
ENDBRANCH   4   5
ENDBRANCH   3   4
ENDBRANCH   2   3
ENDBRANCH   1   2
BRANCH   1   9
ATOM      9  C   UNL     1      13.342  -0.785  45.349  1.00  0.00     0.000 C 
BRANCH   9  10
ATOM     10  C   UNL     1      12.215  -1.404  44.508  1.00  0.00    -0.000 C 
BRANCH  10  11
ATOM     11  C   UNL     1      11.509  -0.376  43.606  1.00  0.00    -0.000 C 
BRANCH  11  12
ATOM     12  C   UNL     1      12.431   0.695  42.990  1.00  0.00    -0.000 C 
BRANCH  12  13
ATOM     13  C   UNL     1      12.034   2.149  43.296  1.00  0.00    -0.003 C 
ATOM     14  C   UNL     1      10.823   2.254  44.223  1.00  0.00     0.004 C 
ENDBRANCH  12  13
ENDBRANCH  11  12
ENDBRANCH  10  11
ENDBRANCH   9  10
ENDBRANCH   1   9
TORSDOF 10
ENDMDL
