MODEL 1
REMARK VINA RESULT:    -3.563      0.000      0.000
REMARK INTER + INTRA:          -4.180
REMARK INTER:                  -4.084
REMARK INTRA:                  -0.096
REMARK UNBOUND:                -0.096
REMARK SMILES COc1cc(C(=O)[O-])ccc1O
REMARK SMILES IDX 5 1 9 2 4 3 10 4 3 5 11 6 6 7 7 8 8 9 2 10 1 11 12 12
REMARK H PARENT 12 13
REMARK Flexibility Score: inf
ROOT
ATOM      1  C   UNL     1      -9.272  49.952   8.566  1.00  0.00     0.001 A 
ATOM      2  C   UNL     1      -8.330  49.010   9.012  1.00  0.00     0.014 A 
ATOM      3  C   UNL     1      -8.918  51.313   8.538  1.00  0.00     0.060 A 
ATOM      4  C   UNL     1      -7.061  49.420   9.420  1.00  0.00     0.051 A 
ATOM      5  C   UNL     1      -7.637  51.732   8.951  1.00  0.00     0.161 A 
ATOM      6  C   UNL     1      -6.708  50.772   9.393  1.00  0.00     0.157 A 
ENDROOT
BRANCH   1   7
ATOM      7  C   UNL     1     -10.620  49.522   8.131  1.00  0.00     0.072 C 
ATOM      8  O   UNL     1     -10.773  48.888   7.052  1.00  0.00    -0.545 OA
ATOM      9  O   UNL     1     -11.737  49.809   8.906  1.00  0.00    -0.545 OA
ENDBRANCH   1   7
BRANCH   5  10
ATOM     10  O   UNL     1      -7.255  53.084   8.934  1.00  0.00    -0.493 OA
ATOM     11  C   UNL     1      -7.666  54.052   9.893  1.00  0.00     0.278 C 
ENDBRANCH   5  10
BRANCH   6  12
ATOM     12  O   UNL     1      -5.430  51.144   9.810  1.00  0.00    -0.504 OA
ATOM     13  H   UNL     1      -5.093  50.963  10.747  1.00  0.00     0.293 HD
ENDBRANCH   6  12
TORSDOF 3
ENDMDL
MODEL 2
REMARK VINA RESULT:    -3.493      1.605      2.953
REMARK INTER + INTRA:          -4.099
REMARK INTER:                  -4.022
REMARK INTRA:                  -0.077
REMARK UNBOUND:                -0.096
REMARK SMILES COc1cc(C(=O)[O-])ccc1O
REMARK SMILES IDX 5 1 9 2 4 3 10 4 3 5 11 6 6 7 7 8 8 9 2 10 1 11 12 12
REMARK H PARENT 12 13
REMARK Flexibility Score: inf
ROOT
ATOM      1  C   UNL     1      -9.043  51.611   9.601  1.00  0.00     0.001 A 
ATOM      2  C   UNL     1      -9.214  52.993   9.416  1.00  0.00     0.014 A 
ATOM      3  C   UNL     1      -7.752  51.107   9.839  1.00  0.00     0.060 A 
ATOM      4  C   UNL     1      -8.116  53.853   9.466  1.00  0.00     0.051 A 
ATOM      5  C   UNL     1      -6.640  51.972   9.890  1.00  0.00     0.161 A 
ATOM      6  C   UNL     1      -6.833  53.353   9.702  1.00  0.00     0.157 A 
ENDROOT
BRANCH   1   7
ATOM      7  C   UNL     1     -10.206  50.696   9.548  1.00  0.00     0.072 C 
ATOM      8  O   UNL     1     -10.112  49.574   8.981  1.00  0.00    -0.545 OA
ATOM      9  O   UNL     1     -11.417  51.060  10.123  1.00  0.00    -0.545 OA
ENDBRANCH   1   7
BRANCH   5  10
ATOM     10  O   UNL     1      -5.339  51.497  10.125  1.00  0.00    -0.493 OA
ATOM     11  C   UNL     1      -4.964  50.123  10.107  1.00  0.00     0.278 C 
ENDBRANCH   5  10
BRANCH   6  12
ATOM     12  O   UNL     1      -5.760  54.243   9.745  1.00  0.00    -0.504 OA
ATOM     13  H   UNL     1      -5.694  55.040   9.125  1.00  0.00     0.293 HD
ENDBRANCH   6  12
TORSDOF 3
ENDMDL
MODEL 3
REMARK VINA RESULT:    -3.370     22.468     23.821
REMARK INTER + INTRA:          -3.958
REMARK INTER:                  -3.861
REMARK INTRA:                  -0.096
REMARK UNBOUND:                -0.096
REMARK SMILES COc1cc(C(=O)[O-])ccc1O
REMARK SMILES IDX 5 1 9 2 4 3 10 4 3 5 11 6 6 7 7 8 8 9 2 10 1 11 12 12
REMARK H PARENT 12 13
REMARK Flexibility Score: inf
ROOT
ATOM      1  C   UNL     1      -4.955  67.986  -6.377  1.00  0.00     0.001 A 
ATOM      2  C   UNL     1      -4.577  66.795  -5.734  1.00  0.00     0.014 A 
ATOM      3  C   UNL     1      -3.970  68.765  -7.008  1.00  0.00     0.060 A 
ATOM      4  C   UNL     1      -3.241  66.393  -5.723  1.00  0.00     0.051 A 
ATOM      5  C   UNL     1      -2.619  68.363  -6.999  1.00  0.00     0.161 A 
ATOM      6  C   UNL     1      -2.262  67.167  -6.350  1.00  0.00     0.157 A 
ENDROOT
BRANCH   1   7
ATOM      7  C   UNL     1      -6.372  68.416  -6.391  1.00  0.00     0.072 C 
ATOM      8  O   UNL     1      -6.920  68.848  -5.342  1.00  0.00    -0.545 OA
ATOM      9  O   UNL     1      -7.118  68.351  -7.561  1.00  0.00    -0.545 OA
ENDBRANCH   1   7
BRANCH   5  10
ATOM     10  O   UNL     1      -1.613  69.121  -7.620  1.00  0.00    -0.493 OA
ATOM     11  C   UNL     1      -1.321  69.090  -9.014  1.00  0.00     0.278 C 
ENDBRANCH   5  10
BRANCH   6  12
ATOM     12  O   UNL     1      -0.936  66.733  -6.318  1.00  0.00    -0.504 OA
ATOM     13  H   UNL     1      -0.518  66.216  -7.081  1.00  0.00     0.293 HD
ENDBRANCH   6  12
TORSDOF 3
ENDMDL
MODEL 4
REMARK VINA RESULT:    -3.180     20.829     22.469
REMARK INTER + INTRA:          -3.741
REMARK INTER:                  -3.661
REMARK INTRA:                  -0.080
REMARK UNBOUND:                -0.096
REMARK SMILES COc1cc(C(=O)[O-])ccc1O
REMARK SMILES IDX 5 1 9 2 4 3 10 4 3 5 11 6 6 7 7 8 8 9 2 10 1 11 12 12
REMARK H PARENT 12 13
REMARK Flexibility Score: inf
ROOT
ATOM      1  C   UNL     1       1.556  63.980  -6.855  1.00  0.00     0.001 A 
ATOM      2  C   UNL     1       0.999  64.189  -5.583  1.00  0.00     0.014 A 
ATOM      3  C   UNL     1       1.933  62.679  -7.232  1.00  0.00     0.060 A 
ATOM      4  C   UNL     1       0.822  63.119  -4.706  1.00  0.00     0.051 A 
ATOM      5  C   UNL     1       1.757  61.595  -6.348  1.00  0.00     0.161 A 
ATOM      6  C   UNL     1       1.197  61.826  -5.079  1.00  0.00     0.157 A 
ENDROOT
BRANCH   1   7
ATOM      7  C   UNL     1       1.745  65.113  -7.790  1.00  0.00     0.072 C 
ATOM      8  O   UNL     1       2.101  66.244  -7.362  1.00  0.00    -0.545 OA
ATOM      9  O   UNL     1       1.533  64.947  -9.153  1.00  0.00    -0.545 OA
ENDBRANCH   1   7
BRANCH   5  10
ATOM     10  O   UNL     1       2.125  60.285  -6.697  1.00  0.00    -0.493 OA
ATOM     11  C   UNL     1       2.068  59.752  -8.016  1.00  0.00     0.278 C 
ENDBRANCH   5  10
BRANCH   6  12
ATOM     12  O   UNL     1       1.006  60.781  -4.175  1.00  0.00    -0.504 OA
ATOM     13  H   UNL     1       0.084  60.445  -3.924  1.00  0.00     0.293 HD
ENDBRANCH   6  12
TORSDOF 3
ENDMDL
MODEL 5
REMARK VINA RESULT:    -3.164     22.309     23.830
REMARK INTER + INTRA:          -3.722
REMARK INTER:                  -3.626
REMARK INTRA:                  -0.096
REMARK UNBOUND:                -0.096
REMARK SMILES COc1cc(C(=O)[O-])ccc1O
REMARK SMILES IDX 5 1 9 2 4 3 10 4 3 5 11 6 6 7 7 8 8 9 2 10 1 11 12 12
REMARK H PARENT 12 13
REMARK Flexibility Score: inf
ROOT
ATOM      1  C   UNL     1      -4.311  67.514  -6.760  1.00  0.00     0.001 A 
ATOM      2  C   UNL     1      -4.150  67.584  -8.154  1.00  0.00     0.014 A 
ATOM      3  C   UNL     1      -3.181  67.640  -5.933  1.00  0.00     0.060 A 
ATOM      4  C   UNL     1      -2.884  67.777  -8.709  1.00  0.00     0.051 A 
ATOM      5  C   UNL     1      -1.900  67.834  -6.489  1.00  0.00     0.161 A 
ATOM      6  C   UNL     1      -1.761  67.902  -7.888  1.00  0.00     0.157 A 
ENDROOT
BRANCH   1   7
ATOM      7  C   UNL     1      -5.652  67.309  -6.167  1.00  0.00     0.072 C 
ATOM      8  O   UNL     1      -5.925  66.245  -5.551  1.00  0.00    -0.545 OA
ATOM      9  O   UNL     1      -6.631  68.289  -6.282  1.00  0.00    -0.545 OA
ENDBRANCH   1   7
BRANCH   5  10
ATOM     10  O   UNL     1      -0.754  67.962  -5.689  1.00  0.00    -0.493 OA
ATOM     11  C   UNL     1      -0.417  69.125  -4.938  1.00  0.00     0.278 C 
ENDBRANCH   5  10
BRANCH   6  12
ATOM     12  O   UNL     1      -0.512  68.093  -8.479  1.00  0.00    -0.504 OA
ATOM     13  H   UNL     1      -0.036  67.358  -8.987  1.00  0.00     0.293 HD
ENDBRANCH   6  12
TORSDOF 3
ENDMDL
MODEL 6
REMARK VINA RESULT:    -3.118     22.492     24.427
REMARK INTER + INTRA:          -3.670
REMARK INTER:                  -3.583
REMARK INTRA:                  -0.086
REMARK UNBOUND:                -0.096
REMARK SMILES COc1cc(C(=O)[O-])ccc1O
REMARK SMILES IDX 5 1 9 2 4 3 10 4 3 5 11 6 6 7 7 8 8 9 2 10 1 11 12 12
REMARK H PARENT 12 13
REMARK Flexibility Score: inf
ROOT
ATOM      1  C   UNL     1      -2.595  68.189  -7.338  1.00  0.00     0.001 A 
ATOM      2  C   UNL     1      -2.436  67.284  -6.275  1.00  0.00     0.014 A 
ATOM      3  C   UNL     1      -3.892  68.573  -7.721  1.00  0.00     0.060 A 
ATOM      4  C   UNL     1      -3.551  66.775  -5.609  1.00  0.00     0.051 A 
ATOM      5  C   UNL     1      -5.022  68.060  -7.052  1.00  0.00     0.161 A 
ATOM      6  C   UNL     1      -4.840  67.156  -5.989  1.00  0.00     0.157 A 
ENDROOT
BRANCH   1   7
ATOM      7  C   UNL     1      -1.414  68.732  -8.047  1.00  0.00     0.072 C 
ATOM      8  O   UNL     1      -1.469  68.990  -9.279  1.00  0.00    -0.545 OA
ATOM      9  O   UNL     1      -0.226  68.964  -7.364  1.00  0.00    -0.545 OA
ENDBRANCH   1   7
BRANCH   5  10
ATOM     10  O   UNL     1      -6.329  68.426  -7.412  1.00  0.00    -0.493 OA
ATOM     11  C   UNL     1      -6.832  68.418  -8.745  1.00  0.00     0.278 C 
ENDBRANCH   5  10
BRANCH   6  12
ATOM     12  O   UNL     1      -5.931  66.625  -5.301  1.00  0.00    -0.504 OA
ATOM     13  H   UNL     1      -5.828  65.902  -4.600  1.00  0.00     0.293 HD
ENDBRANCH   6  12
TORSDOF 3
ENDMDL
MODEL 7
REMARK VINA RESULT:    -2.885     22.919     24.362
REMARK INTER + INTRA:          -3.402
REMARK INTER:                  -3.307
REMARK INTRA:                  -0.096
REMARK UNBOUND:                -0.096
REMARK SMILES COc1cc(C(=O)[O-])ccc1O
REMARK SMILES IDX 5 1 9 2 4 3 10 4 3 5 11 6 6 7 7 8 8 9 2 10 1 11 12 12
REMARK H PARENT 12 13
REMARK Flexibility Score: inf
ROOT
ATOM      1  C   UNL     1      -1.509  68.265  -6.298  1.00  0.00     0.001 A 
ATOM      2  C   UNL     1      -1.302  68.329  -7.686  1.00  0.00     0.014 A 
ATOM      3  C   UNL     1      -2.766  67.864  -5.812  1.00  0.00     0.060 A 
ATOM      4  C   UNL     1      -2.330  67.997  -8.569  1.00  0.00     0.051 A 
ATOM      5  C   UNL     1      -3.808  67.529  -6.700  1.00  0.00     0.161 A 
ATOM      6  C   UNL     1      -3.579  67.599  -8.087  1.00  0.00     0.157 A 
ENDROOT
BRANCH   1   7
ATOM      7  C   UNL     1      -0.421  68.615  -5.358  1.00  0.00     0.072 C 
ATOM      8  O   UNL     1       0.785  68.455  -5.686  1.00  0.00    -0.545 OA
ATOM      9  O   UNL     1      -0.713  69.125  -4.099  1.00  0.00    -0.545 OA
ENDBRANCH   1   7
BRANCH   5  10
ATOM     10  O   UNL     1      -5.074  67.125  -6.244  1.00  0.00    -0.493 OA
ATOM     11  C   UNL     1      -6.142  68.013  -5.931  1.00  0.00     0.278 C 
ENDBRANCH   5  10
BRANCH   6  12
ATOM     12  O   UNL     1      -4.583  67.276  -9.000  1.00  0.00    -0.504 OA
ATOM     13  H   UNL     1      -5.376  67.883  -9.168  1.00  0.00     0.293 HD
ENDBRANCH   6  12
TORSDOF 3
ENDMDL
