MODEL 1
REMARK VINA RESULT:    -3.318      0.000      0.000
REMARK INTER + INTRA:          -4.461
REMARK INTER:                  -4.094
REMARK INTRA:                  -0.368
REMARK UNBOUND:                -0.368
REMARK SMILES C=CC[C@@H](C)C(=O)CC
REMARK SMILES IDX 4 1 5 2 6 3 7 4 8 5 9 6 3 7 2 8 1 9
REMARK H PARENT
REMARK Flexibility Score: inf
ROOT
ATOM      1  C   UNL     1       9.894 -23.941  39.540  1.00  0.00     0.057 C 
ATOM      2  C   UNL     1      11.397 -24.203  39.367  1.00  0.00     0.016 C 
ENDROOT
BRANCH   1   3
ATOM      3  C   UNL     1       9.163 -25.250  39.743  1.00  0.00     0.135 C 
ATOM      4  O   UNL     1       8.961 -25.986  38.786  1.00  0.00    -0.299 OA
BRANCH   3   5
ATOM      5  C   UNL     1       8.670 -25.667  41.104  1.00  0.00     0.072 C 
ATOM      6  C   UNL     1       9.703 -26.539  41.810  1.00  0.00     0.012 C 
ENDBRANCH   3   5
ENDBRANCH   1   3
BRANCH   1   7
ATOM      7  C   UNL     1       9.613 -22.992  40.722  1.00  0.00     0.038 C 
BRANCH   7   8
ATOM      8  C   UNL     1      10.883 -22.400  41.272  1.00  0.00    -0.034 C 
ATOM      9  C   UNL     1      11.286 -22.630  42.524  1.00  0.00     0.004 C 
ENDBRANCH   7   8
ENDBRANCH   1   7
TORSDOF 4
ENDMDL
MODEL 2
REMARK VINA RESULT:    -3.312      7.477      8.851
REMARK INTER + INTRA:          -4.454
REMARK INTER:                  -4.233
REMARK INTRA:                  -0.222
REMARK UNBOUND:                -0.368
REMARK SMILES C=CC[C@@H](C)C(=O)CC
REMARK SMILES IDX 4 1 5 2 6 3 7 4 8 5 9 6 3 7 2 8 1 9
REMARK H PARENT
REMARK Flexibility Score: inf
ROOT
ATOM      1  C   UNL     1       2.258 -28.158  39.111  1.00  0.00     0.057 C 
ATOM      2  C   UNL     1       3.696 -28.263  38.587  1.00  0.00     0.016 C 
ENDROOT
BRANCH   1   3
ATOM      3  C   UNL     1       1.524 -29.459  38.866  1.00  0.00     0.135 C 
ATOM      4  O   UNL     1       0.580 -29.485  38.088  1.00  0.00    -0.299 OA
BRANCH   3   5
ATOM      5  C   UNL     1       1.928 -30.729  39.568  1.00  0.00     0.072 C 
ATOM      6  C   UNL     1       2.384 -31.781  38.563  1.00  0.00     0.012 C 
ENDBRANCH   3   5
ENDBRANCH   1   3
BRANCH   1   7
ATOM      7  C   UNL     1       2.221 -27.808  40.612  1.00  0.00     0.038 C 
BRANCH   7   8
ATOM      8  C   UNL     1       2.919 -26.504  40.894  1.00  0.00    -0.034 C 
ATOM      9  C   UNL     1       3.914 -26.412  41.781  1.00  0.00     0.004 C 
ENDBRANCH   7   8
ENDBRANCH   1   7
TORSDOF 4
ENDMDL
MODEL 3
REMARK VINA RESULT:    -3.302      8.458     10.491
REMARK INTER + INTRA:          -4.442
REMARK INTER:                  -4.308
REMARK INTRA:                  -0.134
REMARK UNBOUND:                -0.368
REMARK SMILES C=CC[C@@H](C)C(=O)CC
REMARK SMILES IDX 4 1 5 2 6 3 7 4 8 5 9 6 3 7 2 8 1 9
REMARK H PARENT
REMARK Flexibility Score: inf
ROOT
ATOM      1  C   UNL     1       1.736 -29.793  39.235  1.00  0.00     0.057 C 
ATOM      2  C   UNL     1       2.753 -30.894  38.903  1.00  0.00     0.016 C 
ENDROOT
BRANCH   1   3
ATOM      3  C   UNL     1       2.461 -28.504  39.558  1.00  0.00     0.135 C 
ATOM      4  O   UNL     1       3.587 -28.315  39.116  1.00  0.00    -0.299 OA
BRANCH   3   5
ATOM      5  C   UNL     1       1.827 -27.446  40.422  1.00  0.00     0.072 C 
ATOM      6  C   UNL     1       2.869 -26.437  40.895  1.00  0.00     0.012 C 
ENDBRANCH   3   5
ENDBRANCH   1   3
BRANCH   1   7
ATOM      7  C   UNL     1       0.745 -29.563  38.078  1.00  0.00     0.038 C 
BRANCH   7   8
ATOM      8  C   UNL     1      -0.071 -30.796  37.794  1.00  0.00    -0.034 C 
ATOM      9  C   UNL     1      -1.395 -30.743  37.624  1.00  0.00     0.004 C 
ENDBRANCH   7   8
ENDBRANCH   1   7
TORSDOF 4
ENDMDL
MODEL 4
REMARK VINA RESULT:    -3.253      1.458      2.485
REMARK INTER + INTRA:          -4.381
REMARK INTER:                  -3.924
REMARK INTRA:                  -0.457
REMARK UNBOUND:                -0.368
REMARK SMILES C=CC[C@@H](C)C(=O)CC
REMARK SMILES IDX 4 1 5 2 6 3 7 4 8 5 9 6 3 7 2 8 1 9
REMARK H PARENT
REMARK Flexibility Score: inf
ROOT
ATOM      1  C   UNL     1      10.102 -24.583  40.946  1.00  0.00     0.057 C 
ATOM      2  C   UNL     1       8.825 -25.431  40.854  1.00  0.00     0.016 C 
ENDROOT
BRANCH   1   3
ATOM      3  C   UNL     1      11.094 -25.030  39.894  1.00  0.00     0.135 C 
ATOM      4  O   UNL     1      10.880 -24.781  38.715  1.00  0.00    -0.299 OA
BRANCH   3   5
ATOM      5  C   UNL     1      12.343 -25.784  40.267  1.00  0.00     0.072 C 
ATOM      6  C   UNL     1      13.529 -24.834  40.401  1.00  0.00     0.012 C 
ENDBRANCH   3   5
ENDBRANCH   1   3
BRANCH   1   7
ATOM      7  C   UNL     1       9.803 -23.080  40.783  1.00  0.00     0.038 C 
BRANCH   7   8
ATOM      8  C   UNL     1      10.918 -22.231  41.333  1.00  0.00    -0.034 C 
ATOM      9  C   UNL     1      11.491 -22.493  42.510  1.00  0.00     0.004 C 
ENDBRANCH   7   8
ENDBRANCH   1   7
TORSDOF 4
ENDMDL
MODEL 5
REMARK VINA RESULT:    -3.133      8.535      9.978
REMARK INTER + INTRA:          -4.234
REMARK INTER:                  -4.050
REMARK INTRA:                  -0.183
REMARK UNBOUND:                -0.368
REMARK SMILES C=CC[C@@H](C)C(=O)CC
REMARK SMILES IDX 4 1 5 2 6 3 7 4 8 5 9 6 3 7 2 8 1 9
REMARK H PARENT
REMARK Flexibility Score: inf
ROOT
ATOM      1  C   UNL     1       2.130 -29.068  38.772  1.00  0.00     0.057 C 
ATOM      2  C   UNL     1       3.549 -29.607  38.545  1.00  0.00     0.016 C 
ENDROOT
BRANCH   1   3
ATOM      3  C   UNL     1       1.112 -30.095  38.325  1.00  0.00     0.135 C 
ATOM      4  O   UNL     1       1.331 -31.285  38.509  1.00  0.00    -0.299 OA
BRANCH   3   5
ATOM      5  C   UNL     1      -0.170 -29.682  37.650  1.00  0.00     0.072 C 
ATOM      6  C   UNL     1      -1.162 -30.840  37.621  1.00  0.00     0.012 C 
ENDBRANCH   3   5
ENDBRANCH   1   3
BRANCH   1   7
ATOM      7  C   UNL     1       1.889 -28.695  40.247  1.00  0.00     0.038 C 
BRANCH   7   8
ATOM      8  C   UNL     1       2.009 -27.211  40.471  1.00  0.00    -0.034 C 
ATOM      9  C   UNL     1       3.106 -26.662  41.000  1.00  0.00     0.004 C 
ENDBRANCH   7   8
ENDBRANCH   1   7
TORSDOF 4
ENDMDL
MODEL 6
REMARK VINA RESULT:    -3.132      1.308      3.503
REMARK INTER + INTRA:          -4.232
REMARK INTER:                  -3.857
REMARK INTRA:                  -0.375
REMARK UNBOUND:                -0.368
REMARK SMILES C=CC[C@@H](C)C(=O)CC
REMARK SMILES IDX 4 1 5 2 6 3 7 4 8 5 9 6 3 7 2 8 1 9
REMARK H PARENT
REMARK Flexibility Score: inf
ROOT
ATOM      1  C   UNL     1      10.616 -25.412  40.582  1.00  0.00     0.057 C 
ATOM      2  C   UNL     1      11.084 -26.480  39.584  1.00  0.00     0.016 C 
ENDROOT
BRANCH   1   3
ATOM      3  C   UNL     1       9.800 -24.359  39.864  1.00  0.00     0.135 C 
ATOM      4  O   UNL     1       9.372 -24.586  38.740  1.00  0.00    -0.299 OA
BRANCH   3   5
ATOM      5  C   UNL     1       9.505 -23.027  40.503  1.00  0.00     0.072 C 
ATOM      6  C   UNL     1      10.780 -22.400  41.058  1.00  0.00     0.012 C 
ENDBRANCH   3   5
ENDBRANCH   1   3
BRANCH   1   7
ATOM      7  C   UNL     1       9.790 -26.025  41.730  1.00  0.00     0.038 C 
BRANCH   7   8
ATOM      8  C   UNL     1       8.868 -27.106  41.233  1.00  0.00    -0.034 C 
ATOM      9  C   UNL     1       7.541 -27.018  41.364  1.00  0.00     0.004 C 
ENDBRANCH   7   8
ENDBRANCH   1   7
TORSDOF 4
ENDMDL
MODEL 7
REMARK VINA RESULT:    -3.071      2.274      3.932
REMARK INTER + INTRA:          -4.157
REMARK INTER:                  -3.646
REMARK INTRA:                  -0.511
REMARK UNBOUND:                -0.368
REMARK SMILES C=CC[C@@H](C)C(=O)CC
REMARK SMILES IDX 4 1 5 2 6 3 7 4 8 5 9 6 3 7 2 8 1 9
REMARK H PARENT
REMARK Flexibility Score: inf
ROOT
ATOM      1  C   UNL     1      11.198 -22.110  41.346  1.00  0.00     0.057 C 
ATOM      2  C   UNL     1      11.382 -22.728  42.739  1.00  0.00     0.016 C 
ENDROOT
BRANCH   1   3
ATOM      3  C   UNL     1      12.392 -22.439  40.476  1.00  0.00     0.135 C 
ATOM      4  O   UNL     1      12.509 -21.903  39.382  1.00  0.00    -0.299 OA
BRANCH   3   5
ATOM      5  C   UNL     1      13.442 -23.420  40.927  1.00  0.00     0.072 C 
ATOM      6  C   UNL     1      13.395 -24.688  40.080  1.00  0.00     0.012 C 
ENDBRANCH   3   5
ENDBRANCH   1   3
BRANCH   1   7
ATOM      7  C   UNL     1       9.903 -22.601  40.670  1.00  0.00     0.038 C 
BRANCH   7   8
ATOM      8  C   UNL     1       9.776 -24.100  40.737  1.00  0.00    -0.034 C 
ATOM      9  C   UNL     1       9.515 -24.836  39.654  1.00  0.00     0.004 C 
ENDBRANCH   7   8
ENDBRANCH   1   7
TORSDOF 4
ENDMDL
MODEL 8
REMARK VINA RESULT:    -3.058      1.997      4.114
REMARK INTER + INTRA:          -4.141
REMARK INTER:                  -3.947
REMARK INTRA:                  -0.194
REMARK UNBOUND:                -0.368
REMARK SMILES C=CC[C@@H](C)C(=O)CC
REMARK SMILES IDX 4 1 5 2 6 3 7 4 8 5 9 6 3 7 2 8 1 9
REMARK H PARENT
REMARK Flexibility Score: inf
ROOT
ATOM      1  C   UNL     1      10.573 -23.991  40.563  1.00  0.00     0.057 C 
ATOM      2  C   UNL     1       9.476 -22.919  40.614  1.00  0.00     0.016 C 
ENDROOT
BRANCH   1   3
ATOM      3  C   UNL     1      11.822 -23.483  41.249  1.00  0.00     0.135 C 
ATOM      4  O   UNL     1      12.918 -23.902  40.901  1.00  0.00    -0.299 OA
BRANCH   3   5
ATOM      5  C   UNL     1      11.746 -22.470  42.362  1.00  0.00     0.072 C 
ATOM      6  C   UNL     1      12.855 -21.432  42.225  1.00  0.00     0.012 C 
ENDBRANCH   3   5
ENDBRANCH   1   3
BRANCH   1   7
ATOM      7  C   UNL     1      10.114 -25.310  41.215  1.00  0.00     0.038 C 
BRANCH   7   8
ATOM      8  C   UNL     1       8.650 -25.568  40.973  1.00  0.00    -0.034 C 
ATOM      9  C   UNL     1       8.072 -26.724  41.309  1.00  0.00     0.004 C 
ENDBRANCH   7   8
ENDBRANCH   1   7
TORSDOF 4
ENDMDL
MODEL 9
REMARK VINA RESULT:    -3.020      2.073      3.436
REMARK INTER + INTRA:          -4.094
REMARK INTER:                  -3.819
REMARK INTRA:                  -0.275
REMARK UNBOUND:                -0.368
REMARK SMILES C=CC[C@@H](C)C(=O)CC
REMARK SMILES IDX 4 1 5 2 6 3 7 4 8 5 9 6 3 7 2 8 1 9
REMARK H PARENT
REMARK Flexibility Score: inf
ROOT
ATOM      1  C   UNL     1      10.862 -23.257  40.960  1.00  0.00     0.057 C 
ATOM      2  C   UNL     1       9.428 -22.900  40.545  1.00  0.00     0.016 C 
ENDROOT
BRANCH   1   3
ATOM      3  C   UNL     1      11.622 -23.804  39.770  1.00  0.00     0.135 C 
ATOM      4  O   UNL     1      11.031 -24.464  38.926  1.00  0.00    -0.299 OA
BRANCH   3   5
ATOM      5  C   UNL     1      13.098 -23.557  39.604  1.00  0.00     0.072 C 
ATOM      6  C   UNL     1      13.382 -22.842  38.286  1.00  0.00     0.012 C 
ENDBRANCH   3   5
ENDBRANCH   1   3
BRANCH   1   7
ATOM      7  C   UNL     1      11.607 -22.041  41.545  1.00  0.00     0.038 C 
BRANCH   7   8
ATOM      8  C   UNL     1      12.121 -22.320  42.932  1.00  0.00    -0.034 C 
ATOM      9  C   UNL     1      13.285 -21.831  43.366  1.00  0.00     0.004 C 
ENDBRANCH   7   8
ENDBRANCH   1   7
TORSDOF 4
ENDMDL
