MODEL 1
REMARK VINA RESULT:    -3.585      0.000      0.000
REMARK INTER + INTRA:          -6.677
REMARK INTER:                  -5.680
REMARK INTRA:                  -0.996
REMARK UNBOUND:                -0.996
REMARK SMILES CCCCCCCCCCCC(=O)[O-]
REMARK SMILES IDX 7 1 8 2 9 3 10 4 11 5 12 6 13 7 14 8 6 9 5 10 4 11 3 12 2 13
REMARK SMILES IDX 1 14
REMARK H PARENT
REMARK Flexibility Score: inf
ROOT
ATOM      1  C   UNL     1     -17.691  31.967 -41.611  1.00  0.00     0.000 C 
ENDROOT
BRANCH   1   2
ATOM      2  C   UNL     1     -18.868  31.770 -42.583  1.00  0.00     0.000 C 
BRANCH   2   3
ATOM      3  C   UNL     1     -19.661  30.464 -42.394  1.00  0.00     0.000 C 
BRANCH   3   4
ATOM      4  C   UNL     1     -21.143  30.707 -42.063  1.00  0.00     0.006 C 
BRANCH   4   5
ATOM      5  C   UNL     1     -22.061  29.658 -42.708  1.00  0.00     0.053 C 
BRANCH   5   6
ATOM      6  C   UNL     1     -23.400  29.601 -42.038  1.00  0.00     0.041 C 
ATOM      7  O   UNL     1     -23.925  30.651 -41.584  1.00  0.00    -0.550 OA
ATOM      8  O   UNL     1     -24.054  28.384 -41.891  1.00  0.00    -0.550 OA
ENDBRANCH   5   6
ENDBRANCH   4   5
ENDBRANCH   3   4
ENDBRANCH   2   3
ENDBRANCH   1   2
BRANCH   1   9
ATOM      9  C   UNL     1     -18.050  32.841 -40.401  1.00  0.00     0.000 C 
BRANCH   9  10
ATOM     10  C   UNL     1     -18.409  31.976 -39.184  1.00  0.00    -0.000 C 
BRANCH  10  11
ATOM     11  C   UNL     1     -19.822  32.260 -38.650  1.00  0.00    -0.000 C 
BRANCH  11  12
ATOM     12  C   UNL     1     -20.504  33.432 -39.373  1.00  0.00    -0.000 C 
BRANCH  12  13
ATOM     13  C   UNL     1     -22.028  33.359 -39.221  1.00  0.00    -0.003 C 
ATOM     14  C   UNL     1     -22.515  34.266 -38.095  1.00  0.00     0.004 C 
ENDBRANCH  12  13
ENDBRANCH  11  12
ENDBRANCH  10  11
ENDBRANCH   9  10
ENDBRANCH   1   9
TORSDOF 10
ENDMDL
MODEL 2
REMARK VINA RESULT:    -3.581      2.269      4.358
REMARK INTER + INTRA:          -6.672
REMARK INTER:                  -5.403
REMARK INTRA:                  -1.269
REMARK UNBOUND:                -0.996
REMARK SMILES CCCCCCCCCCCC(=O)[O-]
REMARK SMILES IDX 7 1 8 2 9 3 10 4 11 5 12 6 13 7 14 8 6 9 5 10 4 11 3 12 2 13
REMARK SMILES IDX 1 14
REMARK H PARENT
REMARK Flexibility Score: inf
ROOT
ATOM      1  C   UNL     1     -18.271  31.874 -40.853  1.00  0.00     0.000 C 
ENDROOT
BRANCH   1   2
ATOM      2  C   UNL     1     -18.663  32.956 -39.831  1.00  0.00     0.000 C 
BRANCH   2   3
ATOM      3  C   UNL     1     -20.155  33.333 -39.818  1.00  0.00     0.000 C 
BRANCH   3   4
ATOM      4  C   UNL     1     -20.660  33.732 -38.421  1.00  0.00     0.006 C 
BRANCH   4   5
ATOM      5  C   UNL     1     -22.141  34.140 -38.434  1.00  0.00     0.053 C 
BRANCH   5   6
ATOM      6  C   UNL     1     -23.002  33.137 -37.728  1.00  0.00     0.041 C 
ATOM      7  O   UNL     1     -24.252  33.164 -37.872  1.00  0.00    -0.550 OA
ATOM      8  O   UNL     1     -22.425  32.191 -36.889  1.00  0.00    -0.550 OA
ENDBRANCH   5   6
ENDBRANCH   4   5
ENDBRANCH   3   4
ENDBRANCH   2   3
ENDBRANCH   1   2
BRANCH   1   9
ATOM      9  C   UNL     1     -19.177  31.862 -42.093  1.00  0.00     0.000 C 
BRANCH   9  10
ATOM     10  C   UNL     1     -19.615  30.432 -42.440  1.00  0.00    -0.000 C 
BRANCH  10  11
ATOM     11  C   UNL     1     -21.142  30.284 -42.527  1.00  0.00    -0.000 C 
BRANCH  11  12
ATOM     12  C   UNL     1     -21.744  29.604 -41.289  1.00  0.00    -0.000 C 
BRANCH  12  13
ATOM     13  C   UNL     1     -22.476  30.619 -40.404  1.00  0.00    -0.003 C 
ATOM     14  C   UNL     1     -23.176  31.682 -41.246  1.00  0.00     0.004 C 
ENDBRANCH  12  13
ENDBRANCH  11  12
ENDBRANCH  10  11
ENDBRANCH   9  10
ENDBRANCH   1   9
TORSDOF 10
ENDMDL
MODEL 3
REMARK VINA RESULT:    -3.570      2.690      4.175
REMARK INTER + INTRA:          -6.653
REMARK INTER:                  -5.811
REMARK INTRA:                  -0.842
REMARK UNBOUND:                -0.996
REMARK SMILES CCCCCCCCCCCC(=O)[O-]
REMARK SMILES IDX 7 1 8 2 9 3 10 4 11 5 12 6 13 7 14 8 6 9 5 10 4 11 3 12 2 13
REMARK SMILES IDX 1 14
REMARK H PARENT
REMARK Flexibility Score: inf
ROOT
ATOM      1  C   UNL     1     -23.764  31.313 -41.497  1.00  0.00     0.000 C 
ENDROOT
BRANCH   1   2
ATOM      2  C   UNL     1     -23.503  29.832 -41.829  1.00  0.00     0.000 C 
BRANCH   2   3
ATOM      3  C   UNL     1     -22.193  29.553 -42.588  1.00  0.00     0.000 C 
BRANCH   3   4
ATOM      4  C   UNL     1     -21.279  30.787 -42.679  1.00  0.00     0.006 C 
BRANCH   4   5
ATOM      5  C   UNL     1     -19.800  30.429 -42.474  1.00  0.00     0.053 C 
BRANCH   5   6
ATOM      6  C   UNL     1     -18.915  31.634 -42.580  1.00  0.00     0.041 C 
ATOM      7  O   UNL     1     -18.643  32.312 -41.554  1.00  0.00    -0.550 OA
ATOM      8  O   UNL     1     -18.415  32.024 -43.816  1.00  0.00    -0.550 OA
ENDBRANCH   5   6
ENDBRANCH   4   5
ENDBRANCH   3   4
ENDBRANCH   2   3
ENDBRANCH   1   2
BRANCH   1   9
ATOM      9  C   UNL     1     -23.832  31.587 -39.988  1.00  0.00     0.000 C 
BRANCH   9  10
ATOM     10  C   UNL     1     -22.425  31.623 -39.372  1.00  0.00    -0.000 C 
BRANCH  10  11
ATOM     11  C   UNL     1     -21.671  32.923 -39.693  1.00  0.00    -0.000 C 
BRANCH  11  12
ATOM     12  C   UNL     1     -21.074  33.587 -38.444  1.00  0.00    -0.000 C 
BRANCH  12  13
ATOM     13  C   UNL     1     -22.101  34.497 -37.761  1.00  0.00    -0.003 C 
ATOM     14  C   UNL     1     -22.873  33.746 -36.680  1.00  0.00     0.004 C 
ENDBRANCH  12  13
ENDBRANCH  11  12
ENDBRANCH  10  11
ENDBRANCH   9  10
ENDBRANCH   1   9
TORSDOF 10
ENDMDL
MODEL 4
REMARK VINA RESULT:    -3.552      1.476      2.103
REMARK INTER + INTRA:          -6.624
REMARK INTER:                  -5.485
REMARK INTRA:                  -1.139
REMARK UNBOUND:                -0.996
REMARK SMILES CCCCCCCCCCCC(=O)[O-]
REMARK SMILES IDX 7 1 8 2 9 3 10 4 11 5 12 6 13 7 14 8 6 9 5 10 4 11 3 12 2 13
REMARK SMILES IDX 1 14
REMARK H PARENT
REMARK Flexibility Score: inf
ROOT
ATOM      1  C   UNL     1     -20.256  29.751 -40.654  1.00  0.00     0.000 C 
ENDROOT
BRANCH   1   2
ATOM      2  C   UNL     1     -20.309  30.315 -42.085  1.00  0.00     0.000 C 
BRANCH   2   3
ATOM      3  C   UNL     1     -21.671  30.181 -42.790  1.00  0.00     0.000 C 
BRANCH   3   4
ATOM      4  C   UNL     1     -22.711  29.423 -41.948  1.00  0.00     0.006 C 
BRANCH   4   5
ATOM      5  C   UNL     1     -23.948  30.280 -41.645  1.00  0.00     0.053 C 
BRANCH   5   6
ATOM      6  C   UNL     1     -25.214  29.483 -41.734  1.00  0.00     0.041 C 
ATOM      7  O   UNL     1     -26.315  30.006 -41.419  1.00  0.00    -0.550 OA
ATOM      8  O   UNL     1     -25.173  28.154 -42.137  1.00  0.00    -0.550 OA
ENDBRANCH   5   6
ENDBRANCH   4   5
ENDBRANCH   3   4
ENDBRANCH   2   3
ENDBRANCH   1   2
BRANCH   1   9
ATOM      9  C   UNL     1     -20.212  30.845 -39.577  1.00  0.00     0.000 C 
BRANCH   9  10
ATOM     10  C   UNL     1     -19.742  32.182 -40.171  1.00  0.00    -0.000 C 
BRANCH  10  11
ATOM     11  C   UNL     1     -20.735  33.326 -39.914  1.00  0.00    -0.000 C 
BRANCH  11  12
ATOM     12  C   UNL     1     -22.169  32.827 -39.683  1.00  0.00    -0.000 C 
BRANCH  12  13
ATOM     13  C   UNL     1     -22.864  33.641 -38.586  1.00  0.00    -0.003 C 
ATOM     14  C   UNL     1     -21.868  34.514 -37.830  1.00  0.00     0.004 C 
ENDBRANCH  12  13
ENDBRANCH  11  12
ENDBRANCH  10  11
ENDBRANCH   9  10
ENDBRANCH   1   9
TORSDOF 10
ENDMDL
MODEL 5
REMARK VINA RESULT:    -3.530      3.058      4.116
REMARK INTER + INTRA:          -6.590
REMARK INTER:                  -5.442
REMARK INTRA:                  -1.149
REMARK UNBOUND:                -0.996
REMARK SMILES CCCCCCCCCCCC(=O)[O-]
REMARK SMILES IDX 7 1 8 2 9 3 10 4 11 5 12 6 13 7 14 8 6 9 5 10 4 11 3 12 2 13
REMARK SMILES IDX 1 14
REMARK H PARENT
REMARK Flexibility Score: inf
ROOT
ATOM      1  C   UNL     1     -21.836  32.607 -40.341  1.00  0.00     0.000 C 
ENDROOT
BRANCH   1   2
ATOM      2  C   UNL     1     -21.516  31.124 -40.601  1.00  0.00     0.000 C 
BRANCH   2   3
ATOM      3  C   UNL     1     -20.140  30.654 -40.094  1.00  0.00     0.000 C 
BRANCH   3   4
ATOM      4  C   UNL     1     -19.239  30.117 -41.219  1.00  0.00     0.006 C 
BRANCH   4   5
ATOM      5  C   UNL     1     -19.514  30.809 -42.562  1.00  0.00     0.053 C 
BRANCH   5   6
ATOM      6  C   UNL     1     -18.481  31.848 -42.876  1.00  0.00     0.041 C 
ATOM      7  O   UNL     1     -18.314  32.236 -44.063  1.00  0.00    -0.550 OA
ATOM      8  O   UNL     1     -17.684  32.365 -41.863  1.00  0.00    -0.550 OA
ENDBRANCH   5   6
ENDBRANCH   4   5
ENDBRANCH   3   4
ENDBRANCH   2   3
ENDBRANCH   1   2
BRANCH   1   9
ATOM      9  C   UNL     1     -20.613  33.415 -39.883  1.00  0.00     0.000 C 
BRANCH   9  10
ATOM     10  C   UNL     1     -20.908  34.167 -38.577  1.00  0.00    -0.000 C 
BRANCH  10  11
ATOM     11  C   UNL     1     -22.367  34.009 -38.119  1.00  0.00    -0.000 C 
BRANCH  11  12
ATOM     12  C   UNL     1     -22.489  33.314 -36.755  1.00  0.00    -0.000 C 
BRANCH  12  13
ATOM     13  C   UNL     1     -21.871  31.912 -36.796  1.00  0.00    -0.003 C 
ATOM     14  C   UNL     1     -20.763  31.765 -35.757  1.00  0.00     0.004 C 
ENDBRANCH  12  13
ENDBRANCH  11  12
ENDBRANCH  10  11
ENDBRANCH   9  10
ENDBRANCH   1   9
TORSDOF 10
ENDMDL
MODEL 6
REMARK VINA RESULT:    -3.496     12.713     14.561
REMARK INTER + INTRA:          -6.537
REMARK INTER:                  -4.847
REMARK INTRA:                  -1.690
REMARK UNBOUND:                -0.996
REMARK SMILES CCCCCCCCCCCC(=O)[O-]
REMARK SMILES IDX 7 1 8 2 9 3 10 4 11 5 12 6 13 7 14 8 6 9 5 10 4 11 3 12 2 13
REMARK SMILES IDX 1 14
REMARK H PARENT
REMARK Flexibility Score: inf
ROOT
ATOM      1  C   UNL     1     -26.286  20.681 -38.532  1.00  0.00     0.000 C 
ENDROOT
BRANCH   1   2
ATOM      2  C   UNL     1     -26.716  19.233 -38.833  1.00  0.00     0.000 C 
BRANCH   2   3
ATOM      3  C   UNL     1     -26.363  18.206 -37.742  1.00  0.00     0.000 C 
BRANCH   3   4
ATOM      4  C   UNL     1     -25.682  18.842 -36.518  1.00  0.00     0.006 C 
BRANCH   4   5
ATOM      5  C   UNL     1     -26.027  18.105 -35.215  1.00  0.00     0.053 C 
BRANCH   5   6
ATOM      6  C   UNL     1     -25.870  18.991 -34.016  1.00  0.00     0.041 C 
ATOM      7  O   UNL     1     -26.881  19.518 -33.483  1.00  0.00    -0.550 OA
ATOM      8  O   UNL     1     -24.605  19.255 -33.507  1.00  0.00    -0.550 OA
ENDBRANCH   5   6
ENDBRANCH   4   5
ENDBRANCH   3   4
ENDBRANCH   2   3
ENDBRANCH   1   2
BRANCH   1   9
ATOM      9  C   UNL     1     -27.469  21.658 -38.470  1.00  0.00     0.000 C 
BRANCH   9  10
ATOM     10  C   UNL     1     -27.455  22.456 -37.158  1.00  0.00    -0.000 C 
BRANCH  10  11
ATOM     11  C   UNL     1     -28.018  21.656 -35.972  1.00  0.00    -0.000 C 
BRANCH  11  12
ATOM     12  C   UNL     1     -29.401  21.056 -36.264  1.00  0.00    -0.000 C 
BRANCH  12  13
ATOM     13  C   UNL     1     -29.418  19.550 -35.979  1.00  0.00    -0.003 C 
ATOM     14  C   UNL     1     -29.978  18.770 -37.165  1.00  0.00     0.004 C 
ENDBRANCH  12  13
ENDBRANCH  11  12
ENDBRANCH  10  11
ENDBRANCH   9  10
ENDBRANCH   1   9
TORSDOF 10
ENDMDL
MODEL 7
REMARK VINA RESULT:    -3.483     12.622     14.528
REMARK INTER + INTRA:          -6.515
REMARK INTER:                  -4.870
REMARK INTRA:                  -1.645
REMARK UNBOUND:                -0.996
REMARK SMILES CCCCCCCCCCCC(=O)[O-]
REMARK SMILES IDX 7 1 8 2 9 3 10 4 11 5 12 6 13 7 14 8 6 9 5 10 4 11 3 12 2 13
REMARK SMILES IDX 1 14
REMARK H PARENT
REMARK Flexibility Score: inf
ROOT
ATOM      1  C   UNL     1     -29.159  20.062 -39.223  1.00  0.00     0.000 C 
ENDROOT
BRANCH   1   2
ATOM      2  C   UNL     1     -29.208  18.590 -38.774  1.00  0.00     0.000 C 
BRANCH   2   3
ATOM      3  C   UNL     1     -28.782  18.337 -37.316  1.00  0.00     0.000 C 
BRANCH   3   4
ATOM      4  C   UNL     1     -27.469  17.544 -37.205  1.00  0.00     0.006 C 
BRANCH   4   5
ATOM      5  C   UNL     1     -26.266  18.454 -36.916  1.00  0.00     0.053 C 
BRANCH   5   6
ATOM      6  C   UNL     1     -25.850  18.389 -35.478  1.00  0.00     0.041 C 
ATOM      7  O   UNL     1     -26.117  17.370 -34.787  1.00  0.00    -0.550 OA
ATOM      8  O   UNL     1     -25.194  19.465 -34.894  1.00  0.00    -0.550 OA
ENDBRANCH   5   6
ENDBRANCH   4   5
ENDBRANCH   3   4
ENDBRANCH   2   3
ENDBRANCH   1   2
BRANCH   1   9
ATOM      9  C   UNL     1     -27.854  20.427 -39.945  1.00  0.00     0.000 C 
BRANCH   9  10
ATOM     10  C   UNL     1     -27.003  21.381 -39.094  1.00  0.00    -0.000 C 
BRANCH  10  11
ATOM     11  C   UNL     1     -27.827  22.114 -38.023  1.00  0.00    -0.000 C 
BRANCH  11  12
ATOM     12  C   UNL     1     -27.152  22.100 -36.644  1.00  0.00    -0.000 C 
BRANCH  12  13
ATOM     13  C   UNL     1     -28.069  21.472 -35.589  1.00  0.00    -0.003 C 
ATOM     14  C   UNL     1     -29.485  22.030 -35.685  1.00  0.00     0.004 C 
ENDBRANCH  12  13
ENDBRANCH  11  12
ENDBRANCH  10  11
ENDBRANCH   9  10
ENDBRANCH   1   9
TORSDOF 10
ENDMDL
MODEL 8
REMARK VINA RESULT:    -3.464      1.848      3.955
REMARK INTER + INTRA:          -6.486
REMARK INTER:                  -4.863
REMARK INTRA:                  -1.624
REMARK UNBOUND:                -0.996
REMARK SMILES CCCCCCCCCCCC(=O)[O-]
REMARK SMILES IDX 7 1 8 2 9 3 10 4 11 5 12 6 13 7 14 8 6 9 5 10 4 11 3 12 2 13
REMARK SMILES IDX 1 14
REMARK H PARENT
REMARK Flexibility Score: inf
ROOT
ATOM      1  C   UNL     1     -23.313  33.228 -37.821  1.00  0.00     0.000 C 
ENDROOT
BRANCH   1   2
ATOM      2  C   UNL     1     -22.958  31.731 -37.862  1.00  0.00     0.000 C 
BRANCH   2   3
ATOM      3  C   UNL     1     -23.703  30.912 -38.933  1.00  0.00     0.000 C 
BRANCH   3   4
ATOM      4  C   UNL     1     -24.191  31.770 -40.112  1.00  0.00     0.006 C 
BRANCH   4   5
ATOM      5  C   UNL     1     -23.715  31.220 -41.465  1.00  0.00     0.053 C 
BRANCH   5   6
ATOM      6  C   UNL     1     -24.362  29.909 -41.792  1.00  0.00     0.041 C 
ATOM      7  O   UNL     1     -25.615  29.794 -41.751  1.00  0.00    -0.550 OA
ATOM      8  O   UNL     1     -23.579  28.807 -42.114  1.00  0.00    -0.550 OA
ENDBRANCH   5   6
ENDBRANCH   4   5
ENDBRANCH   3   4
ENDBRANCH   2   3
ENDBRANCH   1   2
BRANCH   1   9
ATOM      9  C   UNL     1     -22.141  34.135 -38.225  1.00  0.00     0.000 C 
BRANCH   9  10
ATOM     10  C   UNL     1     -20.830  33.338 -38.300  1.00  0.00    -0.000 C 
BRANCH  10  11
ATOM     11  C   UNL     1     -20.120  33.491 -39.654  1.00  0.00    -0.000 C 
BRANCH  11  12
ATOM     12  C   UNL     1     -20.264  32.247 -40.543  1.00  0.00    -0.000 C 
BRANCH  12  13
ATOM     13  C   UNL     1     -19.860  30.978 -39.784  1.00  0.00    -0.003 C 
ATOM     14  C   UNL     1     -20.482  29.736 -40.414  1.00  0.00     0.004 C 
ENDBRANCH  12  13
ENDBRANCH  11  12
ENDBRANCH  10  11
ENDBRANCH   9  10
ENDBRANCH   1   9
TORSDOF 10
ENDMDL
MODEL 9
REMARK VINA RESULT:    -3.436     17.041     18.211
REMARK INTER + INTRA:          -6.441
REMARK INTER:                  -4.899
REMARK INTRA:                  -1.541
REMARK UNBOUND:                -0.996
REMARK SMILES CCCCCCCCCCCC(=O)[O-]
REMARK SMILES IDX 7 1 8 2 9 3 10 4 11 5 12 6 13 7 14 8 6 9 5 10 4 11 3 12 2 13
REMARK SMILES IDX 1 14
REMARK H PARENT
REMARK Flexibility Score: inf
ROOT
ATOM      1  C   UNL     1     -24.395  20.128 -27.225  1.00  0.00     0.000 C 
ENDROOT
BRANCH   1   2
ATOM      2  C   UNL     1     -24.026  19.546 -28.602  1.00  0.00     0.000 C 
BRANCH   2   3
ATOM      3  C   UNL     1     -22.978  20.352 -29.392  1.00  0.00     0.000 C 
BRANCH   3   4
ATOM      4  C   UNL     1     -22.185  19.489 -30.387  1.00  0.00     0.006 C 
BRANCH   4   5
ATOM      5  C   UNL     1     -22.674  18.033 -30.411  1.00  0.00     0.053 C 
BRANCH   5   6
ATOM      6  C   UNL     1     -23.410  17.713 -31.676  1.00  0.00     0.041 C 
ATOM      7  O   UNL     1     -22.937  16.875 -32.489  1.00  0.00    -0.550 OA
ATOM      8  O   UNL     1     -24.603  18.361 -31.970  1.00  0.00    -0.550 OA
ENDBRANCH   5   6
ENDBRANCH   4   5
ENDBRANCH   3   4
ENDBRANCH   2   3
ENDBRANCH   1   2
BRANCH   1   9
ATOM      9  C   UNL     1     -23.644  19.454 -26.067  1.00  0.00     0.000 C 
BRANCH   9  10
ATOM     10  C   UNL     1     -23.464  17.951 -26.330  1.00  0.00    -0.000 C 
BRANCH  10  11
ATOM     11  C   UNL     1     -22.006  17.492 -26.168  1.00  0.00    -0.000 C 
BRANCH  11  12
ATOM     12  C   UNL     1     -21.026  18.667 -26.035  1.00  0.00    -0.000 C 
BRANCH  12  13
ATOM     13  C   UNL     1     -20.187  18.830 -27.307  1.00  0.00    -0.003 C 
ATOM     14  C   UNL     1     -19.908  17.480 -27.962  1.00  0.00     0.004 C 
ENDBRANCH  12  13
ENDBRANCH  11  12
ENDBRANCH  10  11
ENDBRANCH   9  10
ENDBRANCH   1   9
TORSDOF 10
ENDMDL
