MODEL 1
REMARK VINA RESULT:    -0.331      0.000      0.000
REMARK INTER + INTRA:           1.419
REMARK INTER:                  -0.622
REMARK INTRA:                   2.040
REMARK UNBOUND:                 2.040
REMARK SMILES O=C([O-])CCCCCCCCCCCCCCC(=O)[O-]
REMARK SMILES IDX 10 1 9 2 8 3 7 4 6 5 5 6 4 7 2 8 1 9 3 10 11 11 12 12 13 13
REMARK SMILES IDX 14 14 15 15 16 16 17 17 18 18 19 19 20 20
REMARK H PARENT
REMARK Flexibility Score: inf
ROOT
ATOM      1  C   UNL     1      54.379 147.626  -0.254  1.00  0.00     0.000 C 
ENDROOT
BRANCH   1   2
ATOM      2  C   UNL     1      54.518 147.111  -1.697  1.00  0.00     0.000 C 
BRANCH   2   3
ATOM      3  C   UNL     1      54.013 148.125  -2.736  1.00  0.00     0.000 C 
BRANCH   3   4
ATOM      4  C   UNL     1      53.296 147.456  -3.920  1.00  0.00     0.000 C 
BRANCH   4   5
ATOM      5  C   UNL     1      54.309 146.927  -4.946  1.00  0.00     0.000 C 
BRANCH   5   6
ATOM      6  C   UNL     1      54.538 147.900  -6.117  1.00  0.00     0.006 C 
BRANCH   6   7
ATOM      7  C   UNL     1      53.303 148.122  -7.005  1.00  0.00     0.053 C 
BRANCH   7   8
ATOM      8  C   UNL     1      52.056 147.589  -6.372  1.00  0.00     0.041 C 
ATOM      9  O   UNL     1      51.676 148.026  -5.253  1.00  0.00    -0.550 OA
ATOM     10  O   UNL     1      51.294 146.634  -7.032  1.00  0.00    -0.550 OA
ENDBRANCH   7   8
ENDBRANCH   6   7
ENDBRANCH   5   6
ENDBRANCH   4   5
ENDBRANCH   3   4
ENDBRANCH   2   3
ENDBRANCH   1   2
BRANCH   1  11
ATOM     11  C   UNL     1      52.910 147.779   0.178  1.00  0.00     0.000 C 
BRANCH  11  12
ATOM     12  C   UNL     1      52.591 147.014   1.476  1.00  0.00     0.000 C 
BRANCH  12  13
ATOM     13  C   UNL     1      51.084 146.963   1.777  1.00  0.00     0.000 C 
BRANCH  13  14
ATOM     14  C   UNL     1      50.313 148.124   1.127  1.00  0.00     0.000 C 
BRANCH  14  15
ATOM     15  C   UNL     1      48.791 147.984   1.289  1.00  0.00     0.000 C 
BRANCH  15  16
ATOM     16  C   UNL     1      48.122 147.324   0.071  1.00  0.00     0.006 C 
BRANCH  16  17
ATOM     17  C   UNL     1      48.721 147.812  -1.255  1.00  0.00     0.053 C 
BRANCH  17  18
ATOM     18  C   UNL     1      47.937 147.322  -2.433  1.00  0.00     0.041 C 
ATOM     19  O   UNL     1      46.949 146.562  -2.263  1.00  0.00    -0.550 OA
ATOM     20  O   UNL     1      48.321 147.675  -3.721  1.00  0.00    -0.550 OA
ENDBRANCH  17  18
ENDBRANCH  16  17
ENDBRANCH  15  16
ENDBRANCH  14  15
ENDBRANCH  13  14
ENDBRANCH  12  13
ENDBRANCH  11  12
ENDBRANCH   1  11
TORSDOF 15
ENDMDL
MODEL 2
REMARK VINA RESULT:     0.012      1.295      1.648
REMARK INTER + INTRA:           2.063
REMARK INTER:                   3.136
REMARK INTRA:                  -1.073
REMARK UNBOUND:                 2.040
REMARK SMILES O=C([O-])CCCCCCCCCCCCCCC(=O)[O-]
REMARK SMILES IDX 10 1 9 2 8 3 7 4 6 5 5 6 4 7 2 8 1 9 3 10 11 11 12 12 13 13
REMARK SMILES IDX 14 14 15 15 16 16 17 17 18 18 19 19 20 20
REMARK H PARENT
REMARK Flexibility Score: inf
ROOT
ATOM      1  C   UNL     1      54.298 147.404  -1.525  1.00  0.00     0.000 C 
ENDROOT
BRANCH   1   2
ATOM      2  C   UNL     1      54.918 146.157  -2.181  1.00  0.00     0.000 C 
BRANCH   2   3
ATOM      3  C   UNL     1      55.357 146.410  -3.632  1.00  0.00     0.000 C 
BRANCH   3   4
ATOM      4  C   UNL     1      55.306 147.896  -4.018  1.00  0.00     0.000 C 
BRANCH   4   5
ATOM      5  C   UNL     1      54.338 148.125  -5.189  1.00  0.00     0.000 C 
BRANCH   5   6
ATOM      6  C   UNL     1      53.063 147.269  -5.087  1.00  0.00     0.006 C 
BRANCH   6   7
ATOM      7  C   UNL     1      51.756 148.058  -5.261  1.00  0.00     0.053 C 
BRANCH   7   8
ATOM      8  C   UNL     1      51.177 147.887  -6.631  1.00  0.00     0.041 C 
ATOM      9  O   UNL     1      51.919 147.570  -7.598  1.00  0.00    -0.550 OA
ATOM     10  O   UNL     1      49.813 148.046  -6.835  1.00  0.00    -0.550 OA
ENDBRANCH   7   8
ENDBRANCH   6   7
ENDBRANCH   5   6
ENDBRANCH   4   5
ENDBRANCH   3   4
ENDBRANCH   2   3
ENDBRANCH   1   2
BRANCH   1  11
ATOM     11  C   UNL     1      53.191 147.051  -0.518  1.00  0.00     0.000 C 
BRANCH  11  12
ATOM     12  C   UNL     1      53.530 147.496   0.917  1.00  0.00     0.000 C 
BRANCH  12  13
ATOM     13  C   UNL     1      52.320 148.094   1.653  1.00  0.00     0.000 C 
BRANCH  13  14
ATOM     14  C   UNL     1      50.997 147.849   0.908  1.00  0.00     0.000 C 
BRANCH  14  15
ATOM     15  C   UNL     1      49.799 147.722   1.862  1.00  0.00     0.000 C 
BRANCH  15  16
ATOM     16  C   UNL     1      48.467 148.114   1.199  1.00  0.00     0.006 C 
BRANCH  16  17
ATOM     17  C   UNL     1      48.562 148.120  -0.333  1.00  0.00     0.053 C 
BRANCH  17  18
ATOM     18  C   UNL     1      47.488 147.285  -0.960  1.00  0.00     0.041 C 
ATOM     19  O   UNL     1      46.883 146.416  -0.279  1.00  0.00    -0.550 OA
ATOM     20  O   UNL     1      47.181 147.440  -2.306  1.00  0.00    -0.550 OA
ENDBRANCH  17  18
ENDBRANCH  16  17
ENDBRANCH  15  16
ENDBRANCH  14  15
ENDBRANCH  13  14
ENDBRANCH  12  13
ENDBRANCH  11  12
ENDBRANCH   1  11
TORSDOF 15
ENDMDL
MODEL 3
REMARK VINA RESULT:     0.119      2.661      4.202
REMARK INTER + INTRA:           2.263
REMARK INTER:                   3.012
REMARK INTRA:                  -0.748
REMARK UNBOUND:                 2.040
REMARK SMILES O=C([O-])CCCCCCCCCCCCCCC(=O)[O-]
REMARK SMILES IDX 10 1 9 2 8 3 7 4 6 5 5 6 4 7 2 8 1 9 3 10 11 11 12 12 13 13
REMARK SMILES IDX 14 14 15 15 16 16 17 17 18 18 19 19 20 20
REMARK H PARENT
REMARK Flexibility Score: inf
ROOT
ATOM      1  C   UNL     1      49.653 147.254  -2.905  1.00  0.00     0.000 C 
ENDROOT
BRANCH   1   2
ATOM      2  C   UNL     1      50.904 148.036  -3.340  1.00  0.00     0.000 C 
BRANCH   2   3
ATOM      3  C   UNL     1      51.043 148.125  -4.869  1.00  0.00     0.000 C 
BRANCH   3   4
ATOM      4  C   UNL     1      52.194 147.264  -5.413  1.00  0.00     0.000 C 
BRANCH   4   5
ATOM      5  C   UNL     1      52.511 147.631  -6.870  1.00  0.00     0.000 C 
BRANCH   5   6
ATOM      6  C   UNL     1      51.499 147.042  -7.869  1.00  0.00     0.006 C 
BRANCH   6   7
ATOM      7  C   UNL     1      50.271 147.930  -8.123  1.00  0.00     0.053 C 
BRANCH   7   8
ATOM      8  C   UNL     1      49.030 147.358  -7.511  1.00  0.00     0.041 C 
ATOM      9  O   UNL     1      48.388 148.014  -6.649  1.00  0.00    -0.550 OA
ATOM     10  O   UNL     1      48.564 146.114  -7.915  1.00  0.00    -0.550 OA
ENDBRANCH   7   8
ENDBRANCH   6   7
ENDBRANCH   5   6
ENDBRANCH   4   5
ENDBRANCH   3   4
ENDBRANCH   2   3
ENDBRANCH   1   2
BRANCH   1  11
ATOM     11  C   UNL     1      48.659 148.125  -2.118  1.00  0.00     0.000 C 
BRANCH  11  12
ATOM     12  C   UNL     1      47.453 147.323  -1.593  1.00  0.00     0.000 C 
BRANCH  12  13
ATOM     13  C   UNL     1      47.734 146.649  -0.240  1.00  0.00     0.000 C 
BRANCH  13  14
ATOM     14  C   UNL     1      48.041 147.666   0.873  1.00  0.00     0.000 C 
BRANCH  14  15
ATOM     15  C   UNL     1      49.159 147.190   1.813  1.00  0.00     0.000 C 
BRANCH  15  16
ATOM     16  C   UNL     1      50.383 148.122   1.800  1.00  0.00     0.006 C 
BRANCH  16  17
ATOM     17  C   UNL     1      51.209 147.975   0.515  1.00  0.00     0.053 C 
BRANCH  17  18
ATOM     18  C   UNL     1      52.626 147.586   0.807  1.00  0.00     0.041 C 
ATOM     19  O   UNL     1      53.073 147.657   1.981  1.00  0.00    -0.550 OA
ATOM     20  O   UNL     1      53.463 147.179  -0.225  1.00  0.00    -0.550 OA
ENDBRANCH  17  18
ENDBRANCH  16  17
ENDBRANCH  15  16
ENDBRANCH  14  15
ENDBRANCH  13  14
ENDBRANCH  12  13
ENDBRANCH  11  12
ENDBRANCH   1  11
TORSDOF 15
ENDMDL
