MODEL 1
REMARK VINA RESULT:    -4.966      0.000      0.000
REMARK INTER + INTRA:         -10.019
REMARK INTER:                  -9.031
REMARK INTRA:                  -0.989
REMARK UNBOUND:                -0.989
REMARK SMILES CCCCCCCCCCCCCCCC(=O)[O-]
REMARK SMILES IDX 9 1 10 2 11 3 12 4 13 5 14 6 15 7 16 8 17 9 18 10 8 11 7 12
REMARK SMILES IDX 6 13 5 14 4 15 3 16 2 17 1 18
REMARK H PARENT
REMARK Flexibility Score: inf
ROOT
ATOM      1  C   UNL     1       2.039  24.321  49.345  1.00  0.00     0.000 C 
ENDROOT
BRANCH   1   2
ATOM      2  C   UNL     1       1.897  24.316  50.878  1.00  0.00     0.000 C 
BRANCH   2   3
ATOM      3  C   UNL     1       0.780  23.364  51.357  1.00  0.00     0.000 C 
BRANCH   3   4
ATOM      4  C   UNL     1       1.289  22.217  52.245  1.00  0.00     0.000 C 
BRANCH   4   5
ATOM      5  C   UNL     1       1.880  22.706  53.575  1.00  0.00     0.000 C 
BRANCH   5   6
ATOM      6  C   UNL     1       3.330  22.228  53.742  1.00  0.00     0.006 C 
BRANCH   6   7
ATOM      7  C   UNL     1       3.964  21.817  52.407  1.00  0.00     0.053 C 
BRANCH   7   8
ATOM      8  C   UNL     1       4.999  22.803  51.958  1.00  0.00     0.041 C 
ATOM      9  O   UNL     1       5.372  22.829  50.755  1.00  0.00    -0.550 OA
ATOM     10  O   UNL     1       5.577  23.669  52.876  1.00  0.00    -0.550 OA
ENDBRANCH   7   8
ENDBRANCH   6   7
ENDBRANCH   5   6
ENDBRANCH   4   5
ENDBRANCH   3   4
ENDBRANCH   2   3
ENDBRANCH   1   2
BRANCH   1  11
ATOM     11  C   UNL     1       1.903  25.726  48.738  1.00  0.00     0.000 C 
BRANCH  11  12
ATOM     12  C   UNL     1       1.739  25.696  47.208  1.00  0.00    -0.000 C 
BRANCH  12  13
ATOM     13  C   UNL     1       0.900  24.501  46.729  1.00  0.00    -0.000 C 
BRANCH  13  14
ATOM     14  C   UNL     1       1.345  23.978  45.351  1.00  0.00    -0.000 C 
BRANCH  14  15
ATOM     15  C   UNL     1       2.453  22.918  45.454  1.00  0.00    -0.000 C 
BRANCH  15  16
ATOM     16  C   UNL     1       2.826  22.319  44.087  1.00  0.00    -0.000 C 
BRANCH  16  17
ATOM     17  C   UNL     1       1.677  21.514  43.464  1.00  0.00    -0.003 C 
ATOM     18  C   UNL     1       1.881  21.250  41.972  1.00  0.00     0.004 C 
ENDBRANCH  16  17
ENDBRANCH  15  16
ENDBRANCH  14  15
ENDBRANCH  13  14
ENDBRANCH  12  13
ENDBRANCH  11  12
ENDBRANCH   1  11
TORSDOF 14
ENDMDL
MODEL 2
REMARK VINA RESULT:    -4.865      1.286      1.861
REMARK INTER + INTRA:          -9.835
REMARK INTER:                  -8.689
REMARK INTRA:                  -1.146
REMARK UNBOUND:                -0.989
REMARK SMILES CCCCCCCCCCCCCCCC(=O)[O-]
REMARK SMILES IDX 9 1 10 2 11 3 12 4 13 5 14 6 15 7 16 8 17 9 18 10 8 11 7 12
REMARK SMILES IDX 6 13 5 14 4 15 3 16 2 17 1 18
REMARK H PARENT
REMARK Flexibility Score: inf
ROOT
ATOM      1  C   UNL     1       1.959  25.287  48.740  1.00  0.00     0.000 C 
ENDROOT
BRANCH   1   2
ATOM      2  C   UNL     1       2.262  24.834  50.180  1.00  0.00     0.000 C 
BRANCH   2   3
ATOM      3  C   UNL     1       1.085  24.055  50.805  1.00  0.00     0.000 C 
BRANCH   3   4
ATOM      4  C   UNL     1       1.508  23.109  51.941  1.00  0.00     0.000 C 
BRANCH   4   5
ATOM      5  C   UNL     1       2.147  21.810  51.433  1.00  0.00     0.000 C 
BRANCH   5   6
ATOM      6  C   UNL     1       3.508  21.567  52.100  1.00  0.00     0.006 C 
BRANCH   6   7
ATOM      7  C   UNL     1       4.163  22.870  52.576  1.00  0.00     0.053 C 
BRANCH   7   8
ATOM      8  C   UNL     1       5.433  23.154  51.835  1.00  0.00     0.041 C 
ATOM      9  O   UNL     1       5.512  22.926  50.599  1.00  0.00    -0.550 OA
ATOM     10  O   UNL     1       6.541  23.640  52.518  1.00  0.00    -0.550 OA
ENDBRANCH   7   8
ENDBRANCH   6   7
ENDBRANCH   5   6
ENDBRANCH   4   5
ENDBRANCH   3   4
ENDBRANCH   2   3
ENDBRANCH   1   2
BRANCH   1  11
ATOM     11  C   UNL     1       1.833  24.111  47.759  1.00  0.00     0.000 C 
BRANCH  11  12
ATOM     12  C   UNL     1       0.929  24.438  46.557  1.00  0.00    -0.000 C 
BRANCH  12  13
ATOM     13  C   UNL     1       1.452  23.832  45.245  1.00  0.00    -0.000 C 
BRANCH  13  14
ATOM     14  C   UNL     1       2.575  22.804  45.472  1.00  0.00    -0.000 C 
BRANCH  14  15
ATOM     15  C   UNL     1       3.496  22.660  44.250  1.00  0.00    -0.000 C 
BRANCH  15  16
ATOM     16  C   UNL     1       2.752  22.879  42.921  1.00  0.00    -0.000 C 
BRANCH  16  17
ATOM     17  C   UNL     1       3.499  23.836  41.980  1.00  0.00    -0.003 C 
ATOM     18  C   UNL     1       4.075  25.049  42.707  1.00  0.00     0.004 C 
ENDBRANCH  16  17
ENDBRANCH  15  16
ENDBRANCH  14  15
ENDBRANCH  13  14
ENDBRANCH  12  13
ENDBRANCH  11  12
ENDBRANCH   1  11
TORSDOF 14
ENDMDL
MODEL 3
REMARK VINA RESULT:    -4.841      1.945      3.343
REMARK INTER + INTRA:          -9.792
REMARK INTER:                  -8.258
REMARK INTRA:                  -1.534
REMARK UNBOUND:                -0.989
REMARK SMILES CCCCCCCCCCCCCCCC(=O)[O-]
REMARK SMILES IDX 9 1 10 2 11 3 12 4 13 5 14 6 15 7 16 8 17 9 18 10 8 11 7 12
REMARK SMILES IDX 6 13 5 14 4 15 3 16 2 17 1 18
REMARK H PARENT
REMARK Flexibility Score: inf
ROOT
ATOM      1  C   UNL     1       0.729  24.919  47.231  1.00  0.00     0.000 C 
ENDROOT
BRANCH   1   2
ATOM      2  C   UNL     1       1.971  25.140  48.115  1.00  0.00     0.000 C 
BRANCH   2   3
ATOM      3  C   UNL     1       1.655  24.969  49.616  1.00  0.00     0.000 C 
BRANCH   3   4
ATOM      4  C   UNL     1       2.692  24.121  50.371  1.00  0.00     0.000 C 
BRANCH   4   5
ATOM      5  C   UNL     1       2.759  22.671  49.870  1.00  0.00     0.000 C 
BRANCH   5   6
ATOM      6  C   UNL     1       2.724  21.681  51.042  1.00  0.00     0.006 C 
BRANCH   6   7
ATOM      7  C   UNL     1       3.877  21.907  52.029  1.00  0.00     0.053 C 
BRANCH   7   8
ATOM      8  C   UNL     1       3.378  22.160  53.418  1.00  0.00     0.041 C 
ATOM      9  O   UNL     1       4.186  22.221  54.382  1.00  0.00    -0.550 OA
ATOM     10  O   UNL     1       2.016  22.294  53.652  1.00  0.00    -0.550 OA
ENDBRANCH   7   8
ENDBRANCH   6   7
ENDBRANCH   5   6
ENDBRANCH   4   5
ENDBRANCH   3   4
ENDBRANCH   2   3
ENDBRANCH   1   2
BRANCH   1  11
ATOM     11  C   UNL     1       1.036  24.100  45.968  1.00  0.00     0.000 C 
BRANCH  11  12
ATOM     12  C   UNL     1       2.365  23.332  46.069  1.00  0.00    -0.000 C 
BRANCH  12  13
ATOM     13  C   UNL     1       2.483  22.217  45.017  1.00  0.00    -0.000 C 
BRANCH  13  14
ATOM     14  C   UNL     1       2.609  22.764  43.584  1.00  0.00    -0.000 C 
BRANCH  14  15
ATOM     15  C   UNL     1       3.769  23.762  43.436  1.00  0.00    -0.000 C 
BRANCH  15  16
ATOM     16  C   UNL     1       3.358  25.037  42.679  1.00  0.00    -0.000 C 
BRANCH  16  17
ATOM     17  C   UNL     1       2.920  26.166  43.624  1.00  0.00    -0.003 C 
ATOM     18  C   UNL     1       3.906  26.394  44.769  1.00  0.00     0.004 C 
ENDBRANCH  16  17
ENDBRANCH  15  16
ENDBRANCH  14  15
ENDBRANCH  13  14
ENDBRANCH  12  13
ENDBRANCH  11  12
ENDBRANCH   1  11
TORSDOF 14
ENDMDL
MODEL 4
REMARK VINA RESULT:    -4.833      1.243      2.133
REMARK INTER + INTRA:          -9.777
REMARK INTER:                  -8.484
REMARK INTRA:                  -1.294
REMARK UNBOUND:                -0.989
REMARK SMILES CCCCCCCCCCCCCCCC(=O)[O-]
REMARK SMILES IDX 9 1 10 2 11 3 12 4 13 5 14 6 15 7 16 8 17 9 18 10 8 11 7 12
REMARK SMILES IDX 6 13 5 14 4 15 3 16 2 17 1 18
REMARK H PARENT
REMARK Flexibility Score: inf
ROOT
ATOM      1  C   UNL     1       0.979  23.840  50.885  1.00  0.00     0.000 C 
ENDROOT
BRANCH   1   2
ATOM      2  C   UNL     1       1.081  22.525  51.680  1.00  0.00     0.000 C 
BRANCH   2   3
ATOM      3  C   UNL     1       2.332  21.707  51.294  1.00  0.00     0.000 C 
BRANCH   3   4
ATOM      4  C   UNL     1       3.211  21.323  52.496  1.00  0.00     0.000 C 
BRANCH   4   5
ATOM      5  C   UNL     1       3.654  22.535  53.326  1.00  0.00     0.000 C 
BRANCH   5   6
ATOM      6  C   UNL     1       5.045  23.020  52.894  1.00  0.00     0.006 C 
BRANCH   6   7
ATOM      7  C   UNL     1       5.000  24.411  52.247  1.00  0.00     0.053 C 
BRANCH   7   8
ATOM      8  C   UNL     1       6.044  24.561  51.183  1.00  0.00     0.041 C 
ATOM      9  O   UNL     1       6.508  23.545  50.602  1.00  0.00    -0.550 OA
ATOM     10  O   UNL     1       6.528  25.822  50.858  1.00  0.00    -0.550 OA
ENDBRANCH   7   8
ENDBRANCH   6   7
ENDBRANCH   5   6
ENDBRANCH   4   5
ENDBRANCH   3   4
ENDBRANCH   2   3
ENDBRANCH   1   2
BRANCH   1  11
ATOM     11  C   UNL     1       2.012  23.932  49.751  1.00  0.00     0.000 C 
BRANCH  11  12
ATOM     12  C   UNL     1       2.284  25.383  49.316  1.00  0.00    -0.000 C 
BRANCH  12  13
ATOM     13  C   UNL     1       1.867  25.649  47.860  1.00  0.00    -0.000 C 
BRANCH  13  14
ATOM     14  C   UNL     1       0.932  24.560  47.303  1.00  0.00    -0.000 C 
BRANCH  14  15
ATOM     15  C   UNL     1       1.206  24.252  45.822  1.00  0.00    -0.000 C 
BRANCH  15  16
ATOM     16  C   UNL     1       2.308  23.195  45.633  1.00  0.00    -0.000 C 
BRANCH  16  17
ATOM     17  C   UNL     1       2.214  22.483  44.275  1.00  0.00    -0.003 C 
ATOM     18  C   UNL     1       3.441  22.721  43.397  1.00  0.00     0.004 C 
ENDBRANCH  16  17
ENDBRANCH  15  16
ENDBRANCH  14  15
ENDBRANCH  13  14
ENDBRANCH  12  13
ENDBRANCH  11  12
ENDBRANCH   1  11
TORSDOF 14
ENDMDL
MODEL 5
REMARK VINA RESULT:    -4.792      1.494      2.789
REMARK INTER + INTRA:          -9.703
REMARK INTER:                  -8.404
REMARK INTRA:                  -1.299
REMARK UNBOUND:                -0.989
REMARK SMILES CCCCCCCCCCCCCCCC(=O)[O-]
REMARK SMILES IDX 9 1 10 2 11 3 12 4 13 5 14 6 15 7 16 8 17 9 18 10 8 11 7 12
REMARK SMILES IDX 6 13 5 14 4 15 3 16 2 17 1 18
REMARK H PARENT
REMARK Flexibility Score: inf
ROOT
ATOM      1  C   UNL     1       1.412  25.587  47.852  1.00  0.00     0.000 C 
ENDROOT
BRANCH   1   2
ATOM      2  C   UNL     1       2.513  26.133  48.780  1.00  0.00     0.000 C 
BRANCH   2   3
ATOM      3  C   UNL     1       2.846  25.155  49.927  1.00  0.00     0.000 C 
BRANCH   3   4
ATOM      4  C   UNL     1       1.740  25.055  50.991  1.00  0.00     0.000 C 
BRANCH   4   5
ATOM      5  C   UNL     1       1.196  23.630  51.158  1.00  0.00     0.000 C 
BRANCH   5   6
ATOM      6  C   UNL     1       2.189  22.594  50.612  1.00  0.00     0.006 C 
BRANCH   6   7
ATOM      7  C   UNL     1       2.773  21.709  51.721  1.00  0.00     0.053 C 
BRANCH   7   8
ATOM      8  C   UNL     1       4.100  22.217  52.195  1.00  0.00     0.041 C 
ATOM      9  O   UNL     1       4.324  22.351  53.427  1.00  0.00    -0.550 OA
ATOM     10  O   UNL     1       5.076  22.574  51.275  1.00  0.00    -0.550 OA
ENDBRANCH   7   8
ENDBRANCH   6   7
ENDBRANCH   5   6
ENDBRANCH   4   5
ENDBRANCH   3   4
ENDBRANCH   2   3
ENDBRANCH   1   2
BRANCH   1  11
ATOM     11  C   UNL     1       1.623  24.110  47.483  1.00  0.00     0.000 C 
BRANCH  11  12
ATOM     12  C   UNL     1       1.463  23.849  45.975  1.00  0.00    -0.000 C 
BRANCH  12  13
ATOM     13  C   UNL     1       2.429  22.769  45.459  1.00  0.00    -0.000 C 
BRANCH  13  14
ATOM     14  C   UNL     1       2.000  22.192  44.097  1.00  0.00    -0.000 C 
BRANCH  14  15
ATOM     15  C   UNL     1       3.039  22.455  42.995  1.00  0.00    -0.000 C 
BRANCH  15  16
ATOM     16  C   UNL     1       3.897  23.700  43.277  1.00  0.00    -0.000 C 
BRANCH  16  17
ATOM     17  C   UNL     1       3.349  24.960  42.591  1.00  0.00    -0.003 C 
ATOM     18  C   UNL     1       3.034  26.082  43.580  1.00  0.00     0.004 C 
ENDBRANCH  16  17
ENDBRANCH  15  16
ENDBRANCH  14  15
ENDBRANCH  13  14
ENDBRANCH  12  13
ENDBRANCH  11  12
ENDBRANCH   1  11
TORSDOF 14
ENDMDL
MODEL 6
REMARK VINA RESULT:    -4.750      3.370      7.622
REMARK INTER + INTRA:          -9.627
REMARK INTER:                  -8.371
REMARK INTRA:                  -1.256
REMARK UNBOUND:                -0.989
REMARK SMILES CCCCCCCCCCCCCCCC(=O)[O-]
REMARK SMILES IDX 9 1 10 2 11 3 12 4 13 5 14 6 15 7 16 8 17 9 18 10 8 11 7 12
REMARK SMILES IDX 6 13 5 14 4 15 3 16 2 17 1 18
REMARK H PARENT
REMARK Flexibility Score: inf
ROOT
ATOM      1  C   UNL     1       1.214  24.170  50.245  1.00  0.00     0.000 C 
ENDROOT
BRANCH   1   2
ATOM      2  C   UNL     1       1.939  24.079  48.890  1.00  0.00     0.000 C 
BRANCH   2   3
ATOM      3  C   UNL     1       1.234  24.910  47.796  1.00  0.00     0.000 C 
BRANCH   3   4
ATOM      4  C   UNL     1       1.969  24.898  46.445  1.00  0.00     0.000 C 
BRANCH   4   5
ATOM      5  C   UNL     1       1.404  23.860  45.465  1.00  0.00     0.000 C 
BRANCH   5   6
ATOM      6  C   UNL     1       2.400  22.713  45.243  1.00  0.00     0.006 C 
BRANCH   6   7
ATOM      7  C   UNL     1       3.020  22.745  43.839  1.00  0.00     0.053 C 
BRANCH   7   8
ATOM      8  C   UNL     1       2.270  21.871  42.882  1.00  0.00     0.041 C 
ATOM      9  O   UNL     1       1.387  21.079  43.304  1.00  0.00    -0.550 OA
ATOM     10  O   UNL     1       2.571  21.908  41.527  1.00  0.00    -0.550 OA
ENDBRANCH   7   8
ENDBRANCH   6   7
ENDBRANCH   5   6
ENDBRANCH   4   5
ENDBRANCH   3   4
ENDBRANCH   2   3
ENDBRANCH   1   2
BRANCH   1  11
ATOM     11  C   UNL     1       1.198  25.596  50.818  1.00  0.00     0.000 C 
BRANCH  11  12
ATOM     12  C   UNL     1       1.413  25.623  52.341  1.00  0.00    -0.000 C 
BRANCH  12  13
ATOM     13  C   UNL     1       0.722  24.450  53.055  1.00  0.00    -0.000 C 
BRANCH  13  14
ATOM     14  C   UNL     1       1.691  23.636  53.932  1.00  0.00    -0.000 C 
BRANCH  14  15
ATOM     15  C   UNL     1       1.880  22.199  53.421  1.00  0.00    -0.000 C 
BRANCH  15  16
ATOM     16  C   UNL     1       3.354  21.866  53.130  1.00  0.00    -0.000 C 
BRANCH  16  17
ATOM     17  C   UNL     1       3.685  21.923  51.632  1.00  0.00    -0.003 C 
ATOM     18  C   UNL     1       4.908  22.787  51.329  1.00  0.00     0.004 C 
ENDBRANCH  16  17
ENDBRANCH  15  16
ENDBRANCH  14  15
ENDBRANCH  13  14
ENDBRANCH  12  13
ENDBRANCH  11  12
ENDBRANCH   1  11
TORSDOF 14
ENDMDL
MODEL 7
REMARK VINA RESULT:    -4.685      1.573      2.211
REMARK INTER + INTRA:          -9.508
REMARK INTER:                  -8.374
REMARK INTRA:                  -1.134
REMARK UNBOUND:                -0.989
REMARK SMILES CCCCCCCCCCCCCCCC(=O)[O-]
REMARK SMILES IDX 9 1 10 2 11 3 12 4 13 5 14 6 15 7 16 8 17 9 18 10 8 11 7 12
REMARK SMILES IDX 6 13 5 14 4 15 3 16 2 17 1 18
REMARK H PARENT
REMARK Flexibility Score: inf
ROOT
ATOM      1  C   UNL     1       1.589  25.471  49.297  1.00  0.00     0.000 C 
ENDROOT
BRANCH   1   2
ATOM      2  C   UNL     1       2.822  25.784  50.165  1.00  0.00     0.000 C 
BRANCH   2   3
ATOM      3  C   UNL     1       2.523  25.644  51.673  1.00  0.00     0.000 C 
BRANCH   3   4
ATOM      4  C   UNL     1       1.024  25.529  51.995  1.00  0.00     0.000 C 
BRANCH   4   5
ATOM      5  C   UNL     1       0.709  24.397  52.983  1.00  0.00     0.000 C 
BRANCH   5   6
ATOM      6  C   UNL     1       0.803  23.026  52.298  1.00  0.00     0.006 C 
BRANCH   6   7
ATOM      7  C   UNL     1       1.819  22.103  52.984  1.00  0.00     0.053 C 
BRANCH   7   8
ATOM      8  C   UNL     1       2.824  21.566  52.012  1.00  0.00     0.041 C 
ATOM      9  O   UNL     1       3.097  22.206  50.962  1.00  0.00    -0.550 OA
ATOM     10  O   UNL     1       3.434  20.341  52.249  1.00  0.00    -0.550 OA
ENDBRANCH   7   8
ENDBRANCH   6   7
ENDBRANCH   5   6
ENDBRANCH   4   5
ENDBRANCH   3   4
ENDBRANCH   2   3
ENDBRANCH   1   2
BRANCH   1  11
ATOM     11  C   UNL     1       1.930  25.332  47.805  1.00  0.00     0.000 C 
BRANCH  11  12
ATOM     12  C   UNL     1       0.878  24.519  47.032  1.00  0.00    -0.000 C 
BRANCH  12  13
ATOM     13  C   UNL     1       1.338  24.163  45.609  1.00  0.00    -0.000 C 
BRANCH  13  14
ATOM     14  C   UNL     1       2.621  24.906  45.197  1.00  0.00    -0.000 C 
BRANCH  14  15
ATOM     15  C   UNL     1       3.212  24.375  43.881  1.00  0.00    -0.000 C 
BRANCH  15  16
ATOM     16  C   UNL     1       3.447  22.854  43.911  1.00  0.00    -0.000 C 
BRANCH  16  17
ATOM     17  C   UNL     1       2.740  22.127  42.758  1.00  0.00    -0.003 C 
ATOM     18  C   UNL     1       1.486  21.381  43.211  1.00  0.00     0.004 C 
ENDBRANCH  16  17
ENDBRANCH  15  16
ENDBRANCH  14  15
ENDBRANCH  13  14
ENDBRANCH  12  13
ENDBRANCH  11  12
ENDBRANCH   1  11
TORSDOF 14
ENDMDL
MODEL 8
REMARK VINA RESULT:    -4.649      4.339      8.077
REMARK INTER + INTRA:          -9.442
REMARK INTER:                  -7.468
REMARK INTRA:                  -1.974
REMARK UNBOUND:                -0.989
REMARK SMILES CCCCCCCCCCCCCCCC(=O)[O-]
REMARK SMILES IDX 9 1 10 2 11 3 12 4 13 5 14 6 15 7 16 8 17 9 18 10 8 11 7 12
REMARK SMILES IDX 6 13 5 14 4 15 3 16 2 17 1 18
REMARK H PARENT
REMARK Flexibility Score: inf
ROOT
ATOM      1  C   UNL     1       0.574  25.349  53.253  1.00  0.00     0.000 C 
ENDROOT
BRANCH   1   2
ATOM      2  C   UNL     1       0.472  23.896  52.755  1.00  0.00     0.000 C 
BRANCH   2   3
ATOM      3  C   UNL     1       1.032  23.728  51.327  1.00  0.00     0.000 C 
BRANCH   3   4
ATOM      4  C   UNL     1       1.946  22.502  51.164  1.00  0.00     0.000 C 
BRANCH   4   5
ATOM      5  C   UNL     1       2.263  21.810  52.496  1.00  0.00     0.000 C 
BRANCH   5   6
ATOM      6  C   UNL     1       3.775  21.598  52.661  1.00  0.00     0.006 C 
BRANCH   6   7
ATOM      7  C   UNL     1       4.590  22.436  51.668  1.00  0.00     0.053 C 
BRANCH   7   8
ATOM      8  C   UNL     1       5.262  23.594  52.339  1.00  0.00     0.041 C 
ATOM      9  O   UNL     1       6.519  23.665  52.373  1.00  0.00    -0.550 OA
ATOM     10  O   UNL     1       4.500  24.576  52.957  1.00  0.00    -0.550 OA
ENDBRANCH   7   8
ENDBRANCH   6   7
ENDBRANCH   5   6
ENDBRANCH   4   5
ENDBRANCH   3   4
ENDBRANCH   2   3
ENDBRANCH   1   2
BRANCH   1  11
ATOM     11  C   UNL     1       0.983  25.446  54.731  1.00  0.00     0.000 C 
BRANCH  11  12
ATOM     12  C   UNL     1       1.823  24.243  55.192  1.00  0.00    -0.000 C 
BRANCH  12  13
ATOM     13  C   UNL     1       1.508  23.825  56.638  1.00  0.00    -0.000 C 
BRANCH  13  14
ATOM     14  C   UNL     1       0.305  22.868  56.730  1.00  0.00    -0.000 C 
BRANCH  14  15
ATOM     15  C   UNL     1      -0.883  23.488  57.481  1.00  0.00    -0.000 C 
BRANCH  15  16
ATOM     16  C   UNL     1      -2.109  23.700  56.575  1.00  0.00    -0.000 C 
BRANCH  16  17
ATOM     17  C   UNL     1      -2.370  25.184  56.277  1.00  0.00    -0.003 C 
ATOM     18  C   UNL     1      -1.658  26.117  57.254  1.00  0.00     0.004 C 
ENDBRANCH  16  17
ENDBRANCH  15  16
ENDBRANCH  14  15
ENDBRANCH  13  14
ENDBRANCH  12  13
ENDBRANCH  11  12
ENDBRANCH   1  11
TORSDOF 14
ENDMDL
