MODEL 1
REMARK VINA RESULT:    -4.682      0.000      0.000
REMARK INTER + INTRA:          -5.242
REMARK INTER:                  -4.956
REMARK INTRA:                  -0.286
REMARK UNBOUND:                -0.286
REMARK SMILES CC1=CC[C@H]2[C@H]3[C@@H]1[C@]2(C)CC[C@H]3C(C)C
REMARK SMILES IDX 1 1 2 2 3 3 4 4 5 5 6 6 7 7 8 8 10 9 11 10 12 11 9 12 13 13
REMARK SMILES IDX 14 14 15 15
REMARK H PARENT
REMARK Flexibility Score: inf
ROOT
ATOM      1  C   UNL     1      24.426  61.103  16.917  1.00  0.00     0.039 C 
ATOM      2  C   UNL     1      23.893  62.064  15.898  1.00  0.00    -0.073 C 
ATOM      3  C   UNL     1      24.274  61.996  14.598  1.00  0.00    -0.027 C 
ATOM      4  C   UNL     1      23.707  63.015  13.607  1.00  0.00     0.031 C 
ATOM      5  C   UNL     1      22.700  63.975  14.323  1.00  0.00     0.003 C 
ATOM      6  C   UNL     1      21.765  63.106  15.193  1.00  0.00     0.004 C 
ATOM      7  C   UNL     1      22.877  63.148  16.269  1.00  0.00     0.024 C 
ATOM      8  C   UNL     1      23.283  64.512  15.650  1.00  0.00    -0.022 C 
ATOM      9  C   UNL     1      22.361  65.660  16.167  1.00  0.00     0.008 C 
ATOM     10  C   UNL     1      20.912  65.188  16.464  1.00  0.00     0.005 C 
ATOM     11  C   UNL     1      20.512  63.883  15.698  1.00  0.00    -0.005 C 
ATOM     12  C   UNL     1      24.770  64.937  15.685  1.00  0.00     0.012 C 
ENDROOT
BRANCH  11  13
ATOM     13  C   UNL     1      19.409  64.049  14.589  1.00  0.00    -0.014 C 
ATOM     14  C   UNL     1      19.193  62.726  13.836  1.00  0.00     0.007 C 
ATOM     15  C   UNL     1      18.042  64.573  15.074  1.00  0.00     0.007 C 
ENDBRANCH  11  13
TORSDOF 1
ENDMDL
MODEL 2
REMARK VINA RESULT:    -4.643      1.985      4.128
REMARK INTER + INTRA:          -5.200
REMARK INTER:                  -4.926
REMARK INTRA:                  -0.274
REMARK UNBOUND:                -0.286
REMARK SMILES CC1=CC[C@H]2[C@H]3[C@@H]1[C@]2(C)CC[C@H]3C(C)C
REMARK SMILES IDX 1 1 2 2 3 3 4 4 5 5 6 6 7 7 8 8 10 9 11 10 12 11 9 12 13 13
REMARK SMILES IDX 14 14 15 15
REMARK H PARENT
REMARK Flexibility Score: inf
ROOT
ATOM      1  C   UNL     1      19.145  62.760  13.852  1.00  0.00     0.039 C 
ATOM      2  C   UNL     1      20.151  63.588  14.593  1.00  0.00    -0.073 C 
ATOM      3  C   UNL     1      20.580  64.779  14.106  1.00  0.00    -0.027 C 
ATOM      4  C   UNL     1      21.620  65.572  14.901  1.00  0.00     0.031 C 
ATOM      5  C   UNL     1      21.982  64.826  16.227  1.00  0.00     0.003 C 
ATOM      6  C   UNL     1      20.659  64.369  16.883  1.00  0.00     0.004 C 
ATOM      7  C   UNL     1      20.722  63.141  15.942  1.00  0.00     0.024 C 
ATOM      8  C   UNL     1      22.263  63.327  15.971  1.00  0.00    -0.022 C 
ATOM      9  C   UNL     1      22.879  62.711  17.265  1.00  0.00     0.008 C 
ATOM     10  C   UNL     1      21.927  62.793  18.490  1.00  0.00     0.005 C 
ATOM     11  C   UNL     1      20.841  63.913  18.361  1.00  0.00    -0.005 C 
ATOM     12  C   UNL     1      23.088  62.935  14.723  1.00  0.00     0.012 C 
ENDROOT
BRANCH  11  13
ATOM     13  C   UNL     1      20.978  65.119  19.361  1.00  0.00    -0.014 C 
ATOM     14  C   UNL     1      19.813  66.106  19.183  1.00  0.00     0.007 C 
ATOM     15  C   UNL     1      21.090  64.746  20.853  1.00  0.00     0.007 C 
ENDBRANCH  11  13
TORSDOF 1
ENDMDL
MODEL 3
REMARK VINA RESULT:    -4.515      2.017      4.534
REMARK INTER + INTRA:          -5.065
REMARK INTER:                  -4.801
REMARK INTRA:                  -0.264
REMARK UNBOUND:                -0.286
REMARK SMILES CC1=CC[C@H]2[C@H]3[C@@H]1[C@]2(C)CC[C@H]3C(C)C
REMARK SMILES IDX 1 1 2 2 3 3 4 4 5 5 6 6 7 7 8 8 10 9 11 10 12 11 9 12 13 13
REMARK SMILES IDX 14 14 15 15
REMARK H PARENT
REMARK Flexibility Score: inf
ROOT
ATOM      1  C   UNL     1      21.107  65.841  12.668  1.00  0.00     0.039 C 
ATOM      2  C   UNL     1      20.639  64.802  13.642  1.00  0.00    -0.073 C 
ATOM      3  C   UNL     1      20.249  63.571  13.226  1.00  0.00    -0.027 C 
ATOM      4  C   UNL     1      19.766  62.558  14.266  1.00  0.00     0.031 C 
ATOM      5  C   UNL     1      19.859  63.163  15.705  1.00  0.00     0.003 C 
ATOM      6  C   UNL     1      21.241  63.842  15.839  1.00  0.00     0.004 C 
ATOM      7  C   UNL     1      20.601  65.072  15.149  1.00  0.00     0.024 C 
ATOM      8  C   UNL     1      19.258  64.587  15.757  1.00  0.00    -0.022 C 
ATOM      9  C   UNL     1      19.131  65.016  17.251  1.00  0.00     0.008 C 
ATOM     10  C   UNL     1      20.498  65.072  17.986  1.00  0.00     0.005 C 
ATOM     11  C   UNL     1      21.605  64.193  17.313  1.00  0.00    -0.005 C 
ATOM     12  C   UNL     1      17.945  64.861  14.987  1.00  0.00     0.012 C 
ENDROOT
BRANCH  11  13
ATOM     13  C   UNL     1      22.084  62.942  18.137  1.00  0.00    -0.014 C 
ATOM     14  C   UNL     1      23.370  62.355  17.534  1.00  0.00     0.007 C 
ATOM     15  C   UNL     1      22.304  63.177  19.646  1.00  0.00     0.007 C 
ENDBRANCH  11  13
TORSDOF 1
ENDMDL
MODEL 4
REMARK VINA RESULT:    -4.503      1.630      3.273
REMARK INTER + INTRA:          -5.052
REMARK INTER:                  -4.746
REMARK INTRA:                  -0.306
REMARK UNBOUND:                -0.286
REMARK SMILES CC1=CC[C@H]2[C@H]3[C@@H]1[C@]2(C)CC[C@H]3C(C)C
REMARK SMILES IDX 1 1 2 2 3 3 4 4 5 5 6 6 7 7 8 8 10 9 11 10 12 11 9 12 13 13
REMARK SMILES IDX 14 14 15 15
REMARK H PARENT
REMARK Flexibility Score: inf
ROOT
ATOM      1  C   UNL     1      23.366  66.111  18.827  1.00  0.00     0.039 C 
ATOM      2  C   UNL     1      22.526  65.004  18.265  1.00  0.00    -0.073 C 
ATOM      3  C   UNL     1      21.696  64.279  19.056  1.00  0.00    -0.027 C 
ATOM      4  C   UNL     1      20.875  63.150  18.428  1.00  0.00     0.031 C 
ATOM      5  C   UNL     1      21.138  63.072  16.888  1.00  0.00     0.003 C 
ATOM      6  C   UNL     1      21.070  64.511  16.329  1.00  0.00     0.004 C 
ATOM      7  C   UNL     1      22.546  64.656  16.774  1.00  0.00     0.024 C 
ATOM      8  C   UNL     1      22.651  63.121  16.573  1.00  0.00    -0.022 C 
ATOM      9  C   UNL     1      22.855  62.765  15.068  1.00  0.00     0.008 C 
ATOM     10  C   UNL     1      22.157  63.765  14.107  1.00  0.00     0.005 C 
ATOM     11  C   UNL     1      20.981  64.554  14.774  1.00  0.00    -0.005 C 
ATOM     12  C   UNL     1      23.617  62.312  17.470  1.00  0.00     0.012 C 
ENDROOT
BRANCH  11  13
ATOM     13  C   UNL     1      19.541  64.223  14.236  1.00  0.00    -0.014 C 
ATOM     14  C   UNL     1      19.420  62.730  13.891  1.00  0.00     0.007 C 
ATOM     15  C   UNL     1      18.371  64.616  15.162  1.00  0.00     0.007 C 
ENDBRANCH  11  13
TORSDOF 1
ENDMDL
MODEL 5
REMARK VINA RESULT:    -4.490      1.023      1.181
REMARK INTER + INTRA:          -5.038
REMARK INTER:                  -4.779
REMARK INTRA:                  -0.259
REMARK UNBOUND:                -0.286
REMARK SMILES CC1=CC[C@H]2[C@H]3[C@@H]1[C@]2(C)CC[C@H]3C(C)C
REMARK SMILES IDX 1 1 2 2 3 3 4 4 5 5 6 6 7 7 8 8 10 9 11 10 12 11 9 12 13 13
REMARK SMILES IDX 14 14 15 15
REMARK H PARENT
REMARK Flexibility Score: inf
ROOT
ATOM      1  C   UNL     1      24.448  61.090  17.185  1.00  0.00     0.039 C 
ATOM      2  C   UNL     1      23.902  62.315  16.514  1.00  0.00    -0.073 C 
ATOM      3  C   UNL     1      24.563  62.912  15.491  1.00  0.00    -0.027 C 
ATOM      4  C   UNL     1      23.964  64.169  14.857  1.00  0.00     0.031 C 
ATOM      5  C   UNL     1      22.595  64.522  15.527  1.00  0.00     0.003 C 
ATOM      6  C   UNL     1      21.776  63.216  15.633  1.00  0.00     0.004 C 
ATOM      7  C   UNL     1      22.566  62.933  16.934  1.00  0.00     0.024 C 
ATOM      8  C   UNL     1      22.696  64.474  17.069  1.00  0.00    -0.022 C 
ATOM      9  C   UNL     1      21.397  65.096  17.669  1.00  0.00     0.008 C 
ATOM     10  C   UNL     1      20.112  64.321  17.272  1.00  0.00     0.005 C 
ATOM     11  C   UNL     1      20.275  63.468  15.970  1.00  0.00    -0.005 C 
ATOM     12  C   UNL     1      23.956  65.063  17.745  1.00  0.00     0.012 C 
ENDROOT
BRANCH  11  13
ATOM     13  C   UNL     1      19.443  63.949  14.725  1.00  0.00    -0.014 C 
ATOM     14  C   UNL     1      19.253  62.799  13.722  1.00  0.00     0.007 C 
ATOM     15  C   UNL     1      18.065  64.568  15.038  1.00  0.00     0.007 C 
ENDBRANCH  11  13
TORSDOF 1
ENDMDL
MODEL 6
REMARK VINA RESULT:    -4.377      1.780      4.319
REMARK INTER + INTRA:          -4.918
REMARK INTER:                  -4.633
REMARK INTRA:                  -0.285
REMARK UNBOUND:                -0.286
REMARK SMILES CC1=CC[C@H]2[C@H]3[C@@H]1[C@]2(C)CC[C@H]3C(C)C
REMARK SMILES IDX 1 1 2 2 3 3 4 4 5 5 6 6 7 7 8 8 10 9 11 10 12 11 9 12 13 13
REMARK SMILES IDX 14 14 15 15
REMARK H PARENT
REMARK Flexibility Score: inf
ROOT
ATOM      1  C   UNL     1      19.156  62.733  13.873  1.00  0.00     0.039 C 
ATOM      2  C   UNL     1      19.948  63.614  14.792  1.00  0.00    -0.073 C 
ATOM      3  C   UNL     1      19.582  64.899  15.025  1.00  0.00    -0.027 C 
ATOM      4  C   UNL     1      20.439  65.754  15.961  1.00  0.00     0.031 C 
ATOM      5  C   UNL     1      21.627  64.914  16.536  1.00  0.00     0.003 C 
ATOM      6  C   UNL     1      21.057  63.554  17.000  1.00  0.00     0.004 C 
ATOM      7  C   UNL     1      21.189  63.099  15.526  1.00  0.00     0.024 C 
ATOM      8  C   UNL     1      22.350  64.124  15.421  1.00  0.00    -0.022 C 
ATOM      9  C   UNL     1      23.672  63.537  16.007  1.00  0.00     0.008 C 
ATOM     10  C   UNL     1      23.430  62.550  17.181  1.00  0.00     0.005 C 
ATOM     11  C   UNL     1      22.051  62.753  17.892  1.00  0.00    -0.005 C 
ATOM     12  C   UNL     1      22.607  64.828  14.068  1.00  0.00     0.012 C 
ENDROOT
BRANCH  11  13
ATOM     13  C   UNL     1      22.113  63.287  19.370  1.00  0.00    -0.014 C 
ATOM     14  C   UNL     1      23.483  63.920  19.661  1.00  0.00     0.007 C 
ATOM     15  C   UNL     1      21.009  64.287  19.770  1.00  0.00     0.007 C 
ENDBRANCH  11  13
TORSDOF 1
ENDMDL
MODEL 7
REMARK VINA RESULT:    -4.114      1.681      3.194
REMARK INTER + INTRA:          -4.641
REMARK INTER:                  -4.378
REMARK INTRA:                  -0.262
REMARK UNBOUND:                -0.286
REMARK SMILES CC1=CC[C@H]2[C@H]3[C@@H]1[C@]2(C)CC[C@H]3C(C)C
REMARK SMILES IDX 1 1 2 2 3 3 4 4 5 5 6 6 7 7 8 8 10 9 11 10 12 11 9 12 13 13
REMARK SMILES IDX 14 14 15 15
REMARK H PARENT
REMARK Flexibility Score: inf
ROOT
ATOM      1  C   UNL     1      24.349  61.330  16.943  1.00  0.00     0.039 C 
ATOM      2  C   UNL     1      23.613  62.621  16.745  1.00  0.00    -0.073 C 
ATOM      3  C   UNL     1      23.938  63.733  17.452  1.00  0.00    -0.027 C 
ATOM      4  C   UNL     1      23.140  65.017  17.217  1.00  0.00     0.031 C 
ATOM      5  C   UNL     1      22.061  64.797  16.106  1.00  0.00     0.003 C 
ATOM      6  C   UNL     1      22.742  64.058  14.932  1.00  0.00     0.004 C 
ATOM      7  C   UNL     1      22.481  62.752  15.723  1.00  0.00     0.024 C 
ATOM      8  C   UNL     1      21.267  63.491  16.345  1.00  0.00    -0.022 C 
ATOM      9  C   UNL     1      20.043  63.473  15.378  1.00  0.00     0.008 C 
ATOM     10  C   UNL     1      20.452  63.490  13.880  1.00  0.00     0.005 C 
ATOM     11  C   UNL     1      21.885  64.068  13.631  1.00  0.00    -0.005 C 
ATOM     12  C   UNL     1      20.838  63.143  17.789  1.00  0.00     0.012 C 
ENDROOT
BRANCH  11  13
ATOM     13  C   UNL     1      21.949  65.442  12.869  1.00  0.00    -0.014 C 
ATOM     14  C   UNL     1      23.373  65.714  12.359  1.00  0.00     0.007 C 
ATOM     15  C   UNL     1      20.961  65.605  11.695  1.00  0.00     0.007 C 
ENDBRANCH  11  13
TORSDOF 1
ENDMDL
MODEL 8
REMARK VINA RESULT:    -4.051      1.177      4.558
REMARK INTER + INTRA:          -4.574
REMARK INTER:                  -4.729
REMARK INTRA:                   0.155
REMARK UNBOUND:                -0.286
REMARK SMILES CC1=CC[C@H]2[C@H]3[C@@H]1[C@]2(C)CC[C@H]3C(C)C
REMARK SMILES IDX 1 1 2 2 3 3 4 4 5 5 6 6 7 7 8 8 10 9 11 10 12 11 9 12 13 13
REMARK SMILES IDX 14 14 15 15
REMARK H PARENT
REMARK Flexibility Score: inf
ROOT
ATOM      1  C   UNL     1      19.183  63.503  14.478  1.00  0.00     0.039 C 
ATOM      2  C   UNL     1      20.552  63.508  15.089  1.00  0.00    -0.073 C 
ATOM      3  C   UNL     1      20.723  63.488  16.435  1.00  0.00    -0.027 C 
ATOM      4  C   UNL     1      22.144  63.510  17.000  1.00  0.00     0.031 C 
ATOM      5  C   UNL     1      23.195  63.510  15.842  1.00  0.00     0.003 C 
ATOM      6  C   UNL     1      22.763  62.436  14.818  1.00  0.00     0.004 C 
ATOM      7  C   UNL     1      21.818  63.511  14.227  1.00  0.00     0.024 C 
ATOM      8  C   UNL     1      22.837  64.554  14.758  1.00  0.00    -0.022 C 
ATOM      9  C   UNL     1      24.051  64.696  13.788  1.00  0.00     0.008 C 
ATOM     10  C   UNL     1      24.398  63.374  13.050  1.00  0.00     0.005 C 
ATOM     11  C   UNL     1      23.882  62.094  13.789  1.00  0.00    -0.005 C 
ATOM     12  C   UNL     1      22.323  65.940  15.211  1.00  0.00     0.012 C 
ENDROOT
BRANCH  11  13
ATOM     13  C   UNL     1      24.991  61.152  14.385  1.00  0.00    -0.014 C 
ATOM     14  C   UNL     1      24.784  60.957  15.895  1.00  0.00     0.007 C 
ATOM     15  C   UNL     1      25.125  59.767  13.719  1.00  0.00     0.007 C 
ENDBRANCH  11  13
TORSDOF 1
ENDMDL
MODEL 9
REMARK VINA RESULT:    -2.247      2.003      4.231
REMARK INTER + INTRA:          -2.664
REMARK INTER:                  -2.465
REMARK INTRA:                  -0.199
REMARK UNBOUND:                -0.286
REMARK SMILES CC1=CC[C@H]2[C@H]3[C@@H]1[C@]2(C)CC[C@H]3C(C)C
REMARK SMILES IDX 1 1 2 2 3 3 4 4 5 5 6 6 7 7 8 8 10 9 11 10 12 11 9 12 13 13
REMARK SMILES IDX 14 14 15 15
REMARK H PARENT
REMARK Flexibility Score: inf
ROOT
ATOM      1  C   UNL     1      20.186  63.133  18.000  1.00  0.00     0.039 C 
ATOM      2  C   UNL     1      21.642  63.245  17.658  1.00  0.00    -0.073 C 
ATOM      3  C   UNL     1      22.600  63.124  18.611  1.00  0.00    -0.027 C 
ATOM      4  C   UNL     1      24.069  63.263  18.203  1.00  0.00     0.031 C 
ATOM      5  C   UNL     1      24.191  63.492  16.661  1.00  0.00     0.003 C 
ATOM      6  C   UNL     1      23.264  62.471  15.962  1.00  0.00     0.004 C 
ATOM      7  C   UNL     1      22.115  63.475  16.220  1.00  0.00     0.024 C 
ATOM      8  C   UNL     1      23.204  64.579  16.174  1.00  0.00    -0.022 C 
ATOM      9  C   UNL     1      23.564  64.951  14.702  1.00  0.00     0.008 C 
ATOM     10  C   UNL     1      23.439  63.751  13.724  1.00  0.00     0.005 C 
ATOM     11  C   UNL     1      23.533  62.358  14.431  1.00  0.00    -0.005 C 
ATOM     12  C   UNL     1      23.021  65.849  17.038  1.00  0.00     0.012 C 
ENDROOT
BRANCH  11  13
ATOM     13  C   UNL     1      24.810  61.504  14.097  1.00  0.00    -0.014 C 
ATOM     14  C   UNL     1      25.125  60.527  15.242  1.00  0.00     0.007 C 
ATOM     15  C   UNL     1      24.765  60.717  12.771  1.00  0.00     0.007 C 
ENDBRANCH  11  13
TORSDOF 1
ENDMDL
