MODEL 1
REMARK VINA RESULT:    -5.310      0.000      0.000
REMARK INTER + INTRA:          -6.149
REMARK INTER:                  -5.931
REMARK INTRA:                  -0.217
REMARK UNBOUND:                -0.217
REMARK SMILES CC(C)c1ccc(C(=O)[O-])cc1
REMARK SMILES IDX 7 1 6 2 11 3 5 4 12 5 4 6 8 7 9 8 10 9 2 10 1 11 3 12
REMARK H PARENT
REMARK Flexibility Score: inf
ROOT
ATOM      1  C   UNL     1      38.081  18.041  11.063  1.00  0.00    -0.003 A 
ATOM      2  C   UNL     1      37.815  17.418   9.832  1.00  0.00     0.010 A 
ATOM      3  C   UNL     1      39.377  18.519  11.319  1.00  0.00     0.010 A 
ATOM      4  C   UNL     1      38.826  17.275   8.876  1.00  0.00     0.004 A 
ATOM      5  C   UNL     1      40.387  18.376  10.363  1.00  0.00     0.004 A 
ATOM      6  C   UNL     1      40.123  17.753   9.131  1.00  0.00    -0.045 A 
ENDROOT
BRANCH   1   7
ATOM      7  C   UNL     1      37.014  18.193  12.077  1.00  0.00     0.071 C 
ATOM      8  O   UNL     1      37.208  18.883  13.113  1.00  0.00    -0.545 OA
ATOM      9  O   UNL     1      35.781  17.575  11.901  1.00  0.00    -0.545 OA
ENDBRANCH   1   7
BRANCH   6  10
ATOM     10  C   UNL     1      41.210  17.592   8.084  1.00  0.00     0.013 C 
ATOM     11  C   UNL     1      40.648  16.985   6.793  1.00  0.00     0.012 C 
ATOM     12  C   UNL     1      42.378  16.758   8.625  1.00  0.00     0.012 C 
ENDBRANCH   6  10
TORSDOF 2
ENDMDL
MODEL 2
REMARK VINA RESULT:    -5.295      0.073      1.399
REMARK INTER + INTRA:          -6.131
REMARK INTER:                  -5.914
REMARK INTRA:                  -0.217
REMARK UNBOUND:                -0.217
REMARK SMILES CC(C)c1ccc(C(=O)[O-])cc1
REMARK SMILES IDX 7 1 6 2 11 3 5 4 12 5 4 6 8 7 9 8 10 9 2 10 1 11 3 12
REMARK H PARENT
REMARK Flexibility Score: inf
ROOT
ATOM      1  C   UNL     1      38.083  18.047  11.071  1.00  0.00    -0.003 A 
ATOM      2  C   UNL     1      39.386  18.489  11.357  1.00  0.00     0.010 A 
ATOM      3  C   UNL     1      37.825  17.448   9.827  1.00  0.00     0.010 A 
ATOM      4  C   UNL     1      40.410  18.336  10.417  1.00  0.00     0.004 A 
ATOM      5  C   UNL     1      38.848  17.295   8.887  1.00  0.00     0.004 A 
ATOM      6  C   UNL     1      40.153  17.738   9.171  1.00  0.00    -0.045 A 
ENDROOT
BRANCH   1   7
ATOM      7  C   UNL     1      36.998  18.207  12.063  1.00  0.00     0.071 C 
ATOM      8  O   UNL     1      37.192  18.852  13.128  1.00  0.00    -0.545 OA
ATOM      9  O   UNL     1      35.746  17.645  11.835  1.00  0.00    -0.545 OA
ENDBRANCH   1   7
BRANCH   6  10
ATOM     10  C   UNL     1      41.273  17.578   8.161  1.00  0.00     0.013 C 
ATOM     11  C   UNL     1      40.752  16.976   6.850  1.00  0.00     0.012 C 
ATOM     12  C   UNL     1      42.421  16.740   8.736  1.00  0.00     0.012 C 
ENDBRANCH   6  10
TORSDOF 2
ENDMDL
MODEL 3
REMARK VINA RESULT:    -5.272      3.177      5.035
REMARK INTER + INTRA:          -6.106
REMARK INTER:                  -5.901
REMARK INTRA:                  -0.205
REMARK UNBOUND:                -0.217
REMARK SMILES CC(C)c1ccc(C(=O)[O-])cc1
REMARK SMILES IDX 7 1 6 2 11 3 5 4 12 5 4 6 8 7 9 8 10 9 2 10 1 11 3 12
REMARK H PARENT
REMARK Flexibility Score: inf
ROOT
ATOM      1  C   UNL     1      40.587  18.725   9.858  1.00  0.00    -0.003 A 
ATOM      2  C   UNL     1      40.285  18.509  11.214  1.00  0.00     0.010 A 
ATOM      3  C   UNL     1      39.557  18.630   8.908  1.00  0.00     0.010 A 
ATOM      4  C   UNL     1      38.979  18.204  11.610  1.00  0.00     0.004 A 
ATOM      5  C   UNL     1      38.251  18.325   9.304  1.00  0.00     0.004 A 
ATOM      6  C   UNL     1      37.948  18.109  10.661  1.00  0.00    -0.045 A 
ENDROOT
BRANCH   1   7
ATOM      7  C   UNL     1      41.967  19.047   9.435  1.00  0.00     0.071 C 
ATOM      8  O   UNL     1      42.572  20.040   9.922  1.00  0.00    -0.545 OA
ATOM      9  O   UNL     1      42.617  18.258   8.492  1.00  0.00    -0.545 OA
ENDBRANCH   1   7
BRANCH   6  10
ATOM     10  C   UNL     1      36.535  17.778  11.105  1.00  0.00     0.013 C 
ATOM     11  C   UNL     1      36.191  18.483  12.423  1.00  0.00     0.012 C 
ATOM     12  C   UNL     1      36.333  16.263  11.219  1.00  0.00     0.012 C 
ENDBRANCH   6  10
TORSDOF 2
ENDMDL
MODEL 4
REMARK VINA RESULT:    -5.240      2.721      5.324
REMARK INTER + INTRA:          -6.070
REMARK INTER:                  -5.864
REMARK INTRA:                  -0.206
REMARK UNBOUND:                -0.217
REMARK SMILES CC(C)c1ccc(C(=O)[O-])cc1
REMARK SMILES IDX 7 1 6 2 11 3 5 4 12 5 4 6 8 7 9 8 10 9 2 10 1 11 3 12
REMARK H PARENT
REMARK Flexibility Score: inf
ROOT
ATOM      1  C   UNL     1      39.101  18.294  10.460  1.00  0.00    -0.003 A 
ATOM      2  C   UNL     1      38.916  18.472  11.842  1.00  0.00     0.010 A 
ATOM      3  C   UNL     1      37.976  18.103   9.641  1.00  0.00     0.010 A 
ATOM      4  C   UNL     1      37.631  18.460  12.393  1.00  0.00     0.004 A 
ATOM      5  C   UNL     1      36.691  18.091  10.192  1.00  0.00     0.004 A 
ATOM      6  C   UNL     1      36.504  18.269  11.575  1.00  0.00    -0.045 A 
ENDROOT
BRANCH   1   7
ATOM      7  C   UNL     1      40.459  18.306   9.873  1.00  0.00     0.071 C 
ATOM      8  O   UNL     1      41.336  19.101  10.304  1.00  0.00    -0.545 OA
ATOM      9  O   UNL     1      40.786  17.439   8.836  1.00  0.00    -0.545 OA
ENDBRANCH   1   7
BRANCH   6  10
ATOM     10  C   UNL     1      35.115  18.258  12.186  1.00  0.00     0.013 C 
ATOM     11  C   UNL     1      34.607  16.824  12.378  1.00  0.00     0.012 C 
ATOM     12  C   UNL     1      34.135  19.085  11.346  1.00  0.00     0.012 C 
ENDBRANCH   6  10
TORSDOF 2
ENDMDL
MODEL 5
REMARK VINA RESULT:    -5.235      1.220      1.716
REMARK INTER + INTRA:          -6.064
REMARK INTER:                  -5.861
REMARK INTRA:                  -0.203
REMARK UNBOUND:                -0.217
REMARK SMILES CC(C)c1ccc(C(=O)[O-])cc1
REMARK SMILES IDX 7 1 6 2 11 3 5 4 12 5 4 6 8 7 9 8 10 9 2 10 1 11 3 12
REMARK H PARENT
REMARK Flexibility Score: inf
ROOT
ATOM      1  C   UNL     1      37.661  17.876  10.913  1.00  0.00    -0.003 A 
ATOM      2  C   UNL     1      37.896  17.524   9.573  1.00  0.00     0.010 A 
ATOM      3  C   UNL     1      38.726  18.369  11.685  1.00  0.00     0.010 A 
ATOM      4  C   UNL     1      39.171  17.662   9.016  1.00  0.00     0.004 A 
ATOM      5  C   UNL     1      40.001  18.507  11.128  1.00  0.00     0.004 A 
ATOM      6  C   UNL     1      40.238  18.155   9.787  1.00  0.00    -0.045 A 
ENDROOT
BRANCH   1   7
ATOM      7  C   UNL     1      36.313  17.732  11.506  1.00  0.00     0.071 C 
ATOM      8  O   UNL     1      35.758  16.602  11.569  1.00  0.00    -0.545 OA
ATOM      9  O   UNL     1      35.638  18.843  12.001  1.00  0.00    -0.545 OA
ENDBRANCH   1   7
BRANCH   6  10
ATOM     10  C   UNL     1      41.616  18.299   9.170  1.00  0.00     0.013 C 
ATOM     11  C   UNL     1      42.438  17.017   9.348  1.00  0.00     0.012 C 
ATOM     12  C   UNL     1      42.355  19.514   9.745  1.00  0.00     0.012 C 
ENDBRANCH   6  10
TORSDOF 2
ENDMDL
MODEL 6
REMARK VINA RESULT:    -5.220      3.151      4.882
REMARK INTER + INTRA:          -6.048
REMARK INTER:                  -5.845
REMARK INTRA:                  -0.203
REMARK UNBOUND:                -0.217
REMARK SMILES CC(C)c1ccc(C(=O)[O-])cc1
REMARK SMILES IDX 7 1 6 2 11 3 5 4 12 5 4 6 8 7 9 8 10 9 2 10 1 11 3 12
REMARK H PARENT
REMARK Flexibility Score: inf
ROOT
ATOM      1  C   UNL     1      40.605  18.630   9.865  1.00  0.00    -0.003 A 
ATOM      2  C   UNL     1      39.596  18.449   8.904  1.00  0.00     0.010 A 
ATOM      3  C   UNL     1      40.276  18.526  11.227  1.00  0.00     0.010 A 
ATOM      4  C   UNL     1      38.284  18.170   9.298  1.00  0.00     0.004 A 
ATOM      5  C   UNL     1      38.964  18.246  11.620  1.00  0.00     0.004 A 
ATOM      6  C   UNL     1      37.952  18.065  10.660  1.00  0.00    -0.045 A 
ENDROOT
BRANCH   1   7
ATOM      7  C   UNL     1      41.995  18.927   9.453  1.00  0.00     0.071 C 
ATOM      8  O   UNL     1      42.549  20.005   9.795  1.00  0.00    -0.545 OA
ATOM      9  O   UNL     1      42.709  18.018   8.679  1.00  0.00    -0.545 OA
ENDBRANCH   1   7
BRANCH   6  10
ATOM     10  C   UNL     1      36.524  17.760  11.072  1.00  0.00     0.013 C 
ATOM     11  C   UNL     1      36.161  18.481  12.376  1.00  0.00     0.012 C 
ATOM     12  C   UNL     1      36.294  16.250  11.193  1.00  0.00     0.012 C 
ENDBRANCH   6  10
TORSDOF 2
ENDMDL
MODEL 7
REMARK VINA RESULT:    -5.210      3.535      5.082
REMARK INTER + INTRA:          -6.037
REMARK INTER:                  -5.816
REMARK INTRA:                  -0.220
REMARK UNBOUND:                -0.217
REMARK SMILES CC(C)c1ccc(C(=O)[O-])cc1
REMARK SMILES IDX 7 1 6 2 11 3 5 4 12 5 4 6 8 7 9 8 10 9 2 10 1 11 3 12
REMARK H PARENT
REMARK Flexibility Score: inf
ROOT
ATOM      1  C   UNL     1      36.359  19.180   7.515  1.00  0.00    -0.003 A 
ATOM      2  C   UNL     1      37.743  19.009   7.690  1.00  0.00     0.010 A 
ATOM      3  C   UNL     1      35.500  18.937   8.600  1.00  0.00     0.010 A 
ATOM      4  C   UNL     1      38.257  18.603   8.926  1.00  0.00     0.004 A 
ATOM      5  C   UNL     1      36.014  18.531   9.835  1.00  0.00     0.004 A 
ATOM      6  C   UNL     1      37.399  18.360  10.012  1.00  0.00    -0.045 A 
ENDROOT
BRANCH   1   7
ATOM      7  C   UNL     1      35.812  19.608   6.209  1.00  0.00     0.071 C 
ATOM      8  O   UNL     1      34.635  20.049   6.121  1.00  0.00    -0.545 OA
ATOM      9  O   UNL     1      36.590  19.529   5.059  1.00  0.00    -0.545 OA
ENDBRANCH   1   7
BRANCH   6  10
ATOM     10  C   UNL     1      37.970  17.920  11.347  1.00  0.00     0.013 C 
ATOM     11  C   UNL     1      37.170  18.515  12.513  1.00  0.00     0.012 C 
ATOM     12  C   UNL     1      39.457  18.278  11.457  1.00  0.00     0.012 C 
ENDBRANCH   6  10
TORSDOF 2
ENDMDL
MODEL 8
REMARK VINA RESULT:    -5.120      1.656      2.383
REMARK INTER + INTRA:          -5.935
REMARK INTER:                  -5.725
REMARK INTRA:                  -0.211
REMARK UNBOUND:                -0.217
REMARK SMILES CC(C)c1ccc(C(=O)[O-])cc1
REMARK SMILES IDX 7 1 6 2 11 3 5 4 12 5 4 6 8 7 9 8 10 9 2 10 1 11 3 12
REMARK H PARENT
REMARK Flexibility Score: inf
ROOT
ATOM      1  C   UNL     1      38.110  18.313   9.905  1.00  0.00    -0.003 A 
ATOM      2  C   UNL     1      38.878  18.295   8.728  1.00  0.00     0.010 A 
ATOM      3  C   UNL     1      38.765  18.414  11.143  1.00  0.00     0.010 A 
ATOM      4  C   UNL     1      40.273  18.376   8.789  1.00  0.00     0.004 A 
ATOM      5  C   UNL     1      40.159  18.495  11.205  1.00  0.00     0.004 A 
ATOM      6  C   UNL     1      40.929  18.478  10.028  1.00  0.00    -0.045 A 
ENDROOT
BRANCH   1   7
ATOM      7  C   UNL     1      36.635  18.227   9.844  1.00  0.00     0.071 C 
ATOM      8  O   UNL     1      36.048  18.052   8.742  1.00  0.00    -0.545 OA
ATOM      9  O   UNL     1      35.874  18.339  11.003  1.00  0.00    -0.545 OA
ENDBRANCH   1   7
BRANCH   6  10
ATOM     10  C   UNL     1      42.443  18.565  10.080  1.00  0.00     0.013 C 
ATOM     11  C   UNL     1      42.935  19.927   9.575  1.00  0.00     0.012 C 
ATOM     12  C   UNL     1      43.090  17.418   9.296  1.00  0.00     0.012 C 
ENDBRANCH   6  10
TORSDOF 2
ENDMDL
MODEL 9
REMARK VINA RESULT:    -5.093      1.396      2.511
REMARK INTER + INTRA:          -5.906
REMARK INTER:                  -5.695
REMARK INTRA:                  -0.211
REMARK UNBOUND:                -0.217
REMARK SMILES CC(C)c1ccc(C(=O)[O-])cc1
REMARK SMILES IDX 7 1 6 2 11 3 5 4 12 5 4 6 8 7 9 8 10 9 2 10 1 11 3 12
REMARK H PARENT
REMARK Flexibility Score: inf
ROOT
ATOM      1  C   UNL     1      36.572  18.182  11.342  1.00  0.00    -0.003 A 
ATOM      2  C   UNL     1      37.713  18.263  12.160  1.00  0.00     0.010 A 
ATOM      3  C   UNL     1      36.738  18.054   9.953  1.00  0.00     0.010 A 
ATOM      4  C   UNL     1      38.993  18.218  11.599  1.00  0.00     0.004 A 
ATOM      5  C   UNL     1      38.018  18.009   9.393  1.00  0.00     0.004 A 
ATOM      6  C   UNL     1      39.160  18.090  10.210  1.00  0.00    -0.045 A 
ENDROOT
BRANCH   1   7
ATOM      7  C   UNL     1      35.217  18.230  11.932  1.00  0.00     0.071 C 
ATOM      8  O   UNL     1      34.827  17.326  12.718  1.00  0.00    -0.545 OA
ATOM      9  O   UNL     1      34.351  19.275  11.624  1.00  0.00    -0.545 OA
ENDBRANCH   1   7
BRANCH   6  10
ATOM     10  C   UNL     1      40.555  18.042   9.615  1.00  0.00     0.013 C 
ATOM     11  C   UNL     1      41.377  19.267  10.034  1.00  0.00     0.012 C 
ATOM     12  C   UNL     1      40.501  17.909   8.088  1.00  0.00     0.012 C 
ENDBRANCH   6  10
TORSDOF 2
ENDMDL
