MODEL 1
REMARK VINA RESULT:    -2.431      0.000      0.000
REMARK INTER + INTRA:          -2.431
REMARK INTER:                  -2.431
REMARK INTRA:                   0.000
REMARK UNBOUND:                 0.000
REMARK SMILES CC(=O)[O-]
REMARK SMILES IDX 1 1 2 2 3 3 4 4
REMARK H PARENT
REMARK Flexibility Score: inf
ROOT
ATOM      1  C   UNL     1      27.993  40.956  31.990  1.00  0.00     0.063 C 
ATOM      2  C   UNL     1      27.552  41.549  33.285  1.00  0.00     0.038 C 
ATOM      3  O   UNL     1      27.846  42.739  33.567  1.00  0.00    -0.550 OA
ATOM      4  O   UNL     1      26.768  40.806  34.159  1.00  0.00    -0.550 OA
ENDROOT
TORSDOF 0
ENDMDL
MODEL 2
REMARK VINA RESULT:    -2.411      1.383      1.970
REMARK INTER + INTRA:          -2.411
REMARK INTER:                  -2.411
REMARK INTRA:                   0.000
REMARK UNBOUND:                 0.000
REMARK SMILES CC(=O)[O-]
REMARK SMILES IDX 1 1 2 2 3 3 4 4
REMARK H PARENT
REMARK Flexibility Score: inf
ROOT
ATOM      1  C   UNL     1      27.293  40.323  33.940  1.00  0.00     0.063 C 
ATOM      2  C   UNL     1      27.690  41.425  33.018  1.00  0.00     0.038 C 
ATOM      3  O   UNL     1      27.884  41.188  31.798  1.00  0.00    -0.550 OA
ATOM      4  O   UNL     1      27.794  42.727  33.493  1.00  0.00    -0.550 OA
ENDROOT
TORSDOF 0
ENDMDL
MODEL 3
REMARK VINA RESULT:    -2.404      5.380      6.034
REMARK INTER + INTRA:          -2.404
REMARK INTER:                  -2.404
REMARK INTRA:                   0.000
REMARK UNBOUND:                 0.000
REMARK SMILES CC(=O)[O-]
REMARK SMILES IDX 1 1 2 2 3 3 4 4
REMARK H PARENT
REMARK Flexibility Score: inf
ROOT
ATOM      1  C   UNL     1      27.486  36.660  32.740  1.00  0.00     0.063 C 
ATOM      2  C   UNL     1      27.416  35.667  33.849  1.00  0.00     0.038 C 
ATOM      3  O   UNL     1      27.871  34.505  33.686  1.00  0.00    -0.550 OA
ATOM      4  O   UNL     1      26.897  36.037  35.084  1.00  0.00    -0.550 OA
ENDROOT
TORSDOF 0
ENDMDL
MODEL 4
REMARK VINA RESULT:    -2.377      2.693      3.301
REMARK INTER + INTRA:          -2.377
REMARK INTER:                  -2.377
REMARK INTRA:                   0.000
REMARK UNBOUND:                 0.000
REMARK SMILES CC(=O)[O-]
REMARK SMILES IDX 1 1 2 2 3 3 4 4
REMARK H PARENT
REMARK Flexibility Score: inf
ROOT
ATOM      1  C   UNL     1      27.902  39.314  33.989  1.00  0.00     0.063 C 
ATOM      2  C   UNL     1      27.914  39.288  32.498  1.00  0.00     0.038 C 
ATOM      3  O   UNL     1      27.617  38.232  31.883  1.00  0.00    -0.550 OA
ATOM      4  O   UNL     1      28.200  40.445  31.784  1.00  0.00    -0.550 OA
ENDROOT
TORSDOF 0
ENDMDL
MODEL 5
REMARK VINA RESULT:    -2.338      2.125      2.613
REMARK INTER + INTRA:          -2.338
REMARK INTER:                  -2.338
REMARK INTRA:                   0.000
REMARK UNBOUND:                 0.000
REMARK SMILES CC(=O)[O-]
REMARK SMILES IDX 1 1 2 2 3 3 4 4
REMARK H PARENT
REMARK Flexibility Score: inf
ROOT
ATOM      1  C   UNL     1      28.046  40.863  31.949  1.00  0.00     0.063 C 
ATOM      2  C   UNL     1      27.992  39.536  32.629  1.00  0.00     0.038 C 
ATOM      3  O   UNL     1      28.220  39.450  33.863  1.00  0.00    -0.550 OA
ATOM      4  O   UNL     1      27.637  38.400  31.912  1.00  0.00    -0.550 OA
ENDROOT
TORSDOF 0
ENDMDL
MODEL 6
REMARK VINA RESULT:    -2.325      2.407      3.045
REMARK INTER + INTRA:          -2.325
REMARK INTER:                  -2.325
REMARK INTRA:                   0.000
REMARK UNBOUND:                 0.000
REMARK SMILES CC(=O)[O-]
REMARK SMILES IDX 1 1 2 2 3 3 4 4
REMARK H PARENT
REMARK Flexibility Score: inf
ROOT
ATOM      1  C   UNL     1      26.501  43.527  35.553  1.00  0.00     0.063 C 
ATOM      2  C   UNL     1      27.772  42.989  34.989  1.00  0.00     0.038 C 
ATOM      3  O   UNL     1      28.754  42.768  35.743  1.00  0.00    -0.550 OA
ATOM      4  O   UNL     1      27.857  42.679  33.637  1.00  0.00    -0.550 OA
ENDROOT
TORSDOF 0
ENDMDL
MODEL 7
REMARK VINA RESULT:    -2.321      1.326      2.175
REMARK INTER + INTRA:          -2.321
REMARK INTER:                  -2.321
REMARK INTRA:                   0.000
REMARK UNBOUND:                 0.000
REMARK SMILES CC(=O)[O-]
REMARK SMILES IDX 1 1 2 2 3 3 4 4
REMARK H PARENT
REMARK Flexibility Score: inf
ROOT
ATOM      1  C   UNL     1      27.866  42.792  34.017  1.00  0.00     0.063 C 
ATOM      2  C   UNL     1      27.494  41.499  33.375  1.00  0.00     0.038 C 
ATOM      3  O   UNL     1      26.810  40.654  34.008  1.00  0.00    -0.550 OA
ATOM      4  O   UNL     1      27.855  41.247  32.057  1.00  0.00    -0.550 OA
ENDROOT
TORSDOF 0
ENDMDL
MODEL 8
REMARK VINA RESULT:    -2.289      3.806      4.424
REMARK INTER + INTRA:          -2.289
REMARK INTER:                  -2.289
REMARK INTRA:                   0.000
REMARK UNBOUND:                 0.000
REMARK SMILES CC(=O)[O-]
REMARK SMILES IDX 1 1 2 2 3 3 4 4
REMARK H PARENT
REMARK Flexibility Score: inf
ROOT
ATOM      1  C   UNL     1      23.804  43.857  35.590  1.00  0.00     0.063 C 
ATOM      2  C   UNL     1      25.057  43.065  35.755  1.00  0.00     0.038 C 
ATOM      3  O   UNL     1      25.077  41.844  35.450  1.00  0.00    -0.550 OA
ATOM      4  O   UNL     1      26.219  43.684  36.196  1.00  0.00    -0.550 OA
ENDROOT
TORSDOF 0
ENDMDL
MODEL 9
REMARK VINA RESULT:    -2.278      3.968      4.305
REMARK INTER + INTRA:          -2.278
REMARK INTER:                  -2.278
REMARK INTRA:                   0.000
REMARK UNBOUND:                 0.000
REMARK SMILES CC(=O)[O-]
REMARK SMILES IDX 1 1 2 2 3 3 4 4
REMARK H PARENT
REMARK Flexibility Score: inf
ROOT
ATOM      1  C   UNL     1      23.666  43.905  35.526  1.00  0.00     0.063 C 
ATOM      2  C   UNL     1      24.907  43.125  35.804  1.00  0.00     0.038 C 
ATOM      3  O   UNL     1      25.910  43.694  36.308  1.00  0.00    -0.550 OA
ATOM      4  O   UNL     1      24.940  41.759  35.557  1.00  0.00    -0.550 OA
ENDROOT
TORSDOF 0
ENDMDL
