MODEL 1
REMARK VINA RESULT:    -3.717      0.000      0.000
REMARK INTER + INTRA:         -14.989
REMARK INTER:                  -9.368
REMARK INTRA:                  -5.621
REMARK UNBOUND:                -5.621
REMARK SMILES CCCCCCCCCCCCCCCCCCCCCCCCCCCC(=O)[O-]
REMARK SMILES IDX 15 1 16 2 17 3 18 4 19 5 20 6 21 7 22 8 23 9 24 10 25 11
REMARK SMILES IDX 26 12 27 13 28 14 29 15 30 16 14 17 13 18 12 19 11 20 10 21
REMARK SMILES IDX 9 22 8 23 7 24 6 25 5 26 4 27 3 28 2 29 1 30
REMARK H PARENT
REMARK Flexibility Score: inf
ROOT
ATOM      1  C   UNL     1      23.646  -8.267 -27.946  1.00  0.00     0.000 C 
ENDROOT
BRANCH   1   2
ATOM      2  C   UNL     1      25.044  -8.780 -28.329  1.00  0.00     0.000 C 
BRANCH   2   3
ATOM      3  C   UNL     1      25.650  -8.159 -29.605  1.00  0.00     0.000 C 
BRANCH   3   4
ATOM      4  C   UNL     1      24.632  -7.721 -30.678  1.00  0.00     0.000 C 
BRANCH   4   5
ATOM      5  C   UNL     1      25.027  -6.450 -31.452  1.00  0.00     0.000 C 
BRANCH   5   6
ATOM      6  C   UNL     1      26.224  -5.717 -30.820  1.00  0.00     0.000 C 
BRANCH   6   7
ATOM      7  C   UNL     1      26.623  -4.449 -31.593  1.00  0.00     0.000 C 
BRANCH   7   8
ATOM      8  C   UNL     1      27.274  -3.336 -30.747  1.00  0.00     0.000 C 
BRANCH   8   9
ATOM      9  C   UNL     1      27.685  -3.777 -29.327  1.00  0.00     0.000 C 
BRANCH   9  10
ATOM     10  C   UNL     1      27.893  -2.587 -28.376  1.00  0.00     0.000 C 
BRANCH  10  11
ATOM     11  C   UNL     1      26.728  -1.595 -28.459  1.00  0.00     0.000 C 
BRANCH  11  12
ATOM     12  C   UNL     1      26.079  -1.403 -27.079  1.00  0.00     0.006 C 
BRANCH  12  13
ATOM     13  C   UNL     1      26.911  -2.032 -25.953  1.00  0.00     0.053 C 
BRANCH  13  14
ATOM     14  C   UNL     1      26.051  -2.716 -24.935  1.00  0.00     0.041 C 
ATOM     15  O   UNL     1      26.546  -3.100 -23.842  1.00  0.00    -0.550 OA
ATOM     16  O   UNL     1      24.706  -2.946 -25.200  1.00  0.00    -0.550 OA
ENDBRANCH  13  14
ENDBRANCH  12  13
ENDBRANCH  11  12
ENDBRANCH  10  11
ENDBRANCH   9  10
ENDBRANCH   8   9
ENDBRANCH   7   8
ENDBRANCH   6   7
ENDBRANCH   5   6
ENDBRANCH   4   5
ENDBRANCH   3   4
ENDBRANCH   2   3
ENDBRANCH   1   2
BRANCH   1  17
ATOM     17  C   UNL     1      23.605  -7.617 -26.555  1.00  0.00     0.000 C 
BRANCH  17  18
ATOM     18  C   UNL     1      23.146  -6.156 -26.650  1.00  0.00     0.000 C 
BRANCH  18  19
ATOM     19  C   UNL     1      23.227  -5.603 -28.082  1.00  0.00     0.000 C 
BRANCH  19  20
ATOM     20  C   UNL     1      23.944  -4.237 -28.166  1.00  0.00     0.000 C 
BRANCH  20  21
ATOM     21  C   UNL     1      23.650  -3.513 -29.491  1.00  0.00     0.000 C 
BRANCH  21  22
ATOM     22  C   UNL     1      22.811  -2.232 -29.289  1.00  0.00    -0.000 C 
BRANCH  22  23
ATOM     23  C   UNL     1      23.384  -1.000 -30.015  1.00  0.00    -0.000 C 
BRANCH  23  24
ATOM     24  C   UNL     1      24.273  -1.318 -31.231  1.00  0.00    -0.000 C 
BRANCH  24  25
ATOM     25  C   UNL     1      23.538  -1.316 -32.586  1.00  0.00    -0.000 C 
BRANCH  25  26
ATOM     26  C   UNL     1      23.499  -2.701 -33.264  1.00  0.00    -0.000 C 
BRANCH  26  27
ATOM     27  C   UNL     1      22.093  -3.318 -33.252  1.00  0.00    -0.000 C 
BRANCH  27  28
ATOM     28  C   UNL     1      22.121  -4.738 -32.670  1.00  0.00    -0.000 C 
BRANCH  28  29
ATOM     29  C   UNL     1      20.985  -4.990 -31.668  1.00  0.00    -0.003 C 
ATOM     30  C   UNL     1      21.237  -6.212 -30.781  1.00  0.00     0.004 C 
ENDBRANCH  28  29
ENDBRANCH  27  28
ENDBRANCH  26  27
ENDBRANCH  25  26
ENDBRANCH  24  25
ENDBRANCH  23  24
ENDBRANCH  22  23
ENDBRANCH  21  22
ENDBRANCH  20  21
ENDBRANCH  19  20
ENDBRANCH  18  19
ENDBRANCH  17  18
ENDBRANCH   1  17
TORSDOF 26
ENDMDL
MODEL 2
REMARK VINA RESULT:    -3.392      2.584      6.557
REMARK INTER + INTRA:         -14.169
REMARK INTER:                  -8.675
REMARK INTRA:                  -5.494
REMARK UNBOUND:                -5.621
REMARK SMILES CCCCCCCCCCCCCCCCCCCCCCCCCCCC(=O)[O-]
REMARK SMILES IDX 15 1 16 2 17 3 18 4 19 5 20 6 21 7 22 8 23 9 24 10 25 11
REMARK SMILES IDX 26 12 27 13 28 14 29 15 30 16 14 17 13 18 12 19 11 20 10 21
REMARK SMILES IDX 9 22 8 23 7 24 6 25 5 26 4 27 3 28 2 29 1 30
REMARK H PARENT
REMARK Flexibility Score: inf
ROOT
ATOM      1  C   UNL     1      23.755  -3.827 -28.440  1.00  0.00     0.000 C 
ENDROOT
BRANCH   1   2
ATOM      2  C   UNL     1      23.568  -5.329 -28.166  1.00  0.00     0.000 C 
BRANCH   2   3
ATOM      3  C   UNL     1      23.341  -5.708 -26.688  1.00  0.00     0.000 C 
BRANCH   3   4
ATOM      4  C   UNL     1      23.359  -7.219 -26.379  1.00  0.00     0.000 C 
BRANCH   4   5
ATOM      5  C   UNL     1      23.545  -8.122 -27.613  1.00  0.00     0.000 C 
BRANCH   5   6
ATOM      6  C   UNL     1      24.979  -8.668 -27.738  1.00  0.00     0.000 C 
BRANCH   6   7
ATOM      7  C   UNL     1      25.194  -9.491 -29.020  1.00  0.00     0.000 C 
BRANCH   7   8
ATOM      8  C   UNL     1      23.979  -9.571 -29.966  1.00  0.00     0.000 C 
BRANCH   8   9
ATOM      9  C   UNL     1      24.219  -8.955 -31.360  1.00  0.00     0.000 C 
BRANCH   9  10
ATOM     10  C   UNL     1      22.930  -8.407 -31.994  1.00  0.00     0.000 C 
BRANCH  10  11
ATOM     11  C   UNL     1      21.906  -8.013 -30.924  1.00  0.00     0.000 C 
BRANCH  11  12
ATOM     12  C   UNL     1      21.669  -6.494 -30.934  1.00  0.00     0.006 C 
BRANCH  12  13
ATOM     13  C   UNL     1      21.277  -5.975 -32.324  1.00  0.00     0.053 C 
BRANCH  13  14
ATOM     14  C   UNL     1      20.351  -4.801 -32.244  1.00  0.00     0.041 C 
ATOM     15  O   UNL     1      19.562  -4.680 -31.269  1.00  0.00    -0.550 OA
ATOM     16  O   UNL     1      20.344  -3.848 -33.257  1.00  0.00    -0.550 OA
ENDBRANCH  13  14
ENDBRANCH  12  13
ENDBRANCH  11  12
ENDBRANCH  10  11
ENDBRANCH   9  10
ENDBRANCH   8   9
ENDBRANCH   7   8
ENDBRANCH   6   7
ENDBRANCH   5   6
ENDBRANCH   4   5
ENDBRANCH   3   4
ENDBRANCH   2   3
ENDBRANCH   1   2
BRANCH   1  17
ATOM     17  C   UNL     1      22.898  -3.319 -29.608  1.00  0.00     0.000 C 
BRANCH  17  18
ATOM     18  C   UNL     1      23.364  -1.928 -30.061  1.00  0.00     0.000 C 
BRANCH  18  19
ATOM     19  C   UNL     1      23.901  -1.924 -31.500  1.00  0.00     0.000 C 
BRANCH  19  20
ATOM     20  C   UNL     1      23.696  -3.271 -32.230  1.00  0.00     0.000 C 
BRANCH  20  21
ATOM     21  C   UNL     1      25.033  -3.926 -32.616  1.00  0.00     0.000 C 
BRANCH  21  22
ATOM     22  C   UNL     1      25.131  -5.391 -32.137  1.00  0.00    -0.000 C 
BRANCH  22  23
ATOM     23  C   UNL     1      25.972  -5.565 -30.858  1.00  0.00    -0.000 C 
BRANCH  23  24
ATOM     24  C   UNL     1      27.339  -4.856 -30.879  1.00  0.00    -0.000 C 
BRANCH  24  25
ATOM     25  C   UNL     1      27.594  -3.911 -29.688  1.00  0.00    -0.000 C 
BRANCH  25  26
ATOM     26  C   UNL     1      27.048  -2.485 -29.910  1.00  0.00    -0.000 C 
BRANCH  26  27
ATOM     27  C   UNL     1      26.954  -1.686 -28.602  1.00  0.00    -0.000 C 
BRANCH  27  28
ATOM     28  C   UNL     1      27.018  -2.618 -27.383  1.00  0.00    -0.000 C 
BRANCH  28  29
ATOM     29  C   UNL     1      26.512  -1.947 -26.097  1.00  0.00    -0.003 C 
ATOM     30  C   UNL     1      25.507  -2.812 -25.334  1.00  0.00     0.004 C 
ENDBRANCH  28  29
ENDBRANCH  27  28
ENDBRANCH  26  27
ENDBRANCH  25  26
ENDBRANCH  24  25
ENDBRANCH  23  24
ENDBRANCH  22  23
ENDBRANCH  21  22
ENDBRANCH  20  21
ENDBRANCH  19  20
ENDBRANCH  18  19
ENDBRANCH  17  18
ENDBRANCH   1  17
TORSDOF 26
ENDMDL
MODEL 3
REMARK VINA RESULT:    -3.335      1.254      2.256
REMARK INTER + INTRA:         -14.024
REMARK INTER:                  -8.665
REMARK INTRA:                  -5.359
REMARK UNBOUND:                -5.621
REMARK SMILES CCCCCCCCCCCCCCCCCCCCCCCCCCCC(=O)[O-]
REMARK SMILES IDX 15 1 16 2 17 3 18 4 19 5 20 6 21 7 22 8 23 9 24 10 25 11
REMARK SMILES IDX 26 12 27 13 28 14 29 15 30 16 14 17 13 18 12 19 11 20 10 21
REMARK SMILES IDX 9 22 8 23 7 24 6 25 5 26 4 27 3 28 2 29 1 30
REMARK H PARENT
REMARK Flexibility Score: inf
ROOT
ATOM      1  C   UNL     1      23.480  -8.269 -27.980  1.00  0.00     0.000 C 
ENDROOT
BRANCH   1   2
ATOM      2  C   UNL     1      24.799  -8.983 -28.323  1.00  0.00     0.000 C 
BRANCH   2   3
ATOM      3  C   UNL     1      25.798  -8.158 -29.161  1.00  0.00     0.000 C 
BRANCH   3   4
ATOM      4  C   UNL     1      25.874  -8.528 -30.657  1.00  0.00     0.000 C 
BRANCH   4   5
ATOM      5  C   UNL     1      25.828  -7.324 -31.616  1.00  0.00     0.000 C 
BRANCH   5   6
ATOM      6  C   UNL     1      25.940  -5.975 -30.882  1.00  0.00     0.000 C 
BRANCH   6   7
ATOM      7  C   UNL     1      26.704  -4.915 -31.695  1.00  0.00     0.000 C 
BRANCH   7   8
ATOM      8  C   UNL     1      27.311  -3.762 -30.871  1.00  0.00     0.000 C 
BRANCH   8   9
ATOM      9  C   UNL     1      27.206  -3.949 -29.343  1.00  0.00     0.000 C 
BRANCH   9  10
ATOM     10  C   UNL     1      27.604  -2.685 -28.564  1.00  0.00     0.000 C 
BRANCH  10  11
ATOM     11  C   UNL     1      26.495  -1.629 -28.609  1.00  0.00     0.000 C 
BRANCH  11  12
ATOM     12  C   UNL     1      25.873  -1.436 -27.217  1.00  0.00     0.006 C 
BRANCH  12  13
ATOM     13  C   UNL     1      26.812  -1.891 -26.092  1.00  0.00     0.053 C 
BRANCH  13  14
ATOM     14  C   UNL     1      26.095  -2.697 -25.054  1.00  0.00     0.041 C 
ATOM     15  O   UNL     1      26.681  -3.025 -23.988  1.00  0.00    -0.550 OA
ATOM     16  O   UNL     1      24.784  -3.105 -25.271  1.00  0.00    -0.550 OA
ENDBRANCH  13  14
ENDBRANCH  12  13
ENDBRANCH  11  12
ENDBRANCH  10  11
ENDBRANCH   9  10
ENDBRANCH   8   9
ENDBRANCH   7   8
ENDBRANCH   6   7
ENDBRANCH   5   6
ENDBRANCH   4   5
ENDBRANCH   3   4
ENDBRANCH   2   3
ENDBRANCH   1   2
BRANCH   1  17
ATOM     17  C   UNL     1      23.506  -7.587 -26.605  1.00  0.00     0.000 C 
BRANCH  17  18
ATOM     18  C   UNL     1      23.300  -6.073 -26.744  1.00  0.00     0.000 C 
BRANCH  18  19
ATOM     19  C   UNL     1      23.206  -5.621 -28.209  1.00  0.00     0.000 C 
BRANCH  19  20
ATOM     20  C   UNL     1      23.786  -4.209 -28.449  1.00  0.00     0.000 C 
BRANCH  20  21
ATOM     21  C   UNL     1      22.922  -3.388 -29.421  1.00  0.00     0.000 C 
BRANCH  21  22
ATOM     22  C   UNL     1      23.681  -3.020 -30.715  1.00  0.00    -0.000 C 
BRANCH  22  23
ATOM     23  C   UNL     1      22.845  -3.211 -31.994  1.00  0.00    -0.000 C 
BRANCH  23  24
ATOM     24  C   UNL     1      23.083  -4.540 -32.733  1.00  0.00    -0.000 C 
BRANCH  24  25
ATOM     25  C   UNL     1      21.849  -5.460 -32.819  1.00  0.00    -0.000 C 
BRANCH  25  26
ATOM     26  C   UNL     1      21.499  -6.143 -31.481  1.00  0.00    -0.000 C 
BRANCH  26  27
ATOM     27  C   UNL     1      22.281  -7.448 -31.269  1.00  0.00    -0.000 C 
BRANCH  27  28
ATOM     28  C   UNL     1      21.774  -8.550 -32.210  1.00  0.00    -0.000 C 
BRANCH  28  29
ATOM     29  C   UNL     1      21.495  -9.872 -31.478  1.00  0.00    -0.003 C 
ATOM     30  C   UNL     1      22.767 -10.535 -30.946  1.00  0.00     0.004 C 
ENDBRANCH  28  29
ENDBRANCH  27  28
ENDBRANCH  26  27
ENDBRANCH  25  26
ENDBRANCH  24  25
ENDBRANCH  23  24
ENDBRANCH  22  23
ENDBRANCH  21  22
ENDBRANCH  20  21
ENDBRANCH  19  20
ENDBRANCH  18  19
ENDBRANCH  17  18
ENDBRANCH   1  17
TORSDOF 26
ENDMDL
MODEL 4
REMARK VINA RESULT:    -3.330     16.384     19.879
REMARK INTER + INTRA:         -14.013
REMARK INTER:                  -9.162
REMARK INTRA:                  -4.851
REMARK UNBOUND:                -5.621
REMARK SMILES CCCCCCCCCCCCCCCCCCCCCCCCCCCC(=O)[O-]
REMARK SMILES IDX 15 1 16 2 17 3 18 4 19 5 20 6 21 7 22 8 23 9 24 10 25 11
REMARK SMILES IDX 26 12 27 13 28 14 29 15 30 16 14 17 13 18 12 19 11 20 10 21
REMARK SMILES IDX 9 22 8 23 7 24 6 25 5 26 4 27 3 28 2 29 1 30
REMARK H PARENT
REMARK Flexibility Score: inf
ROOT
ATOM      1  C   UNL     1      10.547 -17.057 -27.058  1.00  0.00     0.000 C 
ENDROOT
BRANCH   1   2
ATOM      2  C   UNL     1      11.288 -17.571 -25.812  1.00  0.00     0.000 C 
BRANCH   2   3
ATOM      3  C   UNL     1      11.243 -19.098 -25.598  1.00  0.00     0.000 C 
BRANCH   3   4
ATOM      4  C   UNL     1      10.561 -19.567 -24.296  1.00  0.00     0.000 C 
BRANCH   4   5
ATOM      5  C   UNL     1       9.036 -19.360 -24.263  1.00  0.00     0.000 C 
BRANCH   5   6
ATOM      6  C   UNL     1       8.564 -18.617 -23.000  1.00  0.00     0.000 C 
BRANCH   6   7
ATOM      7  C   UNL     1       9.171 -17.209 -22.875  1.00  0.00     0.000 C 
BRANCH   7   8
ATOM      8  C   UNL     1       8.235 -16.049 -23.272  1.00  0.00     0.000 C 
BRANCH   8   9
ATOM      9  C   UNL     1       8.967 -14.760 -23.699  1.00  0.00     0.000 C 
BRANCH   9  10
ATOM     10  C   UNL     1      10.488 -14.849 -23.495  1.00  0.00     0.000 C 
BRANCH  10  11
ATOM     11  C   UNL     1      11.031 -13.601 -22.790  1.00  0.00     0.000 C 
BRANCH  11  12
ATOM     12  C   UNL     1       9.967 -12.999 -21.859  1.00  0.00     0.006 C 
BRANCH  12  13
ATOM     13  C   UNL     1      10.360 -13.103 -20.380  1.00  0.00     0.053 C 
BRANCH  13  14
ATOM     14  C   UNL     1      10.149 -14.484 -19.839  1.00  0.00     0.041 C 
ATOM     15  O   UNL     1       9.089 -15.112 -20.100  1.00  0.00    -0.550 OA
ATOM     16  O   UNL     1      11.116 -15.071 -19.030  1.00  0.00    -0.550 OA
ENDBRANCH  13  14
ENDBRANCH  12  13
ENDBRANCH  11  12
ENDBRANCH  10  11
ENDBRANCH   9  10
ENDBRANCH   8   9
ENDBRANCH   7   8
ENDBRANCH   6   7
ENDBRANCH   5   6
ENDBRANCH   4   5
ENDBRANCH   3   4
ENDBRANCH   2   3
ENDBRANCH   1   2
BRANCH   1  17
ATOM     17  C   UNL     1       9.181 -16.438 -26.730  1.00  0.00     0.000 C 
BRANCH  17  18
ATOM     18  C   UNL     1       8.044 -17.402 -27.094  1.00  0.00     0.000 C 
BRANCH  18  19
ATOM     19  C   UNL     1       8.423 -18.359 -28.235  1.00  0.00     0.000 C 
BRANCH  19  20
ATOM     20  C   UNL     1       8.156 -19.843 -27.898  1.00  0.00     0.000 C 
BRANCH  20  21
ATOM     21  C   UNL     1       9.364 -20.735 -28.230  1.00  0.00     0.000 C 
BRANCH  21  22
ATOM     22  C   UNL     1      10.233 -20.151 -29.365  1.00  0.00    -0.000 C 
BRANCH  22  23
ATOM     23  C   UNL     1      11.744 -20.203 -29.072  1.00  0.00    -0.000 C 
BRANCH  23  24
ATOM     24  C   UNL     1      12.537 -18.965 -29.530  1.00  0.00    -0.000 C 
BRANCH  24  25
ATOM     25  C   UNL     1      13.619 -18.489 -28.540  1.00  0.00    -0.000 C 
BRANCH  25  26
ATOM     26  C   UNL     1      13.909 -16.976 -28.630  1.00  0.00    -0.000 C 
BRANCH  26  27
ATOM     27  C   UNL     1      15.122 -16.563 -27.783  1.00  0.00    -0.000 C 
BRANCH  27  28
ATOM     28  C   UNL     1      16.350 -16.312 -28.670  1.00  0.00    -0.000 C 
BRANCH  28  29
ATOM     29  C   UNL     1      17.439 -17.381 -28.490  1.00  0.00    -0.003 C 
ATOM     30  C   UNL     1      17.054 -18.727 -29.107  1.00  0.00     0.004 C 
ENDBRANCH  28  29
ENDBRANCH  27  28
ENDBRANCH  26  27
ENDBRANCH  25  26
ENDBRANCH  24  25
ENDBRANCH  23  24
ENDBRANCH  22  23
ENDBRANCH  21  22
ENDBRANCH  20  21
ENDBRANCH  19  20
ENDBRANCH  18  19
ENDBRANCH  17  18
ENDBRANCH   1  17
TORSDOF 26
ENDMDL
MODEL 5
REMARK VINA RESULT:    -3.300     16.150     19.757
REMARK INTER + INTRA:         -13.938
REMARK INTER:                  -8.887
REMARK INTRA:                  -5.051
REMARK UNBOUND:                -5.621
REMARK SMILES CCCCCCCCCCCCCCCCCCCCCCCCCCCC(=O)[O-]
REMARK SMILES IDX 15 1 16 2 17 3 18 4 19 5 20 6 21 7 22 8 23 9 24 10 25 11
REMARK SMILES IDX 26 12 27 13 28 14 29 15 30 16 14 17 13 18 12 19 11 20 10 21
REMARK SMILES IDX 9 22 8 23 7 24 6 25 5 26 4 27 3 28 2 29 1 30
REMARK H PARENT
REMARK Flexibility Score: inf
ROOT
ATOM      1  C   UNL     1       9.627 -16.287 -26.039  1.00  0.00     0.000 C 
ENDROOT
BRANCH   1   2
ATOM      2  C   UNL     1       8.388 -15.669 -25.372  1.00  0.00     0.000 C 
BRANCH   2   3
ATOM      3  C   UNL     1       7.937 -16.344 -24.060  1.00  0.00     0.000 C 
BRANCH   3   4
ATOM      4  C   UNL     1       8.280 -15.577 -22.766  1.00  0.00     0.000 C 
BRANCH   4   5
ATOM      5  C   UNL     1       9.334 -16.262 -21.877  1.00  0.00     0.000 C 
BRANCH   5   6
ATOM      6  C   UNL     1      10.522 -15.341 -21.546  1.00  0.00     0.000 C 
BRANCH   6   7
ATOM      7  C   UNL     1      10.089 -14.033 -20.861  1.00  0.00     0.000 C 
BRANCH   7   8
ATOM      8  C   UNL     1      10.110 -12.779 -21.759  1.00  0.00     0.000 C 
BRANCH   8   9
ATOM      9  C   UNL     1      10.858 -12.967 -23.095  1.00  0.00     0.000 C 
BRANCH   9  10
ATOM     10  C   UNL     1      10.037 -12.489 -24.304  1.00  0.00     0.000 C 
BRANCH  10  11
ATOM     11  C   UNL     1       8.609 -12.111 -23.895  1.00  0.00     0.000 C 
BRANCH  11  12
ATOM     12  C   UNL     1       7.992 -11.142 -24.915  1.00  0.00     0.006 C 
BRANCH  12  13
ATOM     13  C   UNL     1       9.044 -10.235 -25.567  1.00  0.00     0.053 C 
BRANCH  13  14
ATOM     14  C   UNL     1       8.842 -10.113 -27.046  1.00  0.00     0.041 C 
ATOM     15  O   UNL     1       8.449 -11.105 -27.717  1.00  0.00    -0.550 OA
ATOM     16  O   UNL     1       9.105  -8.909 -27.689  1.00  0.00    -0.550 OA
ENDBRANCH  13  14
ENDBRANCH  12  13
ENDBRANCH  11  12
ENDBRANCH  10  11
ENDBRANCH   9  10
ENDBRANCH   8   9
ENDBRANCH   7   8
ENDBRANCH   6   7
ENDBRANCH   5   6
ENDBRANCH   4   5
ENDBRANCH   3   4
ENDBRANCH   2   3
ENDBRANCH   1   2
BRANCH   1  17
ATOM     17  C   UNL     1      10.902 -16.132 -25.197  1.00  0.00     0.000 C 
BRANCH  17  18
ATOM     18  C   UNL     1      11.663 -17.462 -25.112  1.00  0.00     0.000 C 
BRANCH  18  19
ATOM     19  C   UNL     1      11.727 -18.016 -23.679  1.00  0.00     0.000 C 
BRANCH  19  20
ATOM     20  C   UNL     1      11.199 -19.463 -23.563  1.00  0.00     0.000 C 
BRANCH  20  21
ATOM     21  C   UNL     1       9.670 -19.533 -23.718  1.00  0.00     0.000 C 
BRANCH  21  22
ATOM     22  C   UNL     1       9.232 -20.579 -24.766  1.00  0.00    -0.000 C 
BRANCH  22  23
ATOM     23  C   UNL     1       9.544 -20.165 -26.216  1.00  0.00    -0.000 C 
BRANCH  23  24
ATOM     24  C   UNL     1      10.702 -20.933 -26.877  1.00  0.00    -0.000 C 
BRANCH  24  25
ATOM     25  C   UNL     1      11.456 -20.150 -27.970  1.00  0.00    -0.000 C 
BRANCH  25  26
ATOM     26  C   UNL     1      10.717 -18.875 -28.430  1.00  0.00    -0.000 C 
BRANCH  26  27
ATOM     27  C   UNL     1      11.685 -17.761 -28.854  1.00  0.00    -0.000 C 
BRANCH  27  28
ATOM     28  C   UNL     1      13.122 -18.087 -28.420  1.00  0.00    -0.000 C 
BRANCH  28  29
ATOM     29  C   UNL     1      13.924 -16.834 -28.038  1.00  0.00    -0.003 C 
ATOM     30  C   UNL     1      15.220 -16.693 -28.839  1.00  0.00     0.004 C 
ENDBRANCH  28  29
ENDBRANCH  27  28
ENDBRANCH  26  27
ENDBRANCH  25  26
ENDBRANCH  24  25
ENDBRANCH  23  24
ENDBRANCH  22  23
ENDBRANCH  21  22
ENDBRANCH  20  21
ENDBRANCH  19  20
ENDBRANCH  18  19
ENDBRANCH  17  18
ENDBRANCH   1  17
TORSDOF 26
ENDMDL
MODEL 6
REMARK VINA RESULT:    -3.234     15.392     18.985
REMARK INTER + INTRA:         -13.771
REMARK INTER:                 -10.390
REMARK INTRA:                  -3.380
REMARK UNBOUND:                -5.621
REMARK SMILES CCCCCCCCCCCCCCCCCCCCCCCCCCCC(=O)[O-]
REMARK SMILES IDX 15 1 16 2 17 3 18 4 19 5 20 6 21 7 22 8 23 9 24 10 25 11
REMARK SMILES IDX 26 12 27 13 28 14 29 15 30 16 14 17 13 18 12 19 11 20 10 21
REMARK SMILES IDX 9 22 8 23 7 24 6 25 5 26 4 27 3 28 2 29 1 30
REMARK H PARENT
REMARK Flexibility Score: inf
ROOT
ATOM      1  C   UNL     1      11.679 -17.267 -24.793  1.00  0.00     0.000 C 
ENDROOT
BRANCH   1   2
ATOM      2  C   UNL     1      11.543 -18.018 -23.458  1.00  0.00     0.000 C 
BRANCH   2   3
ATOM      3  C   UNL     1      10.308 -18.935 -23.338  1.00  0.00     0.000 C 
BRANCH   3   4
ATOM      4  C   UNL     1       9.103 -18.332 -22.587  1.00  0.00     0.000 C 
BRANCH   4   5
ATOM      5  C   UNL     1       7.994 -17.776 -23.500  1.00  0.00     0.000 C 
BRANCH   5   6
ATOM      6  C   UNL     1       7.983 -16.237 -23.551  1.00  0.00     0.000 C 
BRANCH   6   7
ATOM      7  C   UNL     1       7.955 -15.688 -24.988  1.00  0.00     0.000 C 
BRANCH   7   8
ATOM      8  C   UNL     1       8.932 -14.529 -25.271  1.00  0.00     0.000 C 
BRANCH   8   9
ATOM      9  C   UNL     1       8.738 -13.298 -24.362  1.00  0.00     0.000 C 
BRANCH   9  10
ATOM     10  C   UNL     1      10.065 -12.607 -24.012  1.00  0.00     0.000 C 
BRANCH  10  11
ATOM     11  C   UNL     1      10.872 -13.425 -22.998  1.00  0.00     0.000 C 
BRANCH  11  12
ATOM     12  C   UNL     1      10.011 -13.769 -21.772  1.00  0.00     0.006 C 
BRANCH  12  13
ATOM     13  C   UNL     1      10.547 -14.986 -21.007  1.00  0.00     0.053 C 
BRANCH  13  14
ATOM     14  C   UNL     1      10.858 -14.660 -19.579  1.00  0.00     0.041 C 
ATOM     15  O   UNL     1      11.203 -15.572 -18.780  1.00  0.00    -0.550 OA
ATOM     16  O   UNL     1      10.748 -13.352 -19.123  1.00  0.00    -0.550 OA
ENDBRANCH  13  14
ENDBRANCH  12  13
ENDBRANCH  11  12
ENDBRANCH  10  11
ENDBRANCH   9  10
ENDBRANCH   8   9
ENDBRANCH   7   8
ENDBRANCH   6   7
ENDBRANCH   5   6
ENDBRANCH   4   5
ENDBRANCH   3   4
ENDBRANCH   2   3
ENDBRANCH   1   2
BRANCH   1  17
ATOM     17  C   UNL     1      10.981 -17.983 -25.958  1.00  0.00     0.000 C 
BRANCH  17  18
ATOM     18  C   UNL     1      10.578 -16.981 -27.049  1.00  0.00     0.000 C 
BRANCH  18  19
ATOM     19  C   UNL     1      10.594 -17.601 -28.455  1.00  0.00     0.000 C 
BRANCH  19  20
ATOM     20  C   UNL     1      10.909 -19.113 -28.450  1.00  0.00     0.000 C 
BRANCH  20  21
ATOM     21  C   UNL     1      12.160 -19.445 -29.280  1.00  0.00     0.000 C 
BRANCH  21  22
ATOM     22  C   UNL     1      13.468 -19.073 -28.549  1.00  0.00    -0.000 C 
BRANCH  22  23
ATOM     23  C   UNL     1      14.231 -17.908 -29.206  1.00  0.00    -0.000 C 
BRANCH  23  24
ATOM     24  C   UNL     1      14.886 -16.923 -28.221  1.00  0.00    -0.000 C 
BRANCH  24  25
ATOM     25  C   UNL     1      16.214 -16.309 -28.708  1.00  0.00    -0.000 C 
BRANCH  25  26
ATOM     26  C   UNL     1      17.190 -17.349 -29.298  1.00  0.00    -0.000 C 
BRANCH  26  27
ATOM     27  C   UNL     1      17.519 -18.470 -28.302  1.00  0.00    -0.000 C 
BRANCH  27  28
ATOM     28  C   UNL     1      18.958 -18.337 -27.782  1.00  0.00    -0.000 C 
BRANCH  28  29
ATOM     29  C   UNL     1      19.988 -18.214 -28.915  1.00  0.00    -0.003 C 
ATOM     30  C   UNL     1      21.432 -18.291 -28.414  1.00  0.00     0.004 C 
ENDBRANCH  28  29
ENDBRANCH  27  28
ENDBRANCH  26  27
ENDBRANCH  25  26
ENDBRANCH  24  25
ENDBRANCH  23  24
ENDBRANCH  22  23
ENDBRANCH  21  22
ENDBRANCH  20  21
ENDBRANCH  19  20
ENDBRANCH  18  19
ENDBRANCH  17  18
ENDBRANCH   1  17
TORSDOF 26
ENDMDL
MODEL 7
REMARK VINA RESULT:    -3.233     16.350     19.592
REMARK INTER + INTRA:         -13.769
REMARK INTER:                  -9.392
REMARK INTRA:                  -4.377
REMARK UNBOUND:                -5.621
REMARK SMILES CCCCCCCCCCCCCCCCCCCCCCCCCCCC(=O)[O-]
REMARK SMILES IDX 15 1 16 2 17 3 18 4 19 5 20 6 21 7 22 8 23 9 24 10 25 11
REMARK SMILES IDX 26 12 27 13 28 14 29 15 30 16 14 17 13 18 12 19 11 20 10 21
REMARK SMILES IDX 9 22 8 23 7 24 6 25 5 26 4 27 3 28 2 29 1 30
REMARK H PARENT
REMARK Flexibility Score: inf
ROOT
ATOM      1  C   UNL     1      10.910 -15.772 -23.931  1.00  0.00     0.000 C 
ENDROOT
BRANCH   1   2
ATOM      2  C   UNL     1      10.233 -15.965 -25.298  1.00  0.00     0.000 C 
BRANCH   2   3
ATOM      3  C   UNL     1       8.691 -15.906 -25.287  1.00  0.00     0.000 C 
BRANCH   3   4
ATOM      4  C   UNL     1       7.972 -17.263 -25.430  1.00  0.00     0.000 C 
BRANCH   4   5
ATOM      5  C   UNL     1       8.026 -18.150 -24.172  1.00  0.00     0.000 C 
BRANCH   5   6
ATOM      6  C   UNL     1       8.173 -19.646 -24.505  1.00  0.00     0.000 C 
BRANCH   6   7
ATOM      7  C   UNL     1       9.024 -19.896 -25.762  1.00  0.00     0.000 C 
BRANCH   7   8
ATOM      8  C   UNL     1      10.550 -19.802 -25.557  1.00  0.00     0.000 C 
BRANCH   8   9
ATOM      9  C   UNL     1      11.350 -19.540 -26.849  1.00  0.00     0.000 C 
BRANCH   9  10
ATOM     10  C   UNL     1      10.537 -18.770 -27.902  1.00  0.00     0.000 C 
BRANCH  10  11
ATOM     11  C   UNL     1      11.218 -17.448 -28.275  1.00  0.00     0.000 C 
BRANCH  11  12
ATOM     12  C   UNL     1      12.611 -17.355 -27.633  1.00  0.00     0.006 C 
BRANCH  12  13
ATOM     13  C   UNL     1      13.718 -17.141 -28.674  1.00  0.00     0.053 C 
BRANCH  13  14
ATOM     14  C   UNL     1      14.195 -18.434 -29.262  1.00  0.00     0.041 C 
ATOM     15  O   UNL     1      14.452 -19.414 -28.513  1.00  0.00    -0.550 OA
ATOM     16  O   UNL     1      14.373 -18.551 -30.635  1.00  0.00    -0.550 OA
ENDBRANCH  13  14
ENDBRANCH  12  13
ENDBRANCH  11  12
ENDBRANCH  10  11
ENDBRANCH   9  10
ENDBRANCH   8   9
ENDBRANCH   7   8
ENDBRANCH   6   7
ENDBRANCH   5   6
ENDBRANCH   4   5
ENDBRANCH   3   4
ENDBRANCH   2   3
ENDBRANCH   1   2
BRANCH   1  17
ATOM     17  C   UNL     1      11.346 -17.095 -23.285  1.00  0.00     0.000 C 
BRANCH  17  18
ATOM     18  C   UNL     1      10.791 -17.215 -21.860  1.00  0.00     0.000 C 
BRANCH  18  19
ATOM     19  C   UNL     1       9.678 -16.196 -21.571  1.00  0.00     0.000 C 
BRANCH  19  20
ATOM     20  C   UNL     1       9.919 -15.381 -20.281  1.00  0.00     0.000 C 
BRANCH  20  21
ATOM     21  C   UNL     1      10.872 -14.197 -20.516  1.00  0.00     0.000 C 
BRANCH  21  22
ATOM     22  C   UNL     1      10.122 -12.907 -20.912  1.00  0.00    -0.000 C 
BRANCH  22  23
ATOM     23  C   UNL     1      10.226 -12.570 -22.411  1.00  0.00    -0.000 C 
BRANCH  23  24
ATOM     24  C   UNL     1       8.948 -12.834 -23.227  1.00  0.00    -0.000 C 
BRANCH  24  25
ATOM     25  C   UNL     1       8.763 -11.917 -24.452  1.00  0.00    -0.000 C 
BRANCH  25  26
ATOM     26  C   UNL     1      10.002 -11.052 -24.763  1.00  0.00    -0.000 C 
BRANCH  26  27
ATOM     27  C   UNL     1       9.746  -9.557 -24.520  1.00  0.00    -0.000 C 
BRANCH  27  28
ATOM     28  C   UNL     1       8.305  -9.180 -24.889  1.00  0.00    -0.000 C 
BRANCH  28  29
ATOM     29  C   UNL     1       8.205  -8.491 -26.259  1.00  0.00    -0.003 C 
ATOM     30  C   UNL     1       9.286  -7.429 -26.468  1.00  0.00     0.004 C 
ENDBRANCH  28  29
ENDBRANCH  27  28
ENDBRANCH  26  27
ENDBRANCH  25  26
ENDBRANCH  24  25
ENDBRANCH  23  24
ENDBRANCH  22  23
ENDBRANCH  21  22
ENDBRANCH  20  21
ENDBRANCH  19  20
ENDBRANCH  18  19
ENDBRANCH  17  18
ENDBRANCH   1  17
TORSDOF 26
ENDMDL
MODEL 8
REMARK VINA RESULT:    -3.224      3.260      5.720
REMARK INTER + INTRA:         -13.745
REMARK INTER:                  -9.045
REMARK INTRA:                  -4.699
REMARK UNBOUND:                -5.621
REMARK SMILES CCCCCCCCCCCCCCCCCCCCCCCCCCCC(=O)[O-]
REMARK SMILES IDX 15 1 16 2 17 3 18 4 19 5 20 6 21 7 22 8 23 9 24 10 25 11
REMARK SMILES IDX 26 12 27 13 28 14 29 15 30 16 14 17 13 18 12 19 11 20 10 21
REMARK SMILES IDX 9 22 8 23 7 24 6 25 5 26 4 27 3 28 2 29 1 30
REMARK H PARENT
REMARK Flexibility Score: inf
ROOT
ATOM      1  C   UNL     1      23.208  -6.474 -26.328  1.00  0.00     0.000 C 
ENDROOT
BRANCH   1   2
ATOM      2  C   UNL     1      23.484  -7.955 -26.631  1.00  0.00     0.000 C 
BRANCH   2   3
ATOM      3  C   UNL     1      23.767  -8.287 -28.111  1.00  0.00     0.000 C 
BRANCH   3   4
ATOM      4  C   UNL     1      25.087  -9.036 -28.384  1.00  0.00     0.000 C 
BRANCH   4   5
ATOM      5  C   UNL     1      25.917  -8.466 -29.549  1.00  0.00     0.000 C 
BRANCH   5   6
ATOM      6  C   UNL     1      25.496  -7.036 -29.935  1.00  0.00     0.000 C 
BRANCH   6   7
ATOM      7  C   UNL     1      24.996  -6.933 -31.386  1.00  0.00     0.000 C 
BRANCH   7   8
ATOM      8  C   UNL     1      25.142  -8.216 -32.228  1.00  0.00     0.000 C 
BRANCH   8   9
ATOM      9  C   UNL     1      23.848  -8.657 -32.942  1.00  0.00     0.000 C 
BRANCH   9  10
ATOM     10  C   UNL     1      23.422 -10.085 -32.565  1.00  0.00     0.000 C 
BRANCH  10  11
ATOM     11  C   UNL     1      22.852 -10.141 -31.144  1.00  0.00     0.000 C 
BRANCH  11  12
ATOM     12  C   UNL     1      22.533 -11.590 -30.744  1.00  0.00     0.006 C 
BRANCH  12  13
ATOM     13  C   UNL     1      23.797 -12.397 -30.418  1.00  0.00     0.053 C 
BRANCH  13  14
ATOM     14  C   UNL     1      24.033 -12.499 -28.943  1.00  0.00     0.041 C 
ATOM     15  O   UNL     1      23.059 -12.554 -28.147  1.00  0.00    -0.550 OA
ATOM     16  O   UNL     1      25.331 -12.516 -28.444  1.00  0.00    -0.550 OA
ENDBRANCH  13  14
ENDBRANCH  12  13
ENDBRANCH  11  12
ENDBRANCH  10  11
ENDBRANCH   9  10
ENDBRANCH   8   9
ENDBRANCH   7   8
ENDBRANCH   6   7
ENDBRANCH   5   6
ENDBRANCH   4   5
ENDBRANCH   3   4
ENDBRANCH   2   3
ENDBRANCH   1   2
BRANCH   1  17
ATOM     17  C   UNL     1      23.117  -5.609 -27.593  1.00  0.00     0.000 C 
BRANCH  17  18
ATOM     18  C   UNL     1      23.994  -4.356 -27.461  1.00  0.00     0.000 C 
BRANCH  18  19
ATOM     19  C   UNL     1      24.052  -3.536 -28.759  1.00  0.00     0.000 C 
BRANCH  19  20
ATOM     20  C   UNL     1      24.361  -2.041 -28.520  1.00  0.00     0.000 C 
BRANCH  20  21
ATOM     21  C   UNL     1      23.343  -1.123 -29.216  1.00  0.00     0.000 C 
BRANCH  21  22
ATOM     22  C   UNL     1      22.384  -1.903 -30.141  1.00  0.00    -0.000 C 
BRANCH  22  23
ATOM     23  C   UNL     1      22.264  -1.300 -31.553  1.00  0.00    -0.000 C 
BRANCH  23  24
ATOM     24  C   UNL     1      22.866  -2.160 -32.680  1.00  0.00    -0.000 C 
BRANCH  24  25
ATOM     25  C   UNL     1      21.840  -2.711 -33.689  1.00  0.00    -0.000 C 
BRANCH  25  26
ATOM     26  C   UNL     1      21.573  -4.222 -33.529  1.00  0.00    -0.000 C 
BRANCH  26  27
ATOM     27  C   UNL     1      20.182  -4.512 -32.947  1.00  0.00    -0.000 C 
BRANCH  27  28
ATOM     28  C   UNL     1      20.258  -4.736 -31.430  1.00  0.00    -0.000 C 
BRANCH  28  29
ATOM     29  C   UNL     1      21.574  -5.398 -30.994  1.00  0.00    -0.003 C 
ATOM     30  C   UNL     1      21.419  -6.893 -30.707  1.00  0.00     0.004 C 
ENDBRANCH  28  29
ENDBRANCH  27  28
ENDBRANCH  26  27
ENDBRANCH  25  26
ENDBRANCH  24  25
ENDBRANCH  23  24
ENDBRANCH  22  23
ENDBRANCH  21  22
ENDBRANCH  20  21
ENDBRANCH  19  20
ENDBRANCH  18  19
ENDBRANCH  17  18
ENDBRANCH   1  17
TORSDOF 26
ENDMDL
MODEL 9
REMARK VINA RESULT:    -3.198      3.680      7.453
REMARK INTER + INTRA:         -13.681
REMARK INTER:                  -8.479
REMARK INTRA:                  -5.202
REMARK UNBOUND:                -5.621
REMARK SMILES CCCCCCCCCCCCCCCCCCCCCCCCCCCC(=O)[O-]
REMARK SMILES IDX 15 1 16 2 17 3 18 4 19 5 20 6 21 7 22 8 23 9 24 10 25 11
REMARK SMILES IDX 26 12 27 13 28 14 29 15 30 16 14 17 13 18 12 19 11 20 10 21
REMARK SMILES IDX 9 22 8 23 7 24 6 25 5 26 4 27 3 28 2 29 1 30
REMARK H PARENT
REMARK Flexibility Score: inf
ROOT
ATOM      1  C   UNL     1      23.066  -2.149 -29.275  1.00  0.00     0.000 C 
ENDROOT
BRANCH   1   2
ATOM      2  C   UNL     1      24.046  -3.325 -29.135  1.00  0.00     0.000 C 
BRANCH   2   3
ATOM      3  C   UNL     1      24.013  -4.056 -27.776  1.00  0.00     0.000 C 
BRANCH   3   4
ATOM      4  C   UNL     1      23.281  -5.414 -27.770  1.00  0.00     0.000 C 
BRANCH   4   5
ATOM      5  C   UNL     1      23.308  -6.148 -26.417  1.00  0.00     0.000 C 
BRANCH   5   6
ATOM      6  C   UNL     1      23.255  -7.679 -26.570  1.00  0.00     0.000 C 
BRANCH   6   7
ATOM      7  C   UNL     1      24.352  -8.224 -27.501  1.00  0.00     0.000 C 
BRANCH   7   8
ATOM      8  C   UNL     1      23.850  -8.850 -28.818  1.00  0.00     0.000 C 
BRANCH   8   9
ATOM      9  C   UNL     1      24.950  -9.537 -29.654  1.00  0.00     0.000 C 
BRANCH   9  10
ATOM     10  C   UNL     1      24.382 -10.561 -30.650  1.00  0.00     0.000 C 
BRANCH  10  11
ATOM     11  C   UNL     1      23.088 -11.193 -30.124  1.00  0.00     0.000 C 
BRANCH  11  12
ATOM     12  C   UNL     1      22.209 -11.675 -31.288  1.00  0.00     0.006 C 
BRANCH  12  13
ATOM     13  C   UNL     1      21.051 -10.711 -31.582  1.00  0.00     0.053 C 
BRANCH  13  14
ATOM     14  C   UNL     1      20.769 -10.602 -33.049  1.00  0.00     0.041 C 
ATOM     15  O   UNL     1      20.349 -11.602 -33.690  1.00  0.00    -0.550 OA
ATOM     16  O   UNL     1      20.988  -9.401 -33.713  1.00  0.00    -0.550 OA
ENDBRANCH  13  14
ENDBRANCH  12  13
ENDBRANCH  11  12
ENDBRANCH  10  11
ENDBRANCH   9  10
ENDBRANCH   8   9
ENDBRANCH   7   8
ENDBRANCH   6   7
ENDBRANCH   5   6
ENDBRANCH   4   5
ENDBRANCH   3   4
ENDBRANCH   2   3
ENDBRANCH   1   2
BRANCH   1  17
ATOM     17  C   UNL     1      22.707  -1.837 -30.735  1.00  0.00     0.000 C 
BRANCH  17  18
ATOM     18  C   UNL     1      23.696  -2.510 -31.695  1.00  0.00     0.000 C 
BRANCH  18  19
ATOM     19  C   UNL     1      23.171  -2.571 -33.138  1.00  0.00     0.000 C 
BRANCH  19  20
ATOM     20  C   UNL     1      21.641  -2.770 -33.220  1.00  0.00     0.000 C 
BRANCH  20  21
ATOM     21  C   UNL     1      21.268  -4.149 -33.789  1.00  0.00     0.000 C 
BRANCH  21  22
ATOM     22  C   UNL     1      20.161  -4.845 -32.968  1.00  0.00    -0.000 C 
BRANCH  22  23
ATOM     23  C   UNL     1      20.317  -4.665 -31.446  1.00  0.00    -0.000 C 
BRANCH  23  24
ATOM     24  C   UNL     1      21.488  -5.443 -30.818  1.00  0.00    -0.000 C 
BRANCH  24  25
ATOM     25  C   UNL     1      21.578  -6.924 -31.238  1.00  0.00    -0.000 C 
BRANCH  25  26
ATOM     26  C   UNL     1      22.928  -7.295 -31.886  1.00  0.00    -0.000 C 
BRANCH  26  27
ATOM     27  C   UNL     1      23.902  -6.109 -31.927  1.00  0.00    -0.000 C 
BRANCH  27  28
ATOM     28  C   UNL     1      25.345  -6.575 -31.686  1.00  0.00    -0.000 C 
BRANCH  28  29
ATOM     29  C   UNL     1      25.959  -5.968 -30.415  1.00  0.00    -0.003 C 
ATOM     30  C   UNL     1      27.473  -5.775 -30.522  1.00  0.00     0.004 C 
ENDBRANCH  28  29
ENDBRANCH  27  28
ENDBRANCH  26  27
ENDBRANCH  25  26
ENDBRANCH  24  25
ENDBRANCH  23  24
ENDBRANCH  22  23
ENDBRANCH  21  22
ENDBRANCH  20  21
ENDBRANCH  19  20
ENDBRANCH  18  19
ENDBRANCH  17  18
ENDBRANCH   1  17
TORSDOF 26
ENDMDL
