MODEL 1
REMARK VINA RESULT:    -2.894      0.000      0.000
REMARK INTER + INTRA:          -3.148
REMARK INTER:                  -3.148
REMARK INTRA:                   0.000
REMARK UNBOUND:                 0.000
REMARK SMILES [NH3+]CC(=O)[O-]
REMARK SMILES IDX 2 1 1 2 3 6 4 7 5 8
REMARK H PARENT 1 3 1 4 1 5
REMARK Flexibility Score: inf
ROOT
ATOM      1  C   UNL     1     133.977 135.084 123.875  1.00  0.00     0.312 C 
ENDROOT
BRANCH   1   2
ATOM      2  N   UNL     1     133.299 136.379 123.906  1.00  0.00    -0.353 N 
ATOM      3  H   UNL     1     133.768 137.045 123.251  1.00  0.00     0.344 HD
ATOM      4  H   UNL     1     133.346 136.766 124.876  1.00  0.00     0.344 HD
ATOM      5  H   UNL     1     132.295 136.264 123.635  1.00  0.00     0.344 HD
ENDBRANCH   1   2
BRANCH   1   6
ATOM      6  C   UNL     1     135.419 135.253 123.507  1.00  0.00     0.096 C 
ATOM      7  O   UNL     1     136.198 134.263 123.531  1.00  0.00    -0.544 OA
ATOM      8  O   UNL     1     135.914 136.511 123.187  1.00  0.00    -0.544 OA
ENDBRANCH   1   6
TORSDOF 2
ENDMDL
MODEL 2
REMARK VINA RESULT:    -2.541     12.133     12.538
REMARK INTER + INTRA:          -2.764
REMARK INTER:                  -2.764
REMARK INTRA:                   0.000
REMARK UNBOUND:                 0.000
REMARK SMILES [NH3+]CC(=O)[O-]
REMARK SMILES IDX 2 1 1 2 3 6 4 7 5 8
REMARK H PARENT 1 3 1 4 1 5
REMARK Flexibility Score: inf
ROOT
ATOM      1  C   UNL     1     135.451 123.812 121.704  1.00  0.00     0.312 C 
ENDROOT
BRANCH   1   2
ATOM      2  N   UNL     1     136.564 124.650 122.146  1.00  0.00    -0.353 N 
ATOM      3  H   UNL     1     137.191 124.869 121.338  1.00  0.00     0.344 HD
ATOM      4  H   UNL     1     137.113 124.133 122.870  1.00  0.00     0.344 HD
ATOM      5  H   UNL     1     136.202 125.537 122.565  1.00  0.00     0.344 HD
ENDBRANCH   1   2
BRANCH   1   6
ATOM      6  C   UNL     1     135.794 123.109 120.427  1.00  0.00     0.096 C 
ATOM      7  O   UNL     1     135.043 122.199 119.984  1.00  0.00    -0.544 OA
ATOM      8  O   UNL     1     136.967 123.423 119.753  1.00  0.00    -0.544 OA
ENDBRANCH   1   6
TORSDOF 2
ENDMDL
MODEL 3
REMARK VINA RESULT:    -2.524     19.132     19.558
REMARK INTER + INTRA:          -2.746
REMARK INTER:                  -2.746
REMARK INTRA:                   0.000
REMARK UNBOUND:                 0.000
REMARK SMILES [NH3+]CC(=O)[O-]
REMARK SMILES IDX 2 1 1 2 3 6 4 7 5 8
REMARK H PARENT 1 3 1 4 1 5
REMARK Flexibility Score: inf
ROOT
ATOM      1  C   UNL     1     119.646 122.153 121.421  1.00  0.00     0.312 C 
ENDROOT
BRANCH   1   2
ATOM      2  N   UNL     1     120.612 121.602 122.369  1.00  0.00    -0.353 N 
ATOM      3  H   UNL     1     121.090 122.376 122.884  1.00  0.00     0.344 HD
ATOM      4  H   UNL     1     121.329 121.051 121.843  1.00  0.00     0.344 HD
ATOM      5  H   UNL     1     120.129 120.970 123.047  1.00  0.00     0.344 HD
ENDBRANCH   1   2
BRANCH   1   6
ATOM      6  C   UNL     1     120.119 123.472 120.891  1.00  0.00     0.096 C 
ATOM      7  O   UNL     1     121.263 123.903 121.196  1.00  0.00    -0.544 OA
ATOM      8  O   UNL     1     119.279 124.248 120.103  1.00  0.00    -0.544 OA
ENDBRANCH   1   6
TORSDOF 2
ENDMDL
MODEL 4
REMARK VINA RESULT:    -2.516      7.760      8.018
REMARK INTER + INTRA:          -2.737
REMARK INTER:                  -2.737
REMARK INTRA:                   0.000
REMARK UNBOUND:                 0.000
REMARK SMILES [NH3+]CC(=O)[O-]
REMARK SMILES IDX 2 1 1 2 3 6 4 7 5 8
REMARK H PARENT 1 3 1 4 1 5
REMARK Flexibility Score: inf
ROOT
ATOM      1  C   UNL     1     126.922 137.687 121.359  1.00  0.00     0.312 C 
ENDROOT
BRANCH   1   2
ATOM      2  N   UNL     1     126.043 137.121 122.381  1.00  0.00    -0.353 N 
ATOM      3  H   UNL     1     125.944 136.090 122.238  1.00  0.00     0.344 HD
ATOM      4  H   UNL     1     125.100 137.565 122.305  1.00  0.00     0.344 HD
ATOM      5  H   UNL     1     126.431 137.311 123.333  1.00  0.00     0.344 HD
ENDBRANCH   1   2
BRANCH   1   6
ATOM      6  C   UNL     1     127.876 136.651 120.851  1.00  0.00     0.096 C 
ATOM      7  O   UNL     1     127.734 135.443 121.182  1.00  0.00    -0.544 OA
ATOM      8  O   UNL     1     128.950 137.025 120.054  1.00  0.00    -0.544 OA
ENDBRANCH   1   6
TORSDOF 2
ENDMDL
MODEL 5
REMARK VINA RESULT:    -2.502     12.374     12.761
REMARK INTER + INTRA:          -2.721
REMARK INTER:                  -2.721
REMARK INTRA:                   0.000
REMARK UNBOUND:                 0.000
REMARK SMILES [NH3+]CC(=O)[O-]
REMARK SMILES IDX 2 1 1 2 3 6 4 7 5 8
REMARK H PARENT 1 3 1 4 1 5
REMARK Flexibility Score: inf
ROOT
ATOM      1  C   UNL     1     135.875 122.110 122.371  1.00  0.00     0.312 C 
ENDROOT
BRANCH   1   2
ATOM      2  N   UNL     1     135.328 121.229 121.341  1.00  0.00    -0.353 N 
ATOM      3  H   UNL     1     136.007 121.133 120.552  1.00  0.00     0.344 HD
ATOM      4  H   UNL     1     134.440 121.642 120.975  1.00  0.00     0.344 HD
ATOM      5  H   UNL     1     135.121 120.288 121.747  1.00  0.00     0.344 HD
ENDBRANCH   1   2
BRANCH   1   6
ATOM      6  C   UNL     1     135.695 123.546 121.986  1.00  0.00     0.096 C 
ATOM      7  O   UNL     1     134.760 123.882 121.211  1.00  0.00    -0.544 OA
ATOM      8  O   UNL     1     136.589 124.507 122.443  1.00  0.00    -0.544 OA
ENDBRANCH   1   6
TORSDOF 2
ENDMDL
MODEL 6
REMARK VINA RESULT:    -2.486     12.722     12.996
REMARK INTER + INTRA:          -2.704
REMARK INTER:                  -2.704
REMARK INTRA:                   0.000
REMARK UNBOUND:                 0.000
REMARK SMILES [NH3+]CC(=O)[O-]
REMARK SMILES IDX 2 1 1 2 3 6 4 7 5 8
REMARK H PARENT 1 3 1 4 1 5
REMARK Flexibility Score: inf
ROOT
ATOM      1  C   UNL     1     136.434 123.777 122.183  1.00  0.00     0.312 C 
ENDROOT
BRANCH   1   2
ATOM      2  N   UNL     1     135.816 124.529 121.092  1.00  0.00    -0.353 N 
ATOM      3  H   UNL     1     134.794 124.316 121.044  1.00  0.00     0.344 HD
ATOM      4  H   UNL     1     136.263 124.250 120.189  1.00  0.00     0.344 HD
ATOM      5  H   UNL     1     135.958 125.554 121.238  1.00  0.00     0.344 HD
ENDBRANCH   1   2
BRANCH   1   6
ATOM      6  C   UNL     1     136.092 122.322 122.081  1.00  0.00     0.096 C 
ATOM      7  O   UNL     1     136.322 121.549 123.048  1.00  0.00    -0.544 OA
ATOM      8  O   UNL     1     135.567 121.811 120.900  1.00  0.00    -0.544 OA
ENDBRANCH   1   6
TORSDOF 2
ENDMDL
MODEL 7
REMARK VINA RESULT:    -2.486     19.112     19.522
REMARK INTER + INTRA:          -2.704
REMARK INTER:                  -2.704
REMARK INTRA:                   0.000
REMARK UNBOUND:                 0.000
REMARK SMILES [NH3+]CC(=O)[O-]
REMARK SMILES IDX 2 1 1 2 3 6 4 7 5 8
REMARK H PARENT 1 3 1 4 1 5
REMARK Flexibility Score: inf
ROOT
ATOM      1  C   UNL     1     118.806 123.485 122.359  1.00  0.00     0.312 C 
ENDROOT
BRANCH   1   2
ATOM      2  N   UNL     1     118.392 124.582 121.485  1.00  0.00    -0.353 N 
ATOM      3  H   UNL     1     119.221 124.971 120.981  1.00  0.00     0.344 HD
ATOM      4  H   UNL     1     117.963 125.338 122.066  1.00  0.00     0.344 HD
ATOM      5  H   UNL     1     117.685 124.243 120.794  1.00  0.00     0.344 HD
ENDBRANCH   1   2
BRANCH   1   6
ATOM      6  C   UNL     1     120.171 122.997 121.983  1.00  0.00     0.096 C 
ATOM      7  O   UNL     1     120.584 121.885 122.406  1.00  0.00    -0.544 OA
ATOM      8  O   UNL     1     121.005 123.792 121.207  1.00  0.00    -0.544 OA
ENDBRANCH   1   6
TORSDOF 2
ENDMDL
MODEL 8
REMARK VINA RESULT:    -2.448      7.319      7.690
REMARK INTER + INTRA:          -2.663
REMARK INTER:                  -2.663
REMARK INTRA:                   0.000
REMARK UNBOUND:                 0.000
REMARK SMILES [NH3+]CC(=O)[O-]
REMARK SMILES IDX 2 1 1 2 3 6 4 7 5 8
REMARK H PARENT 1 3 1 4 1 5
REMARK Flexibility Score: inf
ROOT
ATOM      1  C   UNL     1     128.637 137.864 122.426  1.00  0.00     0.312 C 
ENDROOT
BRANCH   1   2
ATOM      2  N   UNL     1     129.894 137.611 121.723  1.00  0.00    -0.353 N 
ATOM      3  H   UNL     1     129.712 137.068 120.848  1.00  0.00     0.344 HD
ATOM      4  H   UNL     1     130.525 137.054 122.343  1.00  0.00     0.344 HD
ATOM      5  H   UNL     1     130.361 138.516 121.488  1.00  0.00     0.344 HD
ENDBRANCH   1   2
BRANCH   1   6
ATOM      6  C   UNL     1     127.572 136.919 121.961  1.00  0.00     0.096 C 
ATOM      7  O   UNL     1     127.838 136.042 121.097  1.00  0.00    -0.544 OA
ATOM      8  O   UNL     1     126.275 137.040 122.442  1.00  0.00    -0.544 OA
ENDBRANCH   1   6
TORSDOF 2
ENDMDL
MODEL 9
REMARK VINA RESULT:    -2.441     19.807     20.291
REMARK INTER + INTRA:          -2.655
REMARK INTER:                  -2.655
REMARK INTRA:                   0.000
REMARK UNBOUND:                 0.000
REMARK SMILES [NH3+]CC(=O)[O-]
REMARK SMILES IDX 2 1 1 2 3 6 4 7 5 8
REMARK H PARENT 1 3 1 4 1 5
REMARK Flexibility Score: inf
ROOT
ATOM      1  C   UNL     1     120.268 123.493 121.925  1.00  0.00     0.312 C 
ENDROOT
BRANCH   1   2
ATOM      2  N   UNL     1     120.882 122.401 121.172  1.00  0.00    -0.353 N 
ATOM      3  H   UNL     1     121.872 122.266 121.477  1.00  0.00     0.344 HD
ATOM      4  H   UNL     1     120.870 122.640 120.154  1.00  0.00     0.344 HD
ATOM      5  H   UNL     1     120.342 121.517 121.318  1.00  0.00     0.344 HD
ENDBRANCH   1   2
BRANCH   1   6
ATOM      6  C   UNL     1     118.901 123.105 122.397  1.00  0.00     0.096 C 
ATOM      7  O   UNL     1     118.097 123.987 122.802  1.00  0.00    -0.544 OA
ATOM      8  O   UNL     1     118.531 121.767 122.437  1.00  0.00    -0.544 OA
ENDBRANCH   1   6
TORSDOF 2
ENDMDL
