MODEL 1
REMARK VINA RESULT:    -4.413      0.000      0.000
REMARK INTER + INTRA:         -10.617
REMARK INTER:                  -8.024
REMARK INTRA:                  -2.593
REMARK UNBOUND:                -2.593
REMARK SMILES CCCCCC=CCC=CCCCCCCCC(=O)[O-]
REMARK SMILES IDX 11 1 12 2 13 3 14 4 15 5 16 6 17 7 18 8 19 9 20 10 10 11
REMARK SMILES IDX 9 12 8 13 7 14 6 15 5 16 4 17 3 18 2 19 1 20
REMARK H PARENT
REMARK Flexibility Score: inf
ROOT
ATOM      1  C   UNL     1      12.515  -3.689  30.368  1.00  0.00     0.027 C 
ENDROOT
BRANCH   1   2
ATOM      2  C   UNL     1      12.054  -4.743  31.385  1.00  0.00     0.004 C 
BRANCH   2   3
ATOM      3  C   UNL     1      13.053  -4.937  32.535  1.00  0.00     0.000 C 
BRANCH   3   4
ATOM      4  C   UNL     1      12.372  -4.925  33.912  1.00  0.00     0.000 C 
BRANCH   4   5
ATOM      5  C   UNL     1      11.110  -4.054  33.900  1.00  0.00     0.000 C 
BRANCH   5   6
ATOM      6  C   UNL     1      11.436  -2.621  34.340  1.00  0.00     0.006 C 
BRANCH   6   7
ATOM      7  C   UNL     1      10.161  -1.798  34.547  1.00  0.00     0.053 C 
BRANCH   7   8
ATOM      8  C   UNL     1       9.968  -0.849  33.406  1.00  0.00     0.041 C 
ATOM      9  O   UNL     1      10.658   0.200  33.324  1.00  0.00    -0.550 OA
ATOM     10  O   UNL     1       8.970  -1.091  32.469  1.00  0.00    -0.550 OA
ENDBRANCH   7   8
ENDBRANCH   6   7
ENDBRANCH   5   6
ENDBRANCH   4   5
ENDBRANCH   3   4
ENDBRANCH   2   3
ENDBRANCH   1   2
BRANCH   1  11
ATOM     11  C   UNL     1      11.868  -2.359  30.661  1.00  0.00    -0.031 C 
ATOM     12  C   UNL     1      11.875  -1.312  29.817  1.00  0.00    -0.027 C 
BRANCH  12  13
ATOM     13  C   UNL     1      12.617  -1.304  28.503  1.00  0.00     0.054 C 
BRANCH  13  14
ATOM     14  C   UNL     1      11.650  -1.376  27.349  1.00  0.00    -0.027 C 
ATOM     15  C   UNL     1      11.309  -2.499  26.689  1.00  0.00    -0.031 C 
BRANCH  15  16
ATOM     16  C   UNL     1      11.797  -3.887  27.019  1.00  0.00     0.027 C 
BRANCH  16  17
ATOM     17  C   UNL     1      10.629  -4.866  27.215  1.00  0.00     0.004 C 
BRANCH  17  18
ATOM     18  C   UNL     1       9.276  -4.146  27.374  1.00  0.00     0.000 C 
BRANCH  18  19
ATOM     19  C   UNL     1       8.934  -3.779  28.827  1.00  0.00    -0.003 C 
ATOM     20  C   UNL     1       8.435  -2.347  28.985  1.00  0.00     0.004 C 
ENDBRANCH  18  19
ENDBRANCH  17  18
ENDBRANCH  16  17
ENDBRANCH  15  16
ENDBRANCH  13  14
ENDBRANCH  12  13
ENDBRANCH   1  11
TORSDOF 14
ENDMDL
MODEL 2
REMARK VINA RESULT:    -4.377      2.529      4.421
REMARK INTER + INTRA:         -10.552
REMARK INTER:                  -7.910
REMARK INTRA:                  -2.642
REMARK UNBOUND:                -2.593
REMARK SMILES CCCCCC=CCC=CCCCCCCCC(=O)[O-]
REMARK SMILES IDX 11 1 12 2 13 3 14 4 15 5 16 6 17 7 18 8 19 9 20 10 10 11
REMARK SMILES IDX 9 12 8 13 7 14 6 15 5 16 4 17 3 18 2 19 1 20
REMARK H PARENT
REMARK Flexibility Score: inf
ROOT
ATOM      1  C   UNL     1       8.939  -3.421  27.901  1.00  0.00     0.027 C 
ENDROOT
BRANCH   1   2
ATOM      2  C   UNL     1       8.622  -2.388  28.992  1.00  0.00     0.004 C 
BRANCH   2   3
ATOM      3  C   UNL     1       9.336  -2.685  30.319  1.00  0.00     0.000 C 
BRANCH   3   4
ATOM      4  C   UNL     1      10.271  -1.544  30.750  1.00  0.00     0.000 C 
BRANCH   4   5
ATOM      5  C   UNL     1      11.531  -2.087  31.435  1.00  0.00     0.000 C 
BRANCH   5   6
ATOM      6  C   UNL     1      11.453  -3.611  31.584  1.00  0.00     0.006 C 
BRANCH   6   7
ATOM      7  C   UNL     1      12.804  -4.270  31.287  1.00  0.00     0.053 C 
BRANCH   7   8
ATOM      8  C   UNL     1      13.310  -4.981  32.503  1.00  0.00     0.041 C 
ATOM      9  O   UNL     1      12.845  -4.709  33.641  1.00  0.00    -0.550 OA
ATOM     10  O   UNL     1      14.350  -5.894  32.385  1.00  0.00    -0.550 OA
ENDBRANCH   7   8
ENDBRANCH   6   7
ENDBRANCH   5   6
ENDBRANCH   4   5
ENDBRANCH   3   4
ENDBRANCH   2   3
ENDBRANCH   1   2
BRANCH   1  11
ATOM     11  C   UNL     1       9.781  -4.537  28.463  1.00  0.00    -0.031 C 
ATOM     12  C   UNL     1      11.053  -4.782  28.099  1.00  0.00    -0.027 C 
BRANCH  12  13
ATOM     13  C   UNL     1      11.768  -4.028  27.007  1.00  0.00     0.054 C 
BRANCH  13  14
ATOM     14  C   UNL     1      11.819  -4.849  25.743  1.00  0.00    -0.027 C 
ATOM     15  C   UNL     1      11.042  -4.656  24.660  1.00  0.00    -0.031 C 
BRANCH  15  16
ATOM     16  C   UNL     1      10.021  -3.559  24.501  1.00  0.00     0.027 C 
BRANCH  16  17
ATOM     17  C   UNL     1      10.672  -2.238  24.063  1.00  0.00     0.004 C 
BRANCH  17  18
ATOM     18  C   UNL     1      10.279  -1.056  24.972  1.00  0.00     0.000 C 
BRANCH  18  19
ATOM     19  C   UNL     1      11.451  -0.480  25.783  1.00  0.00    -0.003 C 
ATOM     20  C   UNL     1      11.187  -0.449  27.285  1.00  0.00     0.004 C 
ENDBRANCH  18  19
ENDBRANCH  17  18
ENDBRANCH  16  17
ENDBRANCH  15  16
ENDBRANCH  13  14
ENDBRANCH  12  13
ENDBRANCH   1  11
TORSDOF 14
ENDMDL
MODEL 3
REMARK VINA RESULT:    -4.331      2.618      5.733
REMARK INTER + INTRA:         -10.468
REMARK INTER:                  -7.785
REMARK INTRA:                  -2.683
REMARK UNBOUND:                -2.593
REMARK SMILES CCCCCC=CCC=CCCCCCCCC(=O)[O-]
REMARK SMILES IDX 11 1 12 2 13 3 14 4 15 5 16 6 17 7 18 8 19 9 20 10 10 11
REMARK SMILES IDX 9 12 8 13 7 14 6 15 5 16 4 17 3 18 2 19 1 20
REMARK H PARENT
REMARK Flexibility Score: inf
ROOT
ATOM      1  C   UNL     1       8.989  -2.505  29.868  1.00  0.00     0.027 C 
ENDROOT
BRANCH   1   2
ATOM      2  C   UNL     1       9.553  -1.091  29.671  1.00  0.00     0.004 C 
BRANCH   2   3
ATOM      3  C   UNL     1       9.001  -0.398  28.416  1.00  0.00     0.000 C 
BRANCH   3   4
ATOM      4  C   UNL     1      10.094   0.328  27.617  1.00  0.00     0.000 C 
BRANCH   4   5
ATOM      5  C   UNL     1      11.040  -0.670  26.938  1.00  0.00     0.000 C 
BRANCH   5   6
ATOM      6  C   UNL     1      12.491  -0.182  27.017  1.00  0.00     0.006 C 
BRANCH   6   7
ATOM      7  C   UNL     1      12.883   0.172  28.455  1.00  0.00     0.053 C 
BRANCH   7   8
ATOM      8  C   UNL     1      13.759   1.385  28.469  1.00  0.00     0.041 C 
ATOM      9  O   UNL     1      15.012   1.268  28.478  1.00  0.00    -0.550 OA
ATOM     10  O   UNL     1      13.186   2.649  28.547  1.00  0.00    -0.550 OA
ENDBRANCH   7   8
ENDBRANCH   6   7
ENDBRANCH   5   6
ENDBRANCH   4   5
ENDBRANCH   3   4
ENDBRANCH   2   3
ENDBRANCH   1   2
BRANCH   1  11
ATOM     11  C   UNL     1       8.644  -3.123  28.537  1.00  0.00    -0.031 C 
ATOM     12  C   UNL     1       9.310  -4.154  27.987  1.00  0.00    -0.027 C 
BRANCH  12  13
ATOM     13  C   UNL     1      10.551  -4.763  28.590  1.00  0.00     0.054 C 
BRANCH  13  14
ATOM     14  C   UNL     1      11.759  -3.915  28.283  1.00  0.00    -0.027 C 
ATOM     15  C   UNL     1      12.547  -3.324  29.201  1.00  0.00    -0.031 C 
BRANCH  15  16
ATOM     16  C   UNL     1      12.389  -3.445  30.695  1.00  0.00     0.027 C 
BRANCH  16  17
ATOM     17  C   UNL     1      13.220  -4.607  31.260  1.00  0.00     0.004 C 
BRANCH  17  18
ATOM     18  C   UNL     1      12.344  -5.711  31.884  1.00  0.00     0.000 C 
BRANCH  18  19
ATOM     19  C   UNL     1      10.982  -5.211  32.390  1.00  0.00    -0.003 C 
ATOM     20  C   UNL     1      10.969  -4.907  33.885  1.00  0.00     0.004 C 
ENDBRANCH  18  19
ENDBRANCH  17  18
ENDBRANCH  16  17
ENDBRANCH  15  16
ENDBRANCH  13  14
ENDBRANCH  12  13
ENDBRANCH   1  11
TORSDOF 14
ENDMDL
MODEL 4
REMARK VINA RESULT:    -4.272      1.920      3.896
REMARK INTER + INTRA:         -10.361
REMARK INTER:                  -7.744
REMARK INTRA:                  -2.616
REMARK UNBOUND:                -2.593
REMARK SMILES CCCCCC=CCC=CCCCCCCCC(=O)[O-]
REMARK SMILES IDX 11 1 12 2 13 3 14 4 15 5 16 6 17 7 18 8 19 9 20 10 10 11
REMARK SMILES IDX 9 12 8 13 7 14 6 15 5 16 4 17 3 18 2 19 1 20
REMARK H PARENT
REMARK Flexibility Score: inf
ROOT
ATOM      1  C   UNL     1      11.131  -4.108  33.996  1.00  0.00     0.027 C 
ENDROOT
BRANCH   1   2
ATOM      2  C   UNL     1      11.186  -2.574  34.036  1.00  0.00     0.004 C 
BRANCH   2   3
ATOM      3  C   UNL     1       9.904  -1.918  33.501  1.00  0.00     0.000 C 
BRANCH   3   4
ATOM      4  C   UNL     1      10.077  -1.368  32.077  1.00  0.00     0.000 C 
BRANCH   4   5
ATOM      5  C   UNL     1      11.532  -0.966  31.809  1.00  0.00     0.000 C 
BRANCH   5   6
ATOM      6  C   UNL     1      11.647  -0.189  30.493  1.00  0.00     0.006 C 
BRANCH   6   7
ATOM      7  C   UNL     1      11.170   1.258  30.656  1.00  0.00     0.053 C 
BRANCH   7   8
ATOM      8  C   UNL     1      12.215   2.071  31.354  1.00  0.00     0.041 C 
ATOM      9  O   UNL     1      13.390   2.121  30.905  1.00  0.00    -0.550 OA
ATOM     10  O   UNL     1      11.906   2.715  32.546  1.00  0.00    -0.550 OA
ENDBRANCH   7   8
ENDBRANCH   6   7
ENDBRANCH   5   6
ENDBRANCH   4   5
ENDBRANCH   3   4
ENDBRANCH   2   3
ENDBRANCH   1   2
BRANCH   1  11
ATOM     11  C   UNL     1      12.523  -4.681  33.908  1.00  0.00    -0.031 C 
ATOM     12  C   UNL     1      13.071  -5.167  32.779  1.00  0.00    -0.027 C 
BRANCH  12  13
ATOM     13  C   UNL     1      12.325  -5.289  31.475  1.00  0.00     0.054 C 
BRANCH  13  14
ATOM     14  C   UNL     1      12.683  -4.151  30.552  1.00  0.00    -0.027 C 
ATOM     15  C   UNL     1      12.043  -3.848  29.407  1.00  0.00    -0.031 C 
BRANCH  15  16
ATOM     16  C   UNL     1      10.829  -4.563  28.870  1.00  0.00     0.027 C 
BRANCH  16  17
ATOM     17  C   UNL     1       9.532  -4.024  29.493  1.00  0.00     0.004 C 
BRANCH  17  18
ATOM     18  C   UNL     1       8.686  -3.215  28.488  1.00  0.00     0.000 C 
BRANCH  18  19
ATOM     19  C   UNL     1       9.113  -1.744  28.360  1.00  0.00    -0.003 C 
ATOM     20  C   UNL     1       8.106  -0.771  28.965  1.00  0.00     0.004 C 
ENDBRANCH  18  19
ENDBRANCH  17  18
ENDBRANCH  16  17
ENDBRANCH  15  16
ENDBRANCH  13  14
ENDBRANCH  12  13
ENDBRANCH   1  11
TORSDOF 14
ENDMDL
MODEL 5
REMARK VINA RESULT:    -4.266      2.680      5.453
REMARK INTER + INTRA:         -10.351
REMARK INTER:                  -7.184
REMARK INTRA:                  -3.167
REMARK UNBOUND:                -2.593
REMARK SMILES CCCCCC=CCC=CCCCCCCCC(=O)[O-]
REMARK SMILES IDX 11 1 12 2 13 3 14 4 15 5 16 6 17 7 18 8 19 9 20 10 10 11
REMARK SMILES IDX 9 12 8 13 7 14 6 15 5 16 4 17 3 18 2 19 1 20
REMARK H PARENT
REMARK Flexibility Score: inf
ROOT
ATOM      1  C   UNL     1       9.757  -1.970  31.191  1.00  0.00     0.027 C 
ENDROOT
BRANCH   1   2
ATOM      2  C   UNL     1      11.188  -1.422  31.287  1.00  0.00     0.004 C 
BRANCH   2   3
ATOM      3  C   UNL     1      11.580  -0.564  30.074  1.00  0.00     0.000 C 
BRANCH   3   4
ATOM      4  C   UNL     1      12.563  -1.284  29.139  1.00  0.00     0.000 C 
BRANCH   4   5
ATOM      5  C   UNL     1      12.560  -0.656  27.740  1.00  0.00     0.000 C 
BRANCH   5   6
ATOM      6  C   UNL     1      11.240   0.080  27.479  1.00  0.00     0.006 C 
BRANCH   6   7
ATOM      7  C   UNL     1      10.765  -0.123  26.037  1.00  0.00     0.053 C 
BRANCH   7   8
ATOM      8  C   UNL     1       9.588   0.756  25.752  1.00  0.00     0.041 C 
ATOM      9  O   UNL     1       9.529   1.418  24.682  1.00  0.00    -0.550 OA
ATOM     10  O   UNL     1       8.588   0.901  26.706  1.00  0.00    -0.550 OA
ENDBRANCH   7   8
ENDBRANCH   6   7
ENDBRANCH   5   6
ENDBRANCH   4   5
ENDBRANCH   3   4
ENDBRANCH   2   3
ENDBRANCH   1   2
BRANCH   1  11
ATOM     11  C   UNL     1       8.979  -1.226  30.135  1.00  0.00    -0.031 C 
ATOM     12  C   UNL     1       8.470  -1.796  29.028  1.00  0.00    -0.027 C 
BRANCH  12  13
ATOM     13  C   UNL     1       8.697  -3.239  28.654  1.00  0.00     0.054 C 
BRANCH  13  14
ATOM     14  C   UNL     1       9.843  -3.360  27.682  1.00  0.00    -0.027 C 
ATOM     15  C   UNL     1      10.844  -4.256  27.768  1.00  0.00    -0.031 C 
BRANCH  15  16
ATOM     16  C   UNL     1      10.970  -5.326  28.823  1.00  0.00     0.027 C 
BRANCH  16  17
ATOM     17  C   UNL     1      11.807  -4.847  30.019  1.00  0.00     0.004 C 
BRANCH  17  18
ATOM     18  C   UNL     1      11.285  -5.395  31.362  1.00  0.00     0.000 C 
BRANCH  18  19
ATOM     19  C   UNL     1      12.029  -4.843  32.589  1.00  0.00    -0.003 C 
ATOM     20  C   UNL     1      11.126  -4.640  33.800  1.00  0.00     0.004 C 
ENDBRANCH  18  19
ENDBRANCH  17  18
ENDBRANCH  16  17
ENDBRANCH  15  16
ENDBRANCH  13  14
ENDBRANCH  12  13
ENDBRANCH   1  11
TORSDOF 14
ENDMDL
MODEL 6
REMARK VINA RESULT:    -4.255      3.004      5.210
REMARK INTER + INTRA:         -10.331
REMARK INTER:                  -7.749
REMARK INTRA:                  -2.583
REMARK UNBOUND:                -2.593
REMARK SMILES CCCCCC=CCC=CCCCCCCCC(=O)[O-]
REMARK SMILES IDX 11 1 12 2 13 3 14 4 15 5 16 6 17 7 18 8 19 9 20 10 10 11
REMARK SMILES IDX 9 12 8 13 7 14 6 15 5 16 4 17 3 18 2 19 1 20
REMARK H PARENT
REMARK Flexibility Score: inf
ROOT
ATOM      1  C   UNL     1       9.173  -0.926  28.112  1.00  0.00     0.027 C 
ENDROOT
BRANCH   1   2
ATOM      2  C   UNL     1       9.885   0.097  29.008  1.00  0.00     0.004 C 
BRANCH   2   3
ATOM      3  C   UNL     1      11.355   0.310  28.618  1.00  0.00     0.000 C 
BRANCH   3   4
ATOM      4  C   UNL     1      12.180   0.931  29.756  1.00  0.00     0.000 C 
BRANCH   4   5
ATOM      5  C   UNL     1      11.400   0.923  31.075  1.00  0.00     0.000 C 
BRANCH   5   6
ATOM      6  C   UNL     1      11.393   2.319  31.710  1.00  0.00     0.006 C 
BRANCH   6   7
ATOM      7  C   UNL     1      11.108   3.405  30.667  1.00  0.00     0.053 C 
BRANCH   7   8
ATOM      8  C   UNL     1      12.144   4.482  30.747  1.00  0.00     0.041 C 
ATOM      9  O   UNL     1      12.088   5.356  31.652  1.00  0.00    -0.550 OA
ATOM     10  O   UNL     1      13.131   4.563  29.773  1.00  0.00    -0.550 OA
ENDBRANCH   7   8
ENDBRANCH   6   7
ENDBRANCH   5   6
ENDBRANCH   4   5
ENDBRANCH   3   4
ENDBRANCH   2   3
ENDBRANCH   1   2
BRANCH   1  11
ATOM     11  C   UNL     1       8.484  -1.971  28.952  1.00  0.00    -0.031 C 
ATOM     12  C   UNL     1       8.575  -3.295  28.736  1.00  0.00    -0.027 C 
BRANCH  12  13
ATOM     13  C   UNL     1       9.303  -3.902  27.563  1.00  0.00     0.054 C 
BRANCH  13  14
ATOM     14  C   UNL     1      10.324  -4.906  28.036  1.00  0.00    -0.027 C 
ATOM     15  C   UNL     1      11.566  -4.609  28.464  1.00  0.00    -0.031 C 
BRANCH  15  16
ATOM     16  C   UNL     1      12.137  -3.219  28.591  1.00  0.00     0.027 C 
BRANCH  16  17
ATOM     17  C   UNL     1      12.609  -2.929  30.023  1.00  0.00     0.004 C 
BRANCH  17  18
ATOM     18  C   UNL     1      11.471  -3.054  31.057  1.00  0.00     0.000 C 
BRANCH  18  19
ATOM     19  C   UNL     1      11.745  -4.088  32.160  1.00  0.00    -0.003 C 
ATOM     20  C   UNL     1      10.709  -5.206  32.209  1.00  0.00     0.004 C 
ENDBRANCH  18  19
ENDBRANCH  17  18
ENDBRANCH  16  17
ENDBRANCH  15  16
ENDBRANCH  13  14
ENDBRANCH  12  13
ENDBRANCH   1  11
TORSDOF 14
ENDMDL
MODEL 7
REMARK VINA RESULT:    -4.255      2.717      5.894
REMARK INTER + INTRA:         -10.329
REMARK INTER:                  -7.279
REMARK INTRA:                  -3.051
REMARK UNBOUND:                -2.593
REMARK SMILES CCCCCC=CCC=CCCCCCCCC(=O)[O-]
REMARK SMILES IDX 11 1 12 2 13 3 14 4 15 5 16 6 17 7 18 8 19 9 20 10 10 11
REMARK SMILES IDX 9 12 8 13 7 14 6 15 5 16 4 17 3 18 2 19 1 20
REMARK H PARENT
REMARK Flexibility Score: inf
ROOT
ATOM      1  C   UNL     1       8.813  -3.761  28.510  1.00  0.00     0.027 C 
ENDROOT
BRANCH   1   2
ATOM      2  C   UNL     1       8.719  -2.246  28.744  1.00  0.00     0.004 C 
BRANCH   2   3
ATOM      3  C   UNL     1       9.645  -1.442  27.819  1.00  0.00     0.000 C 
BRANCH   3   4
ATOM      4  C   UNL     1      10.684  -0.621  28.598  1.00  0.00     0.000 C 
BRANCH   4   5
ATOM      5  C   UNL     1      12.093  -0.825  28.030  1.00  0.00     0.000 C 
BRANCH   5   6
ATOM      6  C   UNL     1      13.063   0.219  28.596  1.00  0.00     0.006 C 
BRANCH   6   7
ATOM      7  C   UNL     1      13.344   1.329  27.578  1.00  0.00     0.053 C 
BRANCH   7   8
ATOM      8  C   UNL     1      12.613   2.577  27.959  1.00  0.00     0.041 C 
ATOM      9  O   UNL     1      11.388   2.705  27.698  1.00  0.00    -0.550 OA
ATOM     10  O   UNL     1      13.306   3.632  28.540  1.00  0.00    -0.550 OA
ENDBRANCH   7   8
ENDBRANCH   6   7
ENDBRANCH   5   6
ENDBRANCH   4   5
ENDBRANCH   3   4
ENDBRANCH   2   3
ENDBRANCH   1   2
BRANCH   1  11
ATOM     11  C   UNL     1       9.984  -4.083  27.618  1.00  0.00    -0.031 C 
ATOM     12  C   UNL     1      11.114  -4.680  28.038  1.00  0.00    -0.027 C 
BRANCH  12  13
ATOM     13  C   UNL     1      11.392  -5.017  29.481  1.00  0.00     0.054 C 
BRANCH  13  14
ATOM     14  C   UNL     1      12.339  -4.012  30.086  1.00  0.00    -0.027 C 
ATOM     15  C   UNL     1      12.019  -3.121  31.044  1.00  0.00    -0.031 C 
BRANCH  15  16
ATOM     16  C   UNL     1      10.672  -3.003  31.712  1.00  0.00     0.027 C 
BRANCH  16  17
ATOM     17  C   UNL     1      10.579  -1.740  32.580  1.00  0.00     0.004 C 
BRANCH  17  18
ATOM     18  C   UNL     1      11.508  -0.614  32.086  1.00  0.00     0.000 C 
BRANCH  18  19
ATOM     19  C   UNL     1      10.908   0.794  32.227  1.00  0.00    -0.003 C 
ATOM     20  C   UNL     1      11.762   1.881  31.581  1.00  0.00     0.004 C 
ENDBRANCH  18  19
ENDBRANCH  17  18
ENDBRANCH  16  17
ENDBRANCH  15  16
ENDBRANCH  13  14
ENDBRANCH  12  13
ENDBRANCH   1  11
TORSDOF 14
ENDMDL
MODEL 8
REMARK VINA RESULT:    -4.213      2.927      5.772
REMARK INTER + INTRA:         -10.254
REMARK INTER:                  -7.270
REMARK INTRA:                  -2.983
REMARK UNBOUND:                -2.593
REMARK SMILES CCCCCC=CCC=CCCCCCCCC(=O)[O-]
REMARK SMILES IDX 11 1 12 2 13 3 14 4 15 5 16 6 17 7 18 8 19 9 20 10 10 11
REMARK SMILES IDX 9 12 8 13 7 14 6 15 5 16 4 17 3 18 2 19 1 20
REMARK H PARENT
REMARK Flexibility Score: inf
ROOT
ATOM      1  C   UNL     1      11.246  -4.231  28.261  1.00  0.00     0.027 C 
ENDROOT
BRANCH   1   2
ATOM      2  C   UNL     1       9.826  -4.163  27.680  1.00  0.00     0.004 C 
BRANCH   2   3
ATOM      3  C   UNL     1       8.852  -3.384  28.576  1.00  0.00     0.000 C 
BRANCH   3   4
ATOM      4  C   UNL     1       8.950  -1.865  28.367  1.00  0.00     0.000 C 
BRANCH   4   5
ATOM      5  C   UNL     1       7.918  -1.119  29.222  1.00  0.00     0.000 C 
BRANCH   5   6
ATOM      6  C   UNL     1       7.997   0.392  28.971  1.00  0.00     0.006 C 
BRANCH   6   7
ATOM      7  C   UNL     1       8.203   0.701  27.485  1.00  0.00     0.053 C 
BRANCH   7   8
ATOM      8  C   UNL     1       7.307   1.821  27.061  1.00  0.00     0.041 C 
ATOM      9  O   UNL     1       7.737   2.731  26.304  1.00  0.00    -0.550 OA
ATOM     10  O   UNL     1       6.014   1.899  27.563  1.00  0.00    -0.550 OA
ENDBRANCH   7   8
ENDBRANCH   6   7
ENDBRANCH   5   6
ENDBRANCH   4   5
ENDBRANCH   3   4
ENDBRANCH   2   3
ENDBRANCH   1   2
BRANCH   1  11
ATOM     11  C   UNL     1      11.305  -5.233  29.386  1.00  0.00    -0.031 C 
ATOM     12  C   UNL     1      11.542  -4.914  30.671  1.00  0.00    -0.027 C 
BRANCH  12  13
ATOM     13  C   UNL     1      11.875  -3.519  31.137  1.00  0.00     0.054 C 
BRANCH  13  14
ATOM     14  C   UNL     1      10.651  -2.843  31.700  1.00  0.00    -0.027 C 
ATOM     15  C   UNL     1      10.540  -1.526  31.957  1.00  0.00    -0.031 C 
BRANCH  15  16
ATOM     16  C   UNL     1      11.601  -0.490  31.684  1.00  0.00     0.027 C 
BRANCH  16  17
ATOM     17  C   UNL     1      11.053   0.674  30.844  1.00  0.00     0.004 C 
BRANCH  17  18
ATOM     18  C   UNL     1      11.746   0.790  29.472  1.00  0.00     0.000 C 
BRANCH  18  19
ATOM     19  C   UNL     1      12.355  -0.529  28.971  1.00  0.00    -0.003 C 
ATOM     20  C   UNL     1      12.311  -0.675  27.453  1.00  0.00     0.004 C 
ENDBRANCH  18  19
ENDBRANCH  17  18
ENDBRANCH  16  17
ENDBRANCH  15  16
ENDBRANCH  13  14
ENDBRANCH  12  13
ENDBRANCH   1  11
TORSDOF 14
ENDMDL
MODEL 9
REMARK VINA RESULT:    -4.154      3.173      6.043
REMARK INTER + INTRA:         -10.146
REMARK INTER:                  -7.823
REMARK INTRA:                  -2.324
REMARK UNBOUND:                -2.593
REMARK SMILES CCCCCC=CCC=CCCCCCCCC(=O)[O-]
REMARK SMILES IDX 11 1 12 2 13 3 14 4 15 5 16 6 17 7 18 8 19 9 20 10 10 11
REMARK SMILES IDX 9 12 8 13 7 14 6 15 5 16 4 17 3 18 2 19 1 20
REMARK H PARENT
REMARK Flexibility Score: inf
ROOT
ATOM      1  C   UNL     1       8.917  -3.764  28.591  1.00  0.00     0.027 C 
ENDROOT
BRANCH   1   2
ATOM      2  C   UNL     1       8.473  -2.321  28.873  1.00  0.00     0.004 C 
BRANCH   2   3
ATOM      3  C   UNL     1       9.413  -1.276  28.252  1.00  0.00     0.000 C 
BRANCH   3   4
ATOM      4  C   UNL     1       9.444   0.034  29.054  1.00  0.00     0.000 C 
BRANCH   4   5
ATOM      5  C   UNL     1       8.159   0.217  29.870  1.00  0.00     0.000 C 
BRANCH   5   6
ATOM      6  C   UNL     1       7.582   1.623  29.667  1.00  0.00     0.006 C 
BRANCH   6   7
ATOM      7  C   UNL     1       6.490   1.628  28.593  1.00  0.00     0.053 C 
BRANCH   7   8
ATOM      8  C   UNL     1       6.676   2.792  27.672  1.00  0.00     0.041 C 
ATOM      9  O   UNL     1       6.899   3.942  28.133  1.00  0.00    -0.550 OA
ATOM     10  O   UNL     1       6.530   2.618  26.301  1.00  0.00    -0.550 OA
ENDBRANCH   7   8
ENDBRANCH   6   7
ENDBRANCH   5   6
ENDBRANCH   4   5
ENDBRANCH   3   4
ENDBRANCH   2   3
ENDBRANCH   1   2
BRANCH   1  11
ATOM     11  C   UNL     1      10.101  -3.776  27.657  1.00  0.00    -0.031 C 
ATOM     12  C   UNL     1      11.362  -4.049  28.037  1.00  0.00    -0.027 C 
BRANCH  12  13
ATOM     13  C   UNL     1      11.769  -4.284  29.471  1.00  0.00     0.054 C 
BRANCH  13  14
ATOM     14  C   UNL     1      12.371  -3.034  30.061  1.00  0.00    -0.027 C 
ATOM     15  C   UNL     1      11.838  -2.316  31.068  1.00  0.00    -0.031 C 
BRANCH  15  16
ATOM     16  C   UNL     1      10.573  -2.661  31.813  1.00  0.00     0.027 C 
BRANCH  16  17
ATOM     17  C   UNL     1      10.866  -3.086  33.260  1.00  0.00     0.004 C 
BRANCH  17  18
ATOM     18  C   UNL     1      11.226  -4.580  33.375  1.00  0.00     0.000 C 
BRANCH  18  19
ATOM     19  C   UNL     1      12.710  -4.839  33.679  1.00  0.00    -0.003 C 
ATOM     20  C   UNL     1      13.416  -5.647  32.595  1.00  0.00     0.004 C 
ENDBRANCH  18  19
ENDBRANCH  17  18
ENDBRANCH  16  17
ENDBRANCH  15  16
ENDBRANCH  13  14
ENDBRANCH  12  13
ENDBRANCH   1  11
TORSDOF 14
ENDMDL
