MODEL 1
REMARK VINA RESULT:    -3.460      0.000      0.000
REMARK INTER + INTRA:          -6.970
REMARK INTER:                  -5.989
REMARK INTRA:                  -0.981
REMARK UNBOUND:                -0.981
REMARK SMILES CCCCCCCCCCCCCCO
REMARK SMILES IDX 8 1 7 2 6 3 5 4 4 5 3 6 2 7 1 8 9 9 10 10 11 11 12 12 13 13
REMARK SMILES IDX 14 14 15 15
REMARK H PARENT 15 16
REMARK Flexibility Score: inf
ROOT
ATOM      1  C   UNL     1       7.310  12.506   9.303  1.00  0.00     0.000 C 
ENDROOT
BRANCH   1   2
ATOM      2  C   UNL     1       7.317  13.486   8.120  1.00  0.00    -0.000 C 
BRANCH   2   3
ATOM      3  C   UNL     1       5.921  13.592   7.488  1.00  0.00    -0.000 C 
BRANCH   3   4
ATOM      4  C   UNL     1       5.100  12.302   7.656  1.00  0.00    -0.000 C 
BRANCH   4   5
ATOM      5  C   UNL     1       3.593  12.576   7.806  1.00  0.00    -0.000 C 
BRANCH   5   6
ATOM      6  C   UNL     1       3.275  14.086   7.820  1.00  0.00    -0.000 C 
BRANCH   6   7
ATOM      7  C   UNL     1       2.347  14.530   6.678  1.00  0.00    -0.003 C 
ATOM      8  C   UNL     1       3.059  15.367   5.617  1.00  0.00     0.004 C 
ENDBRANCH   6   7
ENDBRANCH   5   6
ENDBRANCH   4   5
ENDBRANCH   3   4
ENDBRANCH   2   3
ENDBRANCH   1   2
BRANCH   1   9
ATOM      9  C   UNL     1       8.522  11.561   9.295  1.00  0.00     0.000 C 
BRANCH   9  10
ATOM     10  C   UNL     1       8.914  11.114   7.876  1.00  0.00     0.000 C 
BRANCH  10  11
ATOM     11  C   UNL     1       7.945  10.074   7.292  1.00  0.00     0.000 C 
BRANCH  11  12
ATOM     12  C   UNL     1       8.636   9.106   6.317  1.00  0.00     0.002 C 
BRANCH  12  13
ATOM     13  C   UNL     1       9.841   9.744   5.608  1.00  0.00     0.028 C 
BRANCH  13  14
ATOM     14  C   UNL     1      11.059   8.815   5.548  1.00  0.00     0.156 C 
BRANCH  14  15
ATOM     15  O   UNL     1      11.975   9.280   4.596  1.00  0.00    -0.396 OA
ATOM     16  H   UNL     1      12.586   9.904   5.071  1.00  0.00     0.210 HD
ENDBRANCH  14  15
ENDBRANCH  13  14
ENDBRANCH  12  13
ENDBRANCH  11  12
ENDBRANCH  10  11
ENDBRANCH   9  10
ENDBRANCH   1   9
TORSDOF 13
ENDMDL
MODEL 2
REMARK VINA RESULT:    -3.459      2.515      3.350
REMARK INTER + INTRA:          -6.968
REMARK INTER:                  -4.995
REMARK INTRA:                  -1.973
REMARK UNBOUND:                -0.981
REMARK SMILES CCCCCCCCCCCCCCO
REMARK SMILES IDX 8 1 7 2 6 3 5 4 4 5 3 6 2 7 1 8 9 9 10 10 11 11 12 12 13 13
REMARK SMILES IDX 14 14 15 15
REMARK H PARENT 15 16
REMARK Flexibility Score: inf
ROOT
ATOM      1  C   UNL     1       6.163  10.729  11.178  1.00  0.00     0.000 C 
ENDROOT
BRANCH   1   2
ATOM      2  C   UNL     1       4.976  10.513  10.226  1.00  0.00    -0.000 C 
BRANCH   2   3
ATOM      3  C   UNL     1       5.447   9.925   8.887  1.00  0.00    -0.000 C 
BRANCH   3   4
ATOM      4  C   UNL     1       5.040  10.795   7.687  1.00  0.00    -0.000 C 
BRANCH   4   5
ATOM      5  C   UNL     1       3.682  11.488   7.892  1.00  0.00    -0.000 C 
BRANCH   5   6
ATOM      6  C   UNL     1       3.761  13.008   7.636  1.00  0.00    -0.000 C 
BRANCH   6   7
ATOM      7  C   UNL     1       5.194  13.564   7.668  1.00  0.00    -0.003 C 
ATOM      8  C   UNL     1       5.377  14.693   8.680  1.00  0.00     0.004 C 
ENDBRANCH   6   7
ENDBRANCH   5   6
ENDBRANCH   4   5
ENDBRANCH   3   4
ENDBRANCH   2   3
ENDBRANCH   1   2
BRANCH   1   9
ATOM      9  C   UNL     1       6.606  12.199  11.247  1.00  0.00     0.000 C 
BRANCH   9  10
ATOM     10  C   UNL     1       7.820  12.494  10.348  1.00  0.00     0.000 C 
BRANCH  10  11
ATOM     11  C   UNL     1       8.745  11.278  10.182  1.00  0.00     0.000 C 
BRANCH  11  12
ATOM     12  C   UNL     1       8.989  10.920   8.705  1.00  0.00     0.002 C 
BRANCH  12  13
ATOM     13  C   UNL     1       8.431  11.980   7.742  1.00  0.00     0.028 C 
BRANCH  13  14
ATOM     14  C   UNL     1       9.452  12.426   6.689  1.00  0.00     0.156 C 
BRANCH  14  15
ATOM     15  O   UNL     1       9.631  13.814   6.748  1.00  0.00    -0.396 OA
ATOM     16  H   UNL     1       9.423  14.088   7.680  1.00  0.00     0.210 HD
ENDBRANCH  14  15
ENDBRANCH  13  14
ENDBRANCH  12  13
ENDBRANCH  11  12
ENDBRANCH  10  11
ENDBRANCH   9  10
ENDBRANCH   1   9
TORSDOF 13
ENDMDL
MODEL 3
REMARK VINA RESULT:    -3.425      1.611      2.628
REMARK INTER + INTRA:          -6.909
REMARK INTER:                  -5.439
REMARK INTRA:                  -1.469
REMARK UNBOUND:                -0.981
REMARK SMILES CCCCCCCCCCCCCCO
REMARK SMILES IDX 8 1 7 2 6 3 5 4 4 5 3 6 2 7 1 8 9 9 10 10 11 11 12 12 13 13
REMARK SMILES IDX 14 14 15 15
REMARK H PARENT 15 16
REMARK Flexibility Score: inf
ROOT
ATOM      1  C   UNL     1       7.125  12.228  10.882  1.00  0.00     0.000 C 
ENDROOT
BRANCH   1   2
ATOM      2  C   UNL     1       6.915  13.744  11.010  1.00  0.00    -0.000 C 
BRANCH   2   3
ATOM      3  C   UNL     1       6.197  14.305   9.773  1.00  0.00    -0.000 C 
BRANCH   3   4
ATOM      4  C   UNL     1       6.928  13.965   8.464  1.00  0.00    -0.000 C 
BRANCH   4   5
ATOM      5  C   UNL     1       5.967  13.508   7.353  1.00  0.00    -0.000 C 
BRANCH   5   6
ATOM      6  C   UNL     1       4.602  13.057   7.913  1.00  0.00    -0.000 C 
BRANCH   6   7
ATOM      7  C   UNL     1       4.316  11.560   7.707  1.00  0.00    -0.003 C 
ATOM      8  C   UNL     1       5.580  10.703   7.704  1.00  0.00     0.004 C 
ENDBRANCH   6   7
ENDBRANCH   5   6
ENDBRANCH   4   5
ENDBRANCH   3   4
ENDBRANCH   2   3
ENDBRANCH   1   2
BRANCH   1   9
ATOM      9  C   UNL     1       8.533  11.787  11.310  1.00  0.00     0.000 C 
BRANCH   9  10
ATOM     10  C   UNL     1       9.135  10.731  10.365  1.00  0.00     0.000 C 
BRANCH  10  11
ATOM     11  C   UNL     1       9.143  11.184   8.897  1.00  0.00     0.000 C 
BRANCH  11  12
ATOM     12  C   UNL     1       9.189  10.001   7.915  1.00  0.00     0.002 C 
BRANCH  12  13
ATOM     13  C   UNL     1       9.244  10.455   6.447  1.00  0.00     0.028 C 
BRANCH  13  14
ATOM     14  C   UNL     1       9.783   9.371   5.507  1.00  0.00     0.156 C 
BRANCH  14  15
ATOM     15  O   UNL     1      11.129   9.617   5.206  1.00  0.00    -0.396 OA
ATOM     16  H   UNL     1      11.145  10.409   4.606  1.00  0.00     0.210 HD
ENDBRANCH  14  15
ENDBRANCH  13  14
ENDBRANCH  12  13
ENDBRANCH  11  12
ENDBRANCH  10  11
ENDBRANCH   9  10
ENDBRANCH   1   9
TORSDOF 13
ENDMDL
MODEL 4
REMARK VINA RESULT:    -3.411      1.642      3.541
REMARK INTER + INTRA:          -6.885
REMARK INTER:                  -5.636
REMARK INTRA:                  -1.249
REMARK UNBOUND:                -0.981
REMARK SMILES CCCCCCCCCCCCCCO
REMARK SMILES IDX 8 1 7 2 6 3 5 4 4 5 3 6 2 7 1 8 9 9 10 10 11 11 12 12 13 13
REMARK SMILES IDX 14 14 15 15
REMARK H PARENT 15 16
REMARK Flexibility Score: inf
ROOT
ATOM      1  C   UNL     1       5.497  10.044   8.070  1.00  0.00     0.000 C 
ENDROOT
BRANCH   1   2
ATOM      2  C   UNL     1       4.071  10.399   7.620  1.00  0.00    -0.000 C 
BRANCH   2   3
ATOM      3  C   UNL     1       3.848  11.918   7.653  1.00  0.00    -0.000 C 
BRANCH   3   4
ATOM      4  C   UNL     1       4.856  12.641   8.562  1.00  0.00    -0.000 C 
BRANCH   4   5
ATOM      5  C   UNL     1       5.900  13.443   7.767  1.00  0.00    -0.000 C 
BRANCH   5   6
ATOM      6  C   UNL     1       7.305  13.355   8.400  1.00  0.00    -0.000 C 
BRANCH   6   7
ATOM      7  C   UNL     1       7.287  13.332   9.937  1.00  0.00    -0.003 C 
ATOM      8  C   UNL     1       8.173  12.239  10.531  1.00  0.00     0.004 C 
ENDBRANCH   6   7
ENDBRANCH   5   6
ENDBRANCH   4   5
ENDBRANCH   3   4
ENDBRANCH   2   3
ENDBRANCH   1   2
BRANCH   1   9
ATOM      9  C   UNL     1       5.998   8.726   7.458  1.00  0.00     0.000 C 
BRANCH   9  10
ATOM     10  C   UNL     1       7.428   8.840   6.900  1.00  0.00     0.000 C 
BRANCH  10  11
ATOM     11  C   UNL     1       8.240   9.958   7.572  1.00  0.00     0.000 C 
BRANCH  11  12
ATOM     12  C   UNL     1       9.329  10.533   6.649  1.00  0.00     0.002 C 
BRANCH  12  13
ATOM     13  C   UNL     1       9.641   9.610   5.460  1.00  0.00     0.028 C 
BRANCH  13  14
ATOM     14  C   UNL     1      10.983   8.883   5.607  1.00  0.00     0.156 C 
BRANCH  14  15
ATOM     15  O   UNL     1      11.915   9.402   4.698  1.00  0.00    -0.396 OA
ATOM     16  H   UNL     1      12.413  10.115   5.179  1.00  0.00     0.210 HD
ENDBRANCH  14  15
ENDBRANCH  13  14
ENDBRANCH  12  13
ENDBRANCH  11  12
ENDBRANCH  10  11
ENDBRANCH   9  10
ENDBRANCH   1   9
TORSDOF 13
ENDMDL
MODEL 5
REMARK VINA RESULT:    -3.397      2.919      6.176
REMARK INTER + INTRA:          -6.861
REMARK INTER:                  -4.983
REMARK INTRA:                  -1.878
REMARK UNBOUND:                -0.981
REMARK SMILES CCCCCCCCCCCCCCO
REMARK SMILES IDX 8 1 7 2 6 3 5 4 4 5 3 6 2 7 1 8 9 9 10 10 11 11 12 12 13 13
REMARK SMILES IDX 14 14 15 15
REMARK H PARENT 15 16
REMARK Flexibility Score: inf
ROOT
ATOM      1  C   UNL     1       4.886  10.918   7.566  1.00  0.00     0.000 C 
ENDROOT
BRANCH   1   2
ATOM      2  C   UNL     1       5.473   9.803   8.445  1.00  0.00    -0.000 C 
BRANCH   2   3
ATOM      3  C   UNL     1       6.662   9.125   7.749  1.00  0.00    -0.000 C 
BRANCH   3   4
ATOM      4  C   UNL     1       7.897   9.021   8.659  1.00  0.00    -0.000 C 
BRANCH   4   5
ATOM      5  C   UNL     1       9.114   9.772   8.093  1.00  0.00    -0.000 C 
BRANCH   5   6
ATOM      6  C   UNL     1       8.926  10.148   6.608  1.00  0.00    -0.000 C 
BRANCH   6   7
ATOM      7  C   UNL     1      10.084   9.690   5.706  1.00  0.00    -0.003 C 
ATOM      8  C   UNL     1      10.730   8.388   6.174  1.00  0.00     0.004 C 
ENDBRANCH   6   7
ENDBRANCH   5   6
ENDBRANCH   4   5
ENDBRANCH   3   4
ENDBRANCH   2   3
ENDBRANCH   1   2
BRANCH   1   9
ATOM      9  C   UNL     1       5.121  12.318   8.153  1.00  0.00     0.000 C 
BRANCH   9  10
ATOM     10  C   UNL     1       6.434  12.954   7.661  1.00  0.00     0.000 C 
BRANCH  10  11
ATOM     11  C   UNL     1       7.519  12.990   8.748  1.00  0.00     0.000 C 
BRANCH  11  12
ATOM     12  C   UNL     1       6.931  12.964  10.170  1.00  0.00     0.002 C 
BRANCH  12  13
ATOM     13  C   UNL     1       7.472  11.797  11.011  1.00  0.00     0.028 C 
BRANCH  13  14
ATOM     14  C   UNL     1       8.993  11.854  11.201  1.00  0.00     0.156 C 
BRANCH  14  15
ATOM     15  O   UNL     1       9.359  13.068  11.797  1.00  0.00    -0.396 OA
ATOM     16  H   UNL     1      10.116  13.429  11.264  1.00  0.00     0.210 HD
ENDBRANCH  14  15
ENDBRANCH  13  14
ENDBRANCH  12  13
ENDBRANCH  11  12
ENDBRANCH  10  11
ENDBRANCH   9  10
ENDBRANCH   1   9
TORSDOF 13
ENDMDL
MODEL 6
REMARK VINA RESULT:    -3.378      3.085      7.103
REMARK INTER + INTRA:          -6.827
REMARK INTER:                  -5.948
REMARK INTRA:                  -0.879
REMARK UNBOUND:                -0.981
REMARK SMILES CCCCCCCCCCCCCCO
REMARK SMILES IDX 8 1 7 2 6 3 5 4 4 5 3 6 2 7 1 8 9 9 10 10 11 11 12 12 13 13
REMARK SMILES IDX 14 14 15 15
REMARK H PARENT 15 16
REMARK Flexibility Score: inf
ROOT
ATOM      1  C   UNL     1       6.752  10.958   7.876  1.00  0.00     0.000 C 
ENDROOT
BRANCH   1   2
ATOM      2  C   UNL     1       8.122  11.647   7.779  1.00  0.00    -0.000 C 
BRANCH   2   3
ATOM      3  C   UNL     1       9.235  10.731   8.311  1.00  0.00    -0.000 C 
BRANCH   3   4
ATOM      4  C   UNL     1       9.473   9.509   7.410  1.00  0.00    -0.000 C 
BRANCH   4   5
ATOM      5  C   UNL     1       9.790   9.899   5.956  1.00  0.00    -0.000 C 
BRANCH   5   6
ATOM      6  C   UNL     1       9.036   9.016   4.939  1.00  0.00    -0.000 C 
BRANCH   6   7
ATOM      7  C   UNL     1       8.108   7.979   5.594  1.00  0.00    -0.003 C 
ATOM      8  C   UNL     1       7.593   6.929   4.612  1.00  0.00     0.004 C 
ENDBRANCH   6   7
ENDBRANCH   5   6
ENDBRANCH   4   5
ENDBRANCH   3   4
ENDBRANCH   2   3
ENDBRANCH   1   2
BRANCH   1   9
ATOM      9  C   UNL     1       5.583  11.944   7.725  1.00  0.00     0.000 C 
BRANCH   9  10
ATOM     10  C   UNL     1       6.048  13.411   7.683  1.00  0.00     0.000 C 
BRANCH  10  11
ATOM     11  C   UNL     1       4.893  14.392   7.427  1.00  0.00     0.000 C 
BRANCH  11  12
ATOM     12  C   UNL     1       3.518  13.702   7.446  1.00  0.00     0.002 C 
BRANCH  12  13
ATOM     13  C   UNL     1       2.477  14.437   6.587  1.00  0.00     0.028 C 
BRANCH  13  14
ATOM     14  C   UNL     1       2.950  15.823   6.134  1.00  0.00     0.156 C 
BRANCH  14  15
ATOM     15  O   UNL     1       3.137  15.840   4.746  1.00  0.00    -0.396 OA
ATOM     16  H   UNL     1       2.245  16.007   4.341  1.00  0.00     0.210 HD
ENDBRANCH  14  15
ENDBRANCH  13  14
ENDBRANCH  12  13
ENDBRANCH  11  12
ENDBRANCH  10  11
ENDBRANCH   9  10
ENDBRANCH   1   9
TORSDOF 13
ENDMDL
MODEL 7
REMARK VINA RESULT:    -3.377      1.437      2.465
REMARK INTER + INTRA:          -6.826
REMARK INTER:                  -5.513
REMARK INTRA:                  -1.313
REMARK UNBOUND:                -0.981
REMARK SMILES CCCCCCCCCCCCCCO
REMARK SMILES IDX 8 1 7 2 6 3 5 4 4 5 3 6 2 7 1 8 9 9 10 10 11 11 12 12 13 13
REMARK SMILES IDX 14 14 15 15
REMARK H PARENT 15 16
REMARK Flexibility Score: inf
ROOT
ATOM      1  C   UNL     1       8.971  11.357   9.633  1.00  0.00     0.000 C 
ENDROOT
BRANCH   1   2
ATOM      2  C   UNL     1       8.008  11.998  10.645  1.00  0.00    -0.000 C 
BRANCH   2   3
ATOM      3  C   UNL     1       7.113  13.043   9.964  1.00  0.00    -0.000 C 
BRANCH   3   4
ATOM      4  C   UNL     1       7.445  13.222   8.473  1.00  0.00    -0.000 C 
BRANCH   4   5
ATOM      5  C   UNL     1       6.245  12.919   7.559  1.00  0.00    -0.000 C 
BRANCH   5   6
ATOM      6  C   UNL     1       5.735  11.473   7.729  1.00  0.00    -0.000 C 
BRANCH   6   7
ATOM      7  C   UNL     1       4.203  11.367   7.813  1.00  0.00    -0.003 C 
ATOM      8  C   UNL     1       3.501  12.718   7.696  1.00  0.00     0.004 C 
ENDBRANCH   6   7
ENDBRANCH   5   6
ENDBRANCH   4   5
ENDBRANCH   3   4
ENDBRANCH   2   3
ENDBRANCH   1   2
BRANCH   1   9
ATOM      9  C   UNL     1       8.701   9.859   9.427  1.00  0.00     0.000 C 
BRANCH   9  10
ATOM     10  C   UNL     1       9.316   9.321   8.123  1.00  0.00     0.000 C 
BRANCH  10  11
ATOM     11  C   UNL     1       9.099  10.266   6.931  1.00  0.00     0.000 C 
BRANCH  11  12
ATOM     12  C   UNL     1       9.438   9.605   5.584  1.00  0.00     0.002 C 
BRANCH  12  13
ATOM     13  C   UNL     1      10.872   9.051   5.544  1.00  0.00     0.028 C 
BRANCH  13  14
ATOM     14  C   UNL     1      11.029   7.872   4.577  1.00  0.00     0.156 C 
BRANCH  14  15
ATOM     15  O   UNL     1      10.877   8.309   3.254  1.00  0.00    -0.396 OA
ATOM     16  H   UNL     1      11.792   8.448   2.894  1.00  0.00     0.210 HD
ENDBRANCH  14  15
ENDBRANCH  13  14
ENDBRANCH  12  13
ENDBRANCH  11  12
ENDBRANCH  10  11
ENDBRANCH   9  10
ENDBRANCH   1   9
TORSDOF 13
ENDMDL
MODEL 8
REMARK VINA RESULT:    -3.344      2.479      6.377
REMARK INTER + INTRA:          -6.768
REMARK INTER:                  -5.285
REMARK INTRA:                  -1.483
REMARK UNBOUND:                -0.981
REMARK SMILES CCCCCCCCCCCCCCO
REMARK SMILES IDX 8 1 7 2 6 3 5 4 4 5 3 6 2 7 1 8 9 9 10 10 11 11 12 12 13 13
REMARK SMILES IDX 14 14 15 15
REMARK H PARENT 15 16
REMARK Flexibility Score: inf
ROOT
ATOM      1  C   UNL     1       5.542   9.975   8.716  1.00  0.00     0.000 C 
ENDROOT
BRANCH   1   2
ATOM      2  C   UNL     1       6.990   9.511   8.489  1.00  0.00    -0.000 C 
BRANCH   2   3
ATOM      3  C   UNL     1       7.599  10.201   7.259  1.00  0.00    -0.000 C 
BRANCH   3   4
ATOM      4  C   UNL     1       9.133  10.281   7.329  1.00  0.00    -0.000 C 
BRANCH   4   5
ATOM      5  C   UNL     1       9.794  10.185   5.943  1.00  0.00    -0.000 C 
BRANCH   5   6
ATOM      6  C   UNL     1      10.510   8.834   5.733  1.00  0.00    -0.000 C 
BRANCH   6   7
ATOM      7  C   UNL     1      10.021   8.064   4.495  1.00  0.00    -0.003 C 
ATOM      8  C   UNL     1       8.528   7.746   4.538  1.00  0.00     0.004 C 
ENDBRANCH   6   7
ENDBRANCH   5   6
ENDBRANCH   4   5
ENDBRANCH   3   4
ENDBRANCH   2   3
ENDBRANCH   1   2
BRANCH   1   9
ATOM      9  C   UNL     1       5.001  10.816   7.549  1.00  0.00     0.000 C 
BRANCH   9  10
ATOM     10  C   UNL     1       4.020  11.908   8.012  1.00  0.00     0.000 C 
BRANCH  10  11
ATOM     11  C   UNL     1       4.725  13.224   8.374  1.00  0.00     0.000 C 
BRANCH  11  12
ATOM     12  C   UNL     1       5.895  13.546   7.427  1.00  0.00     0.002 C 
BRANCH  12  13
ATOM     13  C   UNL     1       7.229  13.708   8.174  1.00  0.00     0.028 C 
BRANCH  13  14
ATOM     14  C   UNL     1       7.175  13.182   9.613  1.00  0.00     0.156 C 
BRANCH  14  15
ATOM     15  O   UNL     1       8.393  12.579   9.952  1.00  0.00    -0.396 OA
ATOM     16  H   UNL     1       8.610  12.876  10.875  1.00  0.00     0.210 HD
ENDBRANCH  14  15
ENDBRANCH  13  14
ENDBRANCH  12  13
ENDBRANCH  11  12
ENDBRANCH  10  11
ENDBRANCH   9  10
ENDBRANCH   1   9
TORSDOF 13
ENDMDL
MODEL 9
REMARK VINA RESULT:    -3.226      1.990      3.918
REMARK INTER + INTRA:          -6.565
REMARK INTER:                  -4.774
REMARK INTRA:                  -1.792
REMARK UNBOUND:                -0.981
REMARK SMILES CCCCCCCCCCCCCCO
REMARK SMILES IDX 8 1 7 2 6 3 5 4 4 5 3 6 2 7 1 8 9 9 10 10 11 11 12 12 13 13
REMARK SMILES IDX 14 14 15 15
REMARK H PARENT 15 16
REMARK Flexibility Score: inf
ROOT
ATOM      1  C   UNL     1       7.941  12.183   9.057  1.00  0.00     0.000 C 
ENDROOT
BRANCH   1   2
ATOM      2  C   UNL     1       7.150  12.795   7.891  1.00  0.00    -0.000 C 
BRANCH   2   3
ATOM      3  C   UNL     1       5.657  12.449   8.000  1.00  0.00    -0.000 C 
BRANCH   3   4
ATOM      4  C   UNL     1       5.325  11.077   7.389  1.00  0.00    -0.000 C 
BRANCH   4   5
ATOM      5  C   UNL     1       5.088   9.996   8.457  1.00  0.00    -0.000 C 
BRANCH   5   6
ATOM      6  C   UNL     1       5.984   8.758   8.240  1.00  0.00    -0.000 C 
BRANCH   6   7
ATOM      7  C   UNL     1       6.734   8.311   9.506  1.00  0.00    -0.003 C 
ATOM      8  C   UNL     1       7.240   6.873   9.428  1.00  0.00     0.004 C 
ENDBRANCH   6   7
ENDBRANCH   5   6
ENDBRANCH   4   5
ENDBRANCH   3   4
ENDBRANCH   2   3
ENDBRANCH   1   2
BRANCH   1   9
ATOM      9  C   UNL     1       8.968  11.139   8.590  1.00  0.00     0.000 C 
BRANCH   9  10
ATOM     10  C   UNL     1       9.137  11.118   7.061  1.00  0.00     0.000 C 
BRANCH  10  11
ATOM     11  C   UNL     1       8.925   9.719   6.460  1.00  0.00     0.000 C 
BRANCH  11  12
ATOM     12  C   UNL     1       9.660   8.621   7.248  1.00  0.00     0.002 C 
BRANCH  12  13
ATOM     13  C   UNL     1      10.937   8.142   6.540  1.00  0.00     0.028 C 
BRANCH  13  14
ATOM     14  C   UNL     1      10.977   8.526   5.057  1.00  0.00     0.156 C 
BRANCH  14  15
ATOM     15  O   UNL     1      12.074   9.360   4.803  1.00  0.00    -0.396 OA
ATOM     16  H   UNL     1      12.531   8.992   4.001  1.00  0.00     0.210 HD
ENDBRANCH  14  15
ENDBRANCH  13  14
ENDBRANCH  12  13
ENDBRANCH  11  12
ENDBRANCH  10  11
ENDBRANCH   9  10
ENDBRANCH   1   9
TORSDOF 13
ENDMDL
