MODEL 1
REMARK VINA RESULT:    -5.151      0.000      0.000
REMARK INTER + INTRA:         -10.192
REMARK INTER:                  -9.367
REMARK INTRA:                  -0.826
REMARK UNBOUND:                -0.826
REMARK SMILES CCCCCCCCCCCCCCCC(=O)[O-]
REMARK SMILES IDX 9 1 10 2 11 3 12 4 13 5 14 6 15 7 16 8 17 9 18 10 8 11 7 12
REMARK SMILES IDX 6 13 5 14 4 15 3 16 2 17 1 18
REMARK H PARENT
REMARK Flexibility Score: inf
ROOT
ATOM      1  C   UNL     1      28.073  34.035  32.077  1.00  0.00     0.000 C 
ENDROOT
BRANCH   1   2
ATOM      2  C   UNL     1      27.737  35.372  32.760  1.00  0.00     0.000 C 
BRANCH   2   3
ATOM      3  C   UNL     1      27.761  36.558  31.783  1.00  0.00     0.000 C 
BRANCH   3   4
ATOM      4  C   UNL     1      27.143  37.834  32.379  1.00  0.00     0.000 C 
BRANCH   4   5
ATOM      5  C   UNL     1      27.500  38.011  33.872  1.00  0.00     0.000 C 
BRANCH   5   6
ATOM      6  C   UNL     1      28.098  39.393  34.200  1.00  0.00     0.006 C 
BRANCH   6   7
ATOM      7  C   UNL     1      27.116  40.558  34.013  1.00  0.00     0.053 C 
BRANCH   7   8
ATOM      8  C   UNL     1      27.637  41.574  33.041  1.00  0.00     0.041 C 
ATOM      9  O   UNL     1      27.786  42.773  33.393  1.00  0.00    -0.550 OA
ATOM     10  O   UNL     1      27.972  41.190  31.749  1.00  0.00    -0.550 OA
ENDBRANCH   7   8
ENDBRANCH   6   7
ENDBRANCH   5   6
ENDBRANCH   4   5
ENDBRANCH   3   4
ENDBRANCH   2   3
ENDBRANCH   1   2
BRANCH   1  11
ATOM     11  C   UNL     1      28.601  34.218  30.645  1.00  0.00     0.000 C 
BRANCH  11  12
ATOM     12  C   UNL     1      27.747  33.487  29.599  1.00  0.00    -0.000 C 
BRANCH  12  13
ATOM     13  C   UNL     1      26.262  33.509  29.992  1.00  0.00    -0.000 C 
BRANCH  13  14
ATOM     14  C   UNL     1      25.392  32.595  29.109  1.00  0.00    -0.000 C 
BRANCH  14  15
ATOM     15  C   UNL     1      23.875  32.732  29.328  1.00  0.00    -0.000 C 
BRANCH  15  16
ATOM     16  C   UNL     1      23.061  31.691  28.546  1.00  0.00    -0.000 C 
BRANCH  16  17
ATOM     17  C   UNL     1      22.953  30.377  29.328  1.00  0.00    -0.003 C 
ATOM     18  C   UNL     1      23.854  29.303  28.727  1.00  0.00     0.004 C 
ENDBRANCH  16  17
ENDBRANCH  15  16
ENDBRANCH  14  15
ENDBRANCH  13  14
ENDBRANCH  12  13
ENDBRANCH  11  12
ENDBRANCH   1  11
TORSDOF 14
ENDMDL
MODEL 2
REMARK VINA RESULT:    -5.075      7.568     11.613
REMARK INTER + INTRA:         -10.055
REMARK INTER:                  -8.693
REMARK INTRA:                  -1.362
REMARK UNBOUND:                -0.826
REMARK SMILES CCCCCCCCCCCCCCCC(=O)[O-]
REMARK SMILES IDX 9 1 10 2 11 3 12 4 13 5 14 6 15 7 16 8 17 9 18 10 8 11 7 12
REMARK SMILES IDX 6 13 5 14 4 15 3 16 2 17 1 18
REMARK H PARENT
REMARK Flexibility Score: inf
ROOT
ATOM      1  C   UNL     1      21.674  44.602  35.972  1.00  0.00     0.000 C 
ENDROOT
BRANCH   1   2
ATOM      2  C   UNL     1      23.187  44.636  35.693  1.00  0.00     0.000 C 
BRANCH   2   3
ATOM      3  C   UNL     1      23.722  43.295  35.167  1.00  0.00     0.000 C 
BRANCH   3   4
ATOM      4  C   UNL     1      24.954  42.799  35.942  1.00  0.00     0.000 C 
BRANCH   4   5
ATOM      5  C   UNL     1      26.220  43.621  35.612  1.00  0.00     0.000 C 
BRANCH   5   6
ATOM      6  C   UNL     1      27.428  42.752  35.211  1.00  0.00     0.006 C 
BRANCH   6   7
ATOM      7  C   UNL     1      27.716  42.743  33.703  1.00  0.00     0.053 C 
BRANCH   7   8
ATOM      8  C   UNL     1      27.625  41.361  33.128  1.00  0.00     0.041 C 
ATOM      9  O   UNL     1      27.935  41.151  31.927  1.00  0.00    -0.550 OA
ATOM     10  O   UNL     1      27.213  40.303  33.928  1.00  0.00    -0.550 OA
ENDBRANCH   7   8
ENDBRANCH   6   7
ENDBRANCH   5   6
ENDBRANCH   4   5
ENDBRANCH   3   4
ENDBRANCH   2   3
ENDBRANCH   1   2
BRANCH   1  11
ATOM     11  C   UNL     1      21.102  45.990  36.301  1.00  0.00     0.000 C 
BRANCH  11  12
ATOM     12  C   UNL     1      21.673  47.097  35.402  1.00  0.00    -0.000 C 
BRANCH  12  13
ATOM     13  C   UNL     1      20.617  47.587  34.401  1.00  0.00    -0.000 C 
BRANCH  13  14
ATOM     14  C   UNL     1      20.746  46.926  33.016  1.00  0.00    -0.000 C 
BRANCH  14  15
ATOM     15  C   UNL     1      19.820  45.718  32.783  1.00  0.00    -0.000 C 
BRANCH  15  16
ATOM     16  C   UNL     1      18.534  45.780  33.619  1.00  0.00    -0.000 C 
BRANCH  16  17
ATOM     17  C   UNL     1      18.050  44.372  33.987  1.00  0.00    -0.003 C 
ATOM     18  C   UNL     1      17.753  44.264  35.479  1.00  0.00     0.004 C 
ENDBRANCH  16  17
ENDBRANCH  15  16
ENDBRANCH  14  15
ENDBRANCH  13  14
ENDBRANCH  12  13
ENDBRANCH  11  12
ENDBRANCH   1  11
TORSDOF 14
ENDMDL
MODEL 3
REMARK VINA RESULT:    -5.023      2.307      3.549
REMARK INTER + INTRA:          -9.960
REMARK INTER:                  -9.416
REMARK INTRA:                  -0.544
REMARK UNBOUND:                -0.826
REMARK SMILES CCCCCCCCCCCCCCCC(=O)[O-]
REMARK SMILES IDX 9 1 10 2 11 3 12 4 13 5 14 6 15 7 16 8 17 9 18 10 8 11 7 12
REMARK SMILES IDX 6 13 5 14 4 15 3 16 2 17 1 18
REMARK H PARENT
REMARK Flexibility Score: inf
ROOT
ATOM      1  C   UNL     1      27.133  37.895  32.566  1.00  0.00     0.000 C 
ENDROOT
BRANCH   1   2
ATOM      2  C   UNL     1      27.903  39.220  32.700  1.00  0.00     0.000 C 
BRANCH   2   3
ATOM      3  C   UNL     1      27.243  40.192  33.689  1.00  0.00     0.000 C 
BRANCH   3   4
ATOM      4  C   UNL     1      27.613  41.661  33.419  1.00  0.00     0.000 C 
BRANCH   4   5
ATOM      5  C   UNL     1      27.888  42.441  34.724  1.00  0.00     0.000 C 
BRANCH   5   6
ATOM      6  C   UNL     1      26.977  43.671  34.907  1.00  0.00     0.006 C 
BRANCH   6   7
ATOM      7  C   UNL     1      25.977  43.539  36.065  1.00  0.00     0.053 C 
BRANCH   7   8
ATOM      8  C   UNL     1      24.614  43.145  35.580  1.00  0.00     0.041 C 
ATOM      9  O   UNL     1      23.687  43.995  35.528  1.00  0.00    -0.550 OA
ATOM     10  O   UNL     1      24.374  41.840  35.170  1.00  0.00    -0.550 OA
ENDBRANCH   7   8
ENDBRANCH   6   7
ENDBRANCH   5   6
ENDBRANCH   4   5
ENDBRANCH   3   4
ENDBRANCH   2   3
ENDBRANCH   1   2
BRANCH   1  11
ATOM     11  C   UNL     1      27.821  36.904  31.614  1.00  0.00     0.000 C 
BRANCH  11  12
ATOM     12  C   UNL     1      27.157  35.519  31.616  1.00  0.00    -0.000 C 
BRANCH  12  13
ATOM     13  C   UNL     1      26.622  35.167  30.219  1.00  0.00    -0.000 C 
BRANCH  13  14
ATOM     14  C   UNL     1      25.231  34.508  30.255  1.00  0.00    -0.000 C 
BRANCH  14  15
ATOM     15  C   UNL     1      25.205  33.021  29.857  1.00  0.00    -0.000 C 
BRANCH  15  16
ATOM     16  C   UNL     1      23.915  32.620  29.127  1.00  0.00    -0.000 C 
BRANCH  16  17
ATOM     17  C   UNL     1      24.145  31.385  28.247  1.00  0.00    -0.003 C 
ATOM     18  C   UNL     1      25.453  31.498  27.470  1.00  0.00     0.004 C 
ENDBRANCH  16  17
ENDBRANCH  15  16
ENDBRANCH  14  15
ENDBRANCH  13  14
ENDBRANCH  12  13
ENDBRANCH  11  12
ENDBRANCH   1  11
TORSDOF 14
ENDMDL
MODEL 4
REMARK VINA RESULT:    -4.999      7.182     11.628
REMARK INTER + INTRA:          -9.916
REMARK INTER:                  -9.029
REMARK INTRA:                  -0.887
REMARK UNBOUND:                -0.826
REMARK SMILES CCCCCCCCCCCCCCCC(=O)[O-]
REMARK SMILES IDX 9 1 10 2 11 3 12 4 13 5 14 6 15 7 16 8 17 9 18 10 8 11 7 12
REMARK SMILES IDX 6 13 5 14 4 15 3 16 2 17 1 18
REMARK H PARENT
REMARK Flexibility Score: inf
ROOT
ATOM      1  C   UNL     1      22.248  44.619  35.368  1.00  0.00     0.000 C 
ENDROOT
BRANCH   1   2
ATOM      2  C   UNL     1      22.517  45.550  36.562  1.00  0.00     0.000 C 
BRANCH   2   3
ATOM      3  C   UNL     1      22.188  47.019  36.254  1.00  0.00     0.000 C 
BRANCH   3   4
ATOM      4  C   UNL     1      21.707  47.232  34.809  1.00  0.00     0.000 C 
BRANCH   4   5
ATOM      5  C   UNL     1      20.169  47.350  34.719  1.00  0.00     0.000 C 
BRANCH   5   6
ATOM      6  C   UNL     1      19.616  47.094  33.303  1.00  0.00     0.006 C 
BRANCH   6   7
ATOM      7  C   UNL     1      19.590  45.613  32.901  1.00  0.00     0.053 C 
BRANCH   7   8
ATOM      8  C   UNL     1      18.378  44.912  33.437  1.00  0.00     0.041 C 
ATOM      9  O   UNL     1      17.340  44.809  32.733  1.00  0.00    -0.550 OA
ATOM     10  O   UNL     1      18.403  44.359  34.711  1.00  0.00    -0.550 OA
ENDBRANCH   7   8
ENDBRANCH   6   7
ENDBRANCH   5   6
ENDBRANCH   4   5
ENDBRANCH   3   4
ENDBRANCH   2   3
ENDBRANCH   1   2
BRANCH   1  11
ATOM     11  C   UNL     1      23.302  43.508  35.234  1.00  0.00     0.000 C 
BRANCH  11  12
ATOM     12  C   UNL     1      24.551  43.768  36.090  1.00  0.00    -0.000 C 
BRANCH  12  13
ATOM     13  C   UNL     1      25.737  42.924  35.599  1.00  0.00    -0.000 C 
BRANCH  13  14
ATOM     14  C   UNL     1      26.966  43.773  35.224  1.00  0.00    -0.000 C 
BRANCH  14  15
ATOM     15  C   UNL     1      27.856  43.176  34.119  1.00  0.00    -0.000 C 
BRANCH  15  16
ATOM     16  C   UNL     1      27.544  41.700  33.831  1.00  0.00    -0.000 C 
BRANCH  16  17
ATOM     17  C   UNL     1      27.886  41.340  32.380  1.00  0.00    -0.003 C 
ATOM     18  C   UNL     1      28.044  39.832  32.209  1.00  0.00     0.004 C 
ENDBRANCH  16  17
ENDBRANCH  15  16
ENDBRANCH  14  15
ENDBRANCH  13  14
ENDBRANCH  12  13
ENDBRANCH  11  12
ENDBRANCH   1  11
TORSDOF 14
ENDMDL
MODEL 5
REMARK VINA RESULT:    -4.977      6.030     11.325
REMARK INTER + INTRA:          -9.876
REMARK INTER:                  -8.907
REMARK INTRA:                  -0.969
REMARK UNBOUND:                -0.826
REMARK SMILES CCCCCCCCCCCCCCCC(=O)[O-]
REMARK SMILES IDX 9 1 10 2 11 3 12 4 13 5 14 6 15 7 16 8 17 9 18 10 8 11 7 12
REMARK SMILES IDX 6 13 5 14 4 15 3 16 2 17 1 18
REMARK H PARENT
REMARK Flexibility Score: inf
ROOT
ATOM      1  C   UNL     1      24.457  43.887  36.017  1.00  0.00     0.000 C 
ENDROOT
BRANCH   1   2
ATOM      2  C   UNL     1      25.553  42.899  35.581  1.00  0.00     0.000 C 
BRANCH   2   3
ATOM      3  C   UNL     1      26.939  43.557  35.485  1.00  0.00     0.000 C 
BRANCH   3   4
ATOM      4  C   UNL     1      27.999  42.628  34.869  1.00  0.00     0.000 C 
BRANCH   4   5
ATOM      5  C   UNL     1      27.468  41.884  33.623  1.00  0.00     0.000 C 
BRANCH   5   6
ATOM      6  C   UNL     1      27.806  40.380  33.616  1.00  0.00     0.006 C 
BRANCH   6   7
ATOM      7  C   UNL     1      26.717  39.493  34.236  1.00  0.00     0.053 C 
BRANCH   7   8
ATOM      8  C   UNL     1      27.112  38.047  34.238  1.00  0.00     0.041 C 
ATOM      9  O   UNL     1      27.579  37.514  33.198  1.00  0.00    -0.550 OA
ATOM     10  O   UNL     1      26.978  37.293  35.397  1.00  0.00    -0.550 OA
ENDBRANCH   7   8
ENDBRANCH   6   7
ENDBRANCH   5   6
ENDBRANCH   4   5
ENDBRANCH   3   4
ENDBRANCH   2   3
ENDBRANCH   1   2
BRANCH   1  11
ATOM     11  C   UNL     1      23.191  43.785  35.151  1.00  0.00     0.000 C 
BRANCH  11  12
ATOM     12  C   UNL     1      21.983  44.497  35.778  1.00  0.00    -0.000 C 
BRANCH  12  13
ATOM     13  C   UNL     1      22.402  45.834  36.406  1.00  0.00    -0.000 C 
BRANCH  13  14
ATOM     14  C   UNL     1      22.172  47.036  35.472  1.00  0.00    -0.000 C 
BRANCH  14  15
ATOM     15  C   UNL     1      21.081  46.833  34.406  1.00  0.00    -0.000 C 
BRANCH  15  16
ATOM     16  C   UNL     1      19.672  47.159  34.922  1.00  0.00    -0.000 C 
BRANCH  16  17
ATOM     17  C   UNL     1      18.599  46.594  33.982  1.00  0.00    -0.003 C 
ATOM     18  C   UNL     1      19.160  45.469  33.118  1.00  0.00     0.004 C 
ENDBRANCH  16  17
ENDBRANCH  15  16
ENDBRANCH  14  15
ENDBRANCH  13  14
ENDBRANCH  12  13
ENDBRANCH  11  12
ENDBRANCH   1  11
TORSDOF 14
ENDMDL
MODEL 6
REMARK VINA RESULT:    -4.887      1.367      2.041
REMARK INTER + INTRA:          -9.712
REMARK INTER:                  -9.070
REMARK INTRA:                  -0.642
REMARK UNBOUND:                -0.826
REMARK SMILES CCCCCCCCCCCCCCCC(=O)[O-]
REMARK SMILES IDX 9 1 10 2 11 3 12 4 13 5 14 6 15 7 16 8 17 9 18 10 8 11 7 12
REMARK SMILES IDX 6 13 5 14 4 15 3 16 2 17 1 18
REMARK H PARENT
REMARK Flexibility Score: inf
ROOT
ATOM      1  C   UNL     1      27.760  35.071  30.158  1.00  0.00     0.000 C 
ENDROOT
BRANCH   1   2
ATOM      2  C   UNL     1      28.478  35.367  31.487  1.00  0.00     0.000 C 
BRANCH   2   3
ATOM      3  C   UNL     1      27.500  35.590  32.651  1.00  0.00     0.000 C 
BRANCH   3   4
ATOM      4  C   UNL     1      27.416  37.064  33.084  1.00  0.00     0.000 C 
BRANCH   4   5
ATOM      5  C   UNL     1      27.696  38.032  31.913  1.00  0.00     0.000 C 
BRANCH   5   6
ATOM      6  C   UNL     1      27.895  39.494  32.359  1.00  0.00     0.006 C 
BRANCH   6   7
ATOM      7  C   UNL     1      27.364  39.793  33.769  1.00  0.00     0.053 C 
BRANCH   7   8
ATOM      8  C   UNL     1      27.121  41.258  33.972  1.00  0.00     0.041 C 
ATOM      9  O   UNL     1      27.846  42.109  33.395  1.00  0.00    -0.550 OA
ATOM     10  O   UNL     1      26.081  41.681  34.790  1.00  0.00    -0.550 OA
ENDBRANCH   7   8
ENDBRANCH   6   7
ENDBRANCH   5   6
ENDBRANCH   4   5
ENDBRANCH   3   4
ENDBRANCH   2   3
ENDBRANCH   1   2
BRANCH   1  11
ATOM     11  C   UNL     1      26.271  34.744  30.351  1.00  0.00     0.000 C 
BRANCH  11  12
ATOM     12  C   UNL     1      25.895  33.352  29.823  1.00  0.00    -0.000 C 
BRANCH  12  13
ATOM     13  C   UNL     1      24.370  33.197  29.724  1.00  0.00    -0.000 C 
BRANCH  13  14
ATOM     14  C   UNL     1      23.928  32.341  28.522  1.00  0.00    -0.000 C 
BRANCH  14  15
ATOM     15  C   UNL     1      23.774  30.838  28.816  1.00  0.00    -0.000 C 
BRANCH  15  16
ATOM     16  C   UNL     1      22.319  30.356  28.718  1.00  0.00    -0.000 C 
BRANCH  16  17
ATOM     17  C   UNL     1      21.442  31.037  29.775  1.00  0.00    -0.003 C 
ATOM     18  C   UNL     1      19.981  30.625  29.627  1.00  0.00     0.004 C 
ENDBRANCH  16  17
ENDBRANCH  15  16
ENDBRANCH  14  15
ENDBRANCH  13  14
ENDBRANCH  12  13
ENDBRANCH  11  12
ENDBRANCH   1  11
TORSDOF 14
ENDMDL
MODEL 7
REMARK VINA RESULT:    -4.784      4.481      9.113
REMARK INTER + INTRA:          -9.525
REMARK INTER:                  -8.605
REMARK INTRA:                  -0.920
REMARK UNBOUND:                -0.826
REMARK SMILES CCCCCCCCCCCCCCCC(=O)[O-]
REMARK SMILES IDX 9 1 10 2 11 3 12 4 13 5 14 6 15 7 16 8 17 9 18 10 8 11 7 12
REMARK SMILES IDX 6 13 5 14 4 15 3 16 2 17 1 18
REMARK H PARENT
REMARK Flexibility Score: inf
ROOT
ATOM      1  C   UNL     1      26.710  33.444  30.787  1.00  0.00     0.000 C 
ENDROOT
BRANCH   1   2
ATOM      2  C   UNL     1      25.449  34.143  30.250  1.00  0.00     0.000 C 
BRANCH   2   3
ATOM      3  C   UNL     1      24.506  33.180  29.512  1.00  0.00     0.000 C 
BRANCH   3   4
ATOM      4  C   UNL     1      25.258  32.174  28.623  1.00  0.00     0.000 C 
BRANCH   4   5
ATOM      5  C   UNL     1      24.345  31.021  28.148  1.00  0.00     0.000 C 
BRANCH   5   6
ATOM      6  C   UNL     1      22.854  31.249  28.466  1.00  0.00     0.006 C 
BRANCH   6   7
ATOM      7  C   UNL     1      22.252  30.203  29.416  1.00  0.00     0.053 C 
BRANCH   7   8
ATOM      8  C   UNL     1      20.880  30.595  29.876  1.00  0.00     0.041 C 
ATOM      9  O   UNL     1      20.108  29.736  30.377  1.00  0.00    -0.550 OA
ATOM     10  O   UNL     1      20.462  31.915  29.766  1.00  0.00    -0.550 OA
ENDBRANCH   7   8
ENDBRANCH   6   7
ENDBRANCH   5   6
ENDBRANCH   4   5
ENDBRANCH   3   4
ENDBRANCH   2   3
ENDBRANCH   1   2
BRANCH   1  11
ATOM     11  C   UNL     1      28.007  34.100  30.288  1.00  0.00     0.000 C 
BRANCH  11  12
ATOM     12  C   UNL     1      28.731  34.895  31.385  1.00  0.00    -0.000 C 
BRANCH  12  13
ATOM     13  C   UNL     1      27.996  34.769  32.727  1.00  0.00    -0.000 C 
BRANCH  13  14
ATOM     14  C   UNL     1      27.508  36.122  33.276  1.00  0.00    -0.000 C 
BRANCH  14  15
ATOM     15  C   UNL     1      27.438  37.258  32.239  1.00  0.00    -0.000 C 
BRANCH  15  16
ATOM     16  C   UNL     1      27.361  38.651  32.881  1.00  0.00    -0.000 C 
BRANCH  16  17
ATOM     17  C   UNL     1      28.189  39.668  32.086  1.00  0.00    -0.003 C 
ATOM     18  C   UNL     1      27.796  41.098  32.444  1.00  0.00     0.004 C 
ENDBRANCH  16  17
ENDBRANCH  15  16
ENDBRANCH  14  15
ENDBRANCH  13  14
ENDBRANCH  12  13
ENDBRANCH  11  12
ENDBRANCH   1  11
TORSDOF 14
ENDMDL
MODEL 8
REMARK VINA RESULT:    -4.779      2.830      5.178
REMARK INTER + INTRA:          -9.517
REMARK INTER:                  -7.779
REMARK INTRA:                  -1.738
REMARK UNBOUND:                -0.826
REMARK SMILES CCCCCCCCCCCCCCCC(=O)[O-]
REMARK SMILES IDX 9 1 10 2 11 3 12 4 13 5 14 6 15 7 16 8 17 9 18 10 8 11 7 12
REMARK SMILES IDX 6 13 5 14 4 15 3 16 2 17 1 18
REMARK H PARENT
REMARK Flexibility Score: inf
ROOT
ATOM      1  C   UNL     1      24.562  32.178  28.206  1.00  0.00     0.000 C 
ENDROOT
BRANCH   1   2
ATOM      2  C   UNL     1      24.111  32.898  29.488  1.00  0.00     0.000 C 
BRANCH   2   3
ATOM      3  C   UNL     1      25.135  33.934  29.977  1.00  0.00     0.000 C 
BRANCH   3   4
ATOM      4  C   UNL     1      26.504  33.313  30.302  1.00  0.00     0.000 C 
BRANCH   4   5
ATOM      5  C   UNL     1      27.675  34.211  29.845  1.00  0.00     0.000 C 
BRANCH   5   6
ATOM      6  C   UNL     1      28.525  34.751  31.011  1.00  0.00     0.006 C 
BRANCH   6   7
ATOM      7  C   UNL     1      27.825  34.684  32.377  1.00  0.00     0.053 C 
BRANCH   7   8
ATOM      8  C   UNL     1      27.305  36.025  32.801  1.00  0.00     0.041 C 
ATOM      9  O   UNL     1      27.422  36.404  33.995  1.00  0.00    -0.550 OA
ATOM     10  O   UNL     1      26.703  36.862  31.870  1.00  0.00    -0.550 OA
ENDBRANCH   7   8
ENDBRANCH   6   7
ENDBRANCH   5   6
ENDBRANCH   4   5
ENDBRANCH   3   4
ENDBRANCH   2   3
ENDBRANCH   1   2
BRANCH   1  11
ATOM     11  C   UNL     1      24.096  30.714  28.154  1.00  0.00     0.000 C 
BRANCH  11  12
ATOM     12  C   UNL     1      23.446  30.251  29.466  1.00  0.00    -0.000 C 
BRANCH  12  13
ATOM     13  C   UNL     1      21.959  29.927  29.256  1.00  0.00    -0.000 C 
BRANCH  13  14
ATOM     14  C   UNL     1      21.021  30.876  30.024  1.00  0.00    -0.000 C 
BRANCH  14  15
ATOM     15  C   UNL     1      20.119  31.755  29.139  1.00  0.00    -0.000 C 
BRANCH  15  16
ATOM     16  C   UNL     1      20.450  31.639  27.644  1.00  0.00    -0.000 C 
BRANCH  16  17
ATOM     17  C   UNL     1      20.873  32.995  27.068  1.00  0.00    -0.003 C 
ATOM     18  C   UNL     1      21.711  32.820  25.805  1.00  0.00     0.004 C 
ENDBRANCH  16  17
ENDBRANCH  15  16
ENDBRANCH  14  15
ENDBRANCH  13  14
ENDBRANCH  12  13
ENDBRANCH  11  12
ENDBRANCH   1  11
TORSDOF 14
ENDMDL
MODEL 9
REMARK VINA RESULT:    -4.712      1.662      2.144
REMARK INTER + INTRA:          -9.394
REMARK INTER:                  -8.702
REMARK INTRA:                  -0.693
REMARK UNBOUND:                -0.826
REMARK SMILES CCCCCCCCCCCCCCCC(=O)[O-]
REMARK SMILES IDX 9 1 10 2 11 3 12 4 13 5 14 6 15 7 16 8 17 9 18 10 8 11 7 12
REMARK SMILES IDX 6 13 5 14 4 15 3 16 2 17 1 18
REMARK H PARENT
REMARK Flexibility Score: inf
ROOT
ATOM      1  C   UNL     1      26.559  36.088  31.431  1.00  0.00     0.000 C 
ENDROOT
BRANCH   1   2
ATOM      2  C   UNL     1      27.474  36.848  32.406  1.00  0.00     0.000 C 
BRANCH   2   3
ATOM      3  C   UNL     1      27.154  36.542  33.878  1.00  0.00     0.000 C 
BRANCH   3   4
ATOM      4  C   UNL     1      27.226  37.789  34.775  1.00  0.00     0.000 C 
BRANCH   4   5
ATOM      5  C   UNL     1      26.842  39.077  34.013  1.00  0.00     0.000 C 
BRANCH   5   6
ATOM      6  C   UNL     1      27.957  40.141  34.006  1.00  0.00     0.006 C 
BRANCH   6   7
ATOM      7  C   UNL     1      27.477  41.544  33.608  1.00  0.00     0.053 C 
BRANCH   7   8
ATOM      8  C   UNL     1      27.079  42.356  34.804  1.00  0.00     0.041 C 
ATOM      9  O   UNL     1      27.927  43.070  35.399  1.00  0.00    -0.550 OA
ATOM     10  O   UNL     1      25.763  42.334  35.250  1.00  0.00    -0.550 OA
ENDBRANCH   7   8
ENDBRANCH   6   7
ENDBRANCH   5   6
ENDBRANCH   4   5
ENDBRANCH   3   4
ENDBRANCH   2   3
ENDBRANCH   1   2
BRANCH   1  11
ATOM     11  C   UNL     1      27.347  35.319  30.358  1.00  0.00     0.000 C 
BRANCH  11  12
ATOM     12  C   UNL     1      27.300  33.797  30.562  1.00  0.00    -0.000 C 
BRANCH  12  13
ATOM     13  C   UNL     1      26.369  33.136  29.535  1.00  0.00    -0.000 C 
BRANCH  13  14
ATOM     14  C   UNL     1      24.877  33.319  29.869  1.00  0.00    -0.000 C 
BRANCH  14  15
ATOM     15  C   UNL     1      23.903  32.658  28.877  1.00  0.00    -0.000 C 
BRANCH  15  16
ATOM     16  C   UNL     1      24.575  31.597  27.994  1.00  0.00    -0.000 C 
BRANCH  16  17
ATOM     17  C   UNL     1      23.639  31.147  26.866  1.00  0.00    -0.003 C 
ATOM     18  C   UNL     1      23.305  32.306  25.932  1.00  0.00     0.004 C 
ENDBRANCH  16  17
ENDBRANCH  15  16
ENDBRANCH  14  15
ENDBRANCH  13  14
ENDBRANCH  12  13
ENDBRANCH  11  12
ENDBRANCH   1  11
TORSDOF 14
ENDMDL
