MODEL 1
REMARK VINA RESULT:    -7.982      0.000      0.000
REMARK INTER + INTRA:          -8.683
REMARK INTER:                  -8.449
REMARK INTRA:                  -0.234
REMARK UNBOUND:                -0.234
REMARK SMILES O=c1cc(-c2ccccc2)oc2ccccc12
REMARK SMILES IDX 4 1 3 2 2 3 1 4 17 5 16 6 15 7 14 8 13 9 12 10 11 11 5 12
REMARK SMILES IDX 8 13 7 14 9 15 6 16 10 17
REMARK H PARENT
REMARK Flexibility Score: inf
ROOT
ATOM      1  C   UNL     1     -13.131  -9.041  23.359  1.00  0.00     0.138 A 
ATOM      2  C   UNL     1     -12.777 -10.238  22.702  1.00  0.00     0.100 A 
ATOM      3  C   UNL     1     -12.858 -10.309  21.310  1.00  0.00     0.193 A 
ATOM      4  O   UNL     1     -12.541 -11.379  20.723  1.00  0.00    -0.289 OA
ATOM      5  C   UNL     1     -13.288  -9.189  20.585  1.00  0.00     0.065 A 
ATOM      6  C   UNL     1     -13.392  -9.193  19.181  1.00  0.00     0.016 A 
ATOM      7  C   UNL     1     -13.828  -8.048  18.508  1.00  0.00     0.001 A 
ATOM      8  C   UNL     1     -14.163  -6.895  19.225  1.00  0.00     0.004 A 
ATOM      9  C   UNL     1     -14.063  -6.882  20.619  1.00  0.00     0.048 A 
ATOM     10  C   UNL     1     -13.628  -8.022  21.303  1.00  0.00     0.138 A 
ATOM     11  O   UNL     1     -13.536  -7.999  22.629  1.00  0.00    -0.456 OA
ENDROOT
BRANCH   1  12
ATOM     12  C   UNL     1     -13.074  -8.880  24.845  1.00  0.00     0.017 A 
ATOM     13  C   UNL     1     -13.030  -8.652  27.658  1.00  0.00     0.000 A 
ATOM     14  C   UNL     1     -13.800  -9.643  27.050  1.00  0.00     0.001 A 
ATOM     15  C   UNL     1     -12.282  -7.775  26.874  1.00  0.00     0.001 A 
ATOM     16  C   UNL     1     -13.824  -9.758  25.657  1.00  0.00     0.012 A 
ATOM     17  C   UNL     1     -12.300  -7.883  25.479  1.00  0.00     0.012 A 
ENDBRANCH   1  12
TORSDOF 1
ENDMDL
MODEL 2
REMARK VINA RESULT:    -7.759      1.569      6.090
REMARK INTER + INTRA:          -8.446
REMARK INTER:                  -8.221
REMARK INTRA:                  -0.225
REMARK UNBOUND:                -0.234
REMARK SMILES O=c1cc(-c2ccccc2)oc2ccccc12
REMARK SMILES IDX 4 1 3 2 2 3 1 4 17 5 16 6 15 7 14 8 13 9 12 10 11 11 5 12
REMARK SMILES IDX 8 13 7 14 9 15 6 16 10 17
REMARK H PARENT
REMARK Flexibility Score: inf
ROOT
ATOM      1  C   UNL     1     -13.838  -8.214  22.840  1.00  0.00     0.138 A 
ATOM      2  C   UNL     1     -12.715  -7.889  23.629  1.00  0.00     0.100 A 
ATOM      3  C   UNL     1     -12.766  -8.081  25.011  1.00  0.00     0.193 A 
ATOM      4  O   UNL     1     -11.761  -7.790  25.717  1.00  0.00    -0.289 OA
ATOM      5  C   UNL     1     -13.932  -8.595  25.595  1.00  0.00     0.065 A 
ATOM      6  C   UNL     1     -14.049  -8.813  26.980  1.00  0.00     0.016 A 
ATOM      7  C   UNL     1     -15.236  -9.328  27.510  1.00  0.00     0.001 A 
ATOM      8  C   UNL     1     -16.311  -9.628  26.667  1.00  0.00     0.004 A 
ATOM      9  C   UNL     1     -16.203  -9.414  25.290  1.00  0.00     0.048 A 
ATOM     10  C   UNL     1     -15.020  -8.900  24.749  1.00  0.00     0.138 A 
ATOM     11  O   UNL     1     -14.928  -8.701  23.438  1.00  0.00    -0.456 OA
ENDROOT
BRANCH   1  12
ATOM     12  C   UNL     1     -13.868  -8.039  21.356  1.00  0.00     0.017 A 
ATOM     13  C   UNL     1     -13.909  -7.804  18.542  1.00  0.00     0.000 A 
ATOM     14  C   UNL     1     -13.728  -9.053  19.137  1.00  0.00     0.001 A 
ATOM     15  C   UNL     1     -14.071  -6.672  19.341  1.00  0.00     0.001 A 
ATOM     16  C   UNL     1     -13.707  -9.171  20.529  1.00  0.00     0.012 A 
ATOM     17  C   UNL     1     -14.051  -6.782  20.735  1.00  0.00     0.012 A 
ENDBRANCH   1  12
TORSDOF 1
ENDMDL
MODEL 3
REMARK VINA RESULT:    -7.277      1.457      6.120
REMARK INTER + INTRA:          -7.937
REMARK INTER:                  -7.716
REMARK INTRA:                  -0.221
REMARK UNBOUND:                -0.234
REMARK SMILES O=c1cc(-c2ccccc2)oc2ccccc12
REMARK SMILES IDX 4 1 3 2 2 3 1 4 17 5 16 6 15 7 14 8 13 9 12 10 11 11 5 12
REMARK SMILES IDX 8 13 7 14 9 15 6 16 10 17
REMARK H PARENT
REMARK Flexibility Score: inf
ROOT
ATOM      1  C   UNL     1     -14.122  -8.268  22.905  1.00  0.00     0.138 A 
ATOM      2  C   UNL     1     -15.315  -8.667  23.543  1.00  0.00     0.100 A 
ATOM      3  C   UNL     1     -15.344  -8.792  24.933  1.00  0.00     0.193 A 
ATOM      4  O   UNL     1     -16.411  -9.148  25.503  1.00  0.00    -0.289 OA
ATOM      5  C   UNL     1     -14.187  -8.517  25.676  1.00  0.00     0.065 A 
ATOM      6  C   UNL     1     -14.148  -8.623  27.078  1.00  0.00     0.016 A 
ATOM      7  C   UNL     1     -12.967  -8.339  27.769  1.00  0.00     0.001 A 
ATOM      8  C   UNL     1     -11.820  -7.948  27.071  1.00  0.00     0.004 A 
ATOM      9  C   UNL     1     -11.850  -7.840  25.678  1.00  0.00     0.048 A 
ATOM     10  C   UNL     1     -13.026  -8.123  24.976  1.00  0.00     0.138 A 
ATOM     11  O   UNL     1     -13.044  -8.017  23.651  1.00  0.00    -0.456 OA
ENDROOT
BRANCH   1  12
ATOM     12  C   UNL     1     -14.005  -8.110  21.423  1.00  0.00     0.017 A 
ATOM     13  C   UNL     1     -13.770  -7.910  18.616  1.00  0.00     0.000 A 
ATOM     14  C   UNL     1     -13.674  -9.155  19.239  1.00  0.00     0.001 A 
ATOM     15  C   UNL     1     -13.982  -6.765  19.383  1.00  0.00     0.001 A 
ATOM     16  C   UNL     1     -13.790  -9.256  20.627  1.00  0.00     0.012 A 
ATOM     17  C   UNL     1     -14.099  -6.858  20.774  1.00  0.00     0.012 A 
ENDBRANCH   1  12
TORSDOF 1
ENDMDL
MODEL 4
REMARK VINA RESULT:    -7.143      1.483      6.127
REMARK INTER + INTRA:          -7.794
REMARK INTER:                  -7.563
REMARK INTRA:                  -0.232
REMARK UNBOUND:                -0.234
REMARK SMILES O=c1cc(-c2ccccc2)oc2ccccc12
REMARK SMILES IDX 4 1 3 2 2 3 1 4 17 5 16 6 15 7 14 8 13 9 12 10 11 11 5 12
REMARK SMILES IDX 8 13 7 14 9 15 6 16 10 17
REMARK H PARENT
REMARK Flexibility Score: inf
ROOT
ATOM      1  C   UNL     1     -13.801  -8.450  22.588  1.00  0.00     0.138 A 
ATOM      2  C   UNL     1     -15.121  -8.583  23.066  1.00  0.00     0.100 A 
ATOM      3  C   UNL     1     -15.368  -8.504  24.439  1.00  0.00     0.193 A 
ATOM      4  O   UNL     1     -16.548  -8.622  24.866  1.00  0.00    -0.289 OA
ATOM      5  C   UNL     1     -14.299  -8.292  25.321  1.00  0.00     0.065 A 
ATOM      6  C   UNL     1     -14.478  -8.202  26.714  1.00  0.00     0.016 A 
ATOM      7  C   UNL     1     -13.377  -7.991  27.549  1.00  0.00     0.001 A 
ATOM      8  C   UNL     1     -12.095  -7.868  27.004  1.00  0.00     0.004 A 
ATOM      9  C   UNL     1     -11.908  -7.956  25.622  1.00  0.00     0.048 A 
ATOM     10  C   UNL     1     -13.003  -8.167  24.777  1.00  0.00     0.138 A 
ATOM     11  O   UNL     1     -12.814  -8.250  23.464  1.00  0.00    -0.456 OA
ENDROOT
BRANCH   1  12
ATOM     12  C   UNL     1     -13.450  -8.523  21.136  1.00  0.00     0.017 A 
ATOM     13  C   UNL     1     -12.846  -8.583  18.379  1.00  0.00     0.000 A 
ATOM     14  C   UNL     1     -13.703  -7.606  18.885  1.00  0.00     0.001 A 
ATOM     15  C   UNL     1     -12.288  -9.529  19.238  1.00  0.00     0.001 A 
ATOM     16  C   UNL     1     -14.004  -7.574  20.249  1.00  0.00     0.012 A 
ATOM     17  C   UNL     1     -12.584  -9.505  20.605  1.00  0.00     0.012 A 
ENDBRANCH   1  12
TORSDOF 1
ENDMDL
MODEL 5
REMARK VINA RESULT:    -7.104      6.404      9.318
REMARK INTER + INTRA:          -7.753
REMARK INTER:                  -7.494
REMARK INTRA:                  -0.259
REMARK UNBOUND:                -0.234
REMARK SMILES O=c1cc(-c2ccccc2)oc2ccccc12
REMARK SMILES IDX 4 1 3 2 2 3 1 4 17 5 16 6 15 7 14 8 13 9 12 10 11 11 5 12
REMARK SMILES IDX 8 13 7 14 9 15 6 16 10 17
REMARK H PARENT
REMARK Flexibility Score: inf
ROOT
ATOM      1  C   UNL     1      -9.946  -4.708  30.117  1.00  0.00     0.138 A 
ATOM      2  C   UNL     1     -10.281  -5.612  31.146  1.00  0.00     0.100 A 
ATOM      3  C   UNL     1     -11.351  -6.491  30.969  1.00  0.00     0.193 A 
ATOM      4  O   UNL     1     -11.650  -7.299  31.890  1.00  0.00    -0.289 OA
ATOM      5  C   UNL     1     -12.076  -6.465  29.770  1.00  0.00     0.065 A 
ATOM      6  C   UNL     1     -13.163  -7.324  29.527  1.00  0.00     0.016 A 
ATOM      7  C   UNL     1     -13.852  -7.254  28.312  1.00  0.00     0.001 A 
ATOM      8  C   UNL     1     -13.464  -6.332  27.335  1.00  0.00     0.004 A 
ATOM      9  C   UNL     1     -12.385  -5.476  27.568  1.00  0.00     0.048 A 
ATOM     10  C   UNL     1     -11.688  -5.536  28.780  1.00  0.00     0.138 A 
ATOM     11  O   UNL     1     -10.663  -4.717  28.991  1.00  0.00    -0.456 OA
ENDROOT
BRANCH   1  12
ATOM     12  C   UNL     1      -8.817  -3.733  30.225  1.00  0.00     0.017 A 
ATOM     13  C   UNL     1      -6.731  -1.835  30.362  1.00  0.00     0.000 A 
ATOM     14  C   UNL     1      -7.820  -1.617  29.517  1.00  0.00     0.001 A 
ATOM     15  C   UNL     1      -6.676  -2.992  31.139  1.00  0.00     0.001 A 
ATOM     16  C   UNL     1      -8.853  -2.555  29.447  1.00  0.00     0.012 A 
ATOM     17  C   UNL     1      -7.707  -3.936  31.075  1.00  0.00     0.012 A 
ENDBRANCH   1  12
TORSDOF 1
ENDMDL
MODEL 6
REMARK VINA RESULT:    -7.074      7.453      9.950
REMARK INTER + INTRA:          -7.722
REMARK INTER:                  -7.457
REMARK INTRA:                  -0.265
REMARK UNBOUND:                -0.234
REMARK SMILES O=c1cc(-c2ccccc2)oc2ccccc12
REMARK SMILES IDX 4 1 3 2 2 3 1 4 17 5 16 6 15 7 14 8 13 9 12 10 11 11 5 12
REMARK SMILES IDX 8 13 7 14 9 15 6 16 10 17
REMARK H PARENT
REMARK Flexibility Score: inf
ROOT
ATOM      1  C   UNL     1      -9.730  -4.619  30.012  1.00  0.00     0.138 A 
ATOM      2  C   UNL     1     -10.643  -4.518  28.942  1.00  0.00     0.100 A 
ATOM      3  C   UNL     1     -11.662  -5.464  28.814  1.00  0.00     0.193 A 
ATOM      4  O   UNL     1     -12.478  -5.373  27.857  1.00  0.00    -0.289 OA
ATOM      5  C   UNL     1     -11.764  -6.501  29.752  1.00  0.00     0.065 A 
ATOM      6  C   UNL     1     -12.766  -7.486  29.682  1.00  0.00     0.016 A 
ATOM      7  C   UNL     1     -12.820  -8.499  30.644  1.00  0.00     0.001 A 
ATOM      8  C   UNL     1     -11.880  -8.537  31.679  1.00  0.00     0.004 A 
ATOM      9  C   UNL     1     -10.882  -7.563  31.756  1.00  0.00     0.048 A 
ATOM     10  C   UNL     1     -10.818  -6.545  30.799  1.00  0.00     0.138 A 
ATOM     11  O   UNL     1      -9.864  -5.622  30.882  1.00  0.00    -0.456 OA
ENDROOT
BRANCH   1  12
ATOM     12  C   UNL     1      -8.611  -3.650  30.222  1.00  0.00     0.017 A 
ATOM     13  C   UNL     1      -6.466  -1.876  30.691  1.00  0.00     0.000 A 
ATOM     14  C   UNL     1      -6.599  -3.031  31.462  1.00  0.00     0.001 A 
ATOM     15  C   UNL     1      -7.394  -1.599  29.688  1.00  0.00     0.001 A 
ATOM     16  C   UNL     1      -7.660  -3.910  31.232  1.00  0.00     0.012 A 
ATOM     17  C   UNL     1      -8.460  -2.474  29.451  1.00  0.00     0.012 A 
ENDBRANCH   1  12
TORSDOF 1
ENDMDL
MODEL 7
REMARK VINA RESULT:    -7.045      1.222      2.403
REMARK INTER + INTRA:          -7.691
REMARK INTER:                  -7.459
REMARK INTRA:                  -0.232
REMARK UNBOUND:                -0.234
REMARK SMILES O=c1cc(-c2ccccc2)oc2ccccc12
REMARK SMILES IDX 4 1 3 2 2 3 1 4 17 5 16 6 15 7 14 8 13 9 12 10 11 11 5 12
REMARK SMILES IDX 8 13 7 14 9 15 6 16 10 17
REMARK H PARENT
REMARK Flexibility Score: inf
ROOT
ATOM      1  C   UNL     1     -13.131  -8.404  23.782  1.00  0.00     0.138 A 
ATOM      2  C   UNL     1     -13.494  -7.188  23.167  1.00  0.00     0.100 A 
ATOM      3  C   UNL     1     -13.462  -7.084  21.775  1.00  0.00     0.193 A 
ATOM      4  O   UNL     1     -13.787  -5.996  21.226  1.00  0.00    -0.289 OA
ATOM      5  C   UNL     1     -13.072  -8.190  21.008  1.00  0.00     0.065 A 
ATOM      6  C   UNL     1     -13.019  -8.152  19.602  1.00  0.00     0.016 A 
ATOM      7  C   UNL     1     -12.621  -9.285  18.886  1.00  0.00     0.001 A 
ATOM      8  C   UNL     1     -12.275 -10.460  19.563  1.00  0.00     0.004 A 
ATOM      9  C   UNL     1     -12.325 -10.505  20.958  1.00  0.00     0.048 A 
ATOM     10  C   UNL     1     -12.721  -9.378  21.685  1.00  0.00     0.138 A 
ATOM     11  O   UNL     1     -12.765  -9.432  23.013  1.00  0.00    -0.456 OA
ENDROOT
BRANCH   1  12
ATOM     12  C   UNL     1     -13.136  -8.601  25.264  1.00  0.00     0.017 A 
ATOM     13  C   UNL     1     -13.215  -9.039  28.052  1.00  0.00     0.000 A 
ATOM     14  C   UNL     1     -14.043  -9.776  27.204  1.00  0.00     0.001 A 
ATOM     15  C   UNL     1     -12.348  -8.087  27.519  1.00  0.00     0.001 A 
ATOM     16  C   UNL     1     -14.006  -9.560  25.824  1.00  0.00     0.012 A 
ATOM     17  C   UNL     1     -12.304  -7.865  26.138  1.00  0.00     0.012 A 
ENDBRANCH   1  12
TORSDOF 1
ENDMDL
MODEL 8
REMARK VINA RESULT:    -6.957      1.542      2.751
REMARK INTER + INTRA:          -7.598
REMARK INTER:                  -7.365
REMARK INTRA:                  -0.233
REMARK UNBOUND:                -0.234
REMARK SMILES O=c1cc(-c2ccccc2)oc2ccccc12
REMARK SMILES IDX 4 1 3 2 2 3 1 4 17 5 16 6 15 7 14 8 13 9 12 10 11 11 5 12
REMARK SMILES IDX 8 13 7 14 9 15 6 16 10 17
REMARK H PARENT
REMARK Flexibility Score: inf
ROOT
ATOM      1  C   UNL     1     -13.867  -8.661  23.152  1.00  0.00     0.138 A 
ATOM      2  C   UNL     1     -14.002  -7.344  22.665  1.00  0.00     0.100 A 
ATOM      3  C   UNL     1     -13.563  -7.039  21.375  1.00  0.00     0.193 A 
ATOM      4  O   UNL     1     -13.685  -5.861  20.940  1.00  0.00    -0.289 OA
ATOM      5  C   UNL     1     -12.995  -8.045  20.582  1.00  0.00     0.065 A 
ATOM      6  C   UNL     1     -12.533  -7.805  19.275  1.00  0.00     0.016 A 
ATOM      7  C   UNL     1     -11.974  -8.846  18.528  1.00  0.00     0.001 A 
ATOM      8  C   UNL     1     -11.871 -10.129  19.075  1.00  0.00     0.004 A 
ATOM      9  C   UNL     1     -12.327 -10.376  20.373  1.00  0.00     0.048 A 
ATOM     10  C   UNL     1     -12.889  -9.342  21.130  1.00  0.00     0.138 A 
ATOM     11  O   UNL     1     -13.319  -9.588  22.363  1.00  0.00    -0.456 OA
ENDROOT
BRANCH   1  12
ATOM     12  C   UNL     1     -14.309  -9.072  24.520  1.00  0.00     0.017 A 
ATOM     13  C   UNL     1     -15.235  -9.821  27.080  1.00  0.00     0.000 A 
ATOM     14  C   UNL     1     -16.123  -9.293  26.142  1.00  0.00     0.001 A 
ATOM     15  C   UNL     1     -13.890  -9.979  26.750  1.00  0.00     0.001 A 
ATOM     16  C   UNL     1     -15.667  -8.922  24.875  1.00  0.00     0.012 A 
ATOM     17  C   UNL     1     -13.425  -9.609  25.483  1.00  0.00     0.012 A 
ENDBRANCH   1  12
TORSDOF 1
ENDMDL
MODEL 9
REMARK VINA RESULT:    -6.682      3.725      8.515
REMARK INTER + INTRA:          -7.307
REMARK INTER:                  -7.076
REMARK INTRA:                  -0.230
REMARK UNBOUND:                -0.234
REMARK SMILES O=c1cc(-c2ccccc2)oc2ccccc12
REMARK SMILES IDX 4 1 3 2 2 3 1 4 17 5 16 6 15 7 14 8 13 9 12 10 11 11 5 12
REMARK SMILES IDX 8 13 7 14 9 15 6 16 10 17
REMARK H PARENT
REMARK Flexibility Score: inf
ROOT
ATOM      1  C   UNL     1     -12.562  -8.181  27.939  1.00  0.00     0.138 A 
ATOM      2  C   UNL     1     -12.892  -6.976  28.595  1.00  0.00     0.100 A 
ATOM      3  C   UNL     1     -12.473  -6.771  29.911  1.00  0.00     0.193 A 
ATOM      4  O   UNL     1     -12.769  -5.694  30.497  1.00  0.00    -0.289 OA
ATOM      5  C   UNL     1     -11.729  -7.765  30.562  1.00  0.00     0.065 A 
ATOM      6  C   UNL     1     -11.277  -7.622  31.887  1.00  0.00     0.016 A 
ATOM      7  C   UNL     1     -10.539  -8.645  32.489  1.00  0.00     0.001 A 
ATOM      8  C   UNL     1     -10.247  -9.814  31.778  1.00  0.00     0.004 A 
ATOM      9  C   UNL     1     -10.693  -9.964  30.462  1.00  0.00     0.048 A 
ATOM     10  C   UNL     1     -11.433  -8.947  29.850  1.00  0.00     0.138 A 
ATOM     11  O   UNL     1     -11.852  -9.100  28.598  1.00  0.00    -0.456 OA
ENDROOT
BRANCH   1  12
ATOM     12  C   UNL     1     -12.970  -8.481  26.533  1.00  0.00     0.017 A 
ATOM     13  C   UNL     1     -13.688  -8.973  23.847  1.00  0.00     0.000 A 
ATOM     14  C   UNL     1     -12.824  -7.923  24.159  1.00  0.00     0.001 A 
ATOM     15  C   UNL     1     -14.196  -9.779  24.865  1.00  0.00     0.001 A 
ATOM     16  C   UNL     1     -12.468  -7.677  25.488  1.00  0.00     0.012 A 
ATOM     17  C   UNL     1     -13.844  -9.540  26.198  1.00  0.00     0.012 A 
ENDBRANCH   1  12
TORSDOF 1
ENDMDL
