MODEL 1
REMARK VINA RESULT:    -3.471      0.000      0.000
REMARK INTER + INTRA:          -4.401
REMARK INTER:                  -4.182
REMARK INTRA:                  -0.219
REMARK UNBOUND:                -0.219
REMARK SMILES OCC(O)CO
REMARK SMILES IDX 3 1 5 2 6 3 2 5 1 6 4 8
REMARK H PARENT 6 4 1 7 4 9
REMARK Flexibility Score: inf
ROOT
ATOM      1  C   UNL     1     -13.546 -40.588  36.820  1.00  0.00     0.165 C 
ENDROOT
BRANCH   1   2
ATOM      2  C   UNL     1     -13.103 -41.250  38.139  1.00  0.00     0.190 C 
BRANCH   2   3
ATOM      3  O   UNL     1     -12.338 -42.400  37.895  1.00  0.00    -0.394 OA
ATOM      4  H   UNL     1     -11.824 -42.581  38.724  1.00  0.00     0.210 HD
ENDBRANCH   2   3
ENDBRANCH   1   2
BRANCH   1   5
ATOM      5  C   UNL     1     -12.379 -39.883  36.116  1.00  0.00     0.190 C 
BRANCH   5   6
ATOM      6  O   UNL     1     -11.569 -40.818  35.458  1.00  0.00    -0.394 OA
ATOM      7  H   UNL     1     -11.865 -40.820  34.512  1.00  0.00     0.210 HD
ENDBRANCH   5   6
ENDBRANCH   1   5
BRANCH   1   8
ATOM      8  O   UNL     1     -14.062 -41.568  35.958  1.00  0.00    -0.388 OA
ATOM      9  H   UNL     1     -14.537 -41.089  35.229  1.00  0.00     0.211 HD
ENDBRANCH   1   8
TORSDOF 5
ENDMDL
MODEL 2
REMARK VINA RESULT:    -3.354      3.503      4.051
REMARK INTER + INTRA:          -4.259
REMARK INTER:                  -4.257
REMARK INTRA:                  -0.003
REMARK UNBOUND:                -0.219
REMARK SMILES OCC(O)CO
REMARK SMILES IDX 3 1 5 2 6 3 2 5 1 6 4 8
REMARK H PARENT 6 4 1 7 4 9
REMARK Flexibility Score: inf
ROOT
ATOM      1  C   UNL     1     -12.807 -40.911  32.913  1.00  0.00     0.165 C 
ENDROOT
BRANCH   1   2
ATOM      2  C   UNL     1     -14.218 -41.482  33.149  1.00  0.00     0.190 C 
BRANCH   2   3
ATOM      3  O   UNL     1     -14.472 -41.657  34.517  1.00  0.00    -0.394 OA
ATOM      4  H   UNL     1     -13.687 -42.134  34.893  1.00  0.00     0.210 HD
ENDBRANCH   2   3
ENDBRANCH   1   2
BRANCH   1   5
ATOM      5  C   UNL     1     -12.822 -39.748  31.914  1.00  0.00     0.190 C 
BRANCH   5   6
ATOM      6  O   UNL     1     -12.012 -38.700  32.373  1.00  0.00    -0.394 OA
ATOM      7  H   UNL     1     -12.629 -38.028  32.765  1.00  0.00     0.210 HD
ENDBRANCH   5   6
ENDBRANCH   1   5
BRANCH   1   8
ATOM      8  O   UNL     1     -12.284 -40.448  34.131  1.00  0.00    -0.388 OA
ATOM      9  H   UNL     1     -11.322 -40.696  34.144  1.00  0.00     0.211 HD
ENDBRANCH   1   8
TORSDOF 5
ENDMDL
MODEL 3
REMARK VINA RESULT:    -3.271      6.551      6.940
REMARK INTER + INTRA:          -4.159
REMARK INTER:                  -3.943
REMARK INTRA:                  -0.217
REMARK UNBOUND:                -0.219
REMARK SMILES OCC(O)CO
REMARK SMILES IDX 3 1 5 2 6 3 2 5 1 6 4 8
REMARK H PARENT 6 4 1 7 4 9
REMARK Flexibility Score: inf
ROOT
ATOM      1  C   UNL     1     -14.512 -36.727  41.673  1.00  0.00     0.165 C 
ENDROOT
BRANCH   1   2
ATOM      2  C   UNL     1     -15.010 -36.345  40.266  1.00  0.00     0.190 C 
BRANCH   2   3
ATOM      3  O   UNL     1     -14.604 -35.048  39.920  1.00  0.00    -0.394 OA
ATOM      4  H   UNL     1     -14.698 -34.974  38.935  1.00  0.00     0.210 HD
ENDBRANCH   2   3
ENDBRANCH   1   2
BRANCH   1   5
ATOM      5  C   UNL     1     -13.167 -37.464  41.622  1.00  0.00     0.190 C 
BRANCH   5   6
ATOM      6  O   UNL     1     -12.483 -37.150  40.439  1.00  0.00    -0.394 OA
ATOM      7  H   UNL     1     -12.880 -36.303  40.109  1.00  0.00     0.210 HD
ENDBRANCH   5   6
ENDBRANCH   1   5
BRANCH   1   8
ATOM      8  O   UNL     1     -14.354 -35.563  42.442  1.00  0.00    -0.388 OA
ATOM      9  H   UNL     1     -14.946 -34.872  42.044  1.00  0.00     0.211 HD
ENDBRANCH   1   8
TORSDOF 5
ENDMDL
MODEL 4
REMARK VINA RESULT:    -3.228      5.027      5.860
REMARK INTER + INTRA:          -4.108
REMARK INTER:                  -3.894
REMARK INTRA:                  -0.215
REMARK UNBOUND:                -0.219
REMARK SMILES OCC(O)CO
REMARK SMILES IDX 3 1 5 2 6 3 2 5 1 6 4 8
REMARK H PARENT 6 4 1 7 4 9
REMARK Flexibility Score: inf
ROOT
ATOM      1  C   UNL     1     -12.082 -39.975  41.939  1.00  0.00     0.165 C 
ENDROOT
BRANCH   1   2
ATOM      2  C   UNL     1     -10.991 -39.316  41.075  1.00  0.00     0.190 C 
BRANCH   2   3
ATOM      3  O   UNL     1      -9.735 -39.405  41.691  1.00  0.00    -0.394 OA
ATOM      4  H   UNL     1      -9.872 -39.883  42.550  1.00  0.00     0.210 HD
ENDBRANCH   2   3
ENDBRANCH   1   2
BRANCH   1   5
ATOM      5  C   UNL     1     -12.321 -41.437  41.540  1.00  0.00     0.190 C 
BRANCH   5   6
ATOM      6  O   UNL     1     -11.099 -42.095  41.343  1.00  0.00    -0.394 OA
ATOM      7  H   UNL     1     -10.551 -41.902  42.147  1.00  0.00     0.210 HD
ENDBRANCH   5   6
ENDBRANCH   1   5
BRANCH   1   8
ATOM      8  O   UNL     1     -11.693 -39.938  43.287  1.00  0.00    -0.388 OA
ATOM      9  H   UNL     1     -11.533 -40.877  43.567  1.00  0.00     0.211 HD
ENDBRANCH   1   8
TORSDOF 5
ENDMDL
MODEL 5
REMARK VINA RESULT:    -3.226      1.382      1.915
REMARK INTER + INTRA:          -4.105
REMARK INTER:                  -3.890
REMARK INTRA:                  -0.215
REMARK UNBOUND:                -0.219
REMARK SMILES OCC(O)CO
REMARK SMILES IDX 3 1 5 2 6 3 2 5 1 6 4 8
REMARK H PARENT 6 4 1 7 4 9
REMARK Flexibility Score: inf
ROOT
ATOM      1  C   UNL     1     -12.564 -40.062  35.940  1.00  0.00     0.165 C 
ENDROOT
BRANCH   1   2
ATOM      2  C   UNL     1     -13.305 -40.908  36.993  1.00  0.00     0.190 C 
BRANCH   2   3
ATOM      3  O   UNL     1     -12.466 -41.894  37.532  1.00  0.00    -0.394 OA
ATOM      4  H   UNL     1     -12.541 -41.824  38.519  1.00  0.00     0.210 HD
ENDBRANCH   2   3
ENDBRANCH   1   2
BRANCH   1   5
ATOM      5  C   UNL     1     -11.974 -38.783  36.548  1.00  0.00     0.190 C 
BRANCH   5   6
ATOM      6  O   UNL     1     -11.612 -38.999  37.884  1.00  0.00    -0.394 OA
ATOM      7  H   UNL     1     -12.082 -39.826  38.166  1.00  0.00     0.210 HD
ENDBRANCH   5   6
ENDBRANCH   1   5
BRANCH   1   8
ATOM      8  O   UNL     1     -11.518 -40.819  35.389  1.00  0.00    -0.388 OA
ATOM      9  H   UNL     1     -11.568 -41.722  35.798  1.00  0.00     0.211 HD
ENDBRANCH   1   8
TORSDOF 5
ENDMDL
MODEL 6
REMARK VINA RESULT:    -3.205      6.422      6.587
REMARK INTER + INTRA:          -4.080
REMARK INTER:                  -3.876
REMARK INTRA:                  -0.204
REMARK UNBOUND:                -0.219
REMARK SMILES OCC(O)CO
REMARK SMILES IDX 3 1 5 2 6 3 2 5 1 6 4 8
REMARK H PARENT 6 4 1 7 4 9
REMARK Flexibility Score: inf
ROOT
ATOM      1  C   UNL     1     -13.953 -37.084  40.246  1.00  0.00     0.165 C 
ENDROOT
BRANCH   1   2
ATOM      2  C   UNL     1     -13.930 -37.129  41.785  1.00  0.00     0.190 C 
BRANCH   2   3
ATOM      3  O   UNL     1     -14.306 -35.894  42.333  1.00  0.00    -0.394 OA
ATOM      4  H   UNL     1     -15.292 -35.831  42.243  1.00  0.00     0.210 HD
ENDBRANCH   2   3
ENDBRANCH   1   2
BRANCH   1   5
ATOM      5  C   UNL     1     -15.061 -36.165  39.718  1.00  0.00     0.190 C 
BRANCH   5   6
ATOM      6  O   UNL     1     -14.662 -34.824  39.797  1.00  0.00    -0.394 OA
ATOM      7  H   UNL     1     -15.070 -34.464  40.626  1.00  0.00     0.210 HD
ENDBRANCH   5   6
ENDBRANCH   1   5
BRANCH   1   8
ATOM      8  O   UNL     1     -12.717 -36.611  39.777  1.00  0.00    -0.388 OA
ATOM      9  H   UNL     1     -12.915 -35.929  39.082  1.00  0.00     0.211 HD
ENDBRANCH   1   8
TORSDOF 5
ENDMDL
MODEL 7
REMARK VINA RESULT:    -3.169      1.380      2.789
REMARK INTER + INTRA:          -4.037
REMARK INTER:                  -3.826
REMARK INTRA:                  -0.211
REMARK UNBOUND:                -0.219
REMARK SMILES OCC(O)CO
REMARK SMILES IDX 3 1 5 2 6 3 2 5 1 6 4 8
REMARK H PARENT 6 4 1 7 4 9
REMARK Flexibility Score: inf
ROOT
ATOM      1  C   UNL     1     -12.806 -39.608  37.266  1.00  0.00     0.165 C 
ENDROOT
BRANCH   1   2
ATOM      2  C   UNL     1     -12.049 -39.380  35.944  1.00  0.00     0.190 C 
BRANCH   2   3
ATOM      3  O   UNL     1     -11.568 -40.589  35.422  1.00  0.00    -0.394 OA
ATOM      4  H   UNL     1     -11.838 -41.301  36.058  1.00  0.00     0.210 HD
ENDBRANCH   2   3
ENDBRANCH   1   2
BRANCH   1   5
ATOM      5  C   UNL     1     -13.475 -40.987  37.310  1.00  0.00     0.190 C 
BRANCH   5   6
ATOM      6  O   UNL     1     -12.543 -41.971  37.666  1.00  0.00    -0.394 OA
ATOM      7  H   UNL     1     -12.245 -42.387  36.816  1.00  0.00     0.210 HD
ENDBRANCH   5   6
ENDBRANCH   1   5
BRANCH   1   8
ATOM      8  O   UNL     1     -11.906 -39.513  38.340  1.00  0.00    -0.388 OA
ATOM      9  H   UNL     1     -10.992 -39.543  37.953  1.00  0.00     0.211 HD
ENDBRANCH   1   8
TORSDOF 5
ENDMDL
MODEL 8
REMARK VINA RESULT:    -3.164      5.641      6.201
REMARK INTER + INTRA:          -4.030
REMARK INTER:                  -3.818
REMARK INTRA:                  -0.213
REMARK UNBOUND:                -0.219
REMARK SMILES OCC(O)CO
REMARK SMILES IDX 3 1 5 2 6 3 2 5 1 6 4 8
REMARK H PARENT 6 4 1 7 4 9
REMARK Flexibility Score: inf
ROOT
ATOM      1  C   UNL     1     -12.069 -35.598  37.523  1.00  0.00     0.165 C 
ENDROOT
BRANCH   1   2
ATOM      2  C   UNL     1     -12.016 -36.109  36.071  1.00  0.00     0.190 C 
BRANCH   2   3
ATOM      3  O   UNL     1     -10.840 -35.693  35.431  1.00  0.00    -0.394 OA
ATOM      4  H   UNL     1     -11.015 -35.741  34.455  1.00  0.00     0.210 HD
ENDBRANCH   2   3
ENDBRANCH   1   2
BRANCH   1   5
ATOM      5  C   UNL     1     -10.961 -36.216  38.386  1.00  0.00     0.190 C 
BRANCH   5   6
ATOM      6  O   UNL     1      -9.709 -35.714  38.006  1.00  0.00    -0.394 OA
ATOM      7  H   UNL     1      -9.131 -35.779  38.810  1.00  0.00     0.210 HD
ENDBRANCH   5   6
ENDBRANCH   1   5
BRANCH   1   8
ATOM      8  O   UNL     1     -11.916 -34.203  37.531  1.00  0.00    -0.388 OA
ATOM      9  H   UNL     1     -11.684 -33.933  36.604  1.00  0.00     0.211 HD
ENDBRANCH   1   8
TORSDOF 5
ENDMDL
MODEL 9
REMARK VINA RESULT:    -3.117      4.840      5.577
REMARK INTER + INTRA:          -3.974
REMARK INTER:                  -3.752
REMARK INTRA:                  -0.222
REMARK UNBOUND:                -0.219
REMARK SMILES OCC(O)CO
REMARK SMILES IDX 3 1 5 2 6 3 2 5 1 6 4 8
REMARK H PARENT 6 4 1 7 4 9
REMARK Flexibility Score: inf
ROOT
ATOM      1  C   UNL     1     -10.778 -37.197  36.044  1.00  0.00     0.165 C 
ENDROOT
BRANCH   1   2
ATOM      2  C   UNL     1      -9.379 -36.734  36.493  1.00  0.00     0.190 C 
BRANCH   2   3
ATOM      3  O   UNL     1      -9.459 -35.893  37.612  1.00  0.00    -0.394 OA
ATOM      4  H   UNL     1      -9.634 -36.478  38.395  1.00  0.00     0.210 HD
ENDBRANCH   2   3
ENDBRANCH   1   2
BRANCH   1   5
ATOM      5  C   UNL     1     -11.880 -36.260  36.555  1.00  0.00     0.190 C 
BRANCH   5   6
ATOM      6  O   UNL     1     -11.699 -34.968  36.043  1.00  0.00    -0.394 OA
ATOM      7  H   UNL     1     -10.879 -35.006  35.485  1.00  0.00     0.210 HD
ENDBRANCH   5   6
ENDBRANCH   1   5
BRANCH   1   8
ATOM      8  O   UNL     1     -10.831 -37.226  34.642  1.00  0.00    -0.388 OA
ATOM      9  H   UNL     1     -11.323 -38.051  34.389  1.00  0.00     0.211 HD
ENDBRANCH   1   8
TORSDOF 5
ENDMDL
