MODEL 1
REMARK VINA RESULT:     6.865      0.000      0.000
REMARK INTER + INTRA:          16.846
REMARK INTER:                  18.103
REMARK INTRA:                  -1.257
REMARK UNBOUND:                -1.257
REMARK SMILES CCCCCCCCCCCCCCCCCCCCCCCCCCCCCC(=O)[O-]
REMARK SMILES IDX 16 1 17 2 18 3 19 4 20 5 21 6 22 7 23 8 24 9 25 10 26 11
REMARK SMILES IDX 27 12 28 13 29 14 30 15 31 16 32 17 15 18 14 19 13 20 12 21
REMARK SMILES IDX 11 22 10 23 9 24 8 25 7 26 6 27 5 28 4 29 3 30 2 31 1 32
REMARK H PARENT
REMARK Flexibility Score: inf
ROOT
ATOM      1  C   UNL     1      20.244 -17.676  12.164  1.00  0.00     0.000 C 
ENDROOT
BRANCH   1   2
ATOM      2  C   UNL     1      19.509 -17.908  10.834  1.00  0.00     0.000 C 
BRANCH   2   3
ATOM      3  C   UNL     1      18.771 -16.653  10.337  1.00  0.00     0.000 C 
BRANCH   3   4
ATOM      4  C   UNL     1      17.598 -16.978   9.394  1.00  0.00     0.000 C 
BRANCH   4   5
ATOM      5  C   UNL     1      17.281 -15.900   8.338  1.00  0.00     0.000 C 
BRANCH   5   6
ATOM      6  C   UNL     1      17.334 -14.471   8.903  1.00  0.00     0.000 C 
BRANCH   6   7
ATOM      7  C   UNL     1      18.770 -13.962   9.128  1.00  0.00     0.000 C 
BRANCH   7   8
ATOM      8  C   UNL     1      18.880 -12.579   9.802  1.00  0.00     0.000 C 
BRANCH   8   9
ATOM      9  C   UNL     1      17.576 -12.044  10.427  1.00  0.00     0.000 C 
BRANCH   9  10
ATOM     10  C   UNL     1      17.526 -10.518  10.630  1.00  0.00     0.000 C 
BRANCH  10  11
ATOM     11  C   UNL     1      18.387  -9.751   9.613  1.00  0.00     0.000 C 
BRANCH  11  12
ATOM     12  C   UNL     1      17.608  -8.617   8.920  1.00  0.00     0.000 C 
BRANCH  12  13
ATOM     13  C   UNL     1      16.110  -8.569   9.273  1.00  0.00     0.006 C 
BRANCH  13  14
ATOM     14  C   UNL     1      15.548  -7.141   9.268  1.00  0.00     0.053 C 
BRANCH  14  15
ATOM     15  C   UNL     1      14.561  -6.972   8.156  1.00  0.00     0.041 C 
ATOM     16  O   UNL     1      14.118  -7.977   7.539  1.00  0.00    -0.550 OA
ATOM     17  O   UNL     1      14.160  -5.698   7.772  1.00  0.00    -0.550 OA
ENDBRANCH  14  15
ENDBRANCH  13  14
ENDBRANCH  12  13
ENDBRANCH  11  12
ENDBRANCH  10  11
ENDBRANCH   9  10
ENDBRANCH   8   9
ENDBRANCH   7   8
ENDBRANCH   6   7
ENDBRANCH   5   6
ENDBRANCH   4   5
ENDBRANCH   3   4
ENDBRANCH   2   3
ENDBRANCH   1   2
BRANCH   1  18
ATOM     18  C   UNL     1      21.746 -18.020  12.152  1.00  0.00     0.000 C 
BRANCH  18  19
ATOM     19  C   UNL     1      22.584 -17.206  13.162  1.00  0.00     0.000 C 
BRANCH  19  20
ATOM     20  C   UNL     1      22.987 -15.822  12.623  1.00  0.00     0.000 C 
BRANCH  20  21
ATOM     21  C   UNL     1      23.105 -14.758  13.729  1.00  0.00     0.000 C 
BRANCH  21  22
ATOM     22  C   UNL     1      22.071 -14.913  14.863  1.00  0.00     0.000 C 
BRANCH  22  23
ATOM     23  C   UNL     1      22.717 -14.883  16.259  1.00  0.00     0.000 C 
BRANCH  23  24
ATOM     24  C   UNL     1      22.359 -16.112  17.107  1.00  0.00    -0.000 C 
BRANCH  24  25
ATOM     25  C   UNL     1      22.663 -17.441  16.393  1.00  0.00    -0.000 C 
BRANCH  25  26
ATOM     26  C   UNL     1      21.396 -18.122  15.848  1.00  0.00    -0.000 C 
BRANCH  26  27
ATOM     27  C   UNL     1      20.130 -17.733  16.628  1.00  0.00    -0.000 C 
BRANCH  27  28
ATOM     28  C   UNL     1      19.483 -16.477  16.031  1.00  0.00    -0.000 C 
BRANCH  28  29
ATOM     29  C   UNL     1      17.973 -16.447  16.317  1.00  0.00    -0.000 C 
BRANCH  29  30
ATOM     30  C   UNL     1      17.308 -17.822  16.095  1.00  0.00    -0.000 C 
BRANCH  30  31
ATOM     31  C   UNL     1      16.512 -17.918  14.783  1.00  0.00    -0.003 C 
ATOM     32  C   UNL     1      16.725 -16.716  13.864  1.00  0.00     0.004 C 
ENDBRANCH  30  31
ENDBRANCH  29  30
ENDBRANCH  28  29
ENDBRANCH  27  28
ENDBRANCH  26  27
ENDBRANCH  25  26
ENDBRANCH  24  25
ENDBRANCH  23  24
ENDBRANCH  22  23
ENDBRANCH  21  22
ENDBRANCH  20  21
ENDBRANCH  19  20
ENDBRANCH  18  19
ENDBRANCH   1  18
TORSDOF 28
ENDMDL
MODEL 2
REMARK VINA RESULT:     7.073      3.523     10.693
REMARK INTER + INTRA:          17.394
REMARK INTER:                  19.594
REMARK INTRA:                  -2.200
REMARK UNBOUND:                -1.257
REMARK SMILES CCCCCCCCCCCCCCCCCCCCCCCCCCCCCC(=O)[O-]
REMARK SMILES IDX 16 1 17 2 18 3 19 4 20 5 21 6 22 7 23 8 24 9 25 10 26 11
REMARK SMILES IDX 27 12 28 13 29 14 30 15 31 16 32 17 15 18 14 19 13 20 12 21
REMARK SMILES IDX 11 22 10 23 9 24 8 25 7 26 6 27 5 28 4 29 3 30 2 31 1 32
REMARK H PARENT
REMARK Flexibility Score: inf
ROOT
ATOM      1  C   UNL     1      17.832 -16.339   8.959  1.00  0.00     0.000 C 
ENDROOT
BRANCH   1   2
ATOM      2  C   UNL     1      17.689 -17.252  10.188  1.00  0.00     0.000 C 
BRANCH   2   3
ATOM      3  C   UNL     1      19.039 -17.803  10.678  1.00  0.00     0.000 C 
BRANCH   3   4
ATOM      4  C   UNL     1      19.049 -18.123  12.185  1.00  0.00     0.000 C 
BRANCH   4   5
ATOM      5  C   UNL     1      20.436 -18.101  12.856  1.00  0.00     0.000 C 
BRANCH   5   6
ATOM      6  C   UNL     1      21.496 -17.360  12.022  1.00  0.00     0.000 C 
BRANCH   6   7
ATOM      7  C   UNL     1      22.870 -17.291  12.715  1.00  0.00     0.000 C 
BRANCH   7   8
ATOM      8  C   UNL     1      23.122 -16.018  13.549  1.00  0.00     0.000 C 
BRANCH   8   9
ATOM      9  C   UNL     1      21.856 -15.273  14.017  1.00  0.00     0.000 C 
BRANCH   9  10
ATOM     10  C   UNL     1      21.617 -15.280  15.538  1.00  0.00     0.000 C 
BRANCH  10  11
ATOM     11  C   UNL     1      22.100 -16.574  16.213  1.00  0.00     0.000 C 
BRANCH  11  12
ATOM     12  C   UNL     1      20.956 -17.578  16.446  1.00  0.00     0.000 C 
BRANCH  12  13
ATOM     13  C   UNL     1      19.575 -16.930  16.653  1.00  0.00     0.006 C 
BRANCH  13  14
ATOM     14  C   UNL     1      18.420 -17.898  16.367  1.00  0.00     0.053 C 
BRANCH  14  15
ATOM     15  C   UNL     1      17.229 -17.152  15.851  1.00  0.00     0.041 C 
ATOM     16  O   UNL     1      16.753 -17.420  14.716  1.00  0.00    -0.550 OA
ATOM     17  O   UNL     1      16.668 -16.130  16.608  1.00  0.00    -0.550 OA
ENDBRANCH  14  15
ENDBRANCH  13  14
ENDBRANCH  12  13
ENDBRANCH  11  12
ENDBRANCH  10  11
ENDBRANCH   9  10
ENDBRANCH   8   9
ENDBRANCH   7   8
ENDBRANCH   6   7
ENDBRANCH   5   6
ENDBRANCH   4   5
ENDBRANCH   3   4
ENDBRANCH   2   3
ENDBRANCH   1   2
BRANCH   1  18
ATOM     18  C   UNL     1      18.697 -15.082   9.172  1.00  0.00     0.000 C 
BRANCH  18  19
ATOM     19  C   UNL     1      17.882 -13.785   9.364  1.00  0.00     0.000 C 
BRANCH  19  20
ATOM     20  C   UNL     1      18.764 -12.525   9.391  1.00  0.00     0.000 C 
BRANCH  20  21
ATOM     21  C   UNL     1      18.299 -11.488  10.429  1.00  0.00     0.000 C 
BRANCH  21  22
ATOM     22  C   UNL     1      16.962 -10.805  10.078  1.00  0.00     0.000 C 
BRANCH  22  23
ATOM     23  C   UNL     1      16.558  -9.733  11.106  1.00  0.00     0.000 C 
BRANCH  23  24
ATOM     24  C   UNL     1      16.234  -8.379  10.458  1.00  0.00    -0.000 C 
BRANCH  24  25
ATOM     25  C   UNL     1      14.939  -8.408   9.627  1.00  0.00    -0.000 C 
BRANCH  25  26
ATOM     26  C   UNL     1      15.177  -8.055   8.150  1.00  0.00    -0.000 C 
BRANCH  26  27
ATOM     27  C   UNL     1      14.327  -6.865   7.678  1.00  0.00    -0.000 C 
BRANCH  27  28
ATOM     28  C   UNL     1      14.758  -5.571   8.380  1.00  0.00    -0.000 C 
BRANCH  28  29
ATOM     29  C   UNL     1      14.755  -4.386   7.402  1.00  0.00    -0.000 C 
BRANCH  29  30
ATOM     30  C   UNL     1      14.751  -3.026   8.131  1.00  0.00    -0.000 C 
BRANCH  30  31
ATOM     31  C   UNL     1      15.405  -3.069   9.522  1.00  0.00    -0.003 C 
ATOM     32  C   UNL     1      15.589  -1.683  10.139  1.00  0.00     0.004 C 
ENDBRANCH  30  31
ENDBRANCH  29  30
ENDBRANCH  28  29
ENDBRANCH  27  28
ENDBRANCH  26  27
ENDBRANCH  25  26
ENDBRANCH  24  25
ENDBRANCH  23  24
ENDBRANCH  22  23
ENDBRANCH  21  22
ENDBRANCH  20  21
ENDBRANCH  19  20
ENDBRANCH  18  19
ENDBRANCH   1  18
TORSDOF 28
ENDMDL
MODEL 3
REMARK VINA RESULT:     7.082      3.866     11.054
REMARK INTER + INTRA:          17.417
REMARK INTER:                  19.902
REMARK INTRA:                  -2.485
REMARK UNBOUND:                -1.257
REMARK SMILES CCCCCCCCCCCCCCCCCCCCCCCCCCCCCC(=O)[O-]
REMARK SMILES IDX 16 1 17 2 18 3 19 4 20 5 21 6 22 7 23 8 24 9 25 10 26 11
REMARK SMILES IDX 27 12 28 13 29 14 30 15 31 16 32 17 15 18 14 19 13 20 12 21
REMARK SMILES IDX 11 22 10 23 9 24 8 25 7 26 6 27 5 28 4 29 3 30 2 31 1 32
REMARK H PARENT
REMARK Flexibility Score: inf
ROOT
ATOM      1  C   UNL     1      17.930 -14.928   9.506  1.00  0.00     0.000 C 
ENDROOT
BRANCH   1   2
ATOM      2  C   UNL     1      18.796 -16.187   9.340  1.00  0.00     0.000 C 
BRANCH   2   3
ATOM      3  C   UNL     1      18.338 -17.346  10.242  1.00  0.00     0.000 C 
BRANCH   3   4
ATOM      4  C   UNL     1      19.497 -18.004  11.014  1.00  0.00     0.000 C 
BRANCH   4   5
ATOM      5  C   UNL     1      19.613 -17.603  12.498  1.00  0.00     0.000 C 
BRANCH   5   6
ATOM      6  C   UNL     1      19.308 -16.116  12.746  1.00  0.00     0.000 C 
BRANCH   6   7
ATOM      7  C   UNL     1      17.954 -15.884  13.442  1.00  0.00     0.000 C 
BRANCH   7   8
ATOM      8  C   UNL     1      17.615 -16.881  14.569  1.00  0.00     0.000 C 
BRANCH   8   9
ATOM      9  C   UNL     1      17.651 -16.300  15.997  1.00  0.00     0.000 C 
BRANCH   9  10
ATOM     10  C   UNL     1      18.576 -17.038  16.981  1.00  0.00     0.000 C 
BRANCH  10  11
ATOM     11  C   UNL     1      19.860 -17.563  16.316  1.00  0.00     0.000 C 
BRANCH  11  12
ATOM     12  C   UNL     1      21.124 -17.217  17.124  1.00  0.00     0.000 C 
BRANCH  12  13
ATOM     13  C   UNL     1      22.317 -16.754  16.267  1.00  0.00     0.006 C 
BRANCH  13  14
ATOM     14  C   UNL     1      21.988 -15.524  15.412  1.00  0.00     0.053 C 
BRANCH  14  15
ATOM     15  C   UNL     1      22.656 -15.623  14.075  1.00  0.00     0.041 C 
ATOM     16  O   UNL     1      22.828 -16.746  13.532  1.00  0.00    -0.550 OA
ATOM     17  O   UNL     1      23.125 -14.476  13.447  1.00  0.00    -0.550 OA
ENDBRANCH  14  15
ENDBRANCH  13  14
ENDBRANCH  12  13
ENDBRANCH  11  12
ENDBRANCH  10  11
ENDBRANCH   9  10
ENDBRANCH   8   9
ENDBRANCH   7   8
ENDBRANCH   6   7
ENDBRANCH   5   6
ENDBRANCH   4   5
ENDBRANCH   3   4
ENDBRANCH   2   3
ENDBRANCH   1   2
BRANCH   1  18
ATOM     18  C   UNL     1      18.613 -13.605   9.112  1.00  0.00     0.000 C 
BRANCH  18  19
ATOM     19  C   UNL     1      18.097 -12.376   9.890  1.00  0.00     0.000 C 
BRANCH  19  20
ATOM     20  C   UNL     1      18.764 -11.064   9.444  1.00  0.00     0.000 C 
BRANCH  20  21
ATOM     21  C   UNL     1      18.043  -9.811   9.972  1.00  0.00     0.000 C 
BRANCH  21  22
ATOM     22  C   UNL     1      17.038 -10.097  11.107  1.00  0.00     0.000 C 
BRANCH  22  23
ATOM     23  C   UNL     1      15.598  -9.703  10.734  1.00  0.00     0.000 C 
BRANCH  23  24
ATOM     24  C   UNL     1      15.515  -8.947   9.400  1.00  0.00    -0.000 C 
BRANCH  24  25
ATOM     25  C   UNL     1      15.044  -7.491   9.566  1.00  0.00    -0.000 C 
BRANCH  25  26
ATOM     26  C   UNL     1      15.598  -6.563   8.474  1.00  0.00    -0.000 C 
BRANCH  26  27
ATOM     27  C   UNL     1      14.491  -5.875   7.660  1.00  0.00    -0.000 C 
BRANCH  27  28
ATOM     28  C   UNL     1      14.878  -4.430   7.318  1.00  0.00    -0.000 C 
BRANCH  28  29
ATOM     29  C   UNL     1      14.312  -3.449   8.357  1.00  0.00    -0.000 C 
BRANCH  29  30
ATOM     30  C   UNL     1      15.305  -3.177   9.506  1.00  0.00    -0.000 C 
BRANCH  30  31
ATOM     31  C   UNL     1      15.265  -1.730  10.027  1.00  0.00    -0.003 C 
ATOM     32  C   UNL     1      16.625  -1.036   9.968  1.00  0.00     0.004 C 
ENDBRANCH  30  31
ENDBRANCH  29  30
ENDBRANCH  28  29
ENDBRANCH  27  28
ENDBRANCH  26  27
ENDBRANCH  25  26
ENDBRANCH  24  25
ENDBRANCH  23  24
ENDBRANCH  22  23
ENDBRANCH  21  22
ENDBRANCH  20  21
ENDBRANCH  19  20
ENDBRANCH  18  19
ENDBRANCH   1  18
TORSDOF 28
ENDMDL
MODEL 4
REMARK VINA RESULT:     7.520      1.532      2.870
REMARK INTER + INTRA:          18.573
REMARK INTER:                  20.388
REMARK INTRA:                  -1.815
REMARK UNBOUND:                -1.257
REMARK SMILES CCCCCCCCCCCCCCCCCCCCCCCCCCCCCC(=O)[O-]
REMARK SMILES IDX 16 1 17 2 18 3 19 4 20 5 21 6 22 7 23 8 24 9 25 10 26 11
REMARK SMILES IDX 27 12 28 13 29 14 30 15 31 16 32 17 15 18 14 19 13 20 12 21
REMARK SMILES IDX 11 22 10 23 9 24 8 25 7 26 6 27 5 28 4 29 3 30 2 31 1 32
REMARK H PARENT
REMARK Flexibility Score: inf
ROOT
ATOM      1  C   UNL     1      18.695 -16.635  11.052  1.00  0.00     0.000 C 
ENDROOT
BRANCH   1   2
ATOM      2  C   UNL     1      18.399 -16.729   9.546  1.00  0.00     0.000 C 
BRANCH   2   3
ATOM      3  C   UNL     1      17.899 -15.399   8.956  1.00  0.00     0.000 C 
BRANCH   3   4
ATOM      4  C   UNL     1      18.568 -14.167   9.593  1.00  0.00     0.000 C 
BRANCH   4   5
ATOM      5  C   UNL     1      17.886 -12.817   9.295  1.00  0.00     0.000 C 
BRANCH   5   6
ATOM      6  C   UNL     1      18.454 -11.659  10.132  1.00  0.00     0.000 C 
BRANCH   6   7
ATOM      7  C   UNL     1      17.374 -10.898  10.925  1.00  0.00     0.000 C 
BRANCH   7   8
ATOM      8  C   UNL     1      16.450  -9.998  10.079  1.00  0.00     0.000 C 
BRANCH   8   9
ATOM      9  C   UNL     1      15.768  -8.848  10.846  1.00  0.00     0.000 C 
BRANCH   9  10
ATOM     10  C   UNL     1      15.167  -7.738   9.963  1.00  0.00     0.000 C 
BRANCH  10  11
ATOM     11  C   UNL     1      14.794  -8.231   8.555  1.00  0.00     0.000 C 
BRANCH  11  12
ATOM     12  C   UNL     1      14.842  -7.105   7.506  1.00  0.00     0.000 C 
BRANCH  12  13
ATOM     13  C   UNL     1      14.550  -5.701   8.068  1.00  0.00     0.006 C 
BRANCH  13  14
ATOM     14  C   UNL     1      15.475  -4.627   7.483  1.00  0.00     0.053 C 
BRANCH  14  15
ATOM     15  C   UNL     1      14.882  -4.050   6.235  1.00  0.00     0.041 C 
ATOM     16  O   UNL     1      13.675  -3.690   6.211  1.00  0.00    -0.550 OA
ATOM     17  O   UNL     1      15.654  -3.947   5.084  1.00  0.00    -0.550 OA
ENDBRANCH  14  15
ENDBRANCH  13  14
ENDBRANCH  12  13
ENDBRANCH  11  12
ENDBRANCH  10  11
ENDBRANCH   9  10
ENDBRANCH   8   9
ENDBRANCH   7   8
ENDBRANCH   6   7
ENDBRANCH   5   6
ENDBRANCH   4   5
ENDBRANCH   3   4
ENDBRANCH   2   3
ENDBRANCH   1   2
BRANCH   1  18
ATOM     18  C   UNL     1      19.017 -17.975  11.741  1.00  0.00     0.000 C 
BRANCH  18  19
ATOM     19  C   UNL     1      20.251 -17.923  12.668  1.00  0.00     0.000 C 
BRANCH  19  20
ATOM     20  C   UNL     1      21.393 -17.067  12.092  1.00  0.00     0.000 C 
BRANCH  20  21
ATOM     21  C   UNL     1      22.758 -17.376  12.734  1.00  0.00     0.000 C 
BRANCH  21  22
ATOM     22  C   UNL     1      22.971 -16.706  14.107  1.00  0.00     0.000 C 
BRANCH  22  23
ATOM     23  C   UNL     1      21.800 -15.791  14.506  1.00  0.00     0.000 C 
BRANCH  23  24
ATOM     24  C   UNL     1      21.829 -15.403  15.992  1.00  0.00    -0.000 C 
BRANCH  24  25
ATOM     25  C   UNL     1      21.454 -16.571  16.922  1.00  0.00    -0.000 C 
BRANCH  25  26
ATOM     26  C   UNL     1      20.127 -17.238  16.527  1.00  0.00    -0.000 C 
BRANCH  26  27
ATOM     27  C   UNL     1      18.899 -16.411  16.939  1.00  0.00    -0.000 C 
BRANCH  27  28
ATOM     28  C   UNL     1      18.286 -15.698  15.727  1.00  0.00    -0.000 C 
BRANCH  28  29
ATOM     29  C   UNL     1      17.469 -16.677  14.868  1.00  0.00    -0.000 C 
BRANCH  29  30
ATOM     30  C   UNL     1      16.813 -17.789  15.712  1.00  0.00    -0.000 C 
BRANCH  30  31
ATOM     31  C   UNL     1      15.853 -17.259  16.791  1.00  0.00    -0.003 C 
ATOM     32  C   UNL     1      14.439 -17.824  16.662  1.00  0.00     0.004 C 
ENDBRANCH  30  31
ENDBRANCH  29  30
ENDBRANCH  28  29
ENDBRANCH  27  28
ENDBRANCH  26  27
ENDBRANCH  25  26
ENDBRANCH  24  25
ENDBRANCH  23  24
ENDBRANCH  22  23
ENDBRANCH  21  22
ENDBRANCH  20  21
ENDBRANCH  19  20
ENDBRANCH  18  19
ENDBRANCH   1  18
TORSDOF 28
ENDMDL
MODEL 5
REMARK VINA RESULT:     7.537      3.771     10.033
REMARK INTER + INTRA:          18.618
REMARK INTER:                  21.012
REMARK INTRA:                  -2.394
REMARK UNBOUND:                -1.257
REMARK SMILES CCCCCCCCCCCCCCCCCCCCCCCCCCCCCC(=O)[O-]
REMARK SMILES IDX 16 1 17 2 18 3 19 4 20 5 21 6 22 7 23 8 24 9 25 10 26 11
REMARK SMILES IDX 27 12 28 13 29 14 30 15 31 16 32 17 15 18 14 19 13 20 12 21
REMARK SMILES IDX 11 22 10 23 9 24 8 25 7 26 6 27 5 28 4 29 3 30 2 31 1 32
REMARK H PARENT
REMARK Flexibility Score: inf
ROOT
ATOM      1  C   UNL     1      18.365 -18.121  10.656  1.00  0.00     0.000 C 
ENDROOT
BRANCH   1   2
ATOM      2  C   UNL     1      19.146 -17.791  11.938  1.00  0.00     0.000 C 
BRANCH   2   3
ATOM      3  C   UNL     1      18.731 -16.445  12.556  1.00  0.00     0.000 C 
BRANCH   3   4
ATOM      4  C   UNL     1      17.353 -16.495  13.241  1.00  0.00     0.000 C 
BRANCH   4   5
ATOM      5  C   UNL     1      17.093 -17.740  14.112  1.00  0.00     0.000 C 
BRANCH   5   6
ATOM      6  C   UNL     1      17.660 -17.606  15.536  1.00  0.00     0.000 C 
BRANCH   6   7
ATOM      7  C   UNL     1      19.105 -18.124  15.662  1.00  0.00     0.000 C 
BRANCH   7   8
ATOM      8  C   UNL     1      19.825 -17.751  16.975  1.00  0.00     0.000 C 
BRANCH   8   9
ATOM      9  C   UNL     1      20.878 -16.632  16.856  1.00  0.00     0.000 C 
BRANCH   9  10
ATOM     10  C   UNL     1      20.308 -15.214  16.664  1.00  0.00     0.000 C 
BRANCH  10  11
ATOM     11  C   UNL     1      20.820 -14.532  15.384  1.00  0.00     0.000 C 
BRANCH  11  12
ATOM     12  C   UNL     1      22.353 -14.385  15.369  1.00  0.00     0.000 C 
BRANCH  12  13
ATOM     13  C   UNL     1      23.100 -15.585  14.760  1.00  0.00     0.006 C 
BRANCH  13  14
ATOM     14  C   UNL     1      22.922 -15.681  13.239  1.00  0.00     0.053 C 
BRANCH  14  15
ATOM     15  C   UNL     1      22.930 -17.112  12.800  1.00  0.00     0.041 C 
ATOM     16  O   UNL     1      23.071 -17.404  11.583  1.00  0.00    -0.550 OA
ATOM     17  O   UNL     1      22.740 -18.125  13.733  1.00  0.00    -0.550 OA
ENDBRANCH  14  15
ENDBRANCH  13  14
ENDBRANCH  12  13
ENDBRANCH  11  12
ENDBRANCH  10  11
ENDBRANCH   9  10
ENDBRANCH   8   9
ENDBRANCH   7   8
ENDBRANCH   6   7
ENDBRANCH   5   6
ENDBRANCH   4   5
ENDBRANCH   3   4
ENDBRANCH   2   3
ENDBRANCH   1   2
BRANCH   1  18
ATOM     18  C   UNL     1      18.706 -17.244   9.436  1.00  0.00     0.000 C 
BRANCH  18  19
ATOM     19  C   UNL     1      17.503 -16.455   8.874  1.00  0.00     0.000 C 
BRANCH  19  20
ATOM     20  C   UNL     1      17.918 -15.135   8.202  1.00  0.00     0.000 C 
BRANCH  20  21
ATOM     21  C   UNL     1      18.629 -14.167   9.165  1.00  0.00     0.000 C 
BRANCH  21  22
ATOM     22  C   UNL     1      17.865 -12.850   9.410  1.00  0.00     0.000 C 
BRANCH  22  23
ATOM     23  C   UNL     1      18.802 -11.676   9.742  1.00  0.00     0.000 C 
BRANCH  23  24
ATOM     24  C   UNL     1      18.047 -10.357   9.966  1.00  0.00    -0.000 C 
BRANCH  24  25
ATOM     25  C   UNL     1      16.763 -10.537  10.795  1.00  0.00    -0.000 C 
BRANCH  25  26
ATOM     26  C   UNL     1      15.982  -9.224  10.965  1.00  0.00    -0.000 C 
BRANCH  26  27
ATOM     27  C   UNL     1      16.362  -8.166   9.917  1.00  0.00    -0.000 C 
BRANCH  27  28
ATOM     28  C   UNL     1      15.258  -8.018   8.862  1.00  0.00    -0.000 C 
BRANCH  28  29
ATOM     29  C   UNL     1      14.642  -6.610   8.904  1.00  0.00    -0.000 C 
BRANCH  29  30
ATOM     30  C   UNL     1      15.213  -5.689   7.806  1.00  0.00    -0.000 C 
BRANCH  30  31
ATOM     31  C   UNL     1      14.202  -4.659   7.276  1.00  0.00    -0.003 C 
ATOM     32  C   UNL     1      14.299  -3.307   7.982  1.00  0.00     0.004 C 
ENDBRANCH  30  31
ENDBRANCH  29  30
ENDBRANCH  28  29
ENDBRANCH  27  28
ENDBRANCH  26  27
ENDBRANCH  25  26
ENDBRANCH  24  25
ENDBRANCH  23  24
ENDBRANCH  22  23
ENDBRANCH  21  22
ENDBRANCH  20  21
ENDBRANCH  19  20
ENDBRANCH  18  19
ENDBRANCH   1  18
TORSDOF 28
ENDMDL
MODEL 6
REMARK VINA RESULT:     7.540      2.962      5.498
REMARK INTER + INTRA:          18.625
REMARK INTER:                  20.926
REMARK INTRA:                  -2.301
REMARK UNBOUND:                -1.257
REMARK SMILES CCCCCCCCCCCCCCCCCCCCCCCCCCCCCC(=O)[O-]
REMARK SMILES IDX 16 1 17 2 18 3 19 4 20 5 21 6 22 7 23 8 24 9 25 10 26 11
REMARK SMILES IDX 27 12 28 13 29 14 30 15 31 16 32 17 15 18 14 19 13 20 12 21
REMARK SMILES IDX 11 22 10 23 9 24 8 25 7 26 6 27 5 28 4 29 3 30 2 31 1 32
REMARK H PARENT
REMARK Flexibility Score: inf
ROOT
ATOM      1  C   UNL     1      18.277 -14.407  10.159  1.00  0.00     0.000 C 
ENDROOT
BRANCH   1   2
ATOM      2  C   UNL     1      18.158 -12.978   9.602  1.00  0.00     0.000 C 
BRANCH   2   3
ATOM      3  C   UNL     1      18.060 -11.916  10.711  1.00  0.00     0.000 C 
BRANCH   3   4
ATOM      4  C   UNL     1      17.742 -10.509  10.170  1.00  0.00     0.000 C 
BRANCH   4   5
ATOM      5  C   UNL     1      16.243 -10.178  10.034  1.00  0.00     0.000 C 
BRANCH   5   6
ATOM      6  C   UNL     1      15.928  -8.696  10.301  1.00  0.00     0.000 C 
BRANCH   6   7
ATOM      7  C   UNL     1      15.269  -7.992   9.100  1.00  0.00     0.000 C 
BRANCH   7   8
ATOM      8  C   UNL     1      15.268  -6.451   9.161  1.00  0.00     0.000 C 
BRANCH   8   9
ATOM      9  C   UNL     1      14.524  -5.745   8.010  1.00  0.00     0.000 C 
BRANCH   9  10
ATOM     10  C   UNL     1      15.308  -4.614   7.319  1.00  0.00     0.000 C 
BRANCH  10  11
ATOM     11  C   UNL     1      14.940  -3.219   7.852  1.00  0.00     0.000 C 
BRANCH  11  12
ATOM     12  C   UNL     1      15.017  -3.137   9.388  1.00  0.00     0.000 C 
BRANCH  12  13
ATOM     13  C   UNL     1      15.396  -1.746   9.930  1.00  0.00     0.006 C 
BRANCH  13  14
ATOM     14  C   UNL     1      16.909  -1.492   9.896  1.00  0.00     0.053 C 
BRANCH  14  15
ATOM     15  C   UNL     1      17.194  -0.097   9.432  1.00  0.00     0.041 C 
ATOM     16  O   UNL     1      17.401   0.822  10.269  1.00  0.00    -0.550 OA
ATOM     17  O   UNL     1      17.189   0.198   8.074  1.00  0.00    -0.550 OA
ENDBRANCH  14  15
ENDBRANCH  13  14
ENDBRANCH  12  13
ENDBRANCH  11  12
ENDBRANCH  10  11
ENDBRANCH   9  10
ENDBRANCH   8   9
ENDBRANCH   7   8
ENDBRANCH   6   7
ENDBRANCH   5   6
ENDBRANCH   4   5
ENDBRANCH   3   4
ENDBRANCH   2   3
ENDBRANCH   1   2
BRANCH   1  18
ATOM     18  C   UNL     1      18.516 -15.504   9.104  1.00  0.00     0.000 C 
BRANCH  18  19
ATOM     19  C   UNL     1      18.338 -16.940   9.642  1.00  0.00     0.000 C 
BRANCH  19  20
ATOM     20  C   UNL     1      18.844 -17.104  11.086  1.00  0.00     0.000 C 
BRANCH  20  21
ATOM     21  C   UNL     1      20.152 -17.908  11.177  1.00  0.00     0.000 C 
BRANCH  21  22
ATOM     22  C   UNL     1      20.870 -17.788  12.537  1.00  0.00     0.000 C 
BRANCH  22  23
ATOM     23  C   UNL     1      22.331 -17.327  12.396  1.00  0.00     0.000 C 
BRANCH  23  24
ATOM     24  C   UNL     1      22.784 -16.424  13.552  1.00  0.00    -0.000 C 
BRANCH  24  25
ATOM     25  C   UNL     1      21.751 -15.340  13.904  1.00  0.00    -0.000 C 
BRANCH  25  26
ATOM     26  C   UNL     1      21.824 -14.910  15.379  1.00  0.00    -0.000 C 
BRANCH  26  27
ATOM     27  C   UNL     1      22.194 -16.069  16.318  1.00  0.00    -0.000 C 
BRANCH  27  28
ATOM     28  C   UNL     1      20.957 -16.586  17.064  1.00  0.00    -0.000 C 
BRANCH  28  29
ATOM     29  C   UNL     1      20.463 -17.910  16.459  1.00  0.00    -0.000 C 
BRANCH  29  30
ATOM     30  C   UNL     1      19.054 -17.782  15.845  1.00  0.00    -0.000 C 
BRANCH  30  31
ATOM     31  C   UNL     1      18.571 -16.329  15.704  1.00  0.00    -0.003 C 
ATOM     32  C   UNL     1      17.718 -16.100  14.457  1.00  0.00     0.004 C 
ENDBRANCH  30  31
ENDBRANCH  29  30
ENDBRANCH  28  29
ENDBRANCH  27  28
ENDBRANCH  26  27
ENDBRANCH  25  26
ENDBRANCH  24  25
ENDBRANCH  23  24
ENDBRANCH  22  23
ENDBRANCH  21  22
ENDBRANCH  20  21
ENDBRANCH  19  20
ENDBRANCH  18  19
ENDBRANCH   1  18
TORSDOF 28
ENDMDL
MODEL 7
REMARK VINA RESULT:     7.909      3.969     11.655
REMARK INTER + INTRA:          19.598
REMARK INTER:                  20.857
REMARK INTRA:                  -1.259
REMARK UNBOUND:                -1.257
REMARK SMILES CCCCCCCCCCCCCCCCCCCCCCCCCCCCCC(=O)[O-]
REMARK SMILES IDX 16 1 17 2 18 3 19 4 20 5 21 6 22 7 23 8 24 9 25 10 26 11
REMARK SMILES IDX 27 12 28 13 29 14 30 15 31 16 32 17 15 18 14 19 13 20 12 21
REMARK SMILES IDX 11 22 10 23 9 24 8 25 7 26 6 27 5 28 4 29 3 30 2 31 1 32
REMARK H PARENT
REMARK Flexibility Score: inf
ROOT
ATOM      1  C   UNL     1      18.622 -14.257   9.240  1.00  0.00     0.000 C 
ENDROOT
BRANCH   1   2
ATOM      2  C   UNL     1      18.257 -15.706   9.605  1.00  0.00     0.000 C 
BRANCH   2   3
ATOM      3  C   UNL     1      19.466 -16.513  10.110  1.00  0.00     0.000 C 
BRANCH   3   4
ATOM      4  C   UNL     1      19.088 -17.564  11.170  1.00  0.00     0.000 C 
BRANCH   4   5
ATOM      5  C   UNL     1      20.259 -18.096  12.019  1.00  0.00     0.000 C 
BRANCH   5   6
ATOM      6  C   UNL     1      21.495 -17.181  11.979  1.00  0.00     0.000 C 
BRANCH   6   7
ATOM      7  C   UNL     1      22.739 -17.818  12.626  1.00  0.00     0.000 C 
BRANCH   7   8
ATOM      8  C   UNL     1      23.122 -17.255  14.010  1.00  0.00     0.000 C 
BRANCH   8   9
ATOM      9  C   UNL     1      22.372 -15.976  14.432  1.00  0.00     0.000 C 
BRANCH   9  10
ATOM     10  C   UNL     1      21.812 -15.989  15.866  1.00  0.00     0.000 C 
BRANCH  10  11
ATOM     11  C   UNL     1      21.994 -17.346  16.567  1.00  0.00     0.000 C 
BRANCH  11  12
ATOM     12  C   UNL     1      20.670 -18.120  16.704  1.00  0.00     0.000 C 
BRANCH  12  13
ATOM     13  C   UNL     1      19.409 -17.239  16.624  1.00  0.00     0.006 C 
BRANCH  13  14
ATOM     14  C   UNL     1      19.105 -16.772  15.195  1.00  0.00     0.053 C 
BRANCH  14  15
ATOM     15  C   UNL     1      17.627 -16.667  14.982  1.00  0.00     0.041 C 
ATOM     16  O   UNL     1      17.101 -15.554  14.712  1.00  0.00    -0.550 OA
ATOM     17  O   UNL     1      16.823 -17.791  15.123  1.00  0.00    -0.550 OA
ENDBRANCH  14  15
ENDBRANCH  13  14
ENDBRANCH  12  13
ENDBRANCH  11  12
ENDBRANCH  10  11
ENDBRANCH   9  10
ENDBRANCH   8   9
ENDBRANCH   7   8
ENDBRANCH   6   7
ENDBRANCH   5   6
ENDBRANCH   4   5
ENDBRANCH   3   4
ENDBRANCH   2   3
ENDBRANCH   1   2
BRANCH   1  18
ATOM     18  C   UNL     1      18.112 -13.185  10.222  1.00  0.00     0.000 C 
BRANCH  18  19
ATOM     19  C   UNL     1      18.192 -11.744   9.674  1.00  0.00     0.000 C 
BRANCH  19  20
ATOM     20  C   UNL     1      17.658 -10.698  10.668  1.00  0.00     0.000 C 
BRANCH  20  21
ATOM     21  C   UNL     1      16.205 -10.279  10.377  1.00  0.00     0.000 C 
BRANCH  21  22
ATOM     22  C   UNL     1      16.044  -8.790  10.006  1.00  0.00     0.000 C 
BRANCH  22  23
ATOM     23  C   UNL     1      15.221  -8.587   8.722  1.00  0.00     0.000 C 
BRANCH  23  24
ATOM     24  C   UNL     1      14.343  -7.329   8.771  1.00  0.00    -0.000 C 
BRANCH  24  25
ATOM     25  C   UNL     1      15.159  -6.036   8.944  1.00  0.00    -0.000 C 
BRANCH  25  26
ATOM     26  C   UNL     1      15.213  -5.195   7.658  1.00  0.00    -0.000 C 
BRANCH  26  27
ATOM     27  C   UNL     1      14.620  -3.789   7.841  1.00  0.00    -0.000 C 
BRANCH  27  28
ATOM     28  C   UNL     1      15.560  -2.901   8.667  1.00  0.00    -0.000 C 
BRANCH  28  29
ATOM     29  C   UNL     1      14.815  -2.259   9.848  1.00  0.00    -0.000 C 
BRANCH  29  30
ATOM     30  C   UNL     1      15.485  -0.952  10.321  1.00  0.00    -0.000 C 
BRANCH  30  31
ATOM     31  C   UNL     1      16.809  -0.641   9.603  1.00  0.00    -0.003 C 
ATOM     32  C   UNL     1      17.537   0.568  10.187  1.00  0.00     0.004 C 
ENDBRANCH  30  31
ENDBRANCH  29  30
ENDBRANCH  28  29
ENDBRANCH  27  28
ENDBRANCH  26  27
ENDBRANCH  25  26
ENDBRANCH  24  25
ENDBRANCH  23  24
ENDBRANCH  22  23
ENDBRANCH  21  22
ENDBRANCH  20  21
ENDBRANCH  19  20
ENDBRANCH  18  19
ENDBRANCH   1  18
TORSDOF 28
ENDMDL
MODEL 8
REMARK VINA RESULT:     8.036      3.456      6.434
REMARK INTER + INTRA:          19.933
REMARK INTER:                  21.207
REMARK INTRA:                  -1.274
REMARK UNBOUND:                -1.257
REMARK SMILES CCCCCCCCCCCCCCCCCCCCCCCCCCCCCC(=O)[O-]
REMARK SMILES IDX 16 1 17 2 18 3 19 4 20 5 21 6 22 7 23 8 24 9 25 10 26 11
REMARK SMILES IDX 27 12 28 13 29 14 30 15 31 16 32 17 15 18 14 19 13 20 12 21
REMARK SMILES IDX 11 22 10 23 9 24 8 25 7 26 6 27 5 28 4 29 3 30 2 31 1 32
REMARK H PARENT
REMARK Flexibility Score: inf
ROOT
ATOM      1  C   UNL     1      17.945 -14.125   9.962  1.00  0.00     0.000 C 
ENDROOT
BRANCH   1   2
ATOM      2  C   UNL     1      18.346 -12.680   9.622  1.00  0.00     0.000 C 
BRANCH   2   3
ATOM      3  C   UNL     1      17.768 -11.655  10.613  1.00  0.00     0.000 C 
BRANCH   3   4
ATOM      4  C   UNL     1      17.541 -10.269   9.982  1.00  0.00     0.000 C 
BRANCH   4   5
ATOM      5  C   UNL     1      16.155  -9.646  10.237  1.00  0.00     0.000 C 
BRANCH   5   6
ATOM      6  C   UNL     1      16.031  -8.211   9.698  1.00  0.00     0.000 C 
BRANCH   6   7
ATOM      7  C   UNL     1      14.735  -7.973   8.902  1.00  0.00     0.000 C 
BRANCH   7   8
ATOM      8  C   UNL     1      14.694  -6.663   8.088  1.00  0.00     0.000 C 
BRANCH   8   9
ATOM      9  C   UNL     1      15.527  -5.501   8.665  1.00  0.00     0.000 C 
BRANCH   9  10
ATOM     10  C   UNL     1      14.865  -4.114   8.579  1.00  0.00     0.000 C 
BRANCH  10  11
ATOM     11  C   UNL     1      14.960  -3.324   9.895  1.00  0.00     0.000 C 
BRANCH  11  12
ATOM     12  C   UNL     1      15.227  -1.825   9.663  1.00  0.00     0.000 C 
BRANCH  12  13
ATOM     13  C   UNL     1      16.718  -1.439   9.657  1.00  0.00     0.006 C 
BRANCH  13  14
ATOM     14  C   UNL     1      17.078  -0.494   8.504  1.00  0.00     0.053 C 
BRANCH  14  15
ATOM     15  C   UNL     1      17.560   0.820   9.036  1.00  0.00     0.041 C 
ATOM     16  O   UNL     1      17.989   1.706   8.250  1.00  0.00    -0.550 OA
ATOM     17  O   UNL     1      17.573   1.052  10.406  1.00  0.00    -0.550 OA
ENDBRANCH  14  15
ENDBRANCH  13  14
ENDBRANCH  12  13
ENDBRANCH  11  12
ENDBRANCH  10  11
ENDBRANCH   9  10
ENDBRANCH   8   9
ENDBRANCH   7   8
ENDBRANCH   6   7
ENDBRANCH   5   6
ENDBRANCH   4   5
ENDBRANCH   3   4
ENDBRANCH   2   3
ENDBRANCH   1   2
BRANCH   1  18
ATOM     18  C   UNL     1      18.683 -15.216   9.164  1.00  0.00     0.000 C 
BRANCH  18  19
ATOM     19  C   UNL     1      17.884 -16.528   9.007  1.00  0.00     0.000 C 
BRANCH  19  20
ATOM     20  C   UNL     1      17.990 -17.441  10.241  1.00  0.00     0.000 C 
BRANCH  20  21
ATOM     21  C   UNL     1      16.651 -18.100  10.619  1.00  0.00     0.000 C 
BRANCH  21  22
ATOM     22  C   UNL     1      16.310 -18.013  12.121  1.00  0.00     0.000 C 
BRANCH  22  23
ATOM     23  C   UNL     1      17.557 -18.125  13.016  1.00  0.00     0.000 C 
BRANCH  23  24
ATOM     24  C   UNL     1      17.359 -17.475  14.394  1.00  0.00    -0.000 C 
BRANCH  24  25
ATOM     25  C   UNL     1      17.858 -16.020  14.446  1.00  0.00    -0.000 C 
BRANCH  25  26
ATOM     26  C   UNL     1      18.646 -15.621  13.187  1.00  0.00    -0.000 C 
BRANCH  26  27
ATOM     27  C   UNL     1      20.106 -15.250  13.493  1.00  0.00    -0.000 C 
BRANCH  27  28
ATOM     28  C   UNL     1      20.343 -15.156  15.005  1.00  0.00    -0.000 C 
BRANCH  28  29
ATOM     29  C   UNL     1      20.575 -16.548  15.614  1.00  0.00    -0.000 C 
BRANCH  29  30
ATOM     30  C   UNL     1      22.069 -16.934  15.638  1.00  0.00    -0.000 C 
BRANCH  30  31
ATOM     31  C   UNL     1      22.608 -17.402  14.276  1.00  0.00    -0.003 C 
ATOM     32  C   UNL     1      21.541 -18.067  13.407  1.00  0.00     0.004 C 
ENDBRANCH  30  31
ENDBRANCH  29  30
ENDBRANCH  28  29
ENDBRANCH  27  28
ENDBRANCH  26  27
ENDBRANCH  25  26
ENDBRANCH  24  25
ENDBRANCH  23  24
ENDBRANCH  22  23
ENDBRANCH  21  22
ENDBRANCH  20  21
ENDBRANCH  19  20
ENDBRANCH  18  19
ENDBRANCH   1  18
TORSDOF 28
ENDMDL
MODEL 9
REMARK VINA RESULT:     8.127      3.207     10.360
REMARK INTER + INTRA:          20.173
REMARK INTER:                  19.214
REMARK INTRA:                   0.959
REMARK UNBOUND:                -1.257
REMARK SMILES CCCCCCCCCCCCCCCCCCCCCCCCCCCCCC(=O)[O-]
REMARK SMILES IDX 16 1 17 2 18 3 19 4 20 5 21 6 22 7 23 8 24 9 25 10 26 11
REMARK SMILES IDX 27 12 28 13 29 14 30 15 31 16 32 17 15 18 14 19 13 20 12 21
REMARK SMILES IDX 11 22 10 23 9 24 8 25 7 26 6 27 5 28 4 29 3 30 2 31 1 32
REMARK H PARENT
REMARK Flexibility Score: inf
ROOT
ATOM      1  C   UNL     1      19.426 -17.072  10.229  1.00  0.00     0.000 C 
ENDROOT
BRANCH   1   2
ATOM      2  C   UNL     1      18.971 -18.017  11.353  1.00  0.00     0.000 C 
BRANCH   2   3
ATOM      3  C   UNL     1      17.902 -17.387  12.262  1.00  0.00     0.000 C 
BRANCH   3   4
ATOM      4  C   UNL     1      17.753 -18.113  13.612  1.00  0.00     0.000 C 
BRANCH   4   5
ATOM      5  C   UNL     1      17.056 -17.305  14.724  1.00  0.00     0.000 C 
BRANCH   5   6
ATOM      6  C   UNL     1      17.952 -17.075  15.952  1.00  0.00     0.000 C 
BRANCH   6   7
ATOM      7  C   UNL     1      19.238 -17.923  15.930  1.00  0.00     0.000 C 
BRANCH   7   8
ATOM      8  C   UNL     1      20.526 -17.174  16.331  1.00  0.00     0.000 C 
BRANCH   8   9
ATOM      9  C   UNL     1      21.718 -18.072  16.715  1.00  0.00     0.000 C 
BRANCH   9  10
ATOM     10  C   UNL     1      22.858 -18.125  15.680  1.00  0.00     0.000 C 
BRANCH  10  11
ATOM     11  C   UNL     1      22.392 -17.768  14.259  1.00  0.00     0.000 C 
BRANCH  11  12
ATOM     12  C   UNL     1      23.041 -16.473  13.735  1.00  0.00     0.000 C 
BRANCH  12  13
ATOM     13  C   UNL     1      22.921 -15.272  14.691  1.00  0.00     0.006 C 
BRANCH  13  14
ATOM     14  C   UNL     1      21.464 -14.926  15.025  1.00  0.00     0.053 C 
BRANCH  14  15
ATOM     15  C   UNL     1      20.589 -15.140  13.829  1.00  0.00     0.041 C 
ATOM     16  O   UNL     1      21.033 -15.742  12.815  1.00  0.00    -0.550 OA
ATOM     17  O   UNL     1      19.293 -14.638  13.819  1.00  0.00    -0.550 OA
ENDBRANCH  14  15
ENDBRANCH  13  14
ENDBRANCH  12  13
ENDBRANCH  11  12
ENDBRANCH  10  11
ENDBRANCH   9  10
ENDBRANCH   8   9
ENDBRANCH   7   8
ENDBRANCH   6   7
ENDBRANCH   5   6
ENDBRANCH   4   5
ENDBRANCH   3   4
ENDBRANCH   2   3
ENDBRANCH   1   2
BRANCH   1  18
ATOM     18  C   UNL     1      18.316 -16.624   9.259  1.00  0.00     0.000 C 
BRANCH  18  19
ATOM     19  C   UNL     1      18.420 -15.146   8.826  1.00  0.00     0.000 C 
BRANCH  19  20
ATOM     20  C   UNL     1      18.529 -14.181  10.019  1.00  0.00     0.000 C 
BRANCH  20  21
ATOM     21  C   UNL     1      18.781 -12.723   9.593  1.00  0.00     0.000 C 
BRANCH  21  22
ATOM     22  C   UNL     1      17.558 -11.799   9.766  1.00  0.00     0.000 C 
BRANCH  22  23
ATOM     23  C   UNL     1      17.956 -10.347  10.085  1.00  0.00     0.000 C 
BRANCH  23  24
ATOM     24  C   UNL     1      16.932  -9.632  10.979  1.00  0.00    -0.000 C 
BRANCH  24  25
ATOM     25  C   UNL     1      16.203  -8.487  10.254  1.00  0.00    -0.000 C 
BRANCH  25  26
ATOM     26  C   UNL     1      15.089  -8.991   9.322  1.00  0.00    -0.000 C 
BRANCH  26  27
ATOM     27  C   UNL     1      14.244  -7.850   8.734  1.00  0.00    -0.000 C 
BRANCH  27  28
ATOM     28  C   UNL     1      15.135  -6.797   8.063  1.00  0.00    -0.000 C 
BRANCH  28  29
ATOM     29  C   UNL     1      14.293  -5.640   7.501  1.00  0.00    -0.000 C 
BRANCH  29  30
ATOM     30  C   UNL     1      15.165  -4.462   7.019  1.00  0.00    -0.000 C 
BRANCH  30  31
ATOM     31  C   UNL     1      15.117  -4.240   5.498  1.00  0.00    -0.003 C 
ATOM     32  C   UNL     1      15.691  -2.889   5.073  1.00  0.00     0.004 C 
ENDBRANCH  30  31
ENDBRANCH  29  30
ENDBRANCH  28  29
ENDBRANCH  27  28
ENDBRANCH  26  27
ENDBRANCH  25  26
ENDBRANCH  24  25
ENDBRANCH  23  24
ENDBRANCH  22  23
ENDBRANCH  21  22
ENDBRANCH  20  21
ENDBRANCH  19  20
ENDBRANCH  18  19
ENDBRANCH   1  18
TORSDOF 28
ENDMDL
