MODEL 1
REMARK VINA RESULT:   181.839      0.000      0.000
REMARK INTER + INTRA:         286.951
REMARK INTER:                 288.142
REMARK INTRA:                  -1.192
REMARK UNBOUND:                -1.192
REMARK SMILES C[C@@H]1O[C@H](O[C@H]2CC[C@@]3(C)[C@@H](CC[C@]4(C)[C@@H]3C=C[C@@]35OC[C@]6(CCC(C)(C)C[C@H]63)[C@@H](O)C[C@]45C)[C@]2(C)CO)[C@H](O)[C@H](O[C@H]2O[C@@H](CO)[C@H](O)[C@@H](O)[C@@H]2O)[C@H]1O
REMARK SMILES IDX 1 1 2 2 54 3 41 4 39 5 4 6 3 7 55 8 42 10 43 11 52 12 44 13
REMARK SMILES IDX 50 14 45 15 48 16 53 17 51 19 46 21 47 22 49 24 5 26 6 27
REMARK SMILES IDX 7 28 35 29 8 30 11 31 36 32 9 33 12 34 10 35 16 36 13 37
REMARK SMILES IDX 14 38 17 39 15 40 33 41 18 42 19 43 32 44 34 45 29 46 20 47
REMARK SMILES IDX 30 48 22 49 28 50 21 51 23 52 25 53 24 54 26 55 27 56 37 57
REMARK SMILES IDX 38 58 31 60 40 62
REMARK H PARENT 55 9 53 18 51 20 47 23 49 25 38 59 31 61 40 63
REMARK Flexibility Score: inf
ROOT
ATOM      1  C   UNL     1       7.515   1.431  27.367  1.00  0.00     0.041 C 
ATOM      2  C   UNL     1       7.018   1.937  28.735  1.00  0.00     0.150 C 
ATOM      3  C   UNL     1       6.377   0.834  29.641  1.00  0.00     0.175 C 
ATOM      4  C   UNL     1       7.257   0.454  30.852  1.00  0.00     0.186 C 
ATOM      5  C   UNL     1       8.728   0.502  30.422  1.00  0.00     0.202 C 
ATOM      6  C   UNL     1       9.067   1.955  29.994  1.00  0.00     0.282 C 
ATOM      7  O   UNL     1       8.009   2.704  29.403  1.00  0.00    -0.344 OA
ENDROOT
BRANCH   3   8
ATOM      8  O   UNL     1       5.099   1.236  30.084  1.00  0.00    -0.388 OA
ATOM      9  H   UNL     1       5.006   0.939  31.028  1.00  0.00     0.211 HD
ENDBRANCH   3   8
BRANCH   4  10
ATOM     10  O   UNL     1       6.843  -0.828  31.317  1.00  0.00    -0.341 OA
BRANCH  10  11
ATOM     11  C   UNL     1       5.699  -0.848  32.171  1.00  0.00     0.282 C 
ATOM     12  C   UNL     1       5.940  -1.429  33.598  1.00  0.00     0.202 C 
ATOM     13  O   UNL     1       4.601  -1.454  31.508  1.00  0.00    -0.341 OA
ATOM     14  C   UNL     1       4.700  -1.211  34.497  1.00  0.00     0.179 C 
ATOM     15  C   UNL     1       3.425  -1.631  32.299  1.00  0.00     0.178 C 
ATOM     16  C   UNL     1       3.419  -0.918  33.682  1.00  0.00     0.177 C 
BRANCH  12  17
ATOM     17  O   UNL     1       7.049  -0.829  34.224  1.00  0.00    -0.385 OA
ATOM     18  H   UNL     1       7.080   0.126  33.950  1.00  0.00     0.211 HD
ENDBRANCH  12  17
BRANCH  14  19
ATOM     19  O   UNL     1       4.511  -2.346  35.307  1.00  0.00    -0.387 OA
ATOM     20  H   UNL     1       3.942  -2.976  34.798  1.00  0.00     0.211 HD
ENDBRANCH  14  19
BRANCH  15  21
ATOM     21  C   UNL     1       3.131  -3.133  32.435  1.00  0.00     0.191 C 
BRANCH  21  22
ATOM     22  O   UNL     1       1.879  -3.328  33.041  1.00  0.00    -0.394 OA
ATOM     23  H   UNL     1       1.212  -2.836  32.496  1.00  0.00     0.210 HD
ENDBRANCH  21  22
ENDBRANCH  15  21
BRANCH  16  24
ATOM     24  O   UNL     1       3.296   0.470  33.490  1.00  0.00    -0.387 OA
ATOM     25  H   UNL     1       3.599   0.915  34.325  1.00  0.00     0.211 HD
ENDBRANCH  16  24
ENDBRANCH  10  11
ENDBRANCH   4  10
BRANCH   6  26
ATOM     26  O   UNL     1      10.209   1.985  29.152  1.00  0.00    -0.346 OA
BRANCH  26  27
ATOM     27  C   UNL     1      11.386   2.332  29.878  1.00  0.00     0.130 C 
ATOM     28  C   UNL     1      12.244   1.059  30.073  1.00  0.00     0.033 C 
ATOM     29  C   UNL     1      12.194   3.501  29.168  1.00  0.00     0.020 C 
ATOM     30  C   UNL     1      12.754   0.469  28.745  1.00  0.00     0.010 C 
ATOM     31  C   UNL     1      13.435   2.918  28.379  1.00  0.00     0.006 C 
ATOM     32  C   UNL     1      11.246   4.333  28.262  1.00  0.00     0.017 C 
ATOM     33  C   UNL     1      13.201   1.528  27.667  1.00  0.00    -0.022 C 
ATOM     34  C   UNL     1      14.343   3.942  27.614  1.00  0.00     0.005 C 
ATOM     35  C   UNL     1      12.111   1.584  26.573  1.00  0.00     0.012 C 
ATOM     36  C   UNL     1      14.603   1.115  27.084  1.00  0.00     0.024 C 
ATOM     37  C   UNL     1      14.839   3.529  26.214  1.00  0.00     0.008 C 
ATOM     38  C   UNL     1      15.271   2.033  26.002  1.00  0.00    -0.017 C 
ATOM     39  C   UNL     1      14.864  -0.333  26.680  1.00  0.00    -0.024 C 
ATOM     40  C   UNL     1      14.677   1.636  24.587  1.00  0.00     0.013 C 
ATOM     41  C   UNL     1      16.905   1.752  26.030  1.00  0.00     0.009 C 
ATOM     42  C   UNL     1      16.144  -0.673  26.381  1.00  0.00     0.005 C 
ATOM     43  C   UNL     1      17.243   0.328  26.726  1.00  0.00     0.096 C 
ATOM     44  C   UNL     1      17.744   2.809  26.829  1.00  0.00     0.043 C 
ATOM     45  C   UNL     1      17.445   1.834  24.555  1.00  0.00     0.015 C 
ATOM     46  C   UNL     1      18.714  -0.073  26.447  1.00  0.00     0.037 C 
ATOM     47  O   UNL     1      17.186   0.444  28.155  1.00  0.00    -0.369 OA
ATOM     48  C   UNL     1      19.232   2.367  27.105  1.00  0.00     0.124 C 
ATOM     49  C   UNL     1      19.384   0.842  27.482  1.00  0.00     0.026 C 
ATOM     50  C   UNL     1      18.999  -1.582  26.696  1.00  0.00     0.014 C 
ATOM     51  C   UNL     1      18.481   0.601  28.674  1.00  0.00     0.171 C 
ATOM     52  C   UNL     1      20.866   0.481  27.768  1.00  0.00     0.013 C 
ATOM     53  C   UNL     1      20.504  -1.912  26.879  1.00  0.00    -0.035 C 
ATOM     54  C   UNL     1      21.111  -1.021  27.993  1.00  0.00     0.007 C 
ATOM     55  C   UNL     1      20.638  -3.389  27.304  1.00  0.00     0.011 C 
ATOM     56  C   UNL     1      21.276  -1.724  25.551  1.00  0.00     0.011 C 
BRANCH  29  57
ATOM     57  C   UNL     1      12.706   4.488  30.269  1.00  0.00     0.165 C 
BRANCH  57  58
ATOM     58  O   UNL     1      12.147   5.765  30.116  1.00  0.00    -0.396 OA
ATOM     59  H   UNL     1      11.788   5.807  29.193  1.00  0.00     0.210 HD
ENDBRANCH  57  58
ENDBRANCH  29  57
BRANCH  48  60
ATOM     60  O   UNL     1      20.044   2.695  26.008  1.00  0.00    -0.392 OA
ATOM     61  H   UNL     1      19.457   2.792  25.211  1.00  0.00     0.210 HD
ENDBRANCH  48  60
ENDBRANCH  26  27
ENDBRANCH   6  26
BRANCH   5  62
ATOM     62  O   UNL     1       8.994  -0.420  29.396  1.00  0.00    -0.385 OA
ATOM     63  H   UNL     1       8.414  -1.205  29.562  1.00  0.00     0.211 HD
ENDBRANCH   5  62
TORSDOF 14
ENDMDL
MODEL 2
REMARK VINA RESULT:   182.685      6.548     14.078
REMARK INTER + INTRA:         288.292
REMARK INTER:                 283.911
REMARK INTRA:                   4.381
REMARK UNBOUND:                -1.192
REMARK SMILES C[C@@H]1O[C@H](O[C@H]2CC[C@@]3(C)[C@@H](CC[C@]4(C)[C@@H]3C=C[C@@]35OC[C@]6(CCC(C)(C)C[C@H]63)[C@@H](O)C[C@]45C)[C@]2(C)CO)[C@H](O)[C@H](O[C@H]2O[C@@H](CO)[C@H](O)[C@@H](O)[C@@H]2O)[C@H]1O
REMARK SMILES IDX 1 1 2 2 54 3 41 4 39 5 4 6 3 7 55 8 42 10 43 11 52 12 44 13
REMARK SMILES IDX 50 14 45 15 48 16 53 17 51 19 46 21 47 22 49 24 5 26 6 27
REMARK SMILES IDX 7 28 35 29 8 30 11 31 36 32 9 33 12 34 10 35 16 36 13 37
REMARK SMILES IDX 14 38 17 39 15 40 33 41 18 42 19 43 32 44 34 45 29 46 20 47
REMARK SMILES IDX 30 48 22 49 28 50 21 51 23 52 25 53 24 54 26 55 27 56 37 57
REMARK SMILES IDX 38 58 31 60 40 62
REMARK H PARENT 55 9 53 18 51 20 47 23 49 25 38 59 31 61 40 63
REMARK Flexibility Score: inf
ROOT
ATOM      1  C   UNL     1      17.433  11.738  26.266  1.00  0.00     0.041 C 
ATOM      2  C   UNL     1      17.507  12.482  24.917  1.00  0.00     0.150 C 
ATOM      3  C   UNL     1      18.191  11.672  23.767  1.00  0.00     0.175 C 
ATOM      4  C   UNL     1      17.197  11.191  22.686  1.00  0.00     0.186 C 
ATOM      5  C   UNL     1      15.876  10.816  23.369  1.00  0.00     0.202 C 
ATOM      6  C   UNL     1      15.298  12.085  24.050  1.00  0.00     0.282 C 
ATOM      7  O   UNL     1      16.247  13.024  24.548  1.00  0.00    -0.344 OA
ENDROOT
BRANCH   3   8
ATOM      8  O   UNL     1      19.219  12.430  23.169  1.00  0.00    -0.388 OA
ATOM      9  H   UNL     1      18.886  12.734  22.283  1.00  0.00     0.211 HD
ENDBRANCH   3   8
BRANCH   4  10
ATOM     10  O   UNL     1      17.799  10.109  21.980  1.00  0.00    -0.341 OA
BRANCH  10  11
ATOM     11  C   UNL     1      19.226  10.099  21.943  1.00  0.00     0.282 C 
ATOM     12  C   UNL     1      19.858  10.185  20.519  1.00  0.00     0.202 C 
ATOM     13  O   UNL     1      19.729   9.013  22.704  1.00  0.00    -0.341 OA
ATOM     14  C   UNL     1      21.391  10.376  20.609  1.00  0.00     0.179 C 
ATOM     15  C   UNL     1      21.146   8.832  22.656  1.00  0.00     0.178 C 
ATOM     16  C   UNL     1      21.959   9.980  21.993  1.00  0.00     0.177 C 
BRANCH  12  17
ATOM     17  O   UNL     1      19.325  11.254  19.776  1.00  0.00    -0.385 OA
ATOM     18  H   UNL     1      19.582  11.127  18.824  1.00  0.00     0.211 HD
ENDBRANCH  12  17
BRANCH  14  19
ATOM     19  O   UNL     1      22.011   9.622  19.597  1.00  0.00    -0.387 OA
ATOM     20  H   UNL     1      22.102  10.213  18.807  1.00  0.00     0.211 HD
ENDBRANCH  14  19
BRANCH  15  21
ATOM     21  C   UNL     1      21.457   7.471  22.013  1.00  0.00     0.191 C 
BRANCH  21  22
ATOM     22  O   UNL     1      20.662   7.286  20.869  1.00  0.00    -0.394 OA
ATOM     23  H   UNL     1      20.454   8.186  20.510  1.00  0.00     0.210 HD
ENDBRANCH  21  22
ENDBRANCH  15  21
BRANCH  16  24
ATOM     24  O   UNL     1      21.954  11.104  22.838  1.00  0.00    -0.387 OA
ATOM     25  H   UNL     1      21.618  11.874  22.308  1.00  0.00     0.211 HD
ENDBRANCH  16  24
ENDBRANCH  10  11
ENDBRANCH   4  10
BRANCH   6  26
ATOM     26  O   UNL     1      14.379  11.740  25.074  1.00  0.00    -0.346 OA
BRANCH  26  27
ATOM     27  C   UNL     1      13.402  10.810  24.609  1.00  0.00     0.130 C 
ATOM     28  C   UNL     1      14.063   9.418  24.474  1.00  0.00     0.033 C 
ATOM     29  C   UNL     1      12.121  10.781  25.548  1.00  0.00     0.020 C 
ATOM     30  C   UNL     1      14.545   8.849  25.822  1.00  0.00     0.010 C 
ATOM     31  C   UNL     1      12.162   9.521  26.503  1.00  0.00     0.006 C 
ATOM     32  C   UNL     1      11.998  12.119  26.326  1.00  0.00     0.017 C 
ATOM     33  C   UNL     1      13.590   9.120  27.046  1.00  0.00    -0.022 C 
ATOM     34  C   UNL     1      10.967   9.341  27.503  1.00  0.00     0.005 C 
ATOM     35  C   UNL     1      14.236  10.219  27.920  1.00  0.00     0.012 C 
ATOM     36  C   UNL     1      13.375   7.780  27.843  1.00  0.00     0.024 C 
ATOM     37  C   UNL     1      11.315   8.881  28.933  1.00  0.00     0.008 C 
ATOM     38  C   UNL     1      12.437   7.793  29.100  1.00  0.00    -0.017 C 
ATOM     39  C   UNL     1      14.568   6.888  28.170  1.00  0.00    -0.024 C 
ATOM     40  C   UNL     1      13.290   8.280  30.344  1.00  0.00     0.013 C 
ATOM     41  C   UNL     1      11.898   6.246  29.353  1.00  0.00     0.009 C 
ATOM     42  C   UNL     1      14.302   5.656  28.672  1.00  0.00     0.005 C 
ATOM     43  C   UNL     1      12.857   5.164  28.618  1.00  0.00     0.096 C 
ATOM     44  C   UNL     1      10.457   5.951  28.810  1.00  0.00     0.043 C 
ATOM     45  C   UNL     1      11.808   6.001  30.904  1.00  0.00     0.015 C 
ATOM     46  C   UNL     1      12.550   3.734  29.132  1.00  0.00     0.037 C 
ATOM     47  O   UNL     1      12.554   5.096  27.218  1.00  0.00    -0.369 OA
ATOM     48  C   UNL     1      10.087   4.418  28.780  1.00  0.00     0.124 C 
ATOM     49  C   UNL     1      11.273   3.485  28.316  1.00  0.00     0.026 C 
ATOM     50  C   UNL     1      13.679   2.711  28.819  1.00  0.00     0.014 C 
ATOM     51  C   UNL     1      11.719   3.997  26.961  1.00  0.00     0.171 C 
ATOM     52  C   UNL     1      10.834   1.997  28.281  1.00  0.00     0.013 C 
ATOM     53  C   UNL     1      13.219   1.231  28.892  1.00  0.00    -0.035 C 
ATOM     54  C   UNL     1      11.981   1.015  27.985  1.00  0.00     0.007 C 
ATOM     55  C   UNL     1      14.365   0.333  28.381  1.00  0.00     0.011 C 
ATOM     56  C   UNL     1      12.904   0.822  30.351  1.00  0.00     0.011 C 
BRANCH  29  57
ATOM     57  C   UNL     1      10.846  10.696  24.644  1.00  0.00     0.165 C 
BRANCH  57  58
ATOM     58  O   UNL     1      11.013  11.412  23.450  1.00  0.00    -0.396 OA
ATOM     59  H   UNL     1      11.001  12.373  23.694  1.00  0.00     0.210 HD
ENDBRANCH  57  58
ENDBRANCH  29  57
BRANCH  48  60
ATOM     60  O   UNL     1       9.594   4.015  30.031  1.00  0.00    -0.392 OA
ATOM     61  H   UNL     1      10.254   4.290  30.722  1.00  0.00     0.210 HD
ENDBRANCH  48  60
ENDBRANCH  26  27
ENDBRANCH   6  26
BRANCH   5  62
ATOM     62  O   UNL     1      16.050   9.765  24.284  1.00  0.00    -0.385 OA
ATOM     63  H   UNL     1      15.488   9.977  25.071  1.00  0.00     0.211 HD
ENDBRANCH   5  62
TORSDOF 14
ENDMDL
MODEL 3
REMARK VINA RESULT:   182.982      4.682      6.914
REMARK INTER + INTRA:         288.762
REMARK INTER:                 280.140
REMARK INTRA:                   8.622
REMARK UNBOUND:                -1.192
REMARK SMILES C[C@@H]1O[C@H](O[C@H]2CC[C@@]3(C)[C@@H](CC[C@]4(C)[C@@H]3C=C[C@@]35OC[C@]6(CCC(C)(C)C[C@H]63)[C@@H](O)C[C@]45C)[C@]2(C)CO)[C@H](O)[C@H](O[C@H]2O[C@@H](CO)[C@H](O)[C@@H](O)[C@@H]2O)[C@H]1O
REMARK SMILES IDX 1 1 2 2 54 3 41 4 39 5 4 6 3 7 55 8 42 10 43 11 52 12 44 13
REMARK SMILES IDX 50 14 45 15 48 16 53 17 51 19 46 21 47 22 49 24 5 26 6 27
REMARK SMILES IDX 7 28 35 29 8 30 11 31 36 32 9 33 12 34 10 35 16 36 13 37
REMARK SMILES IDX 14 38 17 39 15 40 33 41 18 42 19 43 32 44 34 45 29 46 20 47
REMARK SMILES IDX 30 48 22 49 28 50 21 51 23 52 25 53 24 54 26 55 27 56 37 57
REMARK SMILES IDX 38 58 31 60 40 62
REMARK H PARENT 55 9 53 18 51 20 47 23 49 25 38 59 31 61 40 63
REMARK Flexibility Score: inf
ROOT
ATOM      1  C   UNL     1       7.012  -3.030  33.262  1.00  0.00     0.041 C 
ATOM      2  C   UNL     1       5.769  -3.310  32.395  1.00  0.00     0.150 C 
ATOM      3  C   UNL     1       4.407  -3.197  33.158  1.00  0.00     0.175 C 
ATOM      4  C   UNL     1       3.584  -1.954  32.754  1.00  0.00     0.186 C 
ATOM      5  C   UNL     1       4.550  -0.793  32.489  1.00  0.00     0.202 C 
ATOM      6  C   UNL     1       5.476  -1.184  31.307  1.00  0.00     0.282 C 
ATOM      7  O   UNL     1       5.795  -2.567  31.184  1.00  0.00    -0.344 OA
ENDROOT
BRANCH   3   8
ATOM      8  O   UNL     1       3.636  -4.364  32.973  1.00  0.00    -0.388 OA
ATOM      9  H   UNL     1       2.933  -4.151  32.303  1.00  0.00     0.211 HD
ENDBRANCH   3   8
BRANCH   4  10
ATOM     10  O   UNL     1       2.645  -1.686  33.793  1.00  0.00    -0.341 OA
BRANCH  10  11
ATOM     11  C   UNL     1       3.064  -2.015  35.118  1.00  0.00     0.282 C 
ATOM     12  C   UNL     1       4.601  -2.202  35.306  1.00  0.00     0.202 C 
ATOM     13  O   UNL     1       2.311  -3.111  35.613  1.00  0.00    -0.341 OA
ATOM     14  C   UNL     1       4.958  -2.347  36.804  1.00  0.00     0.179 C 
ATOM     15  C   UNL     1       2.712  -3.604  36.893  1.00  0.00     0.178 C 
ATOM     16  C   UNL     1       3.736  -2.731  37.672  1.00  0.00     0.177 C 
BRANCH  12  17
ATOM     17  O   UNL     1       5.326  -1.114  34.784  1.00  0.00    -0.385 OA
ATOM     18  H   UNL     1       5.293  -0.374  35.447  1.00  0.00     0.211 HD
ENDBRANCH  12  17
BRANCH  14  19
ATOM     19  O   UNL     1       5.975  -3.309  36.946  1.00  0.00    -0.387 OA
ATOM     20  H   UNL     1       5.569  -4.193  36.756  1.00  0.00     0.211 HD
ENDBRANCH  14  19
BRANCH  15  21
ATOM     21  C   UNL     1       3.202  -5.053  36.741  1.00  0.00     0.191 C 
BRANCH  21  22
ATOM     22  O   UNL     1       2.934  -5.779  37.915  1.00  0.00    -0.394 OA
ATOM     23  H   UNL     1       2.601  -5.131  38.588  1.00  0.00     0.210 HD
ENDBRANCH  21  22
ENDBRANCH  15  21
BRANCH  16  24
ATOM     24  O   UNL     1       3.101  -1.560  38.125  1.00  0.00    -0.387 OA
ATOM     25  H   UNL     1       3.284  -1.478  39.097  1.00  0.00     0.211 HD
ENDBRANCH  16  24
ENDBRANCH  10  11
ENDBRANCH   4  10
BRANCH   6  26
ATOM     26  O   UNL     1       6.668  -0.413  31.317  1.00  0.00    -0.346 OA
BRANCH  26  27
ATOM     27  C   UNL     1       6.395   0.974  31.127  1.00  0.00     0.130 C 
ATOM     28  C   UNL     1       7.450   1.799  31.902  1.00  0.00     0.033 C 
ATOM     29  C   UNL     1       6.342   1.359  29.586  1.00  0.00     0.020 C 
ATOM     30  C   UNL     1       8.881   1.596  31.371  1.00  0.00     0.010 C 
ATOM     31  C   UNL     1       7.690   2.057  29.142  1.00  0.00     0.006 C 
ATOM     32  C   UNL     1       6.008   0.105  28.733  1.00  0.00     0.017 C 
ATOM     33  C   UNL     1       9.007   1.487  29.804  1.00  0.00    -0.022 C 
ATOM     34  C   UNL     1       7.807   2.500  27.643  1.00  0.00     0.005 C 
ATOM     35  C   UNL     1       9.270   0.005  29.449  1.00  0.00     0.012 C 
ATOM     36  C   UNL     1      10.166   2.428  29.308  1.00  0.00     0.024 C 
ATOM     37  C   UNL     1       9.158   2.254  26.942  1.00  0.00     0.008 C 
ATOM     38  C   UNL     1      10.469   2.507  27.771  1.00  0.00    -0.017 C 
ATOM     39  C   UNL     1      11.504   2.439  30.041  1.00  0.00    -0.024 C 
ATOM     40  C   UNL     1      11.425   1.299  27.397  1.00  0.00     0.013 C 
ATOM     41  C   UNL     1      11.234   3.947  27.474  1.00  0.00     0.009 C 
ATOM     42  C   UNL     1      12.389   3.411  29.702  1.00  0.00     0.005 C 
ATOM     43  C   UNL     1      11.885   4.556  28.828  1.00  0.00     0.096 C 
ATOM     44  C   UNL     1      10.309   5.084  26.916  1.00  0.00     0.043 C 
ATOM     45  C   UNL     1      12.312   3.712  26.352  1.00  0.00     0.015 C 
ATOM     46  C   UNL     1      12.868   5.705  28.485  1.00  0.00     0.037 C 
ATOM     47  O   UNL     1      10.877   5.196  29.623  1.00  0.00    -0.369 OA
ATOM     48  C   UNL     1      10.974   6.514  26.932  1.00  0.00     0.124 C 
ATOM     49  C   UNL     1      11.829   6.805  28.227  1.00  0.00     0.026 C 
ATOM     50  C   UNL     1      13.842   6.050  29.648  1.00  0.00     0.014 C 
ATOM     51  C   UNL     1      10.908   6.584  29.409  1.00  0.00     0.171 C 
ATOM     52  C   UNL     1      12.429   8.235  28.192  1.00  0.00     0.013 C 
ATOM     53  C   UNL     1      14.495   7.451  29.521  1.00  0.00    -0.035 C 
ATOM     54  C   UNL     1      13.399   8.534  29.348  1.00  0.00     0.007 C 
ATOM     55  C   UNL     1      15.280   7.749  30.815  1.00  0.00     0.011 C 
ATOM     56  C   UNL     1      15.491   7.491  28.337  1.00  0.00     0.011 C 
BRANCH  29  57
ATOM     57  C   UNL     1       5.155   2.353  29.365  1.00  0.00     0.165 C 
BRANCH  57  58
ATOM     58  O   UNL     1       3.978   1.679  29.011  1.00  0.00    -0.396 OA
ATOM     59  H   UNL     1       3.308   2.376  28.791  1.00  0.00     0.210 HD
ENDBRANCH  57  58
ENDBRANCH  29  57
BRANCH  48  60
ATOM     60  O   UNL     1      11.742   6.703  25.772  1.00  0.00    -0.392 OA
ATOM     61  H   UNL     1      12.688   6.496  25.996  1.00  0.00     0.210 HD
ENDBRANCH  48  60
ENDBRANCH  26  27
ENDBRANCH   6  26
BRANCH   5  62
ATOM     62  O   UNL     1       5.283  -0.461  33.641  1.00  0.00    -0.385 OA
ATOM     63  H   UNL     1       4.739   0.194  34.146  1.00  0.00     0.211 HD
ENDBRANCH   5  62
TORSDOF 14
ENDMDL
