MODEL 1
REMARK VINA RESULT:    -5.133      0.000      0.000
REMARK INTER + INTRA:          -9.818
REMARK INTER:                  -9.034
REMARK INTRA:                  -0.784
REMARK UNBOUND:                -0.784
REMARK SMILES CCCCCCC=CCCCCCCCC(=O)[O-]
REMARK SMILES IDX 10 1 11 2 12 3 13 4 14 5 15 6 16 7 17 8 18 9 9 10 8 11 7 12
REMARK SMILES IDX 6 13 5 14 4 15 3 16 2 17 1 18
REMARK H PARENT
REMARK Flexibility Score: inf
ROOT
ATOM      1  C   UNL     1      18.247 -24.346  15.173  1.00  0.00     0.004 C 
ENDROOT
BRANCH   1   2
ATOM      2  C   UNL     1      19.482 -24.409  14.262  1.00  0.00     0.000 C 
BRANCH   2   3
ATOM      3  C   UNL     1      20.767 -23.946  14.972  1.00  0.00     0.000 C 
BRANCH   3   4
ATOM      4  C   UNL     1      20.492 -23.450  16.407  1.00  0.00     0.000 C 
BRANCH   4   5
ATOM      5  C   UNL     1      21.663 -23.685  17.376  1.00  0.00     0.006 C 
BRANCH   5   6
ATOM      6  C   UNL     1      22.983 -23.980  16.656  1.00  0.00     0.053 C 
BRANCH   6   7
ATOM      7  C   UNL     1      24.078 -23.116  17.198  1.00  0.00     0.041 C 
ATOM      8  O   UNL     1      25.195 -23.070  16.618  1.00  0.00    -0.550 OA
ATOM      9  O   UNL     1      23.883 -22.400  18.372  1.00  0.00    -0.550 OA
ENDBRANCH   6   7
ENDBRANCH   5   6
ENDBRANCH   4   5
ENDBRANCH   3   4
ENDBRANCH   2   3
ENDBRANCH   1   2
BRANCH   1  10
ATOM     10  C   UNL     1      16.975 -24.858  14.482  1.00  0.00     0.027 C 
BRANCH  10  11
ATOM     11  C   UNL     1      15.997 -25.407  15.483  1.00  0.00    -0.031 C 
ATOM     12  C   UNL     1      16.406 -25.944  16.643  1.00  0.00    -0.031 C 
BRANCH  12  13
ATOM     13  C   UNL     1      15.428 -26.493  17.644  1.00  0.00     0.027 C 
BRANCH  13  14
ATOM     14  C   UNL     1      14.010 -26.552  17.057  1.00  0.00     0.004 C 
BRANCH  14  15
ATOM     15  C   UNL     1      12.977 -27.092  18.058  1.00  0.00     0.000 C 
BRANCH  15  16
ATOM     16  C   UNL     1      13.626 -27.641  19.338  1.00  0.00    -0.000 C 
BRANCH  16  17
ATOM     17  C   UNL     1      13.120 -29.055  19.644  1.00  0.00    -0.003 C 
ATOM     18  C   UNL     1      12.958 -29.270  21.147  1.00  0.00     0.004 C 
ENDBRANCH  16  17
ENDBRANCH  15  16
ENDBRANCH  14  15
ENDBRANCH  13  14
ENDBRANCH  12  13
ENDBRANCH  10  11
ENDBRANCH   1  10
TORSDOF 13
ENDMDL
MODEL 2
REMARK VINA RESULT:    -5.026      2.498      5.203
REMARK INTER + INTRA:          -9.629
REMARK INTER:                  -8.107
REMARK INTRA:                  -1.523
REMARK UNBOUND:                -0.784
REMARK SMILES CCCCCCC=CCCCCCCCC(=O)[O-]
REMARK SMILES IDX 10 1 11 2 12 3 13 4 14 5 15 6 16 7 17 8 18 9 9 10 8 11 7 12
REMARK SMILES IDX 6 13 5 14 4 15 3 16 2 17 1 18
REMARK H PARENT
REMARK Flexibility Score: inf
ROOT
ATOM      1  C   UNL     1      23.089 -20.992  13.324  1.00  0.00     0.004 C 
ENDROOT
BRANCH   1   2
ATOM      2  C   UNL     1      24.345 -21.160  14.192  1.00  0.00     0.000 C 
BRANCH   2   3
ATOM      3  C   UNL     1      24.012 -21.405  15.675  1.00  0.00     0.000 C 
BRANCH   3   4
ATOM      4  C   UNL     1      24.937 -22.464  16.311  1.00  0.00     0.000 C 
BRANCH   4   5
ATOM      5  C   UNL     1      24.177 -23.600  17.018  1.00  0.00     0.006 C 
BRANCH   5   6
ATOM      6  C   UNL     1      22.683 -23.621  16.678  1.00  0.00     0.053 C 
BRANCH   6   7
ATOM      7  C   UNL     1      21.867 -23.292  17.888  1.00  0.00     0.041 C 
ATOM      8  O   UNL     1      20.823 -23.948  18.146  1.00  0.00    -0.550 OA
ATOM      9  O   UNL     1      22.230 -22.229  18.705  1.00  0.00    -0.550 OA
ENDBRANCH   6   7
ENDBRANCH   5   6
ENDBRANCH   4   5
ENDBRANCH   3   4
ENDBRANCH   2   3
ENDBRANCH   1   2
BRANCH   1  10
ATOM     10  C   UNL     1      22.630 -22.311  12.686  1.00  0.00     0.027 C 
BRANCH  10  11
ATOM     11  C   UNL     1      21.457 -22.891  13.426  1.00  0.00    -0.031 C 
ATOM     12  C   UNL     1      20.580 -22.111  14.076  1.00  0.00    -0.031 C 
BRANCH  12  13
ATOM     13  C   UNL     1      19.407 -22.692  14.815  1.00  0.00     0.027 C 
BRANCH  13  14
ATOM     14  C   UNL     1      19.472 -24.227  14.836  1.00  0.00     0.004 C 
BRANCH  14  15
ATOM     15  C   UNL     1      18.085 -24.876  14.976  1.00  0.00     0.000 C 
BRANCH  15  16
ATOM     16  C   UNL     1      17.473 -24.664  16.369  1.00  0.00    -0.000 C 
BRANCH  16  17
ATOM     17  C   UNL     1      16.857 -25.964  16.899  1.00  0.00    -0.003 C 
ATOM     18  C   UNL     1      15.343 -25.978  16.701  1.00  0.00     0.004 C 
ENDBRANCH  16  17
ENDBRANCH  15  16
ENDBRANCH  14  15
ENDBRANCH  13  14
ENDBRANCH  12  13
ENDBRANCH  10  11
ENDBRANCH   1  10
TORSDOF 13
ENDMDL
MODEL 3
REMARK VINA RESULT:    -4.944      2.899      5.331
REMARK INTER + INTRA:          -9.485
REMARK INTER:                  -8.213
REMARK INTRA:                  -1.273
REMARK UNBOUND:                -0.784
REMARK SMILES CCCCCCC=CCCCCCCCC(=O)[O-]
REMARK SMILES IDX 10 1 11 2 12 3 13 4 14 5 15 6 16 7 17 8 18 9 9 10 8 11 7 12
REMARK SMILES IDX 6 13 5 14 4 15 3 16 2 17 1 18
REMARK H PARENT
REMARK Flexibility Score: inf
ROOT
ATOM      1  C   UNL     1      22.879 -24.083  16.498  1.00  0.00     0.004 C 
ENDROOT
BRANCH   1   2
ATOM      2  C   UNL     1      24.093 -23.419  17.165  1.00  0.00     0.000 C 
BRANCH   2   3
ATOM      3  C   UNL     1      24.704 -22.300  16.302  1.00  0.00     0.000 C 
BRANCH   3   4
ATOM      4  C   UNL     1      23.634 -21.546  15.484  1.00  0.00     0.000 C 
BRANCH   4   5
ATOM      5  C   UNL     1      24.027 -21.321  14.015  1.00  0.00     0.006 C 
BRANCH   5   6
ATOM      6  C   UNL     1      22.914 -21.704  13.033  1.00  0.00     0.053 C 
BRANCH   6   7
ATOM      7  C   UNL     1      23.457 -21.815  11.644  1.00  0.00     0.041 C 
ATOM      8  O   UNL     1      23.109 -22.771  10.902  1.00  0.00    -0.550 OA
ATOM      9  O   UNL     1      24.387 -20.891  11.184  1.00  0.00    -0.550 OA
ENDBRANCH   6   7
ENDBRANCH   5   6
ENDBRANCH   4   5
ENDBRANCH   3   4
ENDBRANCH   2   3
ENDBRANCH   1   2
BRANCH   1  10
ATOM     10  C   UNL     1      21.580 -23.875  17.291  1.00  0.00     0.027 C 
BRANCH  10  11
ATOM     11  C   UNL     1      20.394 -23.776  16.374  1.00  0.00    -0.031 C 
ATOM     12  C   UNL     1      20.533 -23.806  15.040  1.00  0.00    -0.031 C 
BRANCH  12  13
ATOM     13  C   UNL     1      19.346 -23.707  14.122  1.00  0.00     0.027 C 
BRANCH  13  14
ATOM     14  C   UNL     1      18.030 -23.837  14.904  1.00  0.00     0.004 C 
BRANCH  14  15
ATOM     15  C   UNL     1      17.230 -25.090  14.512  1.00  0.00     0.000 C 
BRANCH  15  16
ATOM     16  C   UNL     1      16.095 -25.398  15.500  1.00  0.00    -0.000 C 
BRANCH  16  17
ATOM     17  C   UNL     1      16.655 -25.828  16.861  1.00  0.00    -0.003 C 
ATOM     18  C   UNL     1      15.606 -26.578  17.677  1.00  0.00     0.004 C 
ENDBRANCH  16  17
ENDBRANCH  15  16
ENDBRANCH  14  15
ENDBRANCH  13  14
ENDBRANCH  12  13
ENDBRANCH  10  11
ENDBRANCH   1  10
TORSDOF 13
ENDMDL
MODEL 4
REMARK VINA RESULT:    -4.849      1.787      3.768
REMARK INTER + INTRA:          -9.319
REMARK INTER:                  -8.159
REMARK INTRA:                  -1.160
REMARK UNBOUND:                -0.784
REMARK SMILES CCCCCCC=CCCCCCCCC(=O)[O-]
REMARK SMILES IDX 10 1 11 2 12 3 13 4 14 5 15 6 16 7 17 8 18 9 9 10 8 11 7 12
REMARK SMILES IDX 6 13 5 14 4 15 3 16 2 17 1 18
REMARK H PARENT
REMARK Flexibility Score: inf
ROOT
ATOM      1  C   UNL     1      21.521 -22.153  14.281  1.00  0.00     0.004 C 
ENDROOT
BRANCH   1   2
ATOM      2  C   UNL     1      22.724 -22.111  13.327  1.00  0.00     0.000 C 
BRANCH   2   3
ATOM      3  C   UNL     1      23.887 -21.267  13.878  1.00  0.00     0.000 C 
BRANCH   3   4
ATOM      4  C   UNL     1      23.867 -21.183  15.419  1.00  0.00     0.000 C 
BRANCH   4   5
ATOM      5  C   UNL     1      24.784 -22.211  16.103  1.00  0.00     0.006 C 
BRANCH   5   6
ATOM      6  C   UNL     1      24.017 -23.199  16.990  1.00  0.00     0.053 C 
BRANCH   6   7
ATOM      7  C   UNL     1      23.428 -22.493  18.170  1.00  0.00     0.041 C 
ATOM      8  O   UNL     1      22.237 -22.715  18.512  1.00  0.00    -0.550 OA
ATOM      9  O   UNL     1      24.178 -21.552  18.864  1.00  0.00    -0.550 OA
ENDBRANCH   6   7
ENDBRANCH   5   6
ENDBRANCH   4   5
ENDBRANCH   3   4
ENDBRANCH   2   3
ENDBRANCH   1   2
BRANCH   1  10
ATOM     10  C   UNL     1      21.066 -23.585  14.597  1.00  0.00     0.027 C 
BRANCH  10  11
ATOM     11  C   UNL     1      19.722 -23.591  15.272  1.00  0.00    -0.031 C 
ATOM     12  C   UNL     1      19.600 -23.788  16.593  1.00  0.00    -0.031 C 
BRANCH  12  13
ATOM     13  C   UNL     1      18.256 -23.794  17.268  1.00  0.00     0.027 C 
BRANCH  13  14
ATOM     14  C   UNL     1      17.133 -23.496  16.263  1.00  0.00     0.004 C 
BRANCH  14  15
ATOM     15  C   UNL     1      16.364 -24.759  15.844  1.00  0.00     0.000 C 
BRANCH  15  16
ATOM     16  C   UNL     1      16.264 -25.793  16.976  1.00  0.00    -0.000 C 
BRANCH  16  17
ATOM     17  C   UNL     1      14.873 -26.436  17.009  1.00  0.00    -0.003 C 
ATOM     18  C   UNL     1      14.405 -26.664  18.444  1.00  0.00     0.004 C 
ENDBRANCH  16  17
ENDBRANCH  15  16
ENDBRANCH  14  15
ENDBRANCH  13  14
ENDBRANCH  12  13
ENDBRANCH  10  11
ENDBRANCH   1  10
TORSDOF 13
ENDMDL
MODEL 5
REMARK VINA RESULT:    -4.804     15.567     18.274
REMARK INTER + INTRA:          -9.239
REMARK INTER:                  -6.816
REMARK INTRA:                  -2.423
REMARK UNBOUND:                -0.784
REMARK SMILES CCCCCCC=CCCCCCCCC(=O)[O-]
REMARK SMILES IDX 10 1 11 2 12 3 13 4 14 5 15 6 16 7 17 8 18 9 9 10 8 11 7 12
REMARK SMILES IDX 6 13 5 14 4 15 3 16 2 17 1 18
REMARK H PARENT
REMARK Flexibility Score: inf
ROOT
ATOM      1  C   UNL     1      30.485 -34.027  25.654  1.00  0.00     0.004 C 
ENDROOT
BRANCH   1   2
ATOM      2  C   UNL     1      30.212 -34.594  27.055  1.00  0.00     0.000 C 
BRANCH   2   3
ATOM      3  C   UNL     1      29.608 -36.009  27.015  1.00  0.00     0.000 C 
BRANCH   3   4
ATOM      4  C   UNL     1      28.692 -36.216  25.789  1.00  0.00     0.000 C 
BRANCH   4   5
ATOM      5  C   UNL     1      27.224 -35.837  26.046  1.00  0.00     0.006 C 
BRANCH   5   6
ATOM      6  C   UNL     1      26.885 -34.415  25.588  1.00  0.00     0.053 C 
BRANCH   6   7
ATOM      7  C   UNL     1      26.506 -33.565  26.759  1.00  0.00     0.041 C 
ATOM      8  O   UNL     1      26.759 -33.951  27.931  1.00  0.00    -0.550 OA
ATOM      9  O   UNL     1      25.827 -32.369  26.561  1.00  0.00    -0.550 OA
ENDBRANCH   6   7
ENDBRANCH   5   6
ENDBRANCH   4   5
ENDBRANCH   3   4
ENDBRANCH   2   3
ENDBRANCH   1   2
BRANCH   1  10
ATOM     10  C   UNL     1      31.979 -34.012  25.301  1.00  0.00     0.027 C 
BRANCH  10  11
ATOM     11  C   UNL     1      32.271 -34.922  24.141  1.00  0.00    -0.031 C 
ATOM     12  C   UNL     1      32.331 -36.254  24.289  1.00  0.00    -0.031 C 
BRANCH  12  13
ATOM     13  C   UNL     1      32.624 -37.164  23.129  1.00  0.00     0.027 C 
BRANCH  13  14
ATOM     14  C   UNL     1      31.518 -37.076  22.066  1.00  0.00     0.004 C 
BRANCH  14  15
ATOM     15  C   UNL     1      30.165 -37.600  22.575  1.00  0.00     0.000 C 
BRANCH  15  16
ATOM     16  C   UNL     1      28.982 -36.746  22.092  1.00  0.00    -0.000 C 
BRANCH  16  17
ATOM     17  C   UNL     1      29.466 -35.392  21.559  1.00  0.00    -0.003 C 
ATOM     18  C   UNL     1      29.020 -34.250  22.469  1.00  0.00     0.004 C 
ENDBRANCH  16  17
ENDBRANCH  15  16
ENDBRANCH  14  15
ENDBRANCH  13  14
ENDBRANCH  12  13
ENDBRANCH  10  11
ENDBRANCH   1  10
TORSDOF 13
ENDMDL
MODEL 6
REMARK VINA RESULT:    -4.758      3.601      8.891
REMARK INTER + INTRA:          -9.159
REMARK INTER:                  -7.620
REMARK INTRA:                  -1.538
REMARK UNBOUND:                -0.784
REMARK SMILES CCCCCCC=CCCCCCCCC(=O)[O-]
REMARK SMILES IDX 10 1 11 2 12 3 13 4 14 5 15 6 16 7 17 8 18 9 9 10 8 11 7 12
REMARK SMILES IDX 6 13 5 14 4 15 3 16 2 17 1 18
REMARK H PARENT
REMARK Flexibility Score: inf
ROOT
ATOM      1  C   UNL     1      19.403 -23.428  15.663  1.00  0.00     0.004 C 
ENDROOT
BRANCH   1   2
ATOM      2  C   UNL     1      19.613 -24.622  14.719  1.00  0.00     0.000 C 
BRANCH   2   3
ATOM      3  C   UNL     1      18.476 -24.775  13.694  1.00  0.00     0.000 C 
BRANCH   3   4
ATOM      4  C   UNL     1      17.160 -24.135  14.185  1.00  0.00     0.000 C 
BRANCH   4   5
ATOM      5  C   UNL     1      16.140 -25.155  14.718  1.00  0.00     0.006 C 
BRANCH   5   6
ATOM      6  C   UNL     1      15.716 -24.876  16.164  1.00  0.00     0.053 C 
BRANCH   6   7
ATOM      7  C   UNL     1      16.140 -25.997  17.059  1.00  0.00     0.041 C 
ATOM      8  O   UNL     1      17.363 -26.242  17.232  1.00  0.00    -0.550 OA
ATOM      9  O   UNL     1      15.185 -26.805  17.664  1.00  0.00    -0.550 OA
ENDBRANCH   6   7
ENDBRANCH   5   6
ENDBRANCH   4   5
ENDBRANCH   3   4
ENDBRANCH   2   3
ENDBRANCH   1   2
BRANCH   1  10
ATOM     10  C   UNL     1      20.185 -23.568  16.977  1.00  0.00     0.027 C 
BRANCH  10  11
ATOM     11  C   UNL     1      21.615 -23.953  16.719  1.00  0.00    -0.031 C 
ATOM     12  C   UNL     1      22.636 -23.212  17.176  1.00  0.00    -0.031 C 
BRANCH  12  13
ATOM     13  C   UNL     1      24.066 -23.598  16.918  1.00  0.00     0.027 C 
BRANCH  13  14
ATOM     14  C   UNL     1      24.870 -22.408  16.372  1.00  0.00     0.004 C 
BRANCH  14  15
ATOM     15  C   UNL     1      23.976 -21.336  15.728  1.00  0.00     0.000 C 
BRANCH  15  16
ATOM     16  C   UNL     1      24.404 -20.997  14.292  1.00  0.00    -0.000 C 
BRANCH  16  17
ATOM     17  C   UNL     1      23.226 -21.140  13.321  1.00  0.00    -0.003 C 
ATOM     18  C   UNL     1      21.899 -21.223  14.073  1.00  0.00     0.004 C 
ENDBRANCH  16  17
ENDBRANCH  15  16
ENDBRANCH  14  15
ENDBRANCH  13  14
ENDBRANCH  12  13
ENDBRANCH  10  11
ENDBRANCH   1  10
TORSDOF 13
ENDMDL
MODEL 7
REMARK VINA RESULT:    -4.751      1.404      2.141
REMARK INTER + INTRA:          -9.147
REMARK INTER:                  -8.145
REMARK INTRA:                  -1.002
REMARK UNBOUND:                -0.784
REMARK SMILES CCCCCCC=CCCCCCCCC(=O)[O-]
REMARK SMILES IDX 10 1 11 2 12 3 13 4 14 5 15 6 16 7 17 8 18 9 9 10 8 11 7 12
REMARK SMILES IDX 6 13 5 14 4 15 3 16 2 17 1 18
REMARK H PARENT
REMARK Flexibility Score: inf
ROOT
ATOM      1  C   UNL     1      20.019 -24.227  15.584  1.00  0.00     0.004 C 
ENDROOT
BRANCH   1   2
ATOM      2  C   UNL     1      20.599 -23.501  14.360  1.00  0.00     0.000 C 
BRANCH   2   3
ATOM      3  C   UNL     1      21.313 -22.190  14.732  1.00  0.00     0.000 C 
BRANCH   3   4
ATOM      4  C   UNL     1      22.798 -22.197  14.312  1.00  0.00     0.000 C 
BRANCH   4   5
ATOM      5  C   UNL     1      23.775 -22.135  15.498  1.00  0.00     0.006 C 
BRANCH   5   6
ATOM      6  C   UNL     1      23.547 -23.255  16.519  1.00  0.00     0.053 C 
BRANCH   6   7
ATOM      7  C   UNL     1      23.274 -22.681  17.873  1.00  0.00     0.041 C 
ATOM      8  O   UNL     1      24.140 -21.970  18.446  1.00  0.00    -0.550 OA
ATOM      9  O   UNL     1      22.082 -22.973  18.525  1.00  0.00    -0.550 OA
ENDBRANCH   6   7
ENDBRANCH   5   6
ENDBRANCH   4   5
ENDBRANCH   3   4
ENDBRANCH   2   3
ENDBRANCH   1   2
BRANCH   1  10
ATOM     10  C   UNL     1      19.283 -23.278  16.541  1.00  0.00     0.027 C 
BRANCH  10  11
ATOM     11  C   UNL     1      18.116 -23.964  17.194  1.00  0.00    -0.031 C 
ATOM     12  C   UNL     1      17.634 -25.126  16.729  1.00  0.00    -0.031 C 
BRANCH  12  13
ATOM     13  C   UNL     1      16.466 -25.813  17.382  1.00  0.00     0.027 C 
BRANCH  13  14
ATOM     14  C   UNL     1      15.332 -26.054  16.374  1.00  0.00     0.004 C 
BRANCH  14  15
ATOM     15  C   UNL     1      14.009 -26.441  17.054  1.00  0.00     0.000 C 
BRANCH  15  16
ATOM     16  C   UNL     1      14.069 -26.304  18.583  1.00  0.00    -0.000 C 
BRANCH  16  17
ATOM     17  C   UNL     1      12.935 -27.093  19.247  1.00  0.00    -0.003 C 
ATOM     18  C   UNL     1      13.308 -28.565  19.406  1.00  0.00     0.004 C 
ENDBRANCH  16  17
ENDBRANCH  15  16
ENDBRANCH  14  15
ENDBRANCH  13  14
ENDBRANCH  12  13
ENDBRANCH  10  11
ENDBRANCH   1  10
TORSDOF 13
ENDMDL
MODEL 8
REMARK VINA RESULT:    -4.735      3.063      4.744
REMARK INTER + INTRA:          -9.118
REMARK INTER:                  -7.583
REMARK INTRA:                  -1.534
REMARK UNBOUND:                -0.784
REMARK SMILES CCCCCCC=CCCCCCCCC(=O)[O-]
REMARK SMILES IDX 10 1 11 2 12 3 13 4 14 5 15 6 16 7 17 8 18 9 9 10 8 11 7 12
REMARK SMILES IDX 6 13 5 14 4 15 3 16 2 17 1 18
REMARK H PARENT
REMARK Flexibility Score: inf
ROOT
ATOM      1  C   UNL     1      21.647 -21.900  14.418  1.00  0.00     0.004 C 
ENDROOT
BRANCH   1   2
ATOM      2  C   UNL     1      22.636 -21.424  13.342  1.00  0.00     0.000 C 
BRANCH   2   3
ATOM      3  C   UNL     1      24.054 -21.201  13.898  1.00  0.00     0.000 C 
BRANCH   3   4
ATOM      4  C   UNL     1      24.066 -21.106  15.439  1.00  0.00     0.000 C 
BRANCH   4   5
ATOM      5  C   UNL     1      24.924 -22.188  16.116  1.00  0.00     0.006 C 
BRANCH   5   6
ATOM      6  C   UNL     1      24.093 -23.182  16.935  1.00  0.00     0.053 C 
BRANCH   6   7
ATOM      7  C   UNL     1      23.506 -22.508  18.135  1.00  0.00     0.041 C 
ATOM      8  O   UNL     1      24.204 -21.717  18.822  1.00  0.00    -0.550 OA
ATOM      9  O   UNL     1      22.203 -22.791  18.524  1.00  0.00    -0.550 OA
ENDBRANCH   6   7
ENDBRANCH   5   6
ENDBRANCH   4   5
ENDBRANCH   3   4
ENDBRANCH   2   3
ENDBRANCH   1   2
BRANCH   1  10
ATOM     10  C   UNL     1      21.329 -23.398  14.308  1.00  0.00     0.027 C 
BRANCH  10  11
ATOM     11  C   UNL     1      20.652 -23.902  15.552  1.00  0.00    -0.031 C 
ATOM     12  C   UNL     1      19.645 -23.227  16.126  1.00  0.00    -0.031 C 
BRANCH  12  13
ATOM     13  C   UNL     1      18.968 -23.730  17.371  1.00  0.00     0.027 C 
BRANCH  13  14
ATOM     14  C   UNL     1      17.505 -24.105  17.090  1.00  0.00     0.004 C 
BRANCH  14  15
ATOM     15  C   UNL     1      17.373 -25.342  16.188  1.00  0.00     0.000 C 
BRANCH  15  16
ATOM     16  C   UNL     1      15.958 -25.505  15.612  1.00  0.00    -0.000 C 
BRANCH  16  17
ATOM     17  C   UNL     1      15.950 -25.248  14.101  1.00  0.00    -0.003 C 
ATOM     18  C   UNL     1      17.349 -24.913  13.591  1.00  0.00     0.004 C 
ENDBRANCH  16  17
ENDBRANCH  15  16
ENDBRANCH  14  15
ENDBRANCH  13  14
ENDBRANCH  12  13
ENDBRANCH  10  11
ENDBRANCH   1  10
TORSDOF 13
ENDMDL
MODEL 9
REMARK VINA RESULT:    -4.712     15.854     17.685
REMARK INTER + INTRA:          -9.077
REMARK INTER:                  -7.075
REMARK INTRA:                  -2.002
REMARK UNBOUND:                -0.784
REMARK SMILES CCCCCCC=CCCCCCCCC(=O)[O-]
REMARK SMILES IDX 10 1 11 2 12 3 13 4 14 5 15 6 16 7 17 8 18 9 9 10 8 11 7 12
REMARK SMILES IDX 6 13 5 14 4 15 3 16 2 17 1 18
REMARK H PARENT
REMARK Flexibility Score: inf
ROOT
ATOM      1  C   UNL     1      30.754 -34.087  26.622  1.00  0.00     0.004 C 
ENDROOT
BRANCH   1   2
ATOM      2  C   UNL     1      31.850 -34.418  25.598  1.00  0.00     0.000 C 
BRANCH   2   3
ATOM      3  C   UNL     1      31.319 -34.460  24.154  1.00  0.00     0.000 C 
BRANCH   3   4
ATOM      4  C   UNL     1      29.815 -34.123  24.078  1.00  0.00     0.000 C 
BRANCH   4   5
ATOM      5  C   UNL     1      29.235 -34.212  22.656  1.00  0.00     0.006 C 
BRANCH   5   6
ATOM      6  C   UNL     1      29.884 -35.316  21.814  1.00  0.00     0.053 C 
BRANCH   6   7
ATOM      7  C   UNL     1      28.932 -36.452  21.618  1.00  0.00     0.041 C 
ATOM      8  O   UNL     1      29.041 -37.498  22.312  1.00  0.00    -0.550 OA
ATOM      9  O   UNL     1      27.954 -36.379  20.634  1.00  0.00    -0.550 OA
ENDBRANCH   6   7
ENDBRANCH   5   6
ENDBRANCH   4   5
ENDBRANCH   3   4
ENDBRANCH   2   3
ENDBRANCH   1   2
BRANCH   1  10
ATOM     10  C   UNL     1      30.999 -34.750  27.986  1.00  0.00     0.027 C 
BRANCH  10  11
ATOM     11  C   UNL     1      29.701 -35.060  28.679  1.00  0.00    -0.031 C 
ATOM     12  C   UNL     1      28.855 -34.089  29.053  1.00  0.00    -0.031 C 
BRANCH  12  13
ATOM     13  C   UNL     1      27.557 -34.398  29.746  1.00  0.00     0.027 C 
BRANCH  13  14
ATOM     14  C   UNL     1      26.479 -34.823  28.736  1.00  0.00     0.004 C 
BRANCH  14  15
ATOM     15  C   UNL     1      26.463 -33.937  27.480  1.00  0.00     0.000 C 
BRANCH  15  16
ATOM     16  C   UNL     1      26.740 -34.731  26.195  1.00  0.00    -0.000 C 
BRANCH  16  17
ATOM     17  C   UNL     1      26.945 -36.218  26.503  1.00  0.00    -0.003 C 
ATOM     18  C   UNL     1      28.123 -36.787  25.717  1.00  0.00     0.004 C 
ENDBRANCH  16  17
ENDBRANCH  15  16
ENDBRANCH  14  15
ENDBRANCH  13  14
ENDBRANCH  12  13
ENDBRANCH  10  11
ENDBRANCH   1  10
TORSDOF 13
ENDMDL
