MODEL 1
REMARK VINA RESULT:    -3.961      0.000      0.000
REMARK INTER + INTRA:         -13.987
REMARK INTER:                  -9.983
REMARK INTRA:                  -4.004
REMARK UNBOUND:                -4.004
REMARK SMILES CCCCCCCCCCCCCCCCCCCCCCCCCCCC(=O)[O-]
REMARK SMILES IDX 15 1 16 2 17 3 18 4 19 5 20 6 21 7 22 8 23 9 24 10 25 11
REMARK SMILES IDX 26 12 27 13 28 14 29 15 30 16 14 17 13 18 12 19 11 20 10 21
REMARK SMILES IDX 9 22 8 23 7 24 6 25 5 26 4 27 3 28 2 29 1 30
REMARK H PARENT
REMARK Flexibility Score: inf
ROOT
ATOM      1  C   UNL     1      -0.629  -8.490  39.764  1.00  0.00     0.000 C 
ENDROOT
BRANCH   1   2
ATOM      2  C   UNL     1      -1.762  -9.017  40.673  1.00  0.00     0.000 C 
BRANCH   2   3
ATOM      3  C   UNL     1      -2.473 -10.265  40.114  1.00  0.00     0.000 C 
BRANCH   3   4
ATOM      4  C   UNL     1      -3.786  -9.979  39.365  1.00  0.00     0.000 C 
BRANCH   4   5
ATOM      5  C   UNL     1      -4.661  -8.873  39.985  1.00  0.00     0.000 C 
BRANCH   5   6
ATOM      6  C   UNL     1      -5.788  -9.408  40.893  1.00  0.00     0.000 C 
BRANCH   6   7
ATOM      7  C   UNL     1      -5.446  -9.283  42.385  1.00  0.00     0.000 C 
BRANCH   7   8
ATOM      8  C   UNL     1      -4.908 -10.609  42.937  1.00  0.00     0.000 C 
BRANCH   8   9
ATOM      9  C   UNL     1      -5.715 -11.798  42.392  1.00  0.00     0.000 C 
BRANCH   9  10
ATOM     10  C   UNL     1      -4.938 -13.122  42.457  1.00  0.00     0.000 C 
BRANCH  10  11
ATOM     11  C   UNL     1      -3.414 -12.926  42.350  1.00  0.00     0.000 C 
BRANCH  11  12
ATOM     12  C   UNL     1      -2.636 -14.240  42.520  1.00  0.00     0.006 C 
BRANCH  12  13
ATOM     13  C   UNL     1      -3.226 -15.140  43.613  1.00  0.00     0.053 C 
BRANCH  13  14
ATOM     14  C   UNL     1      -2.685 -16.528  43.496  1.00  0.00     0.041 C 
ATOM     15  O   UNL     1      -1.475 -16.760  43.750  1.00  0.00    -0.550 OA
ATOM     16  O   UNL     1      -3.528 -17.576  43.144  1.00  0.00    -0.550 OA
ENDBRANCH  13  14
ENDBRANCH  12  13
ENDBRANCH  11  12
ENDBRANCH  10  11
ENDBRANCH   9  10
ENDBRANCH   8   9
ENDBRANCH   7   8
ENDBRANCH   6   7
ENDBRANCH   5   6
ENDBRANCH   4   5
ENDBRANCH   3   4
ENDBRANCH   2   3
ENDBRANCH   1   2
BRANCH   1  17
ATOM     17  C   UNL     1       0.057  -9.619  38.974  1.00  0.00     0.000 C 
BRANCH  17  18
ATOM     18  C   UNL     1      -0.126  -9.471  37.449  1.00  0.00     0.000 C 
BRANCH  18  19
ATOM     19  C   UNL     1      -0.622  -8.080  37.016  1.00  0.00     0.000 C 
BRANCH  19  20
ATOM     20  C   UNL     1      -2.127  -7.997  36.698  1.00  0.00     0.000 C 
BRANCH  20  21
ATOM     21  C   UNL     1      -2.877  -6.847  37.395  1.00  0.00     0.000 C 
BRANCH  21  22
ATOM     22  C   UNL     1      -4.251  -6.563  36.762  1.00  0.00    -0.000 C 
BRANCH  22  23
ATOM     23  C   UNL     1      -4.543  -5.057  36.635  1.00  0.00    -0.000 C 
BRANCH  23  24
ATOM     24  C   UNL     1      -5.750  -4.771  35.724  1.00  0.00    -0.000 C 
BRANCH  24  25
ATOM     25  C   UNL     1      -5.329  -4.322  34.314  1.00  0.00    -0.000 C 
BRANCH  25  26
ATOM     26  C   UNL     1      -3.806  -4.187  34.166  1.00  0.00    -0.000 C 
BRANCH  26  27
ATOM     27  C   UNL     1      -3.278  -5.112  33.058  1.00  0.00    -0.000 C 
BRANCH  27  28
ATOM     28  C   UNL     1      -2.233  -6.114  33.572  1.00  0.00    -0.000 C 
BRANCH  28  29
ATOM     29  C   UNL     1      -2.354  -7.492  32.904  1.00  0.00    -0.003 C 
ATOM     30  C   UNL     1      -3.630  -8.206  33.343  1.00  0.00     0.004 C 
ENDBRANCH  28  29
ENDBRANCH  27  28
ENDBRANCH  26  27
ENDBRANCH  25  26
ENDBRANCH  24  25
ENDBRANCH  23  24
ENDBRANCH  22  23
ENDBRANCH  21  22
ENDBRANCH  20  21
ENDBRANCH  19  20
ENDBRANCH  18  19
ENDBRANCH  17  18
ENDBRANCH   1  17
TORSDOF 26
ENDMDL
MODEL 2
REMARK VINA RESULT:    -3.883      4.511      8.040
REMARK INTER + INTRA:         -13.790
REMARK INTER:                  -8.401
REMARK INTRA:                  -5.389
REMARK UNBOUND:                -4.004
REMARK SMILES CCCCCCCCCCCCCCCCCCCCCCCCCCCC(=O)[O-]
REMARK SMILES IDX 15 1 16 2 17 3 18 4 19 5 20 6 21 7 22 8 23 9 24 10 25 11
REMARK SMILES IDX 26 12 27 13 28 14 29 15 30 16 14 17 13 18 12 19 11 20 10 21
REMARK SMILES IDX 9 22 8 23 7 24 6 25 5 26 4 27 3 28 2 29 1 30
REMARK H PARENT
REMARK Flexibility Score: inf
ROOT
ATOM      1  C   UNL     1      -4.870 -12.988  40.539  1.00  0.00     0.000 C 
ENDROOT
BRANCH   1   2
ATOM      2  C   UNL     1      -3.389 -12.547  40.508  1.00  0.00     0.000 C 
BRANCH   2   3
ATOM      3  C   UNL     1      -2.657 -12.739  41.850  1.00  0.00     0.000 C 
BRANCH   3   4
ATOM      4  C   UNL     1      -1.511 -11.746  42.110  1.00  0.00     0.000 C 
BRANCH   4   5
ATOM      5  C   UNL     1      -1.298 -10.697  41.003  1.00  0.00     0.000 C 
BRANCH   5   6
ATOM      6  C   UNL     1      -1.749  -9.275  41.399  1.00  0.00     0.000 C 
BRANCH   6   7
ATOM      7  C   UNL     1      -1.339  -8.221  40.359  1.00  0.00     0.000 C 
BRANCH   7   8
ATOM      8  C   UNL     1      -0.737  -8.885  39.114  1.00  0.00     0.000 C 
BRANCH   8   9
ATOM      9  C   UNL     1      -0.972  -8.021  37.864  1.00  0.00     0.000 C 
BRANCH   9  10
ATOM     10  C   UNL     1      -2.362  -7.367  37.849  1.00  0.00     0.000 C 
BRANCH  10  11
ATOM     11  C   UNL     1      -2.777  -6.877  36.449  1.00  0.00     0.000 C 
BRANCH  11  12
ATOM     12  C   UNL     1      -3.866  -5.794  36.500  1.00  0.00     0.006 C 
BRANCH  12  13
ATOM     13  C   UNL     1      -4.622  -5.655  35.172  1.00  0.00     0.053 C 
BRANCH  13  14
ATOM     14  C   UNL     1      -3.938  -4.668  34.282  1.00  0.00     0.041 C 
ATOM     15  O   UNL     1      -3.198  -5.067  33.345  1.00  0.00    -0.550 OA
ATOM     16  O   UNL     1      -4.148  -3.307  34.462  1.00  0.00    -0.550 OA
ENDBRANCH  13  14
ENDBRANCH  12  13
ENDBRANCH  11  12
ENDBRANCH  10  11
ENDBRANCH   9  10
ENDBRANCH   8   9
ENDBRANCH   7   8
ENDBRANCH   6   7
ENDBRANCH   5   6
ENDBRANCH   4   5
ENDBRANCH   3   4
ENDBRANCH   2   3
ENDBRANCH   1   2
BRANCH   1  17
ATOM     17  C   UNL     1      -5.373 -13.233  41.973  1.00  0.00     0.000 C 
BRANCH  17  18
ATOM     18  C   UNL     1      -6.356 -12.142  42.451  1.00  0.00     0.000 C 
BRANCH  18  19
ATOM     19  C   UNL     1      -5.719 -11.102  43.389  1.00  0.00     0.000 C 
BRANCH  19  20
ATOM     20  C   UNL     1      -5.062  -9.903  42.678  1.00  0.00     0.000 C 
BRANCH  20  21
ATOM     21  C   UNL     1      -5.871  -9.318  41.505  1.00  0.00     0.000 C 
BRANCH  21  22
ATOM     22  C   UNL     1      -5.008  -9.060  40.257  1.00  0.00    -0.000 C 
BRANCH  22  23
ATOM     23  C   UNL     1      -5.703  -8.140  39.238  1.00  0.00    -0.000 C 
BRANCH  23  24
ATOM     24  C   UNL     1      -6.965  -8.782  38.636  1.00  0.00    -0.000 C 
BRANCH  24  25
ATOM     25  C   UNL     1      -6.644  -9.732  37.470  1.00  0.00    -0.000 C 
BRANCH  25  26
ATOM     26  C   UNL     1      -5.528  -9.196  36.561  1.00  0.00    -0.000 C 
BRANCH  26  27
ATOM     27  C   UNL     1      -4.555 -10.317  36.165  1.00  0.00    -0.000 C 
BRANCH  27  28
ATOM     28  C   UNL     1      -3.604 -10.706  37.308  1.00  0.00    -0.000 C 
BRANCH  28  29
ATOM     29  C   UNL     1      -2.741 -11.930  36.971  1.00  0.00    -0.003 C 
ATOM     30  C   UNL     1      -1.320 -11.514  36.594  1.00  0.00     0.004 C 
ENDBRANCH  28  29
ENDBRANCH  27  28
ENDBRANCH  26  27
ENDBRANCH  25  26
ENDBRANCH  24  25
ENDBRANCH  23  24
ENDBRANCH  22  23
ENDBRANCH  21  22
ENDBRANCH  20  21
ENDBRANCH  19  20
ENDBRANCH  18  19
ENDBRANCH  17  18
ENDBRANCH   1  17
TORSDOF 26
ENDMDL
MODEL 3
REMARK VINA RESULT:    -3.881      4.138      9.006
REMARK INTER + INTRA:         -13.785
REMARK INTER:                  -8.330
REMARK INTRA:                  -5.455
REMARK UNBOUND:                -4.004
REMARK SMILES CCCCCCCCCCCCCCCCCCCCCCCCCCCC(=O)[O-]
REMARK SMILES IDX 15 1 16 2 17 3 18 4 19 5 20 6 21 7 22 8 23 9 24 10 25 11
REMARK SMILES IDX 26 12 27 13 28 14 29 15 30 16 14 17 13 18 12 19 11 20 10 21
REMARK SMILES IDX 9 22 8 23 7 24 6 25 5 26 4 27 3 28 2 29 1 30
REMARK H PARENT
REMARK Flexibility Score: inf
ROOT
ATOM      1  C   UNL     1      -1.793 -10.763  35.283  1.00  0.00     0.000 C 
ENDROOT
BRANCH   1   2
ATOM      2  C   UNL     1      -3.139 -11.130  35.948  1.00  0.00     0.000 C 
BRANCH   2   3
ATOM      3  C   UNL     1      -3.087 -11.140  37.488  1.00  0.00     0.000 C 
BRANCH   3   4
ATOM      4  C   UNL     1      -4.080 -10.185  38.174  1.00  0.00     0.000 C 
BRANCH   4   5
ATOM      5  C   UNL     1      -4.647  -9.077  37.267  1.00  0.00     0.000 C 
BRANCH   5   6
ATOM      6  C   UNL     1      -4.401  -7.650  37.801  1.00  0.00     0.000 C 
BRANCH   6   7
ATOM      7  C   UNL     1      -5.089  -6.578  36.942  1.00  0.00     0.000 C 
BRANCH   7   8
ATOM      8  C   UNL     1      -4.071  -5.555  36.423  1.00  0.00     0.000 C 
BRANCH   8   9
ATOM      9  C   UNL     1      -4.773  -4.426  35.652  1.00  0.00     0.000 C 
BRANCH   9  10
ATOM     10  C   UNL     1      -3.987  -3.981  34.408  1.00  0.00     0.000 C 
BRANCH  10  11
ATOM     11  C   UNL     1      -3.197  -5.131  33.758  1.00  0.00     0.000 C 
BRANCH  11  12
ATOM     12  C   UNL     1      -3.994  -5.850  32.658  1.00  0.00     0.006 C 
BRANCH  12  13
ATOM     13  C   UNL     1      -4.611  -7.168  33.142  1.00  0.00     0.053 C 
BRANCH  13  14
ATOM     14  C   UNL     1      -6.102  -7.062  33.187  1.00  0.00     0.041 C 
ATOM     15  O   UNL     1      -6.660  -5.940  33.076  1.00  0.00    -0.550 OA
ATOM     16  O   UNL     1      -6.877  -8.208  33.312  1.00  0.00    -0.550 OA
ENDBRANCH  13  14
ENDBRANCH  12  13
ENDBRANCH  11  12
ENDBRANCH  10  11
ENDBRANCH   9  10
ENDBRANCH   8   9
ENDBRANCH   7   8
ENDBRANCH   6   7
ENDBRANCH   5   6
ENDBRANCH   4   5
ENDBRANCH   3   4
ENDBRANCH   2   3
ENDBRANCH   1   2
BRANCH   1  17
ATOM     17  C   UNL     1      -1.897  -9.494  34.419  1.00  0.00     0.000 C 
BRANCH  17  18
ATOM     18  C   UNL     1      -1.628  -8.205  35.224  1.00  0.00     0.000 C 
BRANCH  18  19
ATOM     19  C   UNL     1      -0.577  -8.376  36.335  1.00  0.00     0.000 C 
BRANCH  19  20
ATOM     20  C   UNL     1      -0.961  -7.759  37.694  1.00  0.00     0.000 C 
BRANCH  20  21
ATOM     21  C   UNL     1      -0.769  -8.687  38.908  1.00  0.00     0.000 C 
BRANCH  21  22
ATOM     22  C   UNL     1      -1.445  -8.148  40.181  1.00  0.00    -0.000 C 
BRANCH  22  23
ATOM     23  C   UNL     1      -1.905  -9.270  41.127  1.00  0.00    -0.000 C 
BRANCH  23  24
ATOM     24  C   UNL     1      -1.348 -10.645  40.719  1.00  0.00    -0.000 C 
BRANCH  24  25
ATOM     25  C   UNL     1      -1.630 -11.731  41.771  1.00  0.00    -0.000 C 
BRANCH  25  26
ATOM     26  C   UNL     1      -2.950 -12.474  41.516  1.00  0.00    -0.000 C 
BRANCH  26  27
ATOM     27  C   UNL     1      -4.030 -12.032  42.515  1.00  0.00    -0.000 C 
BRANCH  27  28
ATOM     28  C   UNL     1      -5.196 -11.295  41.838  1.00  0.00    -0.000 C 
BRANCH  28  29
ATOM     29  C   UNL     1      -5.343  -9.845  42.322  1.00  0.00    -0.003 C 
ATOM     30  C   UNL     1      -5.657  -8.907  41.159  1.00  0.00     0.004 C 
ENDBRANCH  28  29
ENDBRANCH  27  28
ENDBRANCH  26  27
ENDBRANCH  25  26
ENDBRANCH  24  25
ENDBRANCH  23  24
ENDBRANCH  22  23
ENDBRANCH  21  22
ENDBRANCH  20  21
ENDBRANCH  19  20
ENDBRANCH  18  19
ENDBRANCH  17  18
ENDBRANCH   1  17
TORSDOF 26
ENDMDL
MODEL 4
REMARK VINA RESULT:    -3.878      4.291      8.923
REMARK INTER + INTRA:         -13.776
REMARK INTER:                  -8.499
REMARK INTRA:                  -5.277
REMARK UNBOUND:                -4.004
REMARK SMILES CCCCCCCCCCCCCCCCCCCCCCCCCCCC(=O)[O-]
REMARK SMILES IDX 15 1 16 2 17 3 18 4 19 5 20 6 21 7 22 8 23 9 24 10 25 11
REMARK SMILES IDX 26 12 27 13 28 14 29 15 30 16 14 17 13 18 12 19 11 20 10 21
REMARK SMILES IDX 9 22 8 23 7 24 6 25 5 26 4 27 3 28 2 29 1 30
REMARK H PARENT
REMARK Flexibility Score: inf
ROOT
ATOM      1  C   UNL     1      -1.364  -9.676  38.112  1.00  0.00     0.000 C 
ENDROOT
BRANCH   1   2
ATOM      2  C   UNL     1      -0.610  -8.789  37.095  1.00  0.00     0.000 C 
BRANCH   2   3
ATOM      3  C   UNL     1      -1.238  -7.395  36.905  1.00  0.00     0.000 C 
BRANCH   3   4
ATOM      4  C   UNL     1      -2.436  -7.095  37.822  1.00  0.00     0.000 C 
BRANCH   4   5
ATOM      5  C   UNL     1      -3.553  -6.253  37.177  1.00  0.00     0.000 C 
BRANCH   5   6
ATOM      6  C   UNL     1      -4.611  -7.092  36.429  1.00  0.00     0.000 C 
BRANCH   6   7
ATOM      7  C   UNL     1      -5.911  -6.310  36.186  1.00  0.00     0.000 C 
BRANCH   7   8
ATOM      8  C   UNL     1      -5.635  -4.804  36.091  1.00  0.00     0.000 C 
BRANCH   8   9
ATOM      9  C   UNL     1      -5.430  -4.375  34.629  1.00  0.00     0.000 C 
BRANCH   9  10
ATOM     10  C   UNL     1      -4.045  -3.758  34.382  1.00  0.00     0.000 C 
BRANCH  10  11
ATOM     11  C   UNL     1      -3.069  -4.732  33.697  1.00  0.00     0.000 C 
BRANCH  11  12
ATOM     12  C   UNL     1      -3.788  -5.906  33.012  1.00  0.00     0.006 C 
BRANCH  12  13
ATOM     13  C   UNL     1      -2.923  -7.172  32.950  1.00  0.00     0.053 C 
BRANCH  13  14
ATOM     14  C   UNL     1      -1.837  -7.013  31.934  1.00  0.00     0.041 C 
ATOM     15  O   UNL     1      -0.635  -7.192  32.260  1.00  0.00    -0.550 OA
ATOM     16  O   UNL     1      -2.156  -6.706  30.618  1.00  0.00    -0.550 OA
ENDBRANCH  13  14
ENDBRANCH  12  13
ENDBRANCH  11  12
ENDBRANCH  10  11
ENDBRANCH   9  10
ENDBRANCH   8   9
ENDBRANCH   7   8
ENDBRANCH   6   7
ENDBRANCH   5   6
ENDBRANCH   4   5
ENDBRANCH   3   4
ENDBRANCH   2   3
ENDBRANCH   1   2
BRANCH   1  17
ATOM     17  C   UNL     1      -0.405 -10.521  38.970  1.00  0.00     0.000 C 
BRANCH  17  18
ATOM     18  C   UNL     1      -0.927 -10.733  40.407  1.00  0.00     0.000 C 
BRANCH  18  19
ATOM     19  C   UNL     1      -1.936  -9.665  40.864  1.00  0.00     0.000 C 
BRANCH  19  20
ATOM     20  C   UNL     1      -3.024 -10.171  41.830  1.00  0.00     0.000 C 
BRANCH  20  21
ATOM     21  C   UNL     1      -4.434  -9.605  41.576  1.00  0.00     0.000 C 
BRANCH  21  22
ATOM     22  C   UNL     1      -4.545  -8.864  40.232  1.00  0.00    -0.000 C 
BRANCH  22  23
ATOM     23  C   UNL     1      -5.972  -8.893  39.657  1.00  0.00    -0.000 C 
BRANCH  23  24
ATOM     24  C   UNL     1      -6.102  -9.856  38.464  1.00  0.00    -0.000 C 
BRANCH  24  25
ATOM     25  C   UNL     1      -4.737 -10.328  37.937  1.00  0.00    -0.000 C 
BRANCH  25  26
ATOM     26  C   UNL     1      -4.667 -11.852  37.756  1.00  0.00    -0.000 C 
BRANCH  26  27
ATOM     27  C   UNL     1      -3.735 -12.487  38.800  1.00  0.00    -0.000 C 
BRANCH  27  28
ATOM     28  C   UNL     1      -4.496 -13.030  40.019  1.00  0.00    -0.000 C 
BRANCH  28  29
ATOM     29  C   UNL     1      -3.579 -13.753  41.017  1.00  0.00    -0.003 C 
ATOM     30  C   UNL     1      -4.085 -13.589  42.448  1.00  0.00     0.004 C 
ENDBRANCH  28  29
ENDBRANCH  27  28
ENDBRANCH  26  27
ENDBRANCH  25  26
ENDBRANCH  24  25
ENDBRANCH  23  24
ENDBRANCH  22  23
ENDBRANCH  21  22
ENDBRANCH  20  21
ENDBRANCH  19  20
ENDBRANCH  18  19
ENDBRANCH  17  18
ENDBRANCH   1  17
TORSDOF 26
ENDMDL
MODEL 5
REMARK VINA RESULT:    -3.855      4.450      7.875
REMARK INTER + INTRA:         -13.719
REMARK INTER:                  -8.648
REMARK INTRA:                  -5.071
REMARK UNBOUND:                -4.004
REMARK SMILES CCCCCCCCCCCCCCCCCCCCCCCCCCCC(=O)[O-]
REMARK SMILES IDX 15 1 16 2 17 3 18 4 19 5 20 6 21 7 22 8 23 9 24 10 25 11
REMARK SMILES IDX 26 12 27 13 28 14 29 15 30 16 14 17 13 18 12 19 11 20 10 21
REMARK SMILES IDX 9 22 8 23 7 24 6 25 5 26 4 27 3 28 2 29 1 30
REMARK H PARENT
REMARK Flexibility Score: inf
ROOT
ATOM      1  C   UNL     1      -4.655 -13.436  42.428  1.00  0.00     0.000 C 
ENDROOT
BRANCH   1   2
ATOM      2  C   UNL     1      -5.847 -12.459  42.323  1.00  0.00     0.000 C 
BRANCH   2   3
ATOM      3  C   UNL     1      -5.893 -11.415  43.456  1.00  0.00     0.000 C 
BRANCH   3   4
ATOM      4  C   UNL     1      -5.472  -9.994  43.044  1.00  0.00     0.000 C 
BRANCH   4   5
ATOM      5  C   UNL     1      -6.164  -9.454  41.778  1.00  0.00     0.000 C 
BRANCH   5   6
ATOM      6  C   UNL     1      -5.184  -8.883  40.731  1.00  0.00     0.000 C 
BRANCH   6   7
ATOM      7  C   UNL     1      -4.972  -9.840  39.547  1.00  0.00     0.000 C 
BRANCH   7   8
ATOM      8  C   UNL     1      -4.530  -9.072  38.295  1.00  0.00     0.000 C 
BRANCH   8   9
ATOM      9  C   UNL     1      -5.108  -7.648  38.292  1.00  0.00     0.000 C 
BRANCH   9  10
ATOM     10  C   UNL     1      -4.450  -6.743  37.239  1.00  0.00     0.000 C 
BRANCH  10  11
ATOM     11  C   UNL     1      -5.055  -6.922  35.835  1.00  0.00     0.000 C 
BRANCH  11  12
ATOM     12  C   UNL     1      -3.995  -7.243  34.769  1.00  0.00     0.006 C 
BRANCH  12  13
ATOM     13  C   UNL     1      -2.980  -6.107  34.585  1.00  0.00     0.053 C 
BRANCH  13  14
ATOM     14  C   UNL     1      -3.553  -5.030  33.721  1.00  0.00     0.041 C 
ATOM     15  O   UNL     1      -4.057  -5.316  32.604  1.00  0.00    -0.550 OA
ATOM     16  O   UNL     1      -3.565  -3.714  34.166  1.00  0.00    -0.550 OA
ENDBRANCH  13  14
ENDBRANCH  12  13
ENDBRANCH  11  12
ENDBRANCH  10  11
ENDBRANCH   9  10
ENDBRANCH   8   9
ENDBRANCH   7   8
ENDBRANCH   6   7
ENDBRANCH   5   6
ENDBRANCH   4   5
ENDBRANCH   3   4
ENDBRANCH   2   3
ENDBRANCH   1   2
BRANCH   1  17
ATOM     17  C   UNL     1      -3.471 -13.007  41.543  1.00  0.00     0.000 C 
BRANCH  17  18
ATOM     18  C   UNL     1      -2.108 -13.202  42.240  1.00  0.00     0.000 C 
BRANCH  18  19
ATOM     19  C   UNL     1      -1.239 -11.932  42.271  1.00  0.00     0.000 C 
BRANCH  19  20
ATOM     20  C   UNL     1      -2.025 -10.607  42.236  1.00  0.00     0.000 C 
BRANCH  20  21
ATOM     21  C   UNL     1      -1.705  -9.691  41.040  1.00  0.00     0.000 C 
BRANCH  21  22
ATOM     22  C   UNL     1      -0.753 -10.349  40.025  1.00  0.00    -0.000 C 
BRANCH  22  23
ATOM     23  C   UNL     1      -0.096  -9.326  39.082  1.00  0.00    -0.000 C 
BRANCH  23  24
ATOM     24  C   UNL     1      -1.044  -8.169  38.721  1.00  0.00    -0.000 C 
BRANCH  24  25
ATOM     25  C   UNL     1      -0.968  -7.787  37.234  1.00  0.00    -0.000 C 
BRANCH  25  26
ATOM     26  C   UNL     1      -0.067  -8.733  36.425  1.00  0.00    -0.000 C 
BRANCH  26  27
ATOM     27  C   UNL     1      -0.762  -9.181  35.131  1.00  0.00    -0.000 C 
BRANCH  27  28
ATOM     28  C   UNL     1      -1.914 -10.165  35.387  1.00  0.00    -0.000 C 
BRANCH  28  29
ATOM     29  C   UNL     1      -1.458 -11.432  36.126  1.00  0.00    -0.003 C 
ATOM     30  C   UNL     1      -2.436 -11.800  37.239  1.00  0.00     0.004 C 
ENDBRANCH  28  29
ENDBRANCH  27  28
ENDBRANCH  26  27
ENDBRANCH  25  26
ENDBRANCH  24  25
ENDBRANCH  23  24
ENDBRANCH  22  23
ENDBRANCH  21  22
ENDBRANCH  20  21
ENDBRANCH  19  20
ENDBRANCH  18  19
ENDBRANCH  17  18
ENDBRANCH   1  17
TORSDOF 26
ENDMDL
MODEL 6
REMARK VINA RESULT:    -3.829      2.655      4.155
REMARK INTER + INTRA:         -13.654
REMARK INTER:                  -8.429
REMARK INTRA:                  -5.225
REMARK UNBOUND:                -4.004
REMARK SMILES CCCCCCCCCCCCCCCCCCCCCCCCCCCC(=O)[O-]
REMARK SMILES IDX 15 1 16 2 17 3 18 4 19 5 20 6 21 7 22 8 23 9 24 10 25 11
REMARK SMILES IDX 26 12 27 13 28 14 29 15 30 16 14 17 13 18 12 19 11 20 10 21
REMARK SMILES IDX 9 22 8 23 7 24 6 25 5 26 4 27 3 28 2 29 1 30
REMARK H PARENT
REMARK Flexibility Score: inf
ROOT
ATOM      1  C   UNL     1      -1.551 -10.577  40.727  1.00  0.00     0.000 C 
ENDROOT
BRANCH   1   2
ATOM      2  C   UNL     1      -1.198 -11.482  41.929  1.00  0.00     0.000 C 
BRANCH   2   3
ATOM      3  C   UNL     1      -2.145 -12.686  42.096  1.00  0.00     0.000 C 
BRANCH   3   4
ATOM      4  C   UNL     1      -3.327 -12.720  41.112  1.00  0.00     0.000 C 
BRANCH   4   5
ATOM      5  C   UNL     1      -4.718 -12.587  41.761  1.00  0.00     0.000 C 
BRANCH   5   6
ATOM      6  C   UNL     1      -4.723 -11.738  43.050  1.00  0.00     0.000 C 
BRANCH   6   7
ATOM      7  C   UNL     1      -5.048 -10.262  42.775  1.00  0.00     0.000 C 
BRANCH   7   8
ATOM      8  C   UNL     1      -6.048 -10.127  41.620  1.00  0.00     0.000 C 
BRANCH   8   9
ATOM      9  C   UNL     1      -5.955  -8.736  40.973  1.00  0.00     0.000 C 
BRANCH   9  10
ATOM     10  C   UNL     1      -5.308  -8.772  39.580  1.00  0.00     0.000 C 
BRANCH  10  11
ATOM     11  C   UNL     1      -4.908 -10.194  39.144  1.00  0.00     0.000 C 
BRANCH  11  12
ATOM     12  C   UNL     1      -4.540 -10.275  37.654  1.00  0.00     0.006 C 
BRANCH  12  13
ATOM     13  C   UNL     1      -3.469 -11.336  37.368  1.00  0.00     0.053 C 
BRANCH  13  14
ATOM     14  C   UNL     1      -3.933 -12.271  36.298  1.00  0.00     0.041 C 
ATOM     15  O   UNL     1      -5.059 -12.109  35.760  1.00  0.00    -0.550 OA
ATOM     16  O   UNL     1      -3.106 -13.301  35.868  1.00  0.00    -0.550 OA
ENDBRANCH  13  14
ENDBRANCH  12  13
ENDBRANCH  11  12
ENDBRANCH  10  11
ENDBRANCH   9  10
ENDBRANCH   8   9
ENDBRANCH   7   8
ENDBRANCH   6   7
ENDBRANCH   5   6
ENDBRANCH   4   5
ENDBRANCH   3   4
ENDBRANCH   2   3
ENDBRANCH   1   2
BRANCH   1  17
ATOM     17  C   UNL     1      -1.895  -9.141  41.161  1.00  0.00     0.000 C 
BRANCH  17  18
ATOM     18  C   UNL     1      -1.749  -8.122  40.011  1.00  0.00     0.000 C 
BRANCH  18  19
ATOM     19  C   UNL     1      -1.233  -8.740  38.698  1.00  0.00     0.000 C 
BRANCH  19  20
ATOM     20  C   UNL     1      -1.069  -7.745  37.533  1.00  0.00     0.000 C 
BRANCH  20  21
ATOM     21  C   UNL     1      -2.300  -7.606  36.618  1.00  0.00     0.000 C 
BRANCH  21  22
ATOM     22  C   UNL     1      -3.167  -6.384  36.969  1.00  0.00    -0.000 C 
BRANCH  22  23
ATOM     23  C   UNL     1      -4.674  -6.687  36.895  1.00  0.00    -0.000 C 
BRANCH  23  24
ATOM     24  C   UNL     1      -5.451  -5.606  36.124  1.00  0.00    -0.000 C 
BRANCH  24  25
ATOM     25  C   UNL     1      -4.599  -4.357  35.842  1.00  0.00    -0.000 C 
BRANCH  25  26
ATOM     26  C   UNL     1      -4.632  -3.939  34.364  1.00  0.00    -0.000 C 
BRANCH  26  27
ATOM     27  C   UNL     1      -5.324  -5.009  33.506  1.00  0.00    -0.000 C 
BRANCH  27  28
ATOM     28  C   UNL     1      -4.365  -5.685  32.515  1.00  0.00    -0.000 C 
BRANCH  28  29
ATOM     29  C   UNL     1      -3.466  -6.736  33.181  1.00  0.00    -0.003 C 
ATOM     30  C   UNL     1      -2.012  -6.272  33.220  1.00  0.00     0.004 C 
ENDBRANCH  28  29
ENDBRANCH  27  28
ENDBRANCH  26  27
ENDBRANCH  25  26
ENDBRANCH  24  25
ENDBRANCH  23  24
ENDBRANCH  22  23
ENDBRANCH  21  22
ENDBRANCH  20  21
ENDBRANCH  19  20
ENDBRANCH  18  19
ENDBRANCH  17  18
ENDBRANCH   1  17
TORSDOF 26
ENDMDL
MODEL 7
REMARK VINA RESULT:    -3.822      3.086      4.682
REMARK INTER + INTRA:         -13.635
REMARK INTER:                  -8.737
REMARK INTRA:                  -4.898
REMARK UNBOUND:                -4.004
REMARK SMILES CCCCCCCCCCCCCCCCCCCCCCCCCCCC(=O)[O-]
REMARK SMILES IDX 15 1 16 2 17 3 18 4 19 5 20 6 21 7 22 8 23 9 24 10 25 11
REMARK SMILES IDX 26 12 27 13 28 14 29 15 30 16 14 17 13 18 12 19 11 20 10 21
REMARK SMILES IDX 9 22 8 23 7 24 6 25 5 26 4 27 3 28 2 29 1 30
REMARK H PARENT
REMARK Flexibility Score: inf
ROOT
ATOM      1  C   UNL     1      -3.692  -9.312  37.687  1.00  0.00     0.000 C 
ENDROOT
BRANCH   1   2
ATOM      2  C   UNL     1      -3.189 -10.442  38.612  1.00  0.00     0.000 C 
BRANCH   2   3
ATOM      3  C   UNL     1      -1.694 -10.769  38.434  1.00  0.00     0.000 C 
BRANCH   3   4
ATOM      4  C   UNL     1      -0.808 -10.422  39.643  1.00  0.00     0.000 C 
BRANCH   4   5
ATOM      5  C   UNL     1      -1.473  -9.515  40.697  1.00  0.00     0.000 C 
BRANCH   5   6
ATOM      6  C   UNL     1      -1.985 -10.276  41.938  1.00  0.00     0.000 C 
BRANCH   6   7
ATOM      7  C   UNL     1      -1.232 -11.597  42.164  1.00  0.00     0.000 C 
BRANCH   7   8
ATOM      8  C   UNL     1      -2.209 -12.776  42.251  1.00  0.00     0.000 C 
BRANCH   8   9
ATOM      9  C   UNL     1      -3.591 -12.385  41.701  1.00  0.00     0.000 C 
BRANCH   9  10
ATOM     10  C   UNL     1      -4.702 -12.496  42.757  1.00  0.00     0.000 C 
BRANCH  10  11
ATOM     11  C   UNL     1      -5.467 -11.176  42.959  1.00  0.00     0.000 C 
BRANCH  11  12
ATOM     12  C   UNL     1      -5.979 -10.579  41.639  1.00  0.00     0.006 C 
BRANCH  12  13
ATOM     13  C   UNL     1      -5.566  -9.113  41.455  1.00  0.00     0.053 C 
BRANCH  13  14
ATOM     14  C   UNL     1      -6.733  -8.293  41.007  1.00  0.00     0.041 C 
ATOM     15  O   UNL     1      -6.666  -7.622  39.945  1.00  0.00    -0.550 OA
ATOM     16  O   UNL     1      -7.911  -8.301  41.744  1.00  0.00    -0.550 OA
ENDBRANCH  13  14
ENDBRANCH  12  13
ENDBRANCH  11  12
ENDBRANCH  10  11
ENDBRANCH   9  10
ENDBRANCH   8   9
ENDBRANCH   7   8
ENDBRANCH   6   7
ENDBRANCH   5   6
ENDBRANCH   4   5
ENDBRANCH   3   4
ENDBRANCH   2   3
ENDBRANCH   1   2
BRANCH   1  17
ATOM     17  C   UNL     1      -3.647  -7.935  38.373  1.00  0.00     0.000 C 
BRANCH  17  18
ATOM     18  C   UNL     1      -2.892  -6.880  37.536  1.00  0.00     0.000 C 
BRANCH  18  19
ATOM     19  C   UNL     1      -1.533  -7.368  37.004  1.00  0.00     0.000 C 
BRANCH  19  20
ATOM     20  C   UNL     1      -1.479  -7.608  35.484  1.00  0.00     0.000 C 
BRANCH  20  21
ATOM     21  C   UNL     1      -2.737  -7.170  34.710  1.00  0.00     0.000 C 
BRANCH  21  22
ATOM     22  C   UNL     1      -2.409  -6.573  33.330  1.00  0.00    -0.000 C 
BRANCH  22  23
ATOM     23  C   UNL     1      -3.282  -5.352  32.992  1.00  0.00    -0.000 C 
BRANCH  23  24
ATOM     24  C   UNL     1      -3.249  -4.285  34.100  1.00  0.00    -0.000 C 
BRANCH  24  25
ATOM     25  C   UNL     1      -4.653  -3.775  34.467  1.00  0.00    -0.000 C 
BRANCH  25  26
ATOM     26  C   UNL     1      -5.252  -4.509  35.676  1.00  0.00    -0.000 C 
BRANCH  26  27
ATOM     27  C   UNL     1      -6.313  -5.527  35.229  1.00  0.00    -0.000 C 
BRANCH  27  28
ATOM     28  C   UNL     1      -6.288  -6.815  36.068  1.00  0.00    -0.000 C 
BRANCH  28  29
ATOM     29  C   UNL     1      -6.231  -8.083  35.205  1.00  0.00    -0.003 C 
ATOM     30  C   UNL     1      -6.181  -7.737  33.719  1.00  0.00     0.004 C 
ENDBRANCH  28  29
ENDBRANCH  27  28
ENDBRANCH  26  27
ENDBRANCH  25  26
ENDBRANCH  24  25
ENDBRANCH  23  24
ENDBRANCH  22  23
ENDBRANCH  21  22
ENDBRANCH  20  21
ENDBRANCH  19  20
ENDBRANCH  18  19
ENDBRANCH  17  18
ENDBRANCH   1  17
TORSDOF 26
ENDMDL
MODEL 8
REMARK VINA RESULT:    -3.776      2.074      4.258
REMARK INTER + INTRA:         -13.521
REMARK INTER:                  -7.965
REMARK INTRA:                  -5.555
REMARK UNBOUND:                -4.004
REMARK SMILES CCCCCCCCCCCCCCCCCCCCCCCCCCCC(=O)[O-]
REMARK SMILES IDX 15 1 16 2 17 3 18 4 19 5 20 6 21 7 22 8 23 9 24 10 25 11
REMARK SMILES IDX 26 12 27 13 28 14 29 15 30 16 14 17 13 18 12 19 11 20 10 21
REMARK SMILES IDX 9 22 8 23 7 24 6 25 5 26 4 27 3 28 2 29 1 30
REMARK H PARENT
REMARK Flexibility Score: inf
ROOT
ATOM      1  C   UNL     1      -4.776  -9.971  36.328  1.00  0.00     0.000 C 
ENDROOT
BRANCH   1   2
ATOM      2  C   UNL     1      -3.415 -10.606  35.965  1.00  0.00     0.000 C 
BRANCH   2   3
ATOM      3  C   UNL     1      -2.862 -11.549  37.050  1.00  0.00     0.000 C 
BRANCH   3   4
ATOM      4  C   UNL     1      -1.479 -11.161  37.602  1.00  0.00     0.000 C 
BRANCH   4   5
ATOM      5  C   UNL     1      -0.812  -9.963  36.898  1.00  0.00     0.000 C 
BRANCH   5   6
ATOM      6  C   UNL     1      -0.588  -8.746  37.820  1.00  0.00     0.000 C 
BRANCH   6   7
ATOM      7  C   UNL     1      -0.612  -9.129  39.308  1.00  0.00     0.000 C 
BRANCH   7   8
ATOM      8  C   UNL     1      -1.559  -8.213  40.094  1.00  0.00     0.000 C 
BRANCH   8   9
ATOM      9  C   UNL     1      -2.946  -8.161  39.433  1.00  0.00     0.000 C 
BRANCH   9  10
ATOM     10  C   UNL     1      -3.825  -9.364  39.804  1.00  0.00     0.000 C 
BRANCH  10  11
ATOM     11  C   UNL     1      -4.283  -9.339  41.274  1.00  0.00     0.000 C 
BRANCH  11  12
ATOM     12  C   UNL     1      -3.804 -10.567  42.064  1.00  0.00     0.006 C 
BRANCH  12  13
ATOM     13  C   UNL     1      -3.061 -11.581  41.185  1.00  0.00     0.053 C 
BRANCH  13  14
ATOM     14  C   UNL     1      -1.904 -12.168  41.928  1.00  0.00     0.041 C 
ATOM     15  O   UNL     1      -0.885 -11.469  42.168  1.00  0.00    -0.550 OA
ATOM     16  O   UNL     1      -1.966 -13.477  42.391  1.00  0.00    -0.550 OA
ENDBRANCH  13  14
ENDBRANCH  12  13
ENDBRANCH  11  12
ENDBRANCH  10  11
ENDBRANCH   9  10
ENDBRANCH   8   9
ENDBRANCH   7   8
ENDBRANCH   6   7
ENDBRANCH   5   6
ENDBRANCH   4   5
ENDBRANCH   3   4
ENDBRANCH   2   3
ENDBRANCH   1   2
BRANCH   1  17
ATOM     17  C   UNL     1      -4.786  -8.448  36.106  1.00  0.00     0.000 C 
BRANCH  17  18
ATOM     18  C   UNL     1      -3.449  -7.923  35.540  1.00  0.00     0.000 C 
BRANCH  18  19
ATOM     19  C   UNL     1      -3.090  -6.504  36.014  1.00  0.00     0.000 C 
BRANCH  19  20
ATOM     20  C   UNL     1      -4.165  -5.816  36.877  1.00  0.00     0.000 C 
BRANCH  20  21
ATOM     21  C   UNL     1      -4.991  -4.737  36.152  1.00  0.00     0.000 C 
BRANCH  21  22
ATOM     22  C   UNL     1      -4.392  -4.346  34.789  1.00  0.00    -0.000 C 
BRANCH  22  23
ATOM     23  C   UNL     1      -5.377  -4.562  33.627  1.00  0.00    -0.000 C 
BRANCH  23  24
ATOM     24  C   UNL     1      -4.884  -5.627  32.632  1.00  0.00    -0.000 C 
BRANCH  24  25
ATOM     25  C   UNL     1      -5.604  -6.975  32.808  1.00  0.00    -0.000 C 
BRANCH  25  26
ATOM     26  C   UNL     1      -5.160  -8.022  31.776  1.00  0.00    -0.000 C 
BRANCH  26  27
ATOM     27  C   UNL     1      -3.659  -7.895  31.476  1.00  0.00    -0.000 C 
BRANCH  27  28
ATOM     28  C   UNL     1      -2.824  -8.991  32.156  1.00  0.00    -0.000 C 
BRANCH  28  29
ATOM     29  C   UNL     1      -1.442  -8.494  32.602  1.00  0.00    -0.003 C 
ATOM     30  C   UNL     1      -1.384  -6.968  32.614  1.00  0.00     0.004 C 
ENDBRANCH  28  29
ENDBRANCH  27  28
ENDBRANCH  26  27
ENDBRANCH  25  26
ENDBRANCH  24  25
ENDBRANCH  23  24
ENDBRANCH  22  23
ENDBRANCH  21  22
ENDBRANCH  20  21
ENDBRANCH  19  20
ENDBRANCH  18  19
ENDBRANCH  17  18
ENDBRANCH   1  17
TORSDOF 26
ENDMDL
MODEL 9
REMARK VINA RESULT:    -3.759      3.188      5.468
REMARK INTER + INTRA:         -13.476
REMARK INTER:                  -7.575
REMARK INTRA:                  -5.901
REMARK UNBOUND:                -4.004
REMARK SMILES CCCCCCCCCCCCCCCCCCCCCCCCCCCC(=O)[O-]
REMARK SMILES IDX 15 1 16 2 17 3 18 4 19 5 20 6 21 7 22 8 23 9 24 10 25 11
REMARK SMILES IDX 26 12 27 13 28 14 29 15 30 16 14 17 13 18 12 19 11 20 10 21
REMARK SMILES IDX 9 22 8 23 7 24 6 25 5 26 4 27 3 28 2 29 1 30
REMARK H PARENT
REMARK Flexibility Score: inf
ROOT
ATOM      1  C   UNL     1      -3.208 -12.716  41.002  1.00  0.00     0.000 C 
ENDROOT
BRANCH   1   2
ATOM      2  C   UNL     1      -4.121 -13.961  40.927  1.00  0.00     0.000 C 
BRANCH   2   3
ATOM      3  C   UNL     1      -4.819 -14.298  42.258  1.00  0.00     0.000 C 
BRANCH   3   4
ATOM      4  C   UNL     1      -6.060 -13.444  42.572  1.00  0.00     0.000 C 
BRANCH   4   5
ATOM      5  C   UNL     1      -5.880 -12.437  43.724  1.00  0.00     0.000 C 
BRANCH   5   6
ATOM      6  C   UNL     1      -6.275 -10.992  43.353  1.00  0.00     0.000 C 
BRANCH   6   7
ATOM      7  C   UNL     1      -5.059 -10.135  42.968  1.00  0.00     0.000 C 
BRANCH   7   8
ATOM      8  C   UNL     1      -5.309  -9.391  41.650  1.00  0.00     0.000 C 
BRANCH   8   9
ATOM      9  C   UNL     1      -6.506  -9.995  40.898  1.00  0.00     0.000 C 
BRANCH   9  10
ATOM     10  C   UNL     1      -6.090 -10.729  39.614  1.00  0.00     0.000 C 
BRANCH  10  11
ATOM     11  C   UNL     1      -4.750 -10.227  39.046  1.00  0.00     0.000 C 
BRANCH  11  12
ATOM     12  C   UNL     1      -4.361 -10.931  37.737  1.00  0.00     0.006 C 
BRANCH  12  13
ATOM     13  C   UNL     1      -2.854 -11.201  37.637  1.00  0.00     0.053 C 
BRANCH  13  14
ATOM     14  C   UNL     1      -2.353 -10.871  36.267  1.00  0.00     0.041 C 
ATOM     15  O   UNL     1      -1.132 -10.999  35.991  1.00  0.00    -0.550 OA
ATOM     16  O   UNL     1      -3.243 -10.458  35.283  1.00  0.00    -0.550 OA
ENDBRANCH  13  14
ENDBRANCH  12  13
ENDBRANCH  11  12
ENDBRANCH  10  11
ENDBRANCH   9  10
ENDBRANCH   8   9
ENDBRANCH   7   8
ENDBRANCH   6   7
ENDBRANCH   5   6
ENDBRANCH   4   5
ENDBRANCH   3   4
ENDBRANCH   2   3
ENDBRANCH   1   2
BRANCH   1  17
ATOM     17  C   UNL     1      -2.293 -12.740  42.239  1.00  0.00     0.000 C 
BRANCH  17  18
ATOM     18  C   UNL     1      -1.156 -11.699  42.156  1.00  0.00     0.000 C 
BRANCH  18  19
ATOM     19  C   UNL     1      -1.318 -10.697  40.998  1.00  0.00     0.000 C 
BRANCH  19  20
ATOM     20  C   UNL     1      -1.798  -9.294  41.416  1.00  0.00     0.000 C 
BRANCH  20  21
ATOM     21  C   UNL     1      -1.407  -8.158  40.452  1.00  0.00     0.000 C 
BRANCH  21  22
ATOM     22  C   UNL     1      -0.678  -8.668  39.196  1.00  0.00    -0.000 C 
BRANCH  22  23
ATOM     23  C   UNL     1      -1.109  -7.925  37.920  1.00  0.00    -0.000 C 
BRANCH  23  24
ATOM     24  C   UNL     1      -2.544  -7.379  38.017  1.00  0.00    -0.000 C 
BRANCH  24  25
ATOM     25  C   UNL     1      -3.198  -7.194  36.637  1.00  0.00    -0.000 C 
BRANCH  25  26
ATOM     26  C   UNL     1      -4.004  -5.890  36.534  1.00  0.00    -0.000 C 
BRANCH  26  27
ATOM     27  C   UNL     1      -5.465  -6.175  36.155  1.00  0.00    -0.000 C 
BRANCH  27  28
ATOM     28  C   UNL     1      -5.831  -7.661  36.286  1.00  0.00    -0.000 C 
BRANCH  28  29
ATOM     29  C   UNL     1      -7.034  -7.896  37.211  1.00  0.00    -0.003 C 
ATOM     30  C   UNL     1      -6.860  -7.161  38.538  1.00  0.00     0.004 C 
ENDBRANCH  28  29
ENDBRANCH  27  28
ENDBRANCH  26  27
ENDBRANCH  25  26
ENDBRANCH  24  25
ENDBRANCH  23  24
ENDBRANCH  22  23
ENDBRANCH  21  22
ENDBRANCH  20  21
ENDBRANCH  19  20
ENDBRANCH  18  19
ENDBRANCH  17  18
ENDBRANCH   1  17
TORSDOF 26
ENDMDL
