MODEL 1
REMARK VINA RESULT:    -4.328      0.000      0.000
REMARK INTER + INTRA:          -5.101
REMARK INTER:                  -4.961
REMARK INTRA:                  -0.140
REMARK UNBOUND:                -0.140
REMARK SMILES O=C([O-])C=Cc1ccc(O)cc1
REMARK SMILES IDX 6 1 7 2 12 3 8 4 11 5 9 6 5 7 4 8 2 9 1 10 3 11 10 12
REMARK H PARENT 10 13
REMARK Flexibility Score: inf
ROOT
ATOM      1  C   UNL     1      35.584 -32.731   7.495  1.00  0.00    -0.025 A 
ATOM      2  C   UNL     1      34.621 -33.114   6.538  1.00  0.00     0.012 A 
ATOM      3  C   UNL     1      36.859 -32.340   7.055  1.00  0.00     0.012 A 
ATOM      4  C   UNL     1      34.943 -33.124   5.176  1.00  0.00     0.047 A 
ATOM      5  C   UNL     1      37.178 -32.353   5.694  1.00  0.00     0.047 A 
ATOM      6  C   UNL     1      36.220 -32.748   4.751  1.00  0.00     0.115 A 
ENDROOT
BRANCH   1   7
ATOM      7  C   UNL     1      35.291 -32.691   8.949  1.00  0.00     0.010 C 
ATOM      8  C   UNL     1      35.060 -31.561   9.632  1.00  0.00     0.025 C 
BRANCH   8   9
ATOM      9  C   UNL     1      34.761 -31.571  11.072  1.00  0.00     0.064 C 
ATOM     10  O   UNL     1      34.588 -32.668  11.664  1.00  0.00    -0.545 OA
ATOM     11  O   UNL     1      34.665 -30.385  11.794  1.00  0.00    -0.545 OA
ENDBRANCH   8   9
ENDBRANCH   1   7
BRANCH   6  12
ATOM     12  O   UNL     1      36.526 -32.766   3.391  1.00  0.00    -0.508 OA
ATOM     13  H   UNL     1      36.733 -33.631   2.907  1.00  0.00     0.293 HD
ENDBRANCH   6  12
TORSDOF 3
ENDMDL
MODEL 2
REMARK VINA RESULT:    -4.238      2.245      6.325
REMARK INTER + INTRA:          -4.997
REMARK INTER:                  -4.845
REMARK INTRA:                  -0.152
REMARK UNBOUND:                -0.140
REMARK SMILES O=C([O-])C=Cc1ccc(O)cc1
REMARK SMILES IDX 6 1 7 2 12 3 8 4 11 5 9 6 5 7 4 8 2 9 1 10 3 11 10 12
REMARK H PARENT 10 13
REMARK Flexibility Score: inf
ROOT
ATOM      1  C   UNL     1      35.494 -30.498  10.207  1.00  0.00    -0.025 A 
ATOM      2  C   UNL     1      35.684 -29.167  10.637  1.00  0.00     0.012 A 
ATOM      3  C   UNL     1      34.573 -31.306  10.894  1.00  0.00     0.012 A 
ATOM      4  C   UNL     1      34.983 -28.674  11.743  1.00  0.00     0.047 A 
ATOM      5  C   UNL     1      33.875 -30.810  11.999  1.00  0.00     0.047 A 
ATOM      6  C   UNL     1      34.080 -29.493  12.427  1.00  0.00     0.115 A 
ENDROOT
BRANCH   1   7
ATOM      7  C   UNL     1      36.203 -31.066   9.034  1.00  0.00     0.010 C 
ATOM      8  C   UNL     1      35.823 -32.187   8.404  1.00  0.00     0.025 C 
BRANCH   8   9
ATOM      9  C   UNL     1      36.551 -32.707   7.237  1.00  0.00     0.064 C 
ATOM     10  O   UNL     1      37.807 -32.774   7.267  1.00  0.00    -0.545 OA
ATOM     11  O   UNL     1      35.873 -33.125   6.096  1.00  0.00    -0.545 OA
ENDBRANCH   8   9
ENDBRANCH   1   7
BRANCH   6  12
ATOM     12  O   UNL     1      33.391 -28.988  13.528  1.00  0.00    -0.508 OA
ATOM     13  H   UNL     1      33.216 -27.996  13.633  1.00  0.00     0.293 HD
ENDBRANCH   6  12
TORSDOF 3
ENDMDL
MODEL 3
REMARK VINA RESULT:    -3.839      4.013      6.363
REMARK INTER + INTRA:          -4.540
REMARK INTER:                  -4.400
REMARK INTRA:                  -0.140
REMARK UNBOUND:                -0.140
REMARK SMILES O=C([O-])C=Cc1ccc(O)cc1
REMARK SMILES IDX 6 1 7 2 12 3 8 4 11 5 9 6 5 7 4 8 2 9 1 10 3 11 10 12
REMARK H PARENT 10 13
REMARK Flexibility Score: inf
ROOT
ATOM      1  C   UNL     1      35.826 -30.590  10.798  1.00  0.00    -0.025 A 
ATOM      2  C   UNL     1      36.240 -29.254  10.984  1.00  0.00     0.012 A 
ATOM      3  C   UNL     1      34.523 -30.953  11.178  1.00  0.00     0.012 A 
ATOM      4  C   UNL     1      35.374 -28.318  11.559  1.00  0.00     0.047 A 
ATOM      5  C   UNL     1      33.661 -30.016  11.753  1.00  0.00     0.047 A 
ATOM      6  C   UNL     1      34.085 -28.695  11.947  1.00  0.00     0.115 A 
ENDROOT
BRANCH   1   7
ATOM      7  C   UNL     1      36.700 -31.619  10.183  1.00  0.00     0.010 C 
ATOM      8  C   UNL     1      38.038 -31.599  10.252  1.00  0.00     0.025 C 
BRANCH   8   9
ATOM      9  C   UNL     1      38.864 -32.648   9.636  1.00  0.00     0.064 C 
ATOM     10  O   UNL     1      38.532 -33.125   8.520  1.00  0.00    -0.545 OA
ATOM     11  O   UNL     1      40.008 -33.125  10.268  1.00  0.00    -0.545 OA
ENDBRANCH   8   9
ENDBRANCH   1   7
BRANCH   6  12
ATOM     12  O   UNL     1      33.235 -27.752  12.520  1.00  0.00    -0.508 OA
ATOM     13  H   UNL     1      33.556 -27.121  13.244  1.00  0.00     0.293 HD
ENDBRANCH   6  12
TORSDOF 3
ENDMDL
MODEL 4
REMARK VINA RESULT:    -3.811      2.103      3.065
REMARK INTER + INTRA:          -4.507
REMARK INTER:                  -4.363
REMARK INTRA:                  -0.144
REMARK UNBOUND:                -0.140
REMARK SMILES O=C([O-])C=Cc1ccc(O)cc1
REMARK SMILES IDX 6 1 7 2 12 3 8 4 11 5 9 6 5 7 4 8 2 9 1 10 3 11 10 12
REMARK H PARENT 10 13
REMARK Flexibility Score: inf
ROOT
ATOM      1  C   UNL     1      35.286 -31.420   9.884  1.00  0.00    -0.025 A 
ATOM      2  C   UNL     1      34.663 -32.512   9.244  1.00  0.00     0.012 A 
ATOM      3  C   UNL     1      36.467 -30.896   9.332  1.00  0.00     0.012 A 
ATOM      4  C   UNL     1      35.227 -33.074   8.094  1.00  0.00     0.047 A 
ATOM      5  C   UNL     1      37.028 -31.460   8.184  1.00  0.00     0.047 A 
ATOM      6  C   UNL     1      36.410 -32.553   7.563  1.00  0.00     0.115 A 
ENDROOT
BRANCH   1   7
ATOM      7  C   UNL     1      34.724 -30.780  11.099  1.00  0.00     0.010 C 
ATOM      8  C   UNL     1      34.564 -29.457  11.239  1.00  0.00     0.025 C 
BRANCH   8   9
ATOM      9  C   UNL     1      33.991 -28.867  12.458  1.00  0.00     0.064 C 
ATOM     10  O   UNL     1      33.727 -27.637  12.489  1.00  0.00    -0.545 OA
ATOM     11  O   UNL     1      33.736 -29.646  13.582  1.00  0.00    -0.545 OA
ENDBRANCH   8   9
ENDBRANCH   1   7
BRANCH   6  12
ATOM     12  O   UNL     1      36.961 -33.125   6.417  1.00  0.00    -0.508 OA
ATOM     13  H   UNL     1      37.685 -33.831   6.474  1.00  0.00     0.293 HD
ENDBRANCH   6  12
TORSDOF 3
ENDMDL
MODEL 5
REMARK VINA RESULT:    -3.163     21.688     22.809
REMARK INTER + INTRA:          -3.766
REMARK INTER:                  -3.627
REMARK INTRA:                  -0.138
REMARK UNBOUND:                -0.140
REMARK SMILES O=C([O-])C=Cc1ccc(O)cc1
REMARK SMILES IDX 6 1 7 2 12 3 8 4 11 5 9 6 5 7 4 8 2 9 1 10 3 11 10 12
REMARK H PARENT 10 13
REMARK Flexibility Score: inf
ROOT
ATOM      1  C   UNL     1      21.448 -15.359   5.577  1.00  0.00    -0.025 A 
ATOM      2  C   UNL     1      22.301 -15.967   6.521  1.00  0.00     0.012 A 
ATOM      3  C   UNL     1      21.339 -13.958   5.566  1.00  0.00     0.012 A 
ATOM      4  C   UNL     1      23.005 -15.187   7.445  1.00  0.00     0.047 A 
ATOM      5  C   UNL     1      22.043 -13.182   6.491  1.00  0.00     0.047 A 
ATOM      6  C   UNL     1      22.877 -13.795   7.434  1.00  0.00     0.115 A 
ENDROOT
BRANCH   1   7
ATOM      7  C   UNL     1      20.689 -16.138   4.568  1.00  0.00     0.010 C 
ATOM      8  C   UNL     1      21.007 -16.186   3.267  1.00  0.00     0.025 C 
BRANCH   8   9
ATOM      9  C   UNL     1      20.231 -16.983   2.305  1.00  0.00     0.064 C 
ATOM     10  O   UNL     1      19.884 -18.155   2.606  1.00  0.00    -0.545 OA
ATOM     11  O   UNL     1      19.875 -16.464   1.065  1.00  0.00    -0.545 OA
ENDBRANCH   8   9
ENDBRANCH   1   7
BRANCH   6  12
ATOM     12  O   UNL     1      23.583 -13.032   8.362  1.00  0.00    -0.508 OA
ATOM     13  H   UNL     1      24.579 -13.153   8.498  1.00  0.00     0.293 HD
ENDBRANCH   6  12
TORSDOF 3
ENDMDL
MODEL 6
REMARK VINA RESULT:    -2.867     21.445     22.263
REMARK INTER + INTRA:          -3.426
REMARK INTER:                  -3.286
REMARK INTRA:                  -0.140
REMARK UNBOUND:                -0.140
REMARK SMILES O=C([O-])C=Cc1ccc(O)cc1
REMARK SMILES IDX 6 1 7 2 12 3 8 4 11 5 9 6 5 7 4 8 2 9 1 10 3 11 10 12
REMARK H PARENT 10 13
REMARK Flexibility Score: inf
ROOT
ATOM      1  C   UNL     1      21.551 -15.175   5.468  1.00  0.00    -0.025 A 
ATOM      2  C   UNL     1      21.762 -13.781   5.405  1.00  0.00     0.012 A 
ATOM      3  C   UNL     1      20.788 -15.790   4.462  1.00  0.00     0.012 A 
ATOM      4  C   UNL     1      21.200 -13.027   4.369  1.00  0.00     0.047 A 
ATOM      5  C   UNL     1      20.227 -15.033   3.429  1.00  0.00     0.047 A 
ATOM      6  C   UNL     1      20.430 -13.649   3.382  1.00  0.00     0.115 A 
ENDROOT
BRANCH   1   7
ATOM      7  C   UNL     1      22.134 -16.022   6.537  1.00  0.00     0.010 C 
ATOM      8  C   UNL     1      23.223 -15.689   7.243  1.00  0.00     0.025 C 
BRANCH   8   9
ATOM      9  C   UNL     1      23.758 -16.556   8.303  1.00  0.00     0.064 C 
ATOM     10  O   UNL     1      23.636 -16.213   9.508  1.00  0.00    -0.545 OA
ATOM     11  O   UNL     1      24.401 -17.751   7.997  1.00  0.00    -0.545 OA
ENDBRANCH   8   9
ENDBRANCH   1   7
BRANCH   6  12
ATOM     12  O   UNL     1      19.875 -12.883   2.358  1.00  0.00    -0.508 OA
ATOM     13  H   UNL     1      20.379 -12.109   1.943  1.00  0.00     0.293 HD
ENDBRANCH   6  12
TORSDOF 3
ENDMDL
MODEL 7
REMARK VINA RESULT:    -2.783     22.023     23.056
REMARK INTER + INTRA:          -3.329
REMARK INTER:                  -3.187
REMARK INTRA:                  -0.143
REMARK UNBOUND:                -0.140
REMARK SMILES O=C([O-])C=Cc1ccc(O)cc1
REMARK SMILES IDX 6 1 7 2 12 3 8 4 11 5 9 6 5 7 4 8 2 9 1 10 3 11 10 12
REMARK H PARENT 10 13
REMARK Flexibility Score: inf
ROOT
ATOM      1  C   UNL     1      20.622 -15.846   4.222  1.00  0.00    -0.025 A 
ATOM      2  C   UNL     1      20.778 -16.167   5.587  1.00  0.00     0.012 A 
ATOM      3  C   UNL     1      20.852 -14.523   3.807  1.00  0.00     0.012 A 
ATOM      4  C   UNL     1      21.133 -15.178   6.510  1.00  0.00     0.047 A 
ATOM      5  C   UNL     1      21.205 -13.538   4.732  1.00  0.00     0.047 A 
ATOM      6  C   UNL     1      21.345 -13.862   6.088  1.00  0.00     0.115 A 
ENDROOT
BRANCH   1   7
ATOM      7  C   UNL     1      20.258 -16.859   3.200  1.00  0.00     0.010 C 
ATOM      8  C   UNL     1      20.917 -17.022   2.045  1.00  0.00     0.025 C 
BRANCH   8   9
ATOM      9  C   UNL     1      20.527 -18.048   1.066  1.00  0.00     0.064 C 
ATOM     10  O   UNL     1      20.335 -17.721  -0.134  1.00  0.00    -0.545 OA
ATOM     11  O   UNL     1      20.366 -19.377   1.444  1.00  0.00    -0.545 OA
ENDBRANCH   8   9
ENDBRANCH   1   7
BRANCH   6  12
ATOM     12  O   UNL     1      21.696 -12.888   7.020  1.00  0.00    -0.508 OA
ATOM     13  H   UNL     1      22.512 -12.991   7.610  1.00  0.00     0.293 HD
ENDBRANCH   6  12
TORSDOF 3
ENDMDL
MODEL 8
REMARK VINA RESULT:    -2.756     21.712     22.893
REMARK INTER + INTRA:          -3.299
REMARK INTER:                  -3.150
REMARK INTRA:                  -0.148
REMARK UNBOUND:                -0.140
REMARK SMILES O=C([O-])C=Cc1ccc(O)cc1
REMARK SMILES IDX 6 1 7 2 12 3 8 4 11 5 9 6 5 7 4 8 2 9 1 10 3 11 10 12
REMARK H PARENT 10 13
REMARK Flexibility Score: inf
ROOT
ATOM      1  C   UNL     1      22.060 -14.618   5.972  1.00  0.00    -0.025 A 
ATOM      2  C   UNL     1      22.743 -13.794   6.891  1.00  0.00     0.012 A 
ATOM      3  C   UNL     1      22.129 -16.012   6.129  1.00  0.00     0.012 A 
ATOM      4  C   UNL     1      23.496 -14.362   7.925  1.00  0.00     0.047 A 
ATOM      5  C   UNL     1      22.882 -16.575   7.163  1.00  0.00     0.047 A 
ATOM      6  C   UNL     1      23.570 -15.751   8.063  1.00  0.00     0.115 A 
ENDROOT
BRANCH   1   7
ATOM      7  C   UNL     1      21.239 -14.067   4.865  1.00  0.00     0.010 C 
ATOM      8  C   UNL     1      21.138 -14.637   3.656  1.00  0.00     0.025 C 
BRANCH   8   9
ATOM      9  C   UNL     1      20.301 -14.062   2.592  1.00  0.00     0.064 C 
ATOM     10  O   UNL     1      19.875 -12.883   2.706  1.00  0.00    -0.545 OA
ATOM     11  O   UNL     1      19.971 -14.799   1.460  1.00  0.00    -0.545 OA
ENDBRANCH   8   9
ENDBRANCH   1   7
BRANCH   6  12
ATOM     12  O   UNL     1      24.324 -16.301   9.097  1.00  0.00    -0.508 OA
ATOM     13  H   UNL     1      24.804 -15.716   9.771  1.00  0.00     0.293 HD
ENDBRANCH   6  12
TORSDOF 3
ENDMDL
MODEL 9
REMARK VINA RESULT:    -2.616     21.502     22.038
REMARK INTER + INTRA:          -3.139
REMARK INTER:                  -2.990
REMARK INTRA:                  -0.148
REMARK UNBOUND:                -0.140
REMARK SMILES O=C([O-])C=Cc1ccc(O)cc1
REMARK SMILES IDX 6 1 7 2 12 3 8 4 11 5 9 6 5 7 4 8 2 9 1 10 3 11 10 12
REMARK H PARENT 10 13
REMARK Flexibility Score: inf
ROOT
ATOM      1  C   UNL     1      20.124 -18.211   1.508  1.00  0.00    -0.025 A 
ATOM      2  C   UNL     1      19.987 -19.614   1.559  1.00  0.00     0.012 A 
ATOM      3  C   UNL     1      20.156 -17.579   0.253  1.00  0.00     0.012 A 
ATOM      4  C   UNL     1      19.909 -20.361   0.379  1.00  0.00     0.047 A 
ATOM      5  C   UNL     1      20.079 -18.329  -0.924  1.00  0.00     0.047 A 
ATOM      6  C   UNL     1      19.957 -19.723  -0.864  1.00  0.00     0.115 A 
ENDROOT
BRANCH   1   7
ATOM      7  C   UNL     1      20.199 -17.371   2.729  1.00  0.00     0.010 C 
ATOM      8  C   UNL     1      20.886 -16.223   2.803  1.00  0.00     0.025 C 
BRANCH   8   9
ATOM      9  C   UNL     1      20.922 -15.416   4.032  1.00  0.00     0.064 C 
ATOM     10  O   UNL     1      20.978 -15.991   5.151  1.00  0.00    -0.545 OA
ATOM     11  O   UNL     1      20.893 -14.027   3.981  1.00  0.00    -0.545 OA
ENDBRANCH   8   9
ENDBRANCH   1   7
BRANCH   6  12
ATOM     12  O   UNL     1      19.880 -20.481  -2.030  1.00  0.00    -0.508 OA
ATOM     13  H   UNL     1      20.439 -21.316  -2.157  1.00  0.00     0.293 HD
ENDBRANCH   6  12
TORSDOF 3
ENDMDL
