MODEL 1
REMARK VINA RESULT:    -5.860      0.000      0.000
REMARK INTER + INTRA:          -5.860
REMARK INTER:                  -5.860
REMARK INTRA:                   0.000
REMARK UNBOUND:                 0.000
REMARK SMILES O=c1ccc2ccc3occc3c2o1
REMARK SMILES IDX 6 1 7 2 8 3 12 4 11 5 10 6 9 7 13 8 5 9 4 10 3 11 2 12 1 13
REMARK SMILES IDX 14 14
REMARK H PARENT
REMARK Flexibility Score: inf
ROOT
ATOM      1  C   UNL     1      11.488 -12.067 -44.979  1.00  0.00     0.016 A 
ATOM      2  C   UNL     1      10.671 -12.937 -45.727  1.00  0.00     0.048 A 
ATOM      3  C   UNL     1       9.387 -12.508 -46.059  1.00  0.00     0.137 A 
ATOM      4  C   UNL     1       8.913 -11.281 -45.678  1.00  0.00     0.064 A 
ATOM      5  C   UNL     1       7.630 -11.180 -46.163  1.00  0.00     0.054 A 
ATOM      6  C   UNL     1       7.409 -12.384 -46.822  1.00  0.00     0.196 A 
ATOM      7  O   UNL     1       8.477 -13.157 -46.742  1.00  0.00    -0.464 OA
ATOM      8  C   UNL     1       9.690 -10.392 -44.937  1.00  0.00     0.149 A 
ATOM      9  C   UNL     1      11.002 -10.797 -44.582  1.00  0.00     0.018 A 
ATOM     10  C   UNL     1      11.787  -9.910 -43.840  1.00  0.00     0.019 A 
ATOM     11  C   UNL     1      11.260  -8.671 -43.475  1.00  0.00     0.094 A 
ATOM     12  C   UNL     1       9.953  -8.343 -43.863  1.00  0.00     0.336 A 
ATOM     13  O   UNL     1       9.464  -7.229 -43.541  1.00  0.00    -0.246 OA
ATOM     14  O   UNL     1       9.224  -9.202 -44.570  1.00  0.00    -0.422 OA
ENDROOT
TORSDOF 0
ENDMDL
MODEL 2
REMARK VINA RESULT:    -5.690      2.339      4.338
REMARK INTER + INTRA:          -5.690
REMARK INTER:                  -5.690
REMARK INTRA:                   0.000
REMARK UNBOUND:                 0.000
REMARK SMILES O=c1ccc2ccc3occc3c2o1
REMARK SMILES IDX 6 1 7 2 8 3 12 4 11 5 10 6 9 7 13 8 5 9 4 10 3 11 2 12 1 13
REMARK SMILES IDX 14 14
REMARK H PARENT
REMARK Flexibility Score: inf
ROOT
ATOM      1  C   UNL     1       9.965 -11.836 -45.560  1.00  0.00     0.016 A 
ATOM      2  C   UNL     1       9.174 -10.686 -45.371  1.00  0.00     0.048 A 
ATOM      3  C   UNL     1       9.684  -9.663 -44.574  1.00  0.00     0.137 A 
ATOM      4  C   UNL     1      10.916  -9.752 -43.982  1.00  0.00     0.064 A 
ATOM      5  C   UNL     1      11.106  -8.587 -43.276  1.00  0.00     0.054 A 
ATOM      6  C   UNL     1       9.946  -7.852 -43.495  1.00  0.00     0.196 A 
ATOM      7  O   UNL     1       9.115  -8.522 -44.273  1.00  0.00    -0.464 OA
ATOM      8  C   UNL     1      11.728 -10.873 -44.146  1.00  0.00     0.149 A 
ATOM      9  C   UNL     1      11.239 -11.933 -44.951  1.00  0.00     0.018 A 
ATOM     10  C   UNL     1      12.050 -13.060 -45.119  1.00  0.00     0.019 A 
ATOM     11  C   UNL     1      13.298 -13.104 -44.496  1.00  0.00     0.094 A 
ATOM     12  C   UNL     1      13.710 -12.017 -43.714  1.00  0.00     0.336 A 
ATOM     13  O   UNL     1      14.833 -12.043 -43.146  1.00  0.00    -0.246 OA
ATOM     14  O   UNL     1      12.924 -10.954 -43.568  1.00  0.00    -0.422 OA
ENDROOT
TORSDOF 0
ENDMDL
MODEL 3
REMARK VINA RESULT:    -5.569      2.050      4.581
REMARK INTER + INTRA:          -5.569
REMARK INTER:                  -5.569
REMARK INTRA:                   0.000
REMARK UNBOUND:                 0.000
REMARK SMILES O=c1ccc2ccc3occc3c2o1
REMARK SMILES IDX 6 1 7 2 8 3 12 4 11 5 10 6 9 7 13 8 5 9 4 10 3 11 2 12 1 13
REMARK SMILES IDX 14 14
REMARK H PARENT
REMARK Flexibility Score: inf
ROOT
ATOM      1  C   UNL     1      10.492  -9.277 -44.635  1.00  0.00     0.016 A 
ATOM      2  C   UNL     1      11.821  -9.472 -44.213  1.00  0.00     0.048 A 
ATOM      3  C   UNL     1      12.324 -10.773 -44.208  1.00  0.00     0.137 A 
ATOM      4  C   UNL     1      11.565 -11.843 -44.598  1.00  0.00     0.064 A 
ATOM      5  C   UNL     1      12.357 -12.961 -44.472  1.00  0.00     0.054 A 
ATOM      6  C   UNL     1      13.573 -12.478 -44.003  1.00  0.00     0.196 A 
ATOM      7  O   UNL     1      13.523 -11.166 -43.854  1.00  0.00    -0.464 OA
ATOM      8  C   UNL     1      10.247 -11.692 -45.022  1.00  0.00     0.149 A 
ATOM      9  C   UNL     1       9.703 -10.382 -45.039  1.00  0.00     0.018 A 
ATOM     10  C   UNL     1       8.381 -10.223 -45.465  1.00  0.00     0.019 A 
ATOM     11  C   UNL     1       7.647 -11.345 -45.852  1.00  0.00     0.094 A 
ATOM     12  C   UNL     1       8.254 -12.608 -45.806  1.00  0.00     0.336 A 
ATOM     13  O   UNL     1       7.604 -13.629 -46.152  1.00  0.00    -0.246 OA
ATOM     14  O   UNL     1       9.514 -12.736 -45.399  1.00  0.00    -0.422 OA
ENDROOT
TORSDOF 0
ENDMDL
MODEL 4
REMARK VINA RESULT:    -5.367      1.997      2.917
REMARK INTER + INTRA:          -5.367
REMARK INTER:                  -5.367
REMARK INTRA:                   0.000
REMARK UNBOUND:                 0.000
REMARK SMILES O=c1ccc2ccc3occc3c2o1
REMARK SMILES IDX 6 1 7 2 8 3 12 4 11 5 10 6 9 7 13 8 5 9 4 10 3 11 2 12 1 13
REMARK SMILES IDX 14 14
REMARK H PARENT
REMARK Flexibility Score: inf
ROOT
ATOM      1  C   UNL     1       8.409 -10.223 -45.467  1.00  0.00     0.016 A 
ATOM      2  C   UNL     1       7.586 -11.307 -45.829  1.00  0.00     0.048 A 
ATOM      3  C   UNL     1       8.117 -12.593 -45.736  1.00  0.00     0.137 A 
ATOM      4  C   UNL     1       9.398 -12.818 -45.307  1.00  0.00     0.064 A 
ATOM      5  C   UNL     1       9.595 -14.179 -45.335  1.00  0.00     0.054 A 
ATOM      6  C   UNL     1       8.388 -14.699 -45.790  1.00  0.00     0.196 A 
ATOM      7  O   UNL     1       7.525 -13.726 -46.022  1.00  0.00    -0.464 OA
ATOM      8  C   UNL     1      10.242 -11.773 -44.939  1.00  0.00     0.149 A 
ATOM      9  C   UNL     1       9.734 -10.451 -45.022  1.00  0.00     0.018 A 
ATOM     10  C   UNL     1      10.577  -9.397 -44.654  1.00  0.00     0.019 A 
ATOM     11  C   UNL     1      11.874  -9.677 -44.224  1.00  0.00     0.094 A 
ATOM     12  C   UNL     1      12.304 -11.010 -44.170  1.00  0.00     0.336 A 
ATOM     13  O   UNL     1      13.472 -11.277 -43.784  1.00  0.00    -0.246 OA
ATOM     14  O   UNL     1      11.486 -11.997 -44.523  1.00  0.00    -0.422 OA
ENDROOT
TORSDOF 0
ENDMDL
MODEL 5
REMARK VINA RESULT:    -5.356      2.077      3.878
REMARK INTER + INTRA:          -5.356
REMARK INTER:                  -5.356
REMARK INTRA:                   0.000
REMARK UNBOUND:                 0.000
REMARK SMILES O=c1ccc2ccc3occc3c2o1
REMARK SMILES IDX 6 1 7 2 8 3 12 4 11 5 10 6 9 7 13 8 5 9 4 10 3 11 2 12 1 13
REMARK SMILES IDX 14 14
REMARK H PARENT
REMARK Flexibility Score: inf
ROOT
ATOM      1  C   UNL     1      11.571  -9.676 -43.887  1.00  0.00     0.016 A 
ATOM      2  C   UNL     1      10.270  -9.278 -44.250  1.00  0.00     0.048 A 
ATOM      3  C   UNL     1       9.476 -10.188 -44.946  1.00  0.00     0.137 A 
ATOM      4  C   UNL     1       9.928 -11.437 -45.277  1.00  0.00     0.064 A 
ATOM      5  C   UNL     1       8.907 -12.066 -45.951  1.00  0.00     0.054 A 
ATOM      6  C   UNL     1       7.879 -11.130 -45.982  1.00  0.00     0.196 A 
ATOM      7  O   UNL     1       8.249 -10.017 -45.374  1.00  0.00    -0.464 OA
ATOM      8  C   UNL     1      11.208 -11.868 -44.936  1.00  0.00     0.149 A 
ATOM      9  C   UNL     1      12.043 -10.967 -44.227  1.00  0.00     0.018 A 
ATOM     10  C   UNL     1      13.329 -11.394 -43.881  1.00  0.00     0.019 A 
ATOM     11  C   UNL     1      13.744 -12.676 -44.241  1.00  0.00     0.094 A 
ATOM     12  C   UNL     1      12.861 -13.509 -44.942  1.00  0.00     0.336 A 
ATOM     13  O   UNL     1      13.222 -14.668 -45.273  1.00  0.00    -0.246 OA
ATOM     14  O   UNL     1      11.642 -13.083 -45.260  1.00  0.00    -0.422 OA
ENDROOT
TORSDOF 0
ENDMDL
MODEL 6
REMARK VINA RESULT:    -5.213      2.984      4.528
REMARK INTER + INTRA:          -5.213
REMARK INTER:                  -5.213
REMARK INTRA:                   0.000
REMARK UNBOUND:                 0.000
REMARK SMILES O=c1ccc2ccc3occc3c2o1
REMARK SMILES IDX 6 1 7 2 8 3 12 4 11 5 10 6 9 7 13 8 5 9 4 10 3 11 2 12 1 13
REMARK SMILES IDX 14 14
REMARK H PARENT
REMARK Flexibility Score: inf
ROOT
ATOM      1  C   UNL     1      11.338 -13.492 -44.396  1.00  0.00     0.016 A 
ATOM      2  C   UNL     1      12.570 -14.122 -44.135  1.00  0.00     0.048 A 
ATOM      3  C   UNL     1      13.691 -13.316 -43.943  1.00  0.00     0.137 A 
ATOM      4  C   UNL     1      13.618 -11.950 -44.000  1.00  0.00     0.064 A 
ATOM      5  C   UNL     1      14.888 -11.472 -43.768  1.00  0.00     0.054 A 
ATOM      6  C   UNL     1      15.662 -12.612 -43.581  1.00  0.00     0.196 A 
ATOM      7  O   UNL     1      14.919 -13.699 -43.692  1.00  0.00    -0.464 OA
ATOM      8  C   UNL     1      12.419 -11.289 -44.255  1.00  0.00     0.149 A 
ATOM      9  C   UNL     1      11.258 -12.079 -44.456  1.00  0.00     0.018 A 
ATOM     10  C   UNL     1      10.050 -11.422 -44.712  1.00  0.00     0.019 A 
ATOM     11  C   UNL     1      10.027 -10.027 -44.761  1.00  0.00     0.094 A 
ATOM     12  C   UNL     1      11.217  -9.316 -44.552  1.00  0.00     0.336 A 
ATOM     13  O   UNL     1      11.211  -8.058 -44.594  1.00  0.00    -0.246 OA
ATOM     14  O   UNL     1      12.355  -9.961 -44.309  1.00  0.00    -0.422 OA
ENDROOT
TORSDOF 0
ENDMDL
MODEL 7
REMARK VINA RESULT:    -5.153      1.398      4.285
REMARK INTER + INTRA:          -5.153
REMARK INTER:                  -5.153
REMARK INTRA:                   0.000
REMARK UNBOUND:                 0.000
REMARK SMILES O=c1ccc2ccc3occc3c2o1
REMARK SMILES IDX 6 1 7 2 8 3 12 4 11 5 10 6 9 7 13 8 5 9 4 10 3 11 2 12 1 13
REMARK SMILES IDX 14 14
REMARK H PARENT
REMARK Flexibility Score: inf
ROOT
ATOM      1  C   UNL     1      12.063 -12.092 -44.560  1.00  0.00     0.016 A 
ATOM      2  C   UNL     1      12.423 -10.818 -44.080  1.00  0.00     0.048 A 
ATOM      3  C   UNL     1      11.446  -9.824 -44.062  1.00  0.00     0.137 A 
ATOM      4  C   UNL     1      10.168 -10.057 -44.494  1.00  0.00     0.064 A 
ATOM      5  C   UNL     1       9.474  -8.879 -44.343  1.00  0.00     0.054 A 
ATOM      6  C   UNL     1      10.403  -7.990 -43.815  1.00  0.00     0.196 A 
ATOM      7  O   UNL     1      11.573  -8.583 -43.659  1.00  0.00    -0.464 OA
ATOM      8  C   UNL     1       9.773 -11.303 -44.976  1.00  0.00     0.149 A 
ATOM      9  C   UNL     1      10.743 -12.338 -45.008  1.00  0.00     0.018 A 
ATOM     10  C   UNL     1      10.353 -13.592 -45.490  1.00  0.00     0.019 A 
ATOM     11  C   UNL     1       9.038 -13.780 -45.920  1.00  0.00     0.094 A 
ATOM     12  C   UNL     1       8.138 -12.708 -45.858  1.00  0.00     0.336 A 
ATOM     13  O   UNL     1       6.950 -12.864 -46.242  1.00  0.00    -0.246 OA
ATOM     14  O   UNL     1       8.530 -11.524 -45.395  1.00  0.00    -0.422 OA
ENDROOT
TORSDOF 0
ENDMDL
MODEL 8
REMARK VINA RESULT:    -4.882     11.926     12.206
REMARK INTER + INTRA:          -4.882
REMARK INTER:                  -4.882
REMARK INTRA:                   0.000
REMARK UNBOUND:                 0.000
REMARK SMILES O=c1ccc2ccc3occc3c2o1
REMARK SMILES IDX 6 1 7 2 8 3 12 4 11 5 10 6 9 7 13 8 5 9 4 10 3 11 2 12 1 13
REMARK SMILES IDX 14 14
REMARK H PARENT
REMARK Flexibility Score: inf
ROOT
ATOM      1  C   UNL     1       5.889 -15.540 -37.336  1.00  0.00     0.016 A 
ATOM      2  C   UNL     1       6.352 -16.514 -38.241  1.00  0.00     0.048 A 
ATOM      3  C   UNL     1       6.538 -17.813 -37.770  1.00  0.00     0.137 A 
ATOM      4  C   UNL     1       6.285 -18.153 -36.468  1.00  0.00     0.064 A 
ATOM      5  C   UNL     1       6.570 -19.493 -36.342  1.00  0.00     0.054 A 
ATOM      6  C   UNL     1       6.988 -19.882 -37.610  1.00  0.00     0.196 A 
ATOM      7  O   UNL     1       6.959 -18.856 -38.442  1.00  0.00    -0.464 OA
ATOM      8  C   UNL     1       5.825 -17.219 -35.542  1.00  0.00     0.149 A 
ATOM      9  C   UNL     1       5.625 -15.888 -35.988  1.00  0.00     0.018 A 
ATOM     10  C   UNL     1       5.164 -14.946 -35.064  1.00  0.00     0.019 A 
ATOM     11  C   UNL     1       4.919 -15.341 -33.748  1.00  0.00     0.094 A 
ATOM     12  C   UNL     1       5.142 -16.675 -33.382  1.00  0.00     0.336 A 
ATOM     13  O   UNL     1       4.927 -17.046 -32.199  1.00  0.00    -0.246 OA
ATOM     14  O   UNL     1       5.581 -17.556 -34.278  1.00  0.00    -0.422 OA
ENDROOT
TORSDOF 0
ENDMDL
MODEL 9
REMARK VINA RESULT:    -4.851      4.308      6.150
REMARK INTER + INTRA:          -4.851
REMARK INTER:                  -4.851
REMARK INTRA:                   0.000
REMARK UNBOUND:                 0.000
REMARK SMILES O=c1ccc2ccc3occc3c2o1
REMARK SMILES IDX 6 1 7 2 8 3 12 4 11 5 10 6 9 7 13 8 5 9 4 10 3 11 2 12 1 13
REMARK SMILES IDX 14 14
REMARK H PARENT
REMARK Flexibility Score: inf
ROOT
ATOM      1  C   UNL     1      14.357 -13.815 -45.742  1.00  0.00     0.016 A 
ATOM      2  C   UNL     1      15.739 -13.786 -45.470  1.00  0.00     0.048 A 
ATOM      3  C   UNL     1      16.185 -12.976 -44.427  1.00  0.00     0.137 A 
ATOM      4  C   UNL     1      15.322 -12.222 -43.676  1.00  0.00     0.064 A 
ATOM      5  C   UNL     1      16.083 -11.552 -42.746  1.00  0.00     0.054 A 
ATOM      6  C   UNL     1      17.388 -11.956 -43.004  1.00  0.00     0.196 A 
ATOM      7  O   UNL     1      17.417 -12.807 -44.015  1.00  0.00    -0.464 OA
ATOM      8  C   UNL     1      13.949 -12.224 -43.914  1.00  0.00     0.149 A 
ATOM      9  C   UNL     1      13.461 -13.038 -44.969  1.00  0.00     0.018 A 
ATOM     10  C   UNL     1      12.085 -13.045 -45.212  1.00  0.00     0.019 A 
ATOM     11  C   UNL     1      11.246 -12.259 -44.420  1.00  0.00     0.094 A 
ATOM     12  C   UNL     1      11.804 -11.481 -43.397  1.00  0.00     0.336 A 
ATOM     13  O   UNL     1      11.059 -10.768 -42.675  1.00  0.00    -0.246 OA
ATOM     14  O   UNL     1      13.116 -11.490 -43.182  1.00  0.00    -0.422 OA
ENDROOT
TORSDOF 0
ENDMDL
