MODEL 1
REMARK VINA RESULT:    -6.094      0.000      0.000
REMARK INTER + INTRA:          -6.996
REMARK INTER:                  -6.807
REMARK INTRA:                  -0.190
REMARK UNBOUND:                -0.190
REMARK SMILES CC(C)c1ccc(C=O)cc1
REMARK SMILES IDX 4 1 5 2 6 3 7 4 10 5 11 6 2 7 1 8 3 9 8 10 9 11
REMARK H PARENT
REMARK Flexibility Score: inf
ROOT
ATOM      1  C   UNL     1     -13.564   0.486  -9.757  1.00  0.00    -0.045 A 
ATOM      2  C   UNL     1     -13.843   1.843  -9.519  1.00  0.00     0.005 A 
ATOM      3  C   UNL     1     -12.806   2.767  -9.367  1.00  0.00     0.012 A 
ATOM      4  C   UNL     1     -11.466   2.351  -9.450  1.00  0.00     0.014 A 
ATOM      5  C   UNL     1     -11.183   0.997  -9.686  1.00  0.00     0.012 A 
ATOM      6  C   UNL     1     -12.221   0.073  -9.838  1.00  0.00     0.005 A 
ENDROOT
BRANCH   1   7
ATOM      7  C   UNL     1     -14.700  -0.505  -9.920  1.00  0.00     0.013 C 
ATOM      8  C   UNL     1     -14.167  -1.928 -10.125  1.00  0.00     0.012 C 
ATOM      9  C   UNL     1     -15.663  -0.443  -8.728  1.00  0.00     0.012 C 
ENDBRANCH   1   7
BRANCH   4  10
ATOM     10  C   UNL     1     -10.359   3.310  -9.292  1.00  0.00     0.260 C 
ATOM     11  O   UNL     1      -9.415   3.358 -10.124  1.00  0.00    -0.298 OA
ENDBRANCH   4  10
TORSDOF 2
ENDMDL
MODEL 2
REMARK VINA RESULT:    -5.337      3.021      5.115
REMARK INTER + INTRA:          -6.151
REMARK INTER:                  -5.955
REMARK INTRA:                  -0.196
REMARK UNBOUND:                -0.190
REMARK SMILES CC(C)c1ccc(C=O)cc1
REMARK SMILES IDX 4 1 5 2 6 3 7 4 10 5 11 6 2 7 1 8 3 9 8 10 9 11
REMARK H PARENT
REMARK Flexibility Score: inf
ROOT
ATOM      1  C   UNL     1     -13.902   1.090  -9.465  1.00  0.00    -0.045 A 
ATOM      2  C   UNL     1     -15.099   1.113  -8.729  1.00  0.00     0.005 A 
ATOM      3  C   UNL     1     -15.827  -0.061  -8.519  1.00  0.00     0.012 A 
ATOM      4  C   UNL     1     -15.371  -1.283  -9.042  1.00  0.00     0.014 A 
ATOM      5  C   UNL     1     -14.177  -1.309  -9.778  1.00  0.00     0.012 A 
ATOM      6  C   UNL     1     -13.449  -0.135  -9.988  1.00  0.00     0.005 A 
ENDROOT
BRANCH   1   7
ATOM      7  C   UNL     1     -13.123   2.373  -9.685  1.00  0.00     0.013 C 
ATOM      8  C   UNL     1     -13.497   3.433  -8.642  1.00  0.00     0.012 C 
ATOM      9  C   UNL     1     -11.613   2.109  -9.687  1.00  0.00     0.012 C 
ENDBRANCH   1   7
BRANCH   4  10
ATOM     10  C   UNL     1     -16.125  -2.532  -8.830  1.00  0.00     0.260 C 
ATOM     11  O   UNL     1     -15.584  -3.656  -9.001  1.00  0.00    -0.298 OA
ENDBRANCH   4  10
TORSDOF 2
ENDMDL
MODEL 3
REMARK VINA RESULT:    -4.875      2.484      4.453
REMARK INTER + INTRA:          -5.634
REMARK INTER:                  -5.447
REMARK INTRA:                  -0.188
REMARK UNBOUND:                -0.190
REMARK SMILES CC(C)c1ccc(C=O)cc1
REMARK SMILES IDX 4 1 5 2 6 3 7 4 10 5 11 6 2 7 1 8 3 9 8 10 9 11
REMARK H PARENT
REMARK Flexibility Score: inf
ROOT
ATOM      1  C   UNL     1     -12.345   1.250  -9.744  1.00  0.00    -0.045 A 
ATOM      2  C   UNL     1     -11.007   0.819  -9.760  1.00  0.00     0.005 A 
ATOM      3  C   UNL     1     -10.699  -0.537  -9.883  1.00  0.00     0.012 A 
ATOM      4  C   UNL     1     -11.723  -1.492  -9.993  1.00  0.00     0.014 A 
ATOM      5  C   UNL     1     -13.060  -1.067  -9.978  1.00  0.00     0.012 A 
ATOM      6  C   UNL     1     -13.369   0.291  -9.854  1.00  0.00     0.005 A 
ENDROOT
BRANCH   1   7
ATOM      7  C   UNL     1     -12.666   2.726  -9.610  1.00  0.00     0.013 C 
ATOM      8  C   UNL     1     -13.329   3.027  -8.260  1.00  0.00     0.012 C 
ATOM      9  C   UNL     1     -11.412   3.585  -9.812  1.00  0.00     0.012 C 
ENDBRANCH   1   7
BRANCH   4  10
ATOM     10  C   UNL     1     -11.416  -2.928 -10.125  1.00  0.00     0.260 C 
ATOM     11  O   UNL     1     -10.398  -3.429  -9.579  1.00  0.00    -0.298 OA
ENDBRANCH   4  10
TORSDOF 2
ENDMDL
MODEL 4
REMARK VINA RESULT:    -4.518     17.154     18.092
REMARK INTER + INTRA:          -5.237
REMARK INTER:                  -5.044
REMARK INTRA:                  -0.192
REMARK UNBOUND:                -0.190
REMARK SMILES CC(C)c1ccc(C=O)cc1
REMARK SMILES IDX 4 1 5 2 6 3 7 4 10 5 11 6 2 7 1 8 3 9 8 10 9 11
REMARK H PARENT
REMARK Flexibility Score: inf
ROOT
ATOM      1  C   UNL     1     -10.909   4.870   6.827  1.00  0.00    -0.045 A 
ATOM      2  C   UNL     1     -11.431   3.614   6.474  1.00  0.00     0.005 A 
ATOM      3  C   UNL     1     -11.907   2.741   7.455  1.00  0.00     0.012 A 
ATOM      4  C   UNL     1     -11.870   3.106   8.811  1.00  0.00     0.014 A 
ATOM      5  C   UNL     1     -11.348   4.359   9.167  1.00  0.00     0.012 A 
ATOM      6  C   UNL     1     -10.872   5.233   8.186  1.00  0.00     0.005 A 
ENDROOT
BRANCH   1   7
ATOM      7  C   UNL     1     -10.395   5.808   5.751  1.00  0.00     0.013 C 
ATOM      8  C   UNL     1      -9.311   6.741   6.302  1.00  0.00     0.012 C 
ATOM      9  C   UNL     1      -9.884   5.027   4.534  1.00  0.00     0.012 C 
ENDBRANCH   1   7
BRANCH   4  10
ATOM     10  C   UNL     1     -12.367   2.199   9.859  1.00  0.00     0.260 C 
ATOM     11  O   UNL     1     -12.029   0.986   9.886  1.00  0.00    -0.298 OA
ENDBRANCH   4  10
TORSDOF 2
ENDMDL
MODEL 5
REMARK VINA RESULT:    -4.318      6.127      7.330
REMARK INTER + INTRA:          -5.013
REMARK INTER:                  -4.826
REMARK INTRA:                  -0.187
REMARK UNBOUND:                -0.190
REMARK SMILES CC(C)c1ccc(C=O)cc1
REMARK SMILES IDX 4 1 5 2 6 3 7 4 10 5 11 6 2 7 1 8 3 9 8 10 9 11
REMARK H PARENT
REMARK Flexibility Score: inf
ROOT
ATOM      1  C   UNL     1     -10.316  -5.944  -7.081  1.00  0.00    -0.045 A 
ATOM      2  C   UNL     1      -9.790  -4.690  -6.727  1.00  0.00     0.005 A 
ATOM      3  C   UNL     1      -9.381  -3.787  -7.712  1.00  0.00     0.012 A 
ATOM      4  C   UNL     1      -9.491  -4.121  -9.072  1.00  0.00     0.014 A 
ATOM      5  C   UNL     1     -10.016  -5.373  -9.429  1.00  0.00     0.012 A 
ATOM      6  C   UNL     1     -10.425  -6.276  -8.444  1.00  0.00     0.005 A 
ENDROOT
BRANCH   1   7
ATOM      7  C   UNL     1     -10.756  -6.914  -6.000  1.00  0.00     0.013 C 
ATOM      8  C   UNL     1     -10.260  -6.466  -4.620  1.00  0.00     0.012 C 
ATOM      9  C   UNL     1     -12.278  -7.098  -6.008  1.00  0.00     0.012 C 
ENDBRANCH   1   7
BRANCH   4  10
ATOM     10  C   UNL     1      -9.066  -3.182 -10.125  1.00  0.00     0.260 C 
ATOM     11  O   UNL     1      -9.427  -1.976 -10.106  1.00  0.00    -0.298 OA
ENDBRANCH   4  10
TORSDOF 2
ENDMDL
MODEL 6
REMARK VINA RESULT:    -4.300     16.375     16.767
REMARK INTER + INTRA:          -4.993
REMARK INTER:                  -4.806
REMARK INTRA:                  -0.187
REMARK UNBOUND:                -0.190
REMARK SMILES CC(C)c1ccc(C=O)cc1
REMARK SMILES IDX 4 1 5 2 6 3 7 4 10 5 11 6 2 7 1 8 3 9 8 10 9 11
REMARK H PARENT
REMARK Flexibility Score: inf
ROOT
ATOM      1  C   UNL     1     -11.350   5.006   6.604  1.00  0.00    -0.045 A 
ATOM      2  C   UNL     1     -12.265   6.019   6.271  1.00  0.00     0.005 A 
ATOM      3  C   UNL     1     -11.820   7.234   5.744  1.00  0.00     0.012 A 
ATOM      4  C   UNL     1     -10.449   7.461   5.539  1.00  0.00     0.014 A 
ATOM      5  C   UNL     1      -9.532   6.452   5.871  1.00  0.00     0.012 A 
ATOM      6  C   UNL     1      -9.977   5.236   6.398  1.00  0.00     0.005 A 
ENDROOT
BRANCH   1   7
ATOM      7  C   UNL     1     -11.847   3.692   7.176  1.00  0.00     0.013 C 
ATOM      8  C   UNL     1     -11.832   3.715   8.709  1.00  0.00     0.012 C 
ATOM      9  C   UNL     1     -13.244   3.351   6.643  1.00  0.00     0.012 C 
ENDBRANCH   1   7
BRANCH   4  10
ATOM     10  C   UNL     1      -9.961   8.735   4.984  1.00  0.00     0.260 C 
ATOM     11  O   UNL     1      -8.730   8.997   4.939  1.00  0.00    -0.298 OA
ENDBRANCH   4  10
TORSDOF 2
ENDMDL
MODEL 7
REMARK VINA RESULT:    -4.197     16.652     17.272
REMARK INTER + INTRA:          -4.877
REMARK INTER:                  -4.684
REMARK INTRA:                  -0.193
REMARK UNBOUND:                -0.190
REMARK SMILES CC(C)c1ccc(C=O)cc1
REMARK SMILES IDX 4 1 5 2 6 3 7 4 10 5 11 6 2 7 1 8 3 9 8 10 9 11
REMARK H PARENT
REMARK Flexibility Score: inf
ROOT
ATOM      1  C   UNL     1     -10.327   7.096   5.654  1.00  0.00    -0.045 A 
ATOM      2  C   UNL     1     -11.731   7.043   5.680  1.00  0.00     0.005 A 
ATOM      3  C   UNL     1     -12.390   5.920   6.186  1.00  0.00     0.012 A 
ATOM      4  C   UNL     1     -11.657   4.826   6.675  1.00  0.00     0.014 A 
ATOM      5  C   UNL     1     -10.256   4.875   6.650  1.00  0.00     0.012 A 
ATOM      6  C   UNL     1      -9.596   5.999   6.144  1.00  0.00     0.005 A 
ENDROOT
BRANCH   1   7
ATOM      7  C   UNL     1      -9.624   8.322   5.101  1.00  0.00     0.013 C 
ATOM      8  C   UNL     1     -10.597   9.499   4.960  1.00  0.00     0.012 C 
ATOM      9  C   UNL     1      -8.418   8.705   5.966  1.00  0.00     0.012 C 
ENDBRANCH   1   7
BRANCH   4  10
ATOM     10  C   UNL     1     -12.335   3.633   7.213  1.00  0.00     0.260 C 
ATOM     11  O   UNL     1     -13.430   3.235   6.735  1.00  0.00    -0.298 OA
ENDBRANCH   4  10
TORSDOF 2
ENDMDL
MODEL 8
REMARK VINA RESULT:    -3.928     15.529     16.396
REMARK INTER + INTRA:          -4.577
REMARK INTER:                  -4.393
REMARK INTRA:                  -0.184
REMARK UNBOUND:                -0.190
REMARK SMILES CC(C)c1ccc(C=O)cc1
REMARK SMILES IDX 4 1 5 2 6 3 7 4 10 5 11 6 2 7 1 8 3 9 8 10 9 11
REMARK H PARENT
REMARK Flexibility Score: inf
ROOT
ATOM      1  C   UNL     1     -12.192   5.323   5.688  1.00  0.00    -0.045 A 
ATOM      2  C   UNL     1     -12.176   6.674   6.076  1.00  0.00     0.005 A 
ATOM      3  C   UNL     1     -13.283   7.493   5.846  1.00  0.00     0.012 A 
ATOM      4  C   UNL     1     -14.431   6.978   5.221  1.00  0.00     0.014 A 
ATOM      5  C   UNL     1     -14.451   5.631   4.831  1.00  0.00     0.012 A 
ATOM      6  C   UNL     1     -13.343   4.810   5.062  1.00  0.00     0.005 A 
ENDROOT
BRANCH   1   7
ATOM      7  C   UNL     1     -10.982   4.445   5.945  1.00  0.00     0.013 C 
ATOM      8  C   UNL     1      -9.736   5.291   6.232  1.00  0.00     0.012 C 
ATOM      9  C   UNL     1     -11.250   3.453   7.083  1.00  0.00     0.012 C 
ENDBRANCH   1   7
BRANCH   4  10
ATOM     10  C   UNL     1     -15.609   7.827   4.970  1.00  0.00     0.260 C 
ATOM     11  O   UNL     1     -15.564   8.774   4.141  1.00  0.00    -0.298 OA
ENDBRANCH   4  10
TORSDOF 2
ENDMDL
