MODEL 1
REMARK VINA RESULT:    -2.115      0.000      0.000
REMARK INTER + INTRA:          -3.783
REMARK INTER:                  -3.351
REMARK INTRA:                  -0.432
REMARK UNBOUND:                -0.432
REMARK SMILES CCCCCCCCCCCC(=O)[O-]
REMARK SMILES IDX 7 1 8 2 9 3 10 4 11 5 12 6 13 7 14 8 6 9 5 10 4 11 3 12 2 13
REMARK SMILES IDX 1 14
REMARK H PARENT
REMARK Flexibility Score: inf
ROOT
ATOM      1  C   UNL     1      52.321 146.996   0.983  1.00  0.00     0.000 C 
ENDROOT
BRANCH   1   2
ATOM      2  C   UNL     1      53.668 147.686   0.707  1.00  0.00     0.000 C 
BRANCH   2   3
ATOM      3  C   UNL     1      54.262 147.425  -0.692  1.00  0.00     0.000 C 
BRANCH   3   4
ATOM      4  C   UNL     1      53.472 148.040  -1.865  1.00  0.00     0.006 C 
BRANCH   4   5
ATOM      5  C   UNL     1      54.189 147.957  -3.221  1.00  0.00     0.053 C 
BRANCH   5   6
ATOM      6  C   UNL     1      53.225 148.001  -4.367  1.00  0.00     0.041 C 
ATOM      7  O   UNL     1      51.988 147.894  -4.159  1.00  0.00    -0.550 OA
ATOM      8  O   UNL     1      53.696 148.125  -5.667  1.00  0.00    -0.550 OA
ENDBRANCH   5   6
ENDBRANCH   4   5
ENDBRANCH   3   4
ENDBRANCH   2   3
ENDBRANCH   1   2
BRANCH   1   9
ATOM      9  C   UNL     1      51.541 147.648   2.134  1.00  0.00     0.000 C 
BRANCH   9  10
ATOM     10  C   UNL     1      50.028 147.458   1.951  1.00  0.00    -0.000 C 
BRANCH  10  11
ATOM     11  C   UNL     1      49.509 148.124   0.659  1.00  0.00    -0.000 C 
BRANCH  11  12
ATOM     12  C   UNL     1      47.985 148.022   0.481  1.00  0.00    -0.000 C 
BRANCH  12  13
ATOM     13  C   UNL     1      47.547 148.085  -0.988  1.00  0.00    -0.003 C 
ATOM     14  C   UNL     1      46.975 146.749  -1.450  1.00  0.00     0.004 C 
ENDBRANCH  12  13
ENDBRANCH  11  12
ENDBRANCH  10  11
ENDBRANCH   9  10
ENDBRANCH   1   9
TORSDOF 10
ENDMDL
MODEL 2
REMARK VINA RESULT:    -1.543      1.942      5.207
REMARK INTER + INTRA:          -2.877
REMARK INTER:                  -2.211
REMARK INTRA:                  -0.666
REMARK UNBOUND:                -0.432
REMARK SMILES CCCCCCCCCCCC(=O)[O-]
REMARK SMILES IDX 7 1 8 2 9 3 10 4 11 5 12 6 13 7 14 8 6 9 5 10 4 11 3 12 2 13
REMARK SMILES IDX 1 14
REMARK H PARENT
REMARK Flexibility Score: inf
ROOT
ATOM      1  C   UNL     1      52.791 146.772   0.420  1.00  0.00     0.000 C 
ENDROOT
BRANCH   1   2
ATOM      2  C   UNL     1      52.228 147.380   1.717  1.00  0.00     0.000 C 
BRANCH   2   3
ATOM      3  C   UNL     1      50.691 147.366   1.833  1.00  0.00     0.000 C 
BRANCH   3   4
ATOM      4  C   UNL     1      49.940 148.101   0.705  1.00  0.00     0.006 C 
BRANCH   4   5
ATOM      5  C   UNL     1      48.742 147.327   0.134  1.00  0.00     0.053 C 
BRANCH   5   6
ATOM      6  C   UNL     1      48.326 147.850  -1.206  1.00  0.00     0.041 C 
ATOM      7  O   UNL     1      47.118 148.124  -1.432  1.00  0.00    -0.550 OA
ATOM      8  O   UNL     1      49.266 148.002  -2.216  1.00  0.00    -0.550 OA
ENDBRANCH   5   6
ENDBRANCH   4   5
ENDBRANCH   3   4
ENDBRANCH   2   3
ENDBRANCH   1   2
BRANCH   1   9
ATOM      9  C   UNL     1      54.117 147.413  -0.014  1.00  0.00     0.000 C 
BRANCH   9  10
ATOM     10  C   UNL     1      53.992 148.044  -1.409  1.00  0.00    -0.000 C 
BRANCH  10  11
ATOM     11  C   UNL     1      52.528 148.100  -1.895  1.00  0.00    -0.000 C 
BRANCH  11  12
ATOM     12  C   UNL     1      52.386 148.080  -3.426  1.00  0.00    -0.000 C 
BRANCH  12  13
ATOM     13  C   UNL     1      53.738 148.051  -4.153  1.00  0.00    -0.003 C 
ATOM     14  C   UNL     1      53.551 147.866  -5.655  1.00  0.00     0.004 C 
ENDBRANCH  12  13
ENDBRANCH  11  12
ENDBRANCH  10  11
ENDBRANCH   9  10
ENDBRANCH   1   9
TORSDOF 10
ENDMDL
MODEL 3
REMARK VINA RESULT:    -1.181      0.972      1.493
REMARK INTER + INTRA:          -2.303
REMARK INTER:                  -1.812
REMARK INTRA:                  -0.491
REMARK UNBOUND:                -0.432
REMARK SMILES CCCCCCCCCCCC(=O)[O-]
REMARK SMILES IDX 7 1 8 2 9 3 10 4 11 5 12 6 13 7 14 8 6 9 5 10 4 11 3 12 2 13
REMARK SMILES IDX 1 14
REMARK H PARENT
REMARK Flexibility Score: inf
ROOT
ATOM      1  C   UNL     1      53.017 146.375   0.179  1.00  0.00     0.000 C 
ENDROOT
BRANCH   1   2
ATOM      2  C   UNL     1      54.128 146.767  -0.810  1.00  0.00     0.000 C 
BRANCH   2   3
ATOM      3  C   UNL     1      53.927 148.123  -1.516  1.00  0.00     0.000 C 
BRANCH   3   4
ATOM      4  C   UNL     1      54.160 148.111  -3.041  1.00  0.00     0.006 C 
BRANCH   4   5
ATOM      5  C   UNL     1      52.871 148.125  -3.877  1.00  0.00     0.053 C 
BRANCH   5   6
ATOM      6  C   UNL     1      53.125 147.741  -5.301  1.00  0.00     0.041 C 
ATOM      7  O   UNL     1      54.303 147.687  -5.744  1.00  0.00    -0.550 OA
ATOM      8  O   UNL     1      52.058 147.476  -6.151  1.00  0.00    -0.550 OA
ENDBRANCH   5   6
ENDBRANCH   4   5
ENDBRANCH   3   4
ENDBRANCH   2   3
ENDBRANCH   1   2
BRANCH   1   9
ATOM      9  C   UNL     1      52.119 147.558   0.568  1.00  0.00     0.000 C 
BRANCH   9  10
ATOM     10  C   UNL     1      51.102 147.147   1.644  1.00  0.00    -0.000 C 
BRANCH  10  11
ATOM     11  C   UNL     1      49.910 148.124   1.723  1.00  0.00    -0.000 C 
BRANCH  11  12
ATOM     12  C   UNL     1      48.674 147.652   0.939  1.00  0.00    -0.000 C 
BRANCH  12  13
ATOM     13  C   UNL     1      48.696 148.088  -0.533  1.00  0.00    -0.003 C 
ATOM     14  C   UNL     1      47.443 147.617  -1.265  1.00  0.00     0.004 C 
ENDBRANCH  12  13
ENDBRANCH  11  12
ENDBRANCH  10  11
ENDBRANCH   9  10
ENDBRANCH   1   9
TORSDOF 10
ENDMDL
MODEL 4
REMARK VINA RESULT:    -1.032      2.316      4.699
REMARK INTER + INTRA:          -2.067
REMARK INTER:                  -2.292
REMARK INTRA:                   0.226
REMARK UNBOUND:                -0.432
REMARK SMILES CCCCCCCCCCCC(=O)[O-]
REMARK SMILES IDX 7 1 8 2 9 3 10 4 11 5 12 6 13 7 14 8 6 9 5 10 4 11 3 12 2 13
REMARK SMILES IDX 1 14
REMARK H PARENT
REMARK Flexibility Score: inf
ROOT
ATOM      1  C   UNL     1      54.045 147.300  -3.340  1.00  0.00     0.000 C 
ENDROOT
BRANCH   1   2
ATOM      2  C   UNL     1      53.598 148.118  -4.565  1.00  0.00     0.000 C 
BRANCH   2   3
ATOM      3  C   UNL     1      53.163 147.283  -5.785  1.00  0.00     0.000 C 
BRANCH   3   4
ATOM      4  C   UNL     1      52.872 148.094  -7.065  1.00  0.00     0.006 C 
BRANCH   4   5
ATOM      5  C   UNL     1      51.602 147.659  -7.813  1.00  0.00     0.053 C 
BRANCH   5   6
ATOM      6  C   UNL     1      50.365 147.910  -7.007  1.00  0.00     0.041 C 
ATOM      7  O   UNL     1      49.241 147.963  -7.571  1.00  0.00    -0.550 OA
ATOM      8  O   UNL     1      50.458 148.120  -5.637  1.00  0.00    -0.550 OA
ENDBRANCH   5   6
ENDBRANCH   4   5
ENDBRANCH   3   4
ENDBRANCH   2   3
ENDBRANCH   1   2
BRANCH   1   9
ATOM      9  C   UNL     1      54.063 148.125  -2.045  1.00  0.00     0.000 C 
BRANCH   9  10
ATOM     10  C   UNL     1      53.441 147.338  -0.882  1.00  0.00    -0.000 C 
BRANCH  10  11
ATOM     11  C   UNL     1      53.822 147.929   0.492  1.00  0.00    -0.000 C 
BRANCH  11  12
ATOM     12  C   UNL     1      52.804 147.616   1.601  1.00  0.00    -0.000 C 
BRANCH  12  13
ATOM     13  C   UNL     1      51.388 148.106   1.270  1.00  0.00    -0.003 C 
ATOM     14  C   UNL     1      50.355 147.472   2.196  1.00  0.00     0.004 C 
ENDBRANCH  12  13
ENDBRANCH  11  12
ENDBRANCH  10  11
ENDBRANCH   9  10
ENDBRANCH   1   9
TORSDOF 10
ENDMDL
MODEL 5
REMARK VINA RESULT:    -0.509      1.539      3.105
REMARK INTER + INTRA:          -1.238
REMARK INTER:                  -0.739
REMARK INTRA:                  -0.499
REMARK UNBOUND:                -0.432
REMARK SMILES CCCCCCCCCCCC(=O)[O-]
REMARK SMILES IDX 7 1 8 2 9 3 10 4 11 5 12 6 13 7 14 8 6 9 5 10 4 11 3 12 2 13
REMARK SMILES IDX 1 14
REMARK H PARENT
REMARK Flexibility Score: inf
ROOT
ATOM      1  C   UNL     1      54.638 146.537  -1.206  1.00  0.00     0.000 C 
ENDROOT
BRANCH   1   2
ATOM      2  C   UNL     1      55.337 146.970  -2.506  1.00  0.00     0.000 C 
BRANCH   2   3
ATOM      3  C   UNL     1      54.652 148.125  -3.264  1.00  0.00     0.000 C 
BRANCH   3   4
ATOM      4  C   UNL     1      53.583 147.696  -4.289  1.00  0.00     0.006 C 
BRANCH   4   5
ATOM      5  C   UNL     1      53.919 148.061  -5.743  1.00  0.00     0.053 C 
BRANCH   5   6
ATOM      6  C   UNL     1      52.732 147.919  -6.644  1.00  0.00     0.041 C 
ATOM      7  O   UNL     1      51.585 147.732  -6.157  1.00  0.00    -0.550 OA
ATOM      8  O   UNL     1      52.896 147.956  -8.022  1.00  0.00    -0.550 OA
ENDBRANCH   5   6
ENDBRANCH   4   5
ENDBRANCH   3   4
ENDBRANCH   2   3
ENDBRANCH   1   2
BRANCH   1   9
ATOM      9  C   UNL     1      54.714 147.604  -0.103  1.00  0.00     0.000 C 
BRANCH   9  10
ATOM     10  C   UNL     1      53.314 148.121   0.261  1.00  0.00    -0.000 C 
BRANCH  10  11
ATOM     11  C   UNL     1      52.820 147.562   1.612  1.00  0.00    -0.000 C 
BRANCH  11  12
ATOM     12  C   UNL     1      51.288 147.544   1.748  1.00  0.00    -0.000 C 
BRANCH  12  13
ATOM     13  C   UNL     1      50.570 148.068   0.497  1.00  0.00    -0.003 C 
ATOM     14  C   UNL     1      49.057 147.926   0.631  1.00  0.00     0.004 C 
ENDBRANCH  12  13
ENDBRANCH  11  12
ENDBRANCH  10  11
ENDBRANCH   9  10
ENDBRANCH   1   9
TORSDOF 10
ENDMDL
MODEL 6
REMARK VINA RESULT:    -0.454      2.870      6.029
REMARK INTER + INTRA:          -1.150
REMARK INTER:                  -0.827
REMARK INTRA:                  -0.323
REMARK UNBOUND:                -0.432
REMARK SMILES CCCCCCCCCCCC(=O)[O-]
REMARK SMILES IDX 7 1 8 2 9 3 10 4 11 5 12 6 13 7 14 8 6 9 5 10 4 11 3 12 2 13
REMARK SMILES IDX 1 14
REMARK H PARENT
REMARK Flexibility Score: inf
ROOT
ATOM      1  C   UNL     1      53.480 147.830  -0.899  1.00  0.00     0.000 C 
ENDROOT
BRANCH   1   2
ATOM      2  C   UNL     1      52.842 146.862   0.112  1.00  0.00     0.000 C 
BRANCH   2   3
ATOM      3  C   UNL     1      52.502 147.479   1.484  1.00  0.00     0.000 C 
BRANCH   3   4
ATOM      4  C   UNL     1      51.105 148.124   1.586  1.00  0.00     0.006 C 
BRANCH   4   5
ATOM      5  C   UNL     1      50.275 148.040   0.296  1.00  0.00     0.053 C 
BRANCH   5   6
ATOM      6  C   UNL     1      48.825 147.798   0.580  1.00  0.00     0.041 C 
ATOM      7  O   UNL     1      48.463 147.359   1.704  1.00  0.00    -0.550 OA
ATOM      8  O   UNL     1      47.875 148.024  -0.408  1.00  0.00    -0.550 OA
ENDBRANCH   5   6
ENDBRANCH   4   5
ENDBRANCH   3   4
ENDBRANCH   2   3
ENDBRANCH   1   2
BRANCH   1   9
ATOM      9  C   UNL     1      54.760 147.271  -1.536  1.00  0.00     0.000 C 
BRANCH   9  10
ATOM     10  C   UNL     1      55.131 148.053  -2.805  1.00  0.00    -0.000 C 
BRANCH  10  11
ATOM     11  C   UNL     1      54.774 147.280  -4.092  1.00  0.00    -0.000 C 
BRANCH  11  12
ATOM     12  C   UNL     1      53.949 148.104  -5.096  1.00  0.00    -0.000 C 
BRANCH  12  13
ATOM     13  C   UNL     1      52.622 147.432  -5.475  1.00  0.00    -0.003 C 
ATOM     14  C   UNL     1      52.268 147.697  -6.934  1.00  0.00     0.004 C 
ENDBRANCH  12  13
ENDBRANCH  11  12
ENDBRANCH  10  11
ENDBRANCH   9  10
ENDBRANCH   1   9
TORSDOF 10
ENDMDL
MODEL 7
REMARK VINA RESULT:     0.205      3.406      6.128
REMARK INTER + INTRA:          -0.107
REMARK INTER:                   0.135
REMARK INTRA:                  -0.242
REMARK UNBOUND:                -0.432
REMARK SMILES CCCCCCCCCCCC(=O)[O-]
REMARK SMILES IDX 7 1 8 2 9 3 10 4 11 5 12 6 13 7 14 8 6 9 5 10 4 11 3 12 2 13
REMARK SMILES IDX 1 14
REMARK H PARENT
REMARK Flexibility Score: inf
ROOT
ATOM      1  C   UNL     1      54.242 147.630  -2.547  1.00  0.00     0.000 C 
ENDROOT
BRANCH   1   2
ATOM      2  C   UNL     1      55.258 147.006  -1.575  1.00  0.00     0.000 C 
BRANCH   2   3
ATOM      3  C   UNL     1      54.934 147.195  -0.079  1.00  0.00     0.000 C 
BRANCH   3   4
ATOM      4  C   UNL     1      53.687 148.053   0.218  1.00  0.00     0.006 C 
BRANCH   4   5
ATOM      5  C   UNL     1      52.366 147.268   0.222  1.00  0.00     0.053 C 
BRANCH   5   6
ATOM      6  C   UNL     1      51.417 147.775   1.262  1.00  0.00     0.041 C 
ATOM      7  O   UNL     1      51.843 148.123   2.395  1.00  0.00    -0.550 OA
ATOM      8  O   UNL     1      50.055 147.832   0.993  1.00  0.00    -0.550 OA
ENDBRANCH   5   6
ENDBRANCH   4   5
ENDBRANCH   3   4
ENDBRANCH   2   3
ENDBRANCH   1   2
BRANCH   1   9
ATOM      9  C   UNL     1      54.887 148.121  -3.851  1.00  0.00     0.000 C 
BRANCH   9  10
ATOM     10  C   UNL     1      54.463 147.245  -5.039  1.00  0.00    -0.000 C 
BRANCH  10  11
ATOM     11  C   UNL     1      53.815 148.070  -6.171  1.00  0.00    -0.000 C 
BRANCH  11  12
ATOM     12  C   UNL     1      52.280 148.122  -6.094  1.00  0.00    -0.000 C 
BRANCH  12  13
ATOM     13  C   UNL     1      51.601 147.721  -7.411  1.00  0.00    -0.003 C 
ATOM     14  C   UNL     1      50.095 147.563  -7.228  1.00  0.00     0.004 C 
ENDBRANCH  12  13
ENDBRANCH  11  12
ENDBRANCH  10  11
ENDBRANCH   9  10
ENDBRANCH   1   9
TORSDOF 10
ENDMDL
MODEL 8
REMARK VINA RESULT:     0.421     22.128     23.678
REMARK INTER + INTRA:           0.235
REMARK INTER:                   0.014
REMARK INTRA:                   0.221
REMARK UNBOUND:                -0.432
REMARK SMILES CCCCCCCCCCCC(=O)[O-]
REMARK SMILES IDX 7 1 8 2 9 3 10 4 11 5 12 6 13 7 14 8 6 9 5 10 4 11 3 12 2 13
REMARK SMILES IDX 1 14
REMARK H PARENT
REMARK Flexibility Score: inf
ROOT
ATOM      1  C   UNL     1      63.769 130.295  -7.262  1.00  0.00     0.000 C 
ENDROOT
BRANCH   1   2
ATOM      2  C   UNL     1      62.545 129.840  -8.076  1.00  0.00     0.000 C 
BRANCH   2   3
ATOM      3  C   UNL     1      62.314 128.316  -8.113  1.00  0.00     0.000 C 
BRANCH   3   4
ATOM      4  C   UNL     1      60.836 127.875  -8.079  1.00  0.00     0.006 C 
BRANCH   4   5
ATOM      5  C   UNL     1      60.045 128.411  -6.876  1.00  0.00     0.053 C 
BRANCH   5   6
ATOM      6  C   UNL     1      60.713 128.084  -5.577  1.00  0.00     0.041 C 
ATOM      7  O   UNL     1      60.041 128.029  -4.514  1.00  0.00    -0.550 OA
ATOM      8  O   UNL     1      62.086 127.875  -5.535  1.00  0.00    -0.550 OA
ENDBRANCH   5   6
ENDBRANCH   4   5
ENDBRANCH   3   4
ENDBRANCH   2   3
ENDBRANCH   1   2
BRANCH   1   9
ATOM      9  C   UNL     1      64.652 131.296  -8.021  1.00  0.00     0.000 C 
BRANCH   9  10
ATOM     10  C   UNL     1      66.122 131.168  -7.593  1.00  0.00    -0.000 C 
BRANCH  10  11
ATOM     11  C   UNL     1      66.588 129.697  -7.544  1.00  0.00    -0.000 C 
BRANCH  11  12
ATOM     12  C   UNL     1      67.120 129.265  -6.167  1.00  0.00    -0.000 C 
BRANCH  12  13
ATOM     13  C   UNL     1      66.458 127.982  -5.645  1.00  0.00    -0.003 C 
ATOM     14  C   UNL     1      65.276 128.303  -4.736  1.00  0.00     0.004 C 
ENDBRANCH  12  13
ENDBRANCH  11  12
ENDBRANCH  10  11
ENDBRANCH   9  10
ENDBRANCH   1   9
TORSDOF 10
ENDMDL
MODEL 9
REMARK VINA RESULT:     0.488      1.558      2.275
REMARK INTER + INTRA:           0.342
REMARK INTER:                   0.982
REMARK INTRA:                  -0.640
REMARK UNBOUND:                -0.432
REMARK SMILES CCCCCCCCCCCC(=O)[O-]
REMARK SMILES IDX 7 1 8 2 9 3 10 4 11 5 12 6 13 7 14 8 6 9 5 10 4 11 3 12 2 13
REMARK SMILES IDX 1 14
REMARK H PARENT
REMARK Flexibility Score: inf
ROOT
ATOM      1  C   UNL     1      50.960 146.355   1.711  1.00  0.00     0.000 C 
ENDROOT
BRANCH   1   2
ATOM      2  C   UNL     1      52.483 146.580   1.711  1.00  0.00     0.000 C 
BRANCH   2   3
ATOM      3  C   UNL     1      52.931 148.016   1.371  1.00  0.00     0.000 C 
BRANCH   3   4
ATOM      4  C   UNL     1      54.035 148.123   0.300  1.00  0.00     0.006 C 
BRANCH   4   5
ATOM      5  C   UNL     1      53.992 147.016  -0.765  1.00  0.00     0.053 C 
BRANCH   5   6
ATOM      6  C   UNL     1      54.576 147.470  -2.067  1.00  0.00     0.041 C 
ATOM      7  O   UNL     1      55.825 147.513  -2.222  1.00  0.00    -0.550 OA
ATOM      8  O   UNL     1      53.740 147.880  -3.098  1.00  0.00    -0.550 OA
ENDBRANCH   5   6
ENDBRANCH   4   5
ENDBRANCH   3   4
ENDBRANCH   2   3
ENDBRANCH   1   2
BRANCH   1   9
ATOM      9  C   UNL     1      50.163 147.656   1.543  1.00  0.00     0.000 C 
BRANCH   9  10
ATOM     10  C   UNL     1      48.655 147.399   1.678  1.00  0.00    -0.000 C 
BRANCH  10  11
ATOM     11  C   UNL     1      47.841 148.119   0.581  1.00  0.00    -0.000 C 
BRANCH  11  12
ATOM     12  C   UNL     1      46.995 147.169  -0.283  1.00  0.00    -0.000 C 
BRANCH  12  13
ATOM     13  C   UNL     1      47.237 147.352  -1.787  1.00  0.00    -0.003 C 
ATOM     14  C   UNL     1      48.642 147.881  -2.058  1.00  0.00     0.004 C 
ENDBRANCH  12  13
ENDBRANCH  11  12
ENDBRANCH  10  11
ENDBRANCH   9  10
ENDBRANCH   1   9
TORSDOF 10
ENDMDL
