MODEL 1
REMARK VINA RESULT:    -4.846      0.000      0.000
REMARK INTER + INTRA:         -17.028
REMARK INTER:                 -12.779
REMARK INTRA:                  -4.249
REMARK UNBOUND:                -4.249
REMARK SMILES CCCCCCCCCCCCCCCCCCCCCCCCCCCCCC(=O)[O-]
REMARK SMILES IDX 16 1 17 2 18 3 19 4 20 5 21 6 22 7 23 8 24 9 25 10 26 11
REMARK SMILES IDX 27 12 28 13 29 14 30 15 31 16 32 17 15 18 14 19 13 20 12 21
REMARK SMILES IDX 11 22 10 23 9 24 8 25 7 26 6 27 5 28 4 29 3 30 2 31 1 32
REMARK H PARENT
REMARK Flexibility Score: inf
ROOT
ATOM      1  C   UNL     1      52.589  -3.506  13.181  1.00  0.00     0.000 C 
ENDROOT
BRANCH   1   2
ATOM      2  C   UNL     1      54.069  -3.397  12.768  1.00  0.00     0.000 C 
BRANCH   2   3
ATOM      3  C   UNL     1      55.051  -4.209  13.635  1.00  0.00     0.000 C 
BRANCH   3   4
ATOM      4  C   UNL     1      56.351  -3.474  14.013  1.00  0.00     0.000 C 
BRANCH   4   5
ATOM      5  C   UNL     1      56.177  -2.000  14.427  1.00  0.00     0.000 C 
BRANCH   5   6
ATOM      6  C   UNL     1      57.428  -1.378  15.086  1.00  0.00     0.000 C 
BRANCH   6   7
ATOM      7  C   UNL     1      57.116  -0.697  16.432  1.00  0.00     0.000 C 
BRANCH   7   8
ATOM      8  C   UNL     1      55.625  -0.763  16.801  1.00  0.00     0.000 C 
BRANCH   8   9
ATOM      9  C   UNL     1      55.288   0.052  18.062  1.00  0.00     0.000 C 
BRANCH   9  10
ATOM     10  C   UNL     1      56.533   0.714  18.676  1.00  0.00     0.000 C 
BRANCH  10  11
ATOM     11  C   UNL     1      57.163  -0.142  19.790  1.00  0.00     0.000 C 
BRANCH  11  12
ATOM     12  C   UNL     1      56.112  -0.758  20.728  1.00  0.00     0.000 C 
BRANCH  12  13
ATOM     13  C   UNL     1      56.388  -2.238  21.043  1.00  0.00     0.006 C 
BRANCH  13  14
ATOM     14  C   UNL     1      57.831  -2.471  21.510  1.00  0.00     0.053 C 
BRANCH  14  15
ATOM     15  C   UNL     1      58.490  -3.580  20.746  1.00  0.00     0.041 C 
ATOM     16  O   UNL     1      59.102  -3.335  19.674  1.00  0.00    -0.550 OA
ATOM     17  O   UNL     1      58.416  -4.886  21.212  1.00  0.00    -0.550 OA
ENDBRANCH  14  15
ENDBRANCH  13  14
ENDBRANCH  12  13
ENDBRANCH  11  12
ENDBRANCH  10  11
ENDBRANCH   9  10
ENDBRANCH   8   9
ENDBRANCH   7   8
ENDBRANCH   6   7
ENDBRANCH   5   6
ENDBRANCH   4   5
ENDBRANCH   3   4
ENDBRANCH   2   3
ENDBRANCH   1   2
BRANCH   1  18
ATOM     18  C   UNL     1      51.639  -3.840  12.014  1.00  0.00     0.000 C 
BRANCH  18  19
ATOM     19  C   UNL     1      52.388  -4.327  10.763  1.00  0.00     0.000 C 
BRANCH  19  20
ATOM     20  C   UNL     1      52.074  -3.432   9.555  1.00  0.00     0.000 C 
BRANCH  20  21
ATOM     21  C   UNL     1      52.794  -2.075   9.625  1.00  0.00     0.000 C 
BRANCH  21  22
ATOM     22  C   UNL     1      51.820  -0.889   9.526  1.00  0.00     0.000 C 
BRANCH  22  23
ATOM     23  C   UNL     1      52.175   0.254  10.489  1.00  0.00     0.000 C 
BRANCH  23  24
ATOM     24  C   UNL     1      52.200  -0.191  11.958  1.00  0.00    -0.000 C 
BRANCH  24  25
ATOM     25  C   UNL     1      52.483   0.997  12.891  1.00  0.00    -0.000 C 
BRANCH  25  26
ATOM     26  C   UNL     1      53.820   0.865  13.645  1.00  0.00    -0.000 C 
BRANCH  26  27
ATOM     27  C   UNL     1      53.991   1.810  14.850  1.00  0.00    -0.000 C 
BRANCH  27  28
ATOM     28  C   UNL     1      55.390   2.446  14.919  1.00  0.00    -0.000 C 
BRANCH  28  29
ATOM     29  C   UNL     1      56.353   1.865  13.872  1.00  0.00    -0.000 C 
BRANCH  29  30
ATOM     30  C   UNL     1      56.853   2.919  12.873  1.00  0.00    -0.000 C 
BRANCH  30  31
ATOM     31  C   UNL     1      56.257   2.677  11.480  1.00  0.00    -0.003 C 
ATOM     32  C   UNL     1      54.987   3.498  11.275  1.00  0.00     0.004 C 
ENDBRANCH  30  31
ENDBRANCH  29  30
ENDBRANCH  28  29
ENDBRANCH  27  28
ENDBRANCH  26  27
ENDBRANCH  25  26
ENDBRANCH  24  25
ENDBRANCH  23  24
ENDBRANCH  22  23
ENDBRANCH  21  22
ENDBRANCH  20  21
ENDBRANCH  19  20
ENDBRANCH  18  19
ENDBRANCH   1  18
TORSDOF 28
ENDMDL
MODEL 2
REMARK VINA RESULT:    -4.808      1.183      2.802
REMARK INTER + INTRA:         -16.927
REMARK INTER:                 -12.178
REMARK INTRA:                  -4.749
REMARK UNBOUND:                -4.249
REMARK SMILES CCCCCCCCCCCCCCCCCCCCCCCCCCCCCC(=O)[O-]
REMARK SMILES IDX 16 1 17 2 18 3 19 4 20 5 21 6 22 7 23 8 24 9 25 10 26 11
REMARK SMILES IDX 27 12 28 13 29 14 30 15 31 16 32 17 15 18 14 19 13 20 12 21
REMARK SMILES IDX 11 22 10 23 9 24 8 25 7 26 6 27 5 28 4 29 3 30 2 31 1 32
REMARK H PARENT
REMARK Flexibility Score: inf
ROOT
ATOM      1  C   UNL     1      54.810  -3.020  13.266  1.00  0.00     0.000 C 
ENDROOT
BRANCH   1   2
ATOM      2  C   UNL     1      55.989  -3.460  14.156  1.00  0.00     0.000 C 
BRANCH   2   3
ATOM      3  C   UNL     1      57.155  -2.455  14.239  1.00  0.00     0.000 C 
BRANCH   3   4
ATOM      4  C   UNL     1      57.196  -1.607  15.524  1.00  0.00     0.000 C 
BRANCH   4   5
ATOM      5  C   UNL     1      56.038  -0.604  15.689  1.00  0.00     0.000 C 
BRANCH   5   6
ATOM      6  C   UNL     1      55.087  -0.927  16.862  1.00  0.00     0.000 C 
BRANCH   6   7
ATOM      7  C   UNL     1      54.325   0.313  17.369  1.00  0.00     0.000 C 
BRANCH   7   8
ATOM      8  C   UNL     1      54.973   1.633  16.922  1.00  0.00     0.000 C 
BRANCH   8   9
ATOM      9  C   UNL     1      55.898   2.234  17.995  1.00  0.00     0.000 C 
BRANCH   9  10
ATOM     10  C   UNL     1      57.375   2.216  17.564  1.00  0.00     0.000 C 
BRANCH  10  11
ATOM     11  C   UNL     1      58.274   1.491  18.583  1.00  0.00     0.000 C 
BRANCH  11  12
ATOM     12  C   UNL     1      57.500   0.468  19.430  1.00  0.00     0.000 C 
BRANCH  12  13
ATOM     13  C   UNL     1      57.942  -0.981  19.166  1.00  0.00     0.006 C 
BRANCH  13  14
ATOM     14  C   UNL     1      57.028  -2.001  19.858  1.00  0.00     0.053 C 
BRANCH  14  15
ATOM     15  C   UNL     1      57.770  -2.812  20.875  1.00  0.00     0.041 C 
ATOM     16  O   UNL     1      58.428  -2.242  21.784  1.00  0.00    -0.550 OA
ATOM     17  O   UNL     1      57.747  -4.200  20.812  1.00  0.00    -0.550 OA
ENDBRANCH  14  15
ENDBRANCH  13  14
ENDBRANCH  12  13
ENDBRANCH  11  12
ENDBRANCH  10  11
ENDBRANCH   9  10
ENDBRANCH   8   9
ENDBRANCH   7   8
ENDBRANCH   6   7
ENDBRANCH   5   6
ENDBRANCH   4   5
ENDBRANCH   3   4
ENDBRANCH   2   3
ENDBRANCH   1   2
BRANCH   1  18
ATOM     18  C   UNL     1      53.784  -4.139  12.994  1.00  0.00     0.000 C 
BRANCH  18  19
ATOM     19  C   UNL     1      52.338  -3.621  12.966  1.00  0.00     0.000 C 
BRANCH  19  20
ATOM     20  C   UNL     1      51.633  -4.038  11.666  1.00  0.00     0.000 C 
BRANCH  20  21
ATOM     21  C   UNL     1      52.526  -4.909  10.767  1.00  0.00     0.000 C 
BRANCH  21  22
ATOM     22  C   UNL     1      52.681  -4.324   9.352  1.00  0.00     0.000 C 
BRANCH  22  23
ATOM     23  C   UNL     1      53.303  -2.919   9.355  1.00  0.00     0.000 C 
BRANCH  23  24
ATOM     24  C   UNL     1      52.409  -1.870   8.676  1.00  0.00    -0.000 C 
BRANCH  24  25
ATOM     25  C   UNL     1      51.708  -0.984   9.717  1.00  0.00    -0.000 C 
BRANCH  25  26
ATOM     26  C   UNL     1      52.687  -0.353  10.726  1.00  0.00    -0.000 C 
BRANCH  26  27
ATOM     27  C   UNL     1      52.159  -0.236  12.169  1.00  0.00    -0.000 C 
BRANCH  27  28
ATOM     28  C   UNL     1      51.916   1.220  12.603  1.00  0.00    -0.000 C 
BRANCH  28  29
ATOM     29  C   UNL     1      52.717   1.600  13.858  1.00  0.00    -0.000 C 
BRANCH  29  30
ATOM     30  C   UNL     1      53.917   2.508  13.546  1.00  0.00    -0.000 C 
BRANCH  30  31
ATOM     31  C   UNL     1      55.128   1.678  13.103  1.00  0.00    -0.003 C 
ATOM     32  C   UNL     1      56.428   2.453  13.301  1.00  0.00     0.004 C 
ENDBRANCH  30  31
ENDBRANCH  29  30
ENDBRANCH  28  29
ENDBRANCH  27  28
ENDBRANCH  26  27
ENDBRANCH  25  26
ENDBRANCH  24  25
ENDBRANCH  23  24
ENDBRANCH  22  23
ENDBRANCH  21  22
ENDBRANCH  20  21
ENDBRANCH  19  20
ENDBRANCH  18  19
ENDBRANCH   1  18
TORSDOF 28
ENDMDL
MODEL 3
REMARK VINA RESULT:    -4.738      4.480     12.099
REMARK INTER + INTRA:         -16.743
REMARK INTER:                 -12.119
REMARK INTRA:                  -4.624
REMARK UNBOUND:                -4.249
REMARK SMILES CCCCCCCCCCCCCCCCCCCCCCCCCCCCCC(=O)[O-]
REMARK SMILES IDX 16 1 17 2 18 3 19 4 20 5 21 6 22 7 23 8 24 9 25 10 26 11
REMARK SMILES IDX 27 12 28 13 29 14 30 15 31 16 32 17 15 18 14 19 13 20 12 21
REMARK SMILES IDX 11 22 10 23 9 24 8 25 7 26 6 27 5 28 4 29 3 30 2 31 1 32
REMARK H PARENT
REMARK Flexibility Score: inf
ROOT
ATOM      1  C   UNL     1      61.792  -4.038  20.498  1.00  0.00     0.000 C 
ENDROOT
BRANCH   1   2
ATOM      2  C   UNL     1      60.393  -4.557  20.884  1.00  0.00     0.000 C 
BRANCH   2   3
ATOM      3  C   UNL     1      59.215  -3.756  20.296  1.00  0.00     0.000 C 
BRANCH   3   4
ATOM      4  C   UNL     1      58.273  -3.121  21.337  1.00  0.00     0.000 C 
BRANCH   4   5
ATOM      5  C   UNL     1      56.836  -2.853  20.848  1.00  0.00     0.000 C 
BRANCH   5   6
ATOM      6  C   UNL     1      56.158  -1.638  21.517  1.00  0.00     0.000 C 
BRANCH   6   7
ATOM      7  C   UNL     1      57.161  -0.720  22.242  1.00  0.00     0.000 C 
BRANCH   7   8
ATOM      8  C   UNL     1      57.498   0.545  21.437  1.00  0.00     0.000 C 
BRANCH   8   9
ATOM      9  C   UNL     1      58.716   0.357  20.515  1.00  0.00     0.000 C 
BRANCH   9  10
ATOM     10  C   UNL     1      58.348   0.502  19.029  1.00  0.00     0.000 C 
BRANCH  10  11
ATOM     11  C   UNL     1      58.341  -0.851  18.292  1.00  0.00     0.000 C 
BRANCH  11  12
ATOM     12  C   UNL     1      57.096  -1.037  17.411  1.00  0.00     0.000 C 
BRANCH  12  13
ATOM     13  C   UNL     1      57.180  -0.256  16.088  1.00  0.00     0.006 C 
BRANCH  13  14
ATOM     14  C   UNL     1      57.656  -1.137  14.925  1.00  0.00     0.053 C 
BRANCH  14  15
ATOM     15  C   UNL     1      56.582  -2.072  14.461  1.00  0.00     0.041 C 
ATOM     16  O   UNL     1      55.440  -1.630  14.166  1.00  0.00    -0.550 OA
ATOM     17  O   UNL     1      56.836  -3.433  14.366  1.00  0.00    -0.550 OA
ENDBRANCH  14  15
ENDBRANCH  13  14
ENDBRANCH  12  13
ENDBRANCH  11  12
ENDBRANCH  10  11
ENDBRANCH   9  10
ENDBRANCH   8   9
ENDBRANCH   7   8
ENDBRANCH   6   7
ENDBRANCH   5   6
ENDBRANCH   4   5
ENDBRANCH   3   4
ENDBRANCH   2   3
ENDBRANCH   1   2
BRANCH   1  18
ATOM     18  C   UNL     1      62.938  -4.994  20.885  1.00  0.00     0.000 C 
BRANCH  18  19
ATOM     19  C   UNL     1      63.997  -4.319  21.770  1.00  0.00     0.000 C 
BRANCH  19  20
ATOM     20  C   UNL     1      64.141  -5.057  23.110  1.00  0.00     0.000 C 
BRANCH  20  21
ATOM     21  C   UNL     1      64.283  -6.578  22.931  1.00  0.00     0.000 C 
BRANCH  21  22
ATOM     22  C   UNL     1      64.702  -7.283  24.233  1.00  0.00     0.000 C 
BRANCH  22  23
ATOM     23  C   UNL     1      63.723  -7.028  25.389  1.00  0.00     0.000 C 
BRANCH  23  24
ATOM     24  C   UNL     1      62.523  -7.986  25.376  1.00  0.00    -0.000 C 
BRANCH  24  25
ATOM     25  C   UNL     1      61.220  -7.243  25.708  1.00  0.00    -0.000 C 
BRANCH  25  26
ATOM     26  C   UNL     1      61.387  -5.712  25.724  1.00  0.00    -0.000 C 
BRANCH  26  27
ATOM     27  C   UNL     1      60.759  -4.970  24.529  1.00  0.00    -0.000 C 
BRANCH  27  28
ATOM     28  C   UNL     1      60.626  -3.456  24.764  1.00  0.00    -0.000 C 
BRANCH  28  29
ATOM     29  C   UNL     1      61.480  -2.633  23.786  1.00  0.00    -0.000 C 
BRANCH  29  30
ATOM     30  C   UNL     1      60.815  -1.307  23.386  1.00  0.00    -0.000 C 
BRANCH  30  31
ATOM     31  C   UNL     1      60.001  -0.731  24.551  1.00  0.00    -0.003 C 
ATOM     32  C   UNL     1      60.595   0.587  25.039  1.00  0.00     0.004 C 
ENDBRANCH  30  31
ENDBRANCH  29  30
ENDBRANCH  28  29
ENDBRANCH  27  28
ENDBRANCH  26  27
ENDBRANCH  25  26
ENDBRANCH  24  25
ENDBRANCH  23  24
ENDBRANCH  22  23
ENDBRANCH  21  22
ENDBRANCH  20  21
ENDBRANCH  19  20
ENDBRANCH  18  19
ENDBRANCH   1  18
TORSDOF 28
ENDMDL
MODEL 4
REMARK VINA RESULT:    -4.715      4.686     12.064
REMARK INTER + INTRA:         -16.681
REMARK INTER:                 -13.187
REMARK INTRA:                  -3.494
REMARK UNBOUND:                -4.249
REMARK SMILES CCCCCCCCCCCCCCCCCCCCCCCCCCCCCC(=O)[O-]
REMARK SMILES IDX 16 1 17 2 18 3 19 4 20 5 21 6 22 7 23 8 24 9 25 10 26 11
REMARK SMILES IDX 27 12 28 13 29 14 30 15 31 16 32 17 15 18 14 19 13 20 12 21
REMARK SMILES IDX 11 22 10 23 9 24 8 25 7 26 6 27 5 28 4 29 3 30 2 31 1 32
REMARK H PARENT
REMARK Flexibility Score: inf
ROOT
ATOM      1  C   UNL     1      58.524  -4.290  20.638  1.00  0.00     0.000 C 
ENDROOT
BRANCH   1   2
ATOM      2  C   UNL     1      58.291  -3.118  21.612  1.00  0.00     0.000 C 
BRANCH   2   3
ATOM      3  C   UNL     1      57.122  -2.185  21.242  1.00  0.00     0.000 C 
BRANCH   3   4
ATOM      4  C   UNL     1      57.535  -0.794  20.723  1.00  0.00     0.000 C 
BRANCH   4   5
ATOM      5  C   UNL     1      58.623  -0.795  19.632  1.00  0.00     0.000 C 
BRANCH   5   6
ATOM      6  C   UNL     1      58.115  -1.213  18.235  1.00  0.00     0.000 C 
BRANCH   6   7
ATOM      7  C   UNL     1      56.625  -0.883  18.019  1.00  0.00     0.000 C 
BRANCH   7   8
ATOM      8  C   UNL     1      56.371  -0.099  16.722  1.00  0.00     0.000 C 
BRANCH   8   9
ATOM      9  C   UNL     1      55.182  -0.651  15.917  1.00  0.00     0.000 C 
BRANCH   9  10
ATOM     10  C   UNL     1      55.593  -1.091  14.502  1.00  0.00     0.000 C 
BRANCH  10  11
ATOM     11  C   UNL     1      56.340  -2.438  14.500  1.00  0.00     0.000 C 
BRANCH  11  12
ATOM     12  C   UNL     1      55.552  -3.550  13.789  1.00  0.00     0.000 C 
BRANCH  12  13
ATOM     13  C   UNL     1      54.122  -3.121  13.415  1.00  0.00     0.006 C 
BRANCH  13  14
ATOM     14  C   UNL     1      53.341  -4.248  12.727  1.00  0.00     0.053 C 
BRANCH  14  15
ATOM     15  C   UNL     1      52.694  -3.781  11.459  1.00  0.00     0.041 C 
ATOM     16  O   UNL     1      51.462  -3.525  11.433  1.00  0.00    -0.550 OA
ATOM     17  O   UNL     1      53.448  -3.641  10.302  1.00  0.00    -0.550 OA
ENDBRANCH  14  15
ENDBRANCH  13  14
ENDBRANCH  12  13
ENDBRANCH  11  12
ENDBRANCH  10  11
ENDBRANCH   9  10
ENDBRANCH   8   9
ENDBRANCH   7   8
ENDBRANCH   6   7
ENDBRANCH   5   6
ENDBRANCH   4   5
ENDBRANCH   3   4
ENDBRANCH   2   3
ENDBRANCH   1   2
BRANCH   1  18
ATOM     18  C   UNL     1      59.901  -4.258  19.944  1.00  0.00     0.000 C 
BRANCH  18  19
ATOM     19  C   UNL     1      61.013  -3.726  20.860  1.00  0.00     0.000 C 
BRANCH  19  20
ATOM     20  C   UNL     1      62.310  -4.525  20.666  1.00  0.00     0.000 C 
BRANCH  20  21
ATOM     21  C   UNL     1      63.517  -3.862  21.352  1.00  0.00     0.000 C 
BRANCH  21  22
ATOM     22  C   UNL     1      63.961  -4.618  22.616  1.00  0.00     0.000 C 
BRANCH  22  23
ATOM     23  C   UNL     1      63.956  -6.144  22.429  1.00  0.00     0.000 C 
BRANCH  23  24
ATOM     24  C   UNL     1      64.638  -6.888  23.586  1.00  0.00    -0.000 C 
BRANCH  24  25
ATOM     25  C   UNL     1      64.195  -6.323  24.944  1.00  0.00    -0.000 C 
BRANCH  25  26
ATOM     26  C   UNL     1      62.767  -6.751  25.336  1.00  0.00    -0.000 C 
BRANCH  26  27
ATOM     27  C   UNL     1      61.804  -5.596  25.671  1.00  0.00    -0.000 C 
BRANCH  27  28
ATOM     28  C   UNL     1      60.764  -5.343  24.566  1.00  0.00    -0.000 C 
BRANCH  28  29
ATOM     29  C   UNL     1      60.542  -3.846  24.300  1.00  0.00    -0.000 C 
BRANCH  29  30
ATOM     30  C   UNL     1      60.756  -2.980  25.551  1.00  0.00    -0.000 C 
BRANCH  30  31
ATOM     31  C   UNL     1      61.295  -1.595  25.170  1.00  0.00    -0.003 C 
ATOM     32  C   UNL     1      61.376  -1.434  23.655  1.00  0.00     0.004 C 
ENDBRANCH  30  31
ENDBRANCH  29  30
ENDBRANCH  28  29
ENDBRANCH  27  28
ENDBRANCH  26  27
ENDBRANCH  25  26
ENDBRANCH  24  25
ENDBRANCH  23  24
ENDBRANCH  22  23
ENDBRANCH  21  22
ENDBRANCH  20  21
ENDBRANCH  19  20
ENDBRANCH  18  19
ENDBRANCH   1  18
TORSDOF 28
ENDMDL
MODEL 5
REMARK VINA RESULT:    -4.713      2.758      8.907
REMARK INTER + INTRA:         -16.676
REMARK INTER:                 -13.206
REMARK INTRA:                  -3.470
REMARK UNBOUND:                -4.249
REMARK SMILES CCCCCCCCCCCCCCCCCCCCCCCCCCCCCC(=O)[O-]
REMARK SMILES IDX 16 1 17 2 18 3 19 4 20 5 21 6 22 7 23 8 24 9 25 10 26 11
REMARK SMILES IDX 27 12 28 13 29 14 30 15 31 16 32 17 15 18 14 19 13 20 12 21
REMARK SMILES IDX 11 22 10 23 9 24 8 25 7 26 6 27 5 28 4 29 3 30 2 31 1 32
REMARK H PARENT
REMARK Flexibility Score: inf
ROOT
ATOM      1  C   UNL     1      56.432  -3.196  13.942  1.00  0.00     0.000 C 
ENDROOT
BRANCH   1   2
ATOM      2  C   UNL     1      55.145  -3.991  13.646  1.00  0.00     0.000 C 
BRANCH   2   3
ATOM      3  C   UNL     1      54.048  -3.204  12.903  1.00  0.00     0.000 C 
BRANCH   3   4
ATOM      4  C   UNL     1      52.625  -3.775  13.045  1.00  0.00     0.000 C 
BRANCH   4   5
ATOM      5  C   UNL     1      51.880  -4.024  11.720  1.00  0.00     0.000 C 
BRANCH   5   6
ATOM      6  C   UNL     1      52.564  -5.053  10.794  1.00  0.00     0.000 C 
BRANCH   6   7
ATOM      7  C   UNL     1      52.650  -4.575   9.332  1.00  0.00     0.000 C 
BRANCH   7   8
ATOM      8  C   UNL     1      53.400  -3.241   9.186  1.00  0.00     0.000 C 
BRANCH   8   9
ATOM      9  C   UNL     1      52.573  -2.173   8.448  1.00  0.00     0.000 C 
BRANCH   9  10
ATOM     10  C   UNL     1      51.723  -1.328   9.411  1.00  0.00     0.000 C 
BRANCH  10  11
ATOM     11  C   UNL     1      52.585  -0.469  10.355  1.00  0.00     0.000 C 
BRANCH  11  12
ATOM     12  C   UNL     1      51.972  -0.336  11.758  1.00  0.00     0.000 C 
BRANCH  12  13
ATOM     13  C   UNL     1      52.565   0.837  12.558  1.00  0.00     0.006 C 
BRANCH  13  14
ATOM     14  C   UNL     1      53.690   0.386  13.499  1.00  0.00     0.053 C 
BRANCH  14  15
ATOM     15  C   UNL     1      54.611   1.517  13.844  1.00  0.00     0.041 C 
ATOM     16  O   UNL     1      55.726   1.624  13.269  1.00  0.00    -0.550 OA
ATOM     17  O   UNL     1      54.244   2.444  14.811  1.00  0.00    -0.550 OA
ENDBRANCH  14  15
ENDBRANCH  13  14
ENDBRANCH  12  13
ENDBRANCH  11  12
ENDBRANCH  10  11
ENDBRANCH   9  10
ENDBRANCH   8   9
ENDBRANCH   7   8
ENDBRANCH   6   7
ENDBRANCH   5   6
ENDBRANCH   4   5
ENDBRANCH   3   4
ENDBRANCH   2   3
ENDBRANCH   1   2
BRANCH   1  18
ATOM     18  C   UNL     1      56.197  -1.917  14.770  1.00  0.00     0.000 C 
BRANCH  18  19
ATOM     19  C   UNL     1      57.509  -1.250  15.213  1.00  0.00     0.000 C 
BRANCH  19  20
ATOM     20  C   UNL     1      57.384  -0.691  16.637  1.00  0.00     0.000 C 
BRANCH  20  21
ATOM     21  C   UNL     1      56.187   0.263  16.792  1.00  0.00     0.000 C 
BRANCH  21  22
ATOM     22  C   UNL     1      56.466   1.393  17.798  1.00  0.00     0.000 C 
BRANCH  22  23
ATOM     23  C   UNL     1      57.909   1.378  18.324  1.00  0.00     0.000 C 
BRANCH  23  24
ATOM     24  C   UNL     1      57.997   1.654  19.832  1.00  0.00    -0.000 C 
BRANCH  24  25
ATOM     25  C   UNL     1      58.825   0.574  20.544  1.00  0.00    -0.000 C 
BRANCH  25  26
ATOM     26  C   UNL     1      58.643  -0.827  19.928  1.00  0.00    -0.000 C 
BRANCH  26  27
ATOM     27  C   UNL     1      57.501  -1.667  20.530  1.00  0.00    -0.000 C 
BRANCH  27  28
ATOM     28  C   UNL     1      58.005  -2.810  21.428  1.00  0.00    -0.000 C 
BRANCH  28  29
ATOM     29  C   UNL     1      58.159  -4.133  20.663  1.00  0.00    -0.000 C 
BRANCH  29  30
ATOM     30  C   UNL     1      59.540  -4.286  20.009  1.00  0.00    -0.000 C 
BRANCH  30  31
ATOM     31  C   UNL     1      60.653  -3.869  20.980  1.00  0.00    -0.003 C 
ATOM     32  C   UNL     1      62.010  -4.390  20.516  1.00  0.00     0.004 C 
ENDBRANCH  30  31
ENDBRANCH  29  30
ENDBRANCH  28  29
ENDBRANCH  27  28
ENDBRANCH  26  27
ENDBRANCH  25  26
ENDBRANCH  24  25
ENDBRANCH  23  24
ENDBRANCH  22  23
ENDBRANCH  21  22
ENDBRANCH  20  21
ENDBRANCH  19  20
ENDBRANCH  18  19
ENDBRANCH   1  18
TORSDOF 28
ENDMDL
MODEL 6
REMARK VINA RESULT:    -4.702      1.848      3.994
REMARK INTER + INTRA:         -16.647
REMARK INTER:                 -13.092
REMARK INTRA:                  -3.555
REMARK UNBOUND:                -4.249
REMARK SMILES CCCCCCCCCCCCCCCCCCCCCCCCCCCCCC(=O)[O-]
REMARK SMILES IDX 16 1 17 2 18 3 19 4 20 5 21 6 22 7 23 8 24 9 25 10 26 11
REMARK SMILES IDX 27 12 28 13 29 14 30 15 31 16 32 17 15 18 14 19 13 20 12 21
REMARK SMILES IDX 11 22 10 23 9 24 8 25 7 26 6 27 5 28 4 29 3 30 2 31 1 32
REMARK H PARENT
REMARK Flexibility Score: inf
ROOT
ATOM      1  C   UNL     1      56.405  -3.069  14.029  1.00  0.00     0.000 C 
ENDROOT
BRANCH   1   2
ATOM      2  C   UNL     1      56.122  -1.831  14.902  1.00  0.00     0.000 C 
BRANCH   2   3
ATOM      3  C   UNL     1      57.363  -1.203  15.566  1.00  0.00     0.000 C 
BRANCH   3   4
ATOM      4  C   UNL     1      57.130   0.175  16.213  1.00  0.00     0.000 C 
BRANCH   4   5
ATOM      5  C   UNL     1      57.683   0.334  17.643  1.00  0.00     0.000 C 
BRANCH   5   6
ATOM      6  C   UNL     1      56.668   0.916  18.651  1.00  0.00     0.000 C 
BRANCH   6   7
ATOM      7  C   UNL     1      55.533  -0.070  18.989  1.00  0.00     0.000 C 
BRANCH   7   8
ATOM      8  C   UNL     1      56.049  -1.477  19.329  1.00  0.00     0.000 C 
BRANCH   8   9
ATOM      9  C   UNL     1      56.142  -1.726  20.844  1.00  0.00     0.000 C 
BRANCH   9  10
ATOM     10  C   UNL     1      57.516  -2.281  21.259  1.00  0.00     0.000 C 
BRANCH  10  11
ATOM     11  C   UNL     1      58.362  -2.716  20.048  1.00  0.00     0.000 C 
BRANCH  11  12
ATOM     12  C   UNL     1      59.139  -4.017  20.307  1.00  0.00     0.000 C 
BRANCH  12  13
ATOM     13  C   UNL     1      60.590  -3.765  20.752  1.00  0.00     0.006 C 
BRANCH  13  14
ATOM     14  C   UNL     1      60.740  -3.788  22.279  1.00  0.00     0.053 C 
BRANCH  14  15
ATOM     15  C   UNL     1      61.938  -3.009  22.730  1.00  0.00     0.041 C 
ATOM     16  O   UNL     1      61.811  -2.076  23.564  1.00  0.00    -0.550 OA
ATOM     17  O   UNL     1      63.195  -3.306  22.219  1.00  0.00    -0.550 OA
ENDBRANCH  14  15
ENDBRANCH  13  14
ENDBRANCH  12  13
ENDBRANCH  11  12
ENDBRANCH  10  11
ENDBRANCH   9  10
ENDBRANCH   8   9
ENDBRANCH   7   8
ENDBRANCH   6   7
ENDBRANCH   5   6
ENDBRANCH   4   5
ENDBRANCH   3   4
ENDBRANCH   2   3
ENDBRANCH   1   2
BRANCH   1  18
ATOM     18  C   UNL     1      55.160  -3.936  13.756  1.00  0.00     0.000 C 
BRANCH  18  19
ATOM     19  C   UNL     1      54.168  -3.260  12.796  1.00  0.00     0.000 C 
BRANCH  19  20
ATOM     20  C   UNL     1      52.721  -3.481  13.262  1.00  0.00     0.000 C 
BRANCH  20  21
ATOM     21  C   UNL     1      51.814  -4.003  12.135  1.00  0.00     0.000 C 
BRANCH  21  22
ATOM     22  C   UNL     1      52.618  -4.565  10.949  1.00  0.00     0.000 C 
BRANCH  22  23
ATOM     23  C   UNL     1      52.304  -3.849   9.626  1.00  0.00     0.000 C 
BRANCH  23  24
ATOM     24  C   UNL     1      51.453  -2.585   9.820  1.00  0.00    -0.000 C 
BRANCH  24  25
ATOM     25  C   UNL     1      52.183  -1.341   9.292  1.00  0.00    -0.000 C 
BRANCH  25  26
ATOM     26  C   UNL     1      51.993  -0.105  10.193  1.00  0.00    -0.000 C 
BRANCH  26  27
ATOM     27  C   UNL     1      52.121  -0.368  11.705  1.00  0.00    -0.000 C 
BRANCH  27  28
ATOM     28  C   UNL     1      52.538   0.882  12.499  1.00  0.00    -0.000 C 
BRANCH  28  29
ATOM     29  C   UNL     1      53.554   0.562  13.607  1.00  0.00    -0.000 C 
BRANCH  29  30
ATOM     30  C   UNL     1      54.020   1.814  14.366  1.00  0.00    -0.000 C 
BRANCH  30  31
ATOM     31  C   UNL     1      53.816   1.643  15.877  1.00  0.00    -0.003 C 
ATOM     32  C   UNL     1      54.308   2.870  16.640  1.00  0.00     0.004 C 
ENDBRANCH  30  31
ENDBRANCH  29  30
ENDBRANCH  28  29
ENDBRANCH  27  28
ENDBRANCH  26  27
ENDBRANCH  25  26
ENDBRANCH  24  25
ENDBRANCH  23  24
ENDBRANCH  22  23
ENDBRANCH  21  22
ENDBRANCH  20  21
ENDBRANCH  19  20
ENDBRANCH  18  19
ENDBRANCH   1  18
TORSDOF 28
ENDMDL
MODEL 7
REMARK VINA RESULT:    -4.698      1.843      4.092
REMARK INTER + INTRA:         -16.636
REMARK INTER:                 -13.122
REMARK INTRA:                  -3.515
REMARK UNBOUND:                -4.249
REMARK SMILES CCCCCCCCCCCCCCCCCCCCCCCCCCCCCC(=O)[O-]
REMARK SMILES IDX 16 1 17 2 18 3 19 4 20 5 21 6 22 7 23 8 24 9 25 10 26 11
REMARK SMILES IDX 27 12 28 13 29 14 30 15 31 16 32 17 15 18 14 19 13 20 12 21
REMARK SMILES IDX 11 22 10 23 9 24 8 25 7 26 6 27 5 28 4 29 3 30 2 31 1 32
REMARK H PARENT
REMARK Flexibility Score: inf
ROOT
ATOM      1  C   UNL     1      52.403  -3.532  12.995  1.00  0.00     0.000 C 
ENDROOT
BRANCH   1   2
ATOM      2  C   UNL     1      53.853  -3.042  12.818  1.00  0.00     0.000 C 
BRANCH   2   3
ATOM      3  C   UNL     1      54.924  -3.910  13.506  1.00  0.00     0.000 C 
BRANCH   3   4
ATOM      4  C   UNL     1      56.231  -3.176  13.862  1.00  0.00     0.000 C 
BRANCH   4   5
ATOM      5  C   UNL     1      56.097  -2.072  14.928  1.00  0.00     0.000 C 
BRANCH   5   6
ATOM      6  C   UNL     1      57.364  -1.208  15.105  1.00  0.00     0.000 C 
BRANCH   6   7
ATOM      7  C   UNL     1      57.277  -0.264  16.319  1.00  0.00     0.000 C 
BRANCH   7   8
ATOM      8  C   UNL     1      56.037  -0.527  17.189  1.00  0.00     0.000 C 
BRANCH   8   9
ATOM      9  C   UNL     1      56.396  -0.877  18.644  1.00  0.00     0.000 C 
BRANCH   9  10
ATOM     10  C   UNL     1      57.571  -0.035  19.172  1.00  0.00     0.000 C 
BRANCH  10  11
ATOM     11  C   UNL     1      58.707  -0.906  19.740  1.00  0.00     0.000 C 
BRANCH  11  12
ATOM     12  C   UNL     1      58.761  -2.300  19.097  1.00  0.00     0.000 C 
BRANCH  12  13
ATOM     13  C   UNL     1      58.800  -3.434  20.136  1.00  0.00     0.006 C 
BRANCH  13  14
ATOM     14  C   UNL     1      60.231  -3.900  20.431  1.00  0.00     0.053 C 
BRANCH  14  15
ATOM     15  C   UNL     1      60.459  -4.100  21.899  1.00  0.00     0.041 C 
ATOM     16  O   UNL     1      59.516  -3.930  22.715  1.00  0.00    -0.550 OA
ATOM     17  O   UNL     1      61.715  -4.462  22.366  1.00  0.00    -0.550 OA
ENDBRANCH  14  15
ENDBRANCH  13  14
ENDBRANCH  12  13
ENDBRANCH  11  12
ENDBRANCH  10  11
ENDBRANCH   9  10
ENDBRANCH   8   9
ENDBRANCH   7   8
ENDBRANCH   6   7
ENDBRANCH   5   6
ENDBRANCH   4   5
ENDBRANCH   3   4
ENDBRANCH   2   3
ENDBRANCH   1   2
BRANCH   1  18
ATOM     18  C   UNL     1      51.704  -3.898  11.670  1.00  0.00     0.000 C 
BRANCH  18  19
ATOM     19  C   UNL     1      52.434  -5.012  10.905  1.00  0.00     0.000 C 
BRANCH  19  20
ATOM     20  C   UNL     1      52.585  -4.646   9.421  1.00  0.00     0.000 C 
BRANCH  20  21
ATOM     21  C   UNL     1      53.873  -3.853   9.139  1.00  0.00     0.000 C 
BRANCH  21  22
ATOM     22  C   UNL     1      54.604  -4.350   7.880  1.00  0.00     0.000 C 
BRANCH  22  23
ATOM     23  C   UNL     1      53.663  -4.528   6.678  1.00  0.00     0.000 C 
BRANCH  23  24
ATOM     24  C   UNL     1      53.118  -3.195   6.146  1.00  0.00    -0.000 C 
BRANCH  24  25
ATOM     25  C   UNL     1      51.597  -3.265   5.934  1.00  0.00    -0.000 C 
BRANCH  25  26
ATOM     26  C   UNL     1      50.808  -2.430   6.961  1.00  0.00    -0.000 C 
BRANCH  26  27
ATOM     27  C   UNL     1      51.599  -1.287   7.624  1.00  0.00    -0.000 C 
BRANCH  27  28
ATOM     28  C   UNL     1      51.413  -1.235   9.150  1.00  0.00    -0.000 C 
BRANCH  28  29
ATOM     29  C   UNL     1      52.073   0.001   9.781  1.00  0.00    -0.000 C 
BRANCH  29  30
ATOM     30  C   UNL     1      52.408  -0.196  11.268  1.00  0.00    -0.000 C 
BRANCH  30  31
ATOM     31  C   UNL     1      53.259   0.967  11.794  1.00  0.00    -0.003 C 
ATOM     32  C   UNL     1      53.849   0.641  13.163  1.00  0.00     0.004 C 
ENDBRANCH  30  31
ENDBRANCH  29  30
ENDBRANCH  28  29
ENDBRANCH  27  28
ENDBRANCH  26  27
ENDBRANCH  25  26
ENDBRANCH  24  25
ENDBRANCH  23  24
ENDBRANCH  22  23
ENDBRANCH  21  22
ENDBRANCH  20  21
ENDBRANCH  19  20
ENDBRANCH  18  19
ENDBRANCH   1  18
TORSDOF 28
ENDMDL
MODEL 8
REMARK VINA RESULT:    -4.683      3.623      8.063
REMARK INTER + INTRA:         -16.597
REMARK INTER:                 -11.708
REMARK INTRA:                  -4.889
REMARK UNBOUND:                -4.249
REMARK SMILES CCCCCCCCCCCCCCCCCCCCCCCCCCCCCC(=O)[O-]
REMARK SMILES IDX 16 1 17 2 18 3 19 4 20 5 21 6 22 7 23 8 24 9 25 10 26 11
REMARK SMILES IDX 27 12 28 13 29 14 30 15 31 16 32 17 15 18 14 19 13 20 12 21
REMARK SMILES IDX 11 22 10 23 9 24 8 25 7 26 6 27 5 28 4 29 3 30 2 31 1 32
REMARK H PARENT
REMARK Flexibility Score: inf
ROOT
ATOM      1  C   UNL     1      55.474   0.248  14.213  1.00  0.00     0.000 C 
ENDROOT
BRANCH   1   2
ATOM      2  C   UNL     1      56.872   0.287  14.859  1.00  0.00     0.000 C 
BRANCH   2   3
ATOM      3  C   UNL     1      57.609  -1.066  14.903  1.00  0.00     0.000 C 
BRANCH   3   4
ATOM      4  C   UNL     1      56.696  -2.306  14.964  1.00  0.00     0.000 C 
BRANCH   4   5
ATOM      5  C   UNL     1      56.886  -3.320  13.821  1.00  0.00     0.000 C 
BRANCH   5   6
ATOM      6  C   UNL     1      55.642  -3.502  12.925  1.00  0.00     0.000 C 
BRANCH   6   7
ATOM      7  C   UNL     1      54.333  -3.105  13.635  1.00  0.00     0.000 C 
BRANCH   7   8
ATOM      8  C   UNL     1      53.176  -2.855  12.655  1.00  0.00     0.000 C 
BRANCH   8   9
ATOM      9  C   UNL     1      53.022  -1.369  12.285  1.00  0.00     0.000 C 
BRANCH   9  10
ATOM     10  C   UNL     1      51.965  -1.150  11.190  1.00  0.00     0.000 C 
BRANCH  10  11
ATOM     11  C   UNL     1      52.444  -1.633   9.808  1.00  0.00     0.000 C 
BRANCH  11  12
ATOM     12  C   UNL     1      51.533  -2.719   9.214  1.00  0.00     0.000 C 
BRANCH  12  13
ATOM     13  C   UNL     1      52.243  -4.076   9.065  1.00  0.00     0.006 C 
BRANCH  13  14
ATOM     14  C   UNL     1      53.765  -3.952   9.214  1.00  0.00     0.053 C 
BRANCH  14  15
ATOM     15  C   UNL     1      54.481  -4.375   7.968  1.00  0.00     0.041 C 
ATOM     16  O   UNL     1      53.837  -4.585   6.907  1.00  0.00    -0.550 OA
ATOM     17  O   UNL     1      55.859  -4.549   7.981  1.00  0.00    -0.550 OA
ENDBRANCH  14  15
ENDBRANCH  13  14
ENDBRANCH  12  13
ENDBRANCH  11  12
ENDBRANCH  10  11
ENDBRANCH   9  10
ENDBRANCH   8   9
ENDBRANCH   7   8
ENDBRANCH   6   7
ENDBRANCH   5   6
ENDBRANCH   4   5
ENDBRANCH   3   4
ENDBRANCH   2   3
ENDBRANCH   1   2
BRANCH   1  18
ATOM     18  C   UNL     1      54.500   1.305  14.772  1.00  0.00     0.000 C 
BRANCH  18  19
ATOM     19  C   UNL     1      54.277   2.475  13.801  1.00  0.00     0.000 C 
BRANCH  19  20
ATOM     20  C   UNL     1      54.588   2.053  12.357  1.00  0.00     0.000 C 
BRANCH  20  21
ATOM     21  C   UNL     1      55.539   3.033  11.649  1.00  0.00     0.000 C 
BRANCH  21  22
ATOM     22  C   UNL     1      56.325   3.906  12.643  1.00  0.00     0.000 C 
BRANCH  22  23
ATOM     23  C   UNL     1      57.708   3.325  12.979  1.00  0.00     0.000 C 
BRANCH  23  24
ATOM     24  C   UNL     1      58.439   4.121  14.069  1.00  0.00    -0.000 C 
BRANCH  24  25
ATOM     25  C   UNL     1      58.129   3.560  15.465  1.00  0.00    -0.000 C 
BRANCH  25  26
ATOM     26  C   UNL     1      57.070   4.384  16.223  1.00  0.00    -0.000 C 
BRANCH  26  27
ATOM     27  C   UNL     1      56.055   3.560  17.037  1.00  0.00    -0.000 C 
BRANCH  27  28
ATOM     28  C   UNL     1      56.724   2.597  18.032  1.00  0.00    -0.000 C 
BRANCH  28  29
ATOM     29  C   UNL     1      55.981   1.256  18.143  1.00  0.00    -0.000 C 
BRANCH  29  30
ATOM     30  C   UNL     1      56.700   0.250  19.055  1.00  0.00    -0.000 C 
BRANCH  30  31
ATOM     31  C   UNL     1      58.125  -0.018  18.555  1.00  0.00    -0.003 C 
ATOM     32  C   UNL     1      58.403  -1.516  18.465  1.00  0.00     0.004 C 
ENDBRANCH  30  31
ENDBRANCH  29  30
ENDBRANCH  28  29
ENDBRANCH  27  28
ENDBRANCH  26  27
ENDBRANCH  25  26
ENDBRANCH  24  25
ENDBRANCH  23  24
ENDBRANCH  22  23
ENDBRANCH  21  22
ENDBRANCH  20  21
ENDBRANCH  19  20
ENDBRANCH  18  19
ENDBRANCH   1  18
TORSDOF 28
ENDMDL
MODEL 9
REMARK VINA RESULT:    -4.670      2.366      6.777
REMARK INTER + INTRA:         -16.563
REMARK INTER:                 -12.408
REMARK INTRA:                  -4.155
REMARK UNBOUND:                -4.249
REMARK SMILES CCCCCCCCCCCCCCCCCCCCCCCCCCCCCC(=O)[O-]
REMARK SMILES IDX 16 1 17 2 18 3 19 4 20 5 21 6 22 7 23 8 24 9 25 10 26 11
REMARK SMILES IDX 27 12 28 13 29 14 30 15 31 16 32 17 15 18 14 19 13 20 12 21
REMARK SMILES IDX 11 22 10 23 9 24 8 25 7 26 6 27 5 28 4 29 3 30 2 31 1 32
REMARK H PARENT
REMARK Flexibility Score: inf
ROOT
ATOM      1  C   UNL     1      58.675  -1.259  18.472  1.00  0.00     0.000 C 
ENDROOT
BRANCH   1   2
ATOM      2  C   UNL     1      59.237  -2.086  19.645  1.00  0.00     0.000 C 
BRANCH   2   3
ATOM      3  C   UNL     1      58.426  -3.346  20.004  1.00  0.00     0.000 C 
BRANCH   3   4
ATOM      4  C   UNL     1      57.448  -3.180  21.183  1.00  0.00     0.000 C 
BRANCH   4   5
ATOM      5  C   UNL     1      56.125  -2.467  20.845  1.00  0.00     0.000 C 
BRANCH   5   6
ATOM      6  C   UNL     1      55.989  -1.061  21.469  1.00  0.00     0.000 C 
BRANCH   6   7
ATOM      7  C   UNL     1      56.802  -0.904  22.768  1.00  0.00     0.000 C 
BRANCH   7   8
ATOM      8  C   UNL     1      57.643   0.382  22.793  1.00  0.00     0.000 C 
BRANCH   8   9
ATOM      9  C   UNL     1      59.124   0.130  22.459  1.00  0.00     0.000 C 
BRANCH   9  10
ATOM     10  C   UNL     1      59.865  -0.582  23.602  1.00  0.00     0.000 C 
BRANCH  10  11
ATOM     11  C   UNL     1      60.834  -1.664  23.089  1.00  0.00     0.000 C 
BRANCH  11  12
ATOM     12  C   UNL     1      60.351  -3.088  23.406  1.00  0.00     0.000 C 
BRANCH  12  13
ATOM     13  C   UNL     1      61.016  -4.154  22.517  1.00  0.00     0.006 C 
BRANCH  13  14
ATOM     14  C   UNL     1      62.547  -4.054  22.541  1.00  0.00     0.053 C 
BRANCH  14  15
ATOM     15  C   UNL     1      63.128  -4.098  21.160  1.00  0.00     0.041 C 
ATOM     16  O   UNL     1      62.462  -4.581  20.208  1.00  0.00    -0.550 OA
ATOM     17  O   UNL     1      64.409  -3.617  20.928  1.00  0.00    -0.550 OA
ENDBRANCH  14  15
ENDBRANCH  13  14
ENDBRANCH  12  13
ENDBRANCH  11  12
ENDBRANCH  10  11
ENDBRANCH   9  10
ENDBRANCH   8   9
ENDBRANCH   7   8
ENDBRANCH   6   7
ENDBRANCH   5   6
ENDBRANCH   4   5
ENDBRANCH   3   4
ENDBRANCH   2   3
ENDBRANCH   1   2
BRANCH   1  18
ATOM     18  C   UNL     1      58.079   0.098  18.897  1.00  0.00     0.000 C 
BRANCH  18  19
ATOM     19  C   UNL     1      57.587   0.928  17.700  1.00  0.00     0.000 C 
BRANCH  19  20
ATOM     20  C   UNL     1      56.068   0.788  17.526  1.00  0.00     0.000 C 
BRANCH  20  21
ATOM     21  C   UNL     1      55.627  -0.676  17.358  1.00  0.00     0.000 C 
BRANCH  21  22
ATOM     22  C   UNL     1      54.946  -0.931  16.002  1.00  0.00     0.000 C 
BRANCH  22  23
ATOM     23  C   UNL     1      55.830  -0.535  14.809  1.00  0.00     0.000 C 
BRANCH  23  24
ATOM     24  C   UNL     1      57.196  -1.235  14.822  1.00  0.00    -0.000 C 
BRANCH  24  25
ATOM     25  C   UNL     1      57.040  -2.755  14.662  1.00  0.00    -0.000 C 
BRANCH  25  26
ATOM     26  C   UNL     1      56.195  -3.147  13.435  1.00  0.00    -0.000 C 
BRANCH  26  27
ATOM     27  C   UNL     1      54.987  -4.055  13.732  1.00  0.00    -0.000 C 
BRANCH  27  28
ATOM     28  C   UNL     1      53.652  -3.448  13.268  1.00  0.00    -0.000 C 
BRANCH  28  29
ATOM     29  C   UNL     1      53.807  -2.579  12.011  1.00  0.00    -0.000 C 
BRANCH  29  30
ATOM     30  C   UNL     1      53.195  -3.227  10.759  1.00  0.00    -0.000 C 
BRANCH  30  31
ATOM     31  C   UNL     1      51.799  -2.658  10.477  1.00  0.00    -0.003 C 
ATOM     32  C   UNL     1      51.886  -1.241   9.917  1.00  0.00     0.004 C 
ENDBRANCH  30  31
ENDBRANCH  29  30
ENDBRANCH  28  29
ENDBRANCH  27  28
ENDBRANCH  26  27
ENDBRANCH  25  26
ENDBRANCH  24  25
ENDBRANCH  23  24
ENDBRANCH  22  23
ENDBRANCH  21  22
ENDBRANCH  20  21
ENDBRANCH  19  20
ENDBRANCH  18  19
ENDBRANCH   1  18
TORSDOF 28
ENDMDL
