MODEL 1
REMARK VINA RESULT:    -2.696      0.000      0.000
REMARK INTER + INTRA:          -3.477
REMARK INTER:                  -3.405
REMARK INTRA:                  -0.072
REMARK UNBOUND:                -0.072
REMARK SMILES CSCC[C@@H]([NH3+])C(=O)[O-]
REMARK SMILES IDX 4 1 5 2 6 3 7 7 8 8 9 9 3 10 2 11 1 12
REMARK H PARENT 6 4 6 5 6 6
REMARK Flexibility Score: inf
ROOT
ATOM      1  C   UNL     1      11.879   0.068  -0.258  1.00  0.00     0.082 C 
ENDROOT
BRANCH   1   2
ATOM      2  C   UNL     1      12.437   1.451   0.145  1.00  0.00     0.228 C 
BRANCH   2   3
ATOM      3  N   UNL     1      13.862   1.352   0.484  1.00  0.00    -0.350 N 
ATOM      4  H   UNL     1      14.194   0.371   0.335  1.00  0.00     0.345 HD
ATOM      5  H   UNL     1      14.005   1.595   1.491  1.00  0.00     0.345 HD
ATOM      6  H   UNL     1      14.429   1.999  -0.111  1.00  0.00     0.345 HD
ENDBRANCH   2   3
BRANCH   2   7
ATOM      7  C   UNL     1      12.234   2.462  -0.954  1.00  0.00     0.099 C 
ATOM      8  O   UNL     1      12.062   2.087  -2.145  1.00  0.00    -0.544 OA
ATOM      9  O   UNL     1      12.227   3.819  -0.655  1.00  0.00    -0.544 OA
ENDBRANCH   2   7
ENDBRANCH   1   2
BRANCH   1  10
ATOM     10  C   UNL     1      11.853  -0.913   0.919  1.00  0.00     0.076 C 
BRANCH  10  11
ATOM     11  S   UNL     1      10.328  -0.695   1.903  1.00  0.00    -0.165 SA
ATOM     12  C   UNL     1       9.169  -1.000   0.529  1.00  0.00     0.085 C 
ENDBRANCH  10  11
ENDBRANCH   1  10
TORSDOF 5
ENDMDL
MODEL 2
REMARK VINA RESULT:    -2.682      2.623      3.236
REMARK INTER + INTRA:          -3.459
REMARK INTER:                  -3.284
REMARK INTRA:                  -0.175
REMARK UNBOUND:                -0.072
REMARK SMILES CSCC[C@@H]([NH3+])C(=O)[O-]
REMARK SMILES IDX 4 1 5 2 6 3 7 7 8 8 9 9 3 10 2 11 1 12
REMARK H PARENT 6 4 6 5 6 6
REMARK Flexibility Score: inf
ROOT
ATOM      1  C   UNL     1      11.332  -0.452   0.362  1.00  0.00     0.082 C 
ENDROOT
BRANCH   1   2
ATOM      2  C   UNL     1      10.229   0.385   1.045  1.00  0.00     0.228 C 
BRANCH   2   3
ATOM      3  N   UNL     1      10.503   0.523   2.481  1.00  0.00    -0.350 N 
ATOM      4  H   UNL     1      10.176   1.458   2.815  1.00  0.00     0.345 HD
ATOM      5  H   UNL     1      11.533   0.457   2.654  1.00  0.00     0.345 HD
ATOM      6  H   UNL     1      10.013  -0.225   3.025  1.00  0.00     0.345 HD
ENDBRANCH   2   3
BRANCH   2   7
ATOM      7  C   UNL     1      10.102   1.745   0.408  1.00  0.00     0.099 C 
ATOM      8  O   UNL     1       9.079   2.453   0.608  1.00  0.00    -0.544 OA
ATOM      9  O   UNL     1      11.123   2.230  -0.399  1.00  0.00    -0.544 OA
ENDBRANCH   2   7
ENDBRANCH   1   2
BRANCH   1  10
ATOM     10  C   UNL     1      12.268  -1.119   1.377  1.00  0.00     0.076 C 
BRANCH  10  11
ATOM     11  S   UNL     1      13.999  -1.055   0.792  1.00  0.00    -0.165 SA
ATOM     12  C   UNL     1      14.139   0.763   0.808  1.00  0.00     0.085 C 
ENDBRANCH  10  11
ENDBRANCH   1  10
TORSDOF 5
ENDMDL
MODEL 3
REMARK VINA RESULT:    -2.656      2.774      3.285
REMARK INTER + INTRA:          -3.427
REMARK INTER:                  -3.365
REMARK INTRA:                  -0.062
REMARK UNBOUND:                -0.072
REMARK SMILES CSCC[C@@H]([NH3+])C(=O)[O-]
REMARK SMILES IDX 4 1 5 2 6 3 7 7 8 8 9 9 3 10 2 11 1 12
REMARK H PARENT 6 4 6 5 6 6
REMARK Flexibility Score: inf
ROOT
ATOM      1  C   UNL     1      11.471  -0.417   0.402  1.00  0.00     0.082 C 
ENDROOT
BRANCH   1   2
ATOM      2  C   UNL     1      10.309   0.376   1.038  1.00  0.00     0.228 C 
BRANCH   2   3
ATOM      3  N   UNL     1      10.537   0.557   2.477  1.00  0.00    -0.350 N 
ATOM      4  H   UNL     1       9.638   0.432   2.996  1.00  0.00     0.345 HD
ATOM      5  H   UNL     1      10.889   1.525   2.663  1.00  0.00     0.345 HD
ATOM      6  H   UNL     1      11.235  -0.138   2.832  1.00  0.00     0.345 HD
ENDBRANCH   2   3
BRANCH   2   7
ATOM      7  C   UNL     1      10.132   1.715   0.369  1.00  0.00     0.099 C 
ATOM      8  O   UNL     1       9.062   2.365   0.511  1.00  0.00    -0.544 OA
ATOM      9  O   UNL     1      11.158   2.244  -0.405  1.00  0.00    -0.544 OA
ENDBRANCH   2   7
ENDBRANCH   1   2
BRANCH   1  10
ATOM     10  C   UNL     1      12.357  -1.094   1.455  1.00  0.00     0.076 C 
BRANCH  10  11
ATOM     11  S   UNL     1      13.991  -1.509   0.748  1.00  0.00    -0.165 SA
ATOM     12  C   UNL     1      14.279  -2.982   1.784  1.00  0.00     0.085 C 
ENDBRANCH  10  11
ENDBRANCH   1  10
TORSDOF 5
ENDMDL
MODEL 4
REMARK VINA RESULT:    -2.621      2.436      2.644
REMARK INTER + INTRA:          -3.382
REMARK INTER:                  -3.190
REMARK INTRA:                  -0.192
REMARK UNBOUND:                -0.072
REMARK SMILES CSCC[C@@H]([NH3+])C(=O)[O-]
REMARK SMILES IDX 4 1 5 2 6 3 7 7 8 8 9 9 3 10 2 11 1 12
REMARK H PARENT 6 4 6 5 6 6
REMARK Flexibility Score: inf
ROOT
ATOM      1  C   UNL     1      10.194  -0.318   1.283  1.00  0.00     0.082 C 
ENDROOT
BRANCH   1   2
ATOM      2  C   UNL     1      11.338   0.462   0.601  1.00  0.00     0.228 C 
BRANCH   2   3
ATOM      3  N   UNL     1      11.965  -0.355  -0.446  1.00  0.00    -0.350 N 
ATOM      4  H   UNL     1      12.191  -1.303  -0.067  1.00  0.00     0.345 HD
ATOM      5  H   UNL     1      12.858   0.092  -0.759  1.00  0.00     0.345 HD
ATOM      6  H   UNL     1      11.325  -0.460  -1.267  1.00  0.00     0.345 HD
ENDBRANCH   2   3
BRANCH   2   7
ATOM      7  C   UNL     1      10.841   1.760   0.017  1.00  0.00     0.099 C 
ATOM      8  O   UNL     1       9.733   2.239   0.376  1.00  0.00    -0.544 OA
ATOM      9  O   UNL     1      11.613   2.441  -0.916  1.00  0.00    -0.544 OA
ENDBRANCH   2   7
ENDBRANCH   1   2
BRANCH   1  10
ATOM     10  C   UNL     1      10.554  -0.745   2.712  1.00  0.00     0.076 C 
BRANCH  10  11
ATOM     11  S   UNL     1      11.628   0.504   3.504  1.00  0.00    -0.165 SA
ATOM     12  C   UNL     1      10.300   1.703   3.856  1.00  0.00     0.085 C 
ENDBRANCH  10  11
ENDBRANCH   1  10
TORSDOF 5
ENDMDL
MODEL 5
REMARK VINA RESULT:    -2.611      2.751      3.322
REMARK INTER + INTRA:          -3.369
REMARK INTER:                  -3.161
REMARK INTRA:                  -0.209
REMARK UNBOUND:                -0.072
REMARK SMILES CSCC[C@@H]([NH3+])C(=O)[O-]
REMARK SMILES IDX 4 1 5 2 6 3 7 7 8 8 9 9 3 10 2 11 1 12
REMARK H PARENT 6 4 6 5 6 6
REMARK Flexibility Score: inf
ROOT
ATOM      1  C   UNL     1      11.074  -0.020   2.094  1.00  0.00     0.082 C 
ENDROOT
BRANCH   1   2
ATOM      2  C   UNL     1      10.594   0.018   0.627  1.00  0.00     0.228 C 
BRANCH   2   3
ATOM      3  N   UNL     1       9.358  -0.759   0.470  1.00  0.00    -0.350 N 
ATOM      4  H   UNL     1       9.161  -1.292   1.347  1.00  0.00     0.345 HD
ATOM      5  H   UNL     1       9.466  -1.445  -0.312  1.00  0.00     0.345 HD
ATOM      6  H   UNL     1       8.548  -0.128   0.265  1.00  0.00     0.345 HD
ENDBRANCH   2   3
BRANCH   2   7
ATOM      7  C   UNL     1      10.379   1.435   0.160  1.00  0.00     0.099 C 
ATOM      8  O   UNL     1      11.259   2.024  -0.523  1.00  0.00    -0.544 OA
ATOM      9  O   UNL     1       9.198   2.097   0.474  1.00  0.00    -0.544 OA
ENDBRANCH   2   7
ENDBRANCH   1   2
BRANCH   1  10
ATOM     10  C   UNL     1      12.323  -0.891   2.274  1.00  0.00     0.076 C 
BRANCH  10  11
ATOM     11  S   UNL     1      13.204  -1.085   0.684  1.00  0.00    -0.165 SA
ATOM     12  C   UNL     1      14.301   0.356   0.897  1.00  0.00     0.085 C 
ENDBRANCH  10  11
ENDBRANCH   1  10
TORSDOF 5
ENDMDL
MODEL 6
REMARK VINA RESULT:    -2.492      1.754      2.336
REMARK INTER + INTRA:          -3.219
REMARK INTER:                  -3.082
REMARK INTRA:                  -0.137
REMARK UNBOUND:                -0.072
REMARK SMILES CSCC[C@@H]([NH3+])C(=O)[O-]
REMARK SMILES IDX 4 1 5 2 6 3 7 7 8 8 9 9 3 10 2 11 1 12
REMARK H PARENT 6 4 6 5 6 6
REMARK Flexibility Score: inf
ROOT
ATOM      1  C   UNL     1      11.976   0.066  -0.260  1.00  0.00     0.082 C 
ENDROOT
BRANCH   1   2
ATOM      2  C   UNL     1      11.259   1.422  -0.084  1.00  0.00     0.228 C 
BRANCH   2   3
ATOM      3  N   UNL     1      11.204   1.794   1.335  1.00  0.00    -0.350 N 
ATOM      4  H   UNL     1      10.672   2.688   1.446  1.00  0.00     0.345 HD
ATOM      5  H   UNL     1      12.172   1.943   1.702  1.00  0.00     0.345 HD
ATOM      6  H   UNL     1      10.733   1.046   1.896  1.00  0.00     0.345 HD
ENDBRANCH   2   3
BRANCH   2   7
ATOM      7  C   UNL     1      11.941   2.506  -0.878  1.00  0.00     0.099 C 
ATOM      8  O   UNL     1      12.132   2.368  -2.116  1.00  0.00    -0.544 OA
ATOM      9  O   UNL     1      12.355   3.672  -0.247  1.00  0.00    -0.544 OA
ENDBRANCH   2   7
ENDBRANCH   1   2
BRANCH   1  10
ATOM     10  C   UNL     1      11.817  -0.839   0.969  1.00  0.00     0.076 C 
BRANCH  10  11
ATOM     11  S   UNL     1      13.420  -1.591   1.423  1.00  0.00    -0.165 SA
ATOM     12  C   UNL     1      14.451  -0.193   0.869  1.00  0.00     0.085 C 
ENDBRANCH  10  11
ENDBRANCH   1  10
TORSDOF 5
ENDMDL
MODEL 7
REMARK VINA RESULT:    -2.448      2.230      2.499
REMARK INTER + INTRA:          -3.164
REMARK INTER:                  -2.933
REMARK INTRA:                  -0.231
REMARK UNBOUND:                -0.072
REMARK SMILES CSCC[C@@H]([NH3+])C(=O)[O-]
REMARK SMILES IDX 4 1 5 2 6 3 7 7 8 8 9 9 3 10 2 11 1 12
REMARK H PARENT 6 4 6 5 6 6
REMARK Flexibility Score: inf
ROOT
ATOM      1  C   UNL     1      12.876  -0.236   0.496  1.00  0.00     0.082 C 
ENDROOT
BRANCH   1   2
ATOM      2  C   UNL     1      11.669   0.008  -0.435  1.00  0.00     0.228 C 
BRANCH   2   3
ATOM      3  N   UNL     1      10.476  -0.676   0.079  1.00  0.00    -0.350 N 
ATOM      4  H   UNL     1      10.545  -1.701  -0.117  1.00  0.00     0.345 HD
ATOM      5  H   UNL     1       9.621  -0.309  -0.400  1.00  0.00     0.345 HD
ATOM      6  H   UNL     1      10.383  -0.532   1.111  1.00  0.00     0.345 HD
ENDBRANCH   2   3
BRANCH   2   7
ATOM      7  C   UNL     1      11.392   1.482  -0.595  1.00  0.00     0.099 C 
ATOM      8  O   UNL     1      10.555   2.060   0.148  1.00  0.00    -0.544 OA
ATOM      9  O   UNL     1      12.070   2.213  -1.562  1.00  0.00    -0.544 OA
ENDBRANCH   2   7
ENDBRANCH   1   2
BRANCH   1  10
ATOM     10  C   UNL     1      12.465  -0.890   1.820  1.00  0.00     0.076 C 
BRANCH  10  11
ATOM     11  S   UNL     1      12.652   0.290   3.204  1.00  0.00    -0.165 SA
ATOM     12  C   UNL     1      10.874   0.648   3.391  1.00  0.00     0.085 C 
ENDBRANCH  10  11
ENDBRANCH   1  10
TORSDOF 5
ENDMDL
MODEL 8
REMARK VINA RESULT:    -2.432      3.397      4.025
REMARK INTER + INTRA:          -3.144
REMARK INTER:                  -2.935
REMARK INTRA:                  -0.209
REMARK UNBOUND:                -0.072
REMARK SMILES CSCC[C@@H]([NH3+])C(=O)[O-]
REMARK SMILES IDX 4 1 5 2 6 3 7 7 8 8 9 9 3 10 2 11 1 12
REMARK H PARENT 6 4 6 5 6 6
REMARK Flexibility Score: inf
ROOT
ATOM      1  C   UNL     1      12.007  -0.197  -0.203  1.00  0.00     0.082 C 
ENDROOT
BRANCH   1   2
ATOM      2  C   UNL     1      11.019   0.391   0.827  1.00  0.00     0.228 C 
BRANCH   2   3
ATOM      3  N   UNL     1      10.305   1.540   0.256  1.00  0.00    -0.350 N 
ATOM      4  H   UNL     1      10.452   1.570  -0.779  1.00  0.00     0.345 HD
ATOM      5  H   UNL     1      10.677   2.429   0.664  1.00  0.00     0.345 HD
ATOM      6  H   UNL     1       9.279   1.473   0.453  1.00  0.00     0.345 HD
ENDBRANCH   2   3
BRANCH   2   7
ATOM      7  C   UNL     1      10.034  -0.651   1.295  1.00  0.00     0.099 C 
ATOM      8  O   UNL     1       9.119  -1.055   0.529  1.00  0.00    -0.544 OA
ATOM      9  O   UNL     1      10.140  -1.178   2.576  1.00  0.00    -0.544 OA
ENDBRANCH   2   7
ENDBRANCH   1   2
BRANCH   1  10
ATOM     10  C   UNL     1      13.023  -1.146   0.444  1.00  0.00     0.076 C 
BRANCH  10  11
ATOM     11  S   UNL     1      14.206  -0.211   1.478  1.00  0.00    -0.165 SA
ATOM     12  C   UNL     1      13.731  -0.985   3.059  1.00  0.00     0.085 C 
ENDBRANCH  10  11
ENDBRANCH   1  10
TORSDOF 5
ENDMDL
MODEL 9
REMARK VINA RESULT:    -2.339      8.381      9.275
REMARK INTER + INTRA:          -3.026
REMARK INTER:                  -2.793
REMARK INTRA:                  -0.233
REMARK UNBOUND:                -0.072
REMARK SMILES CSCC[C@@H]([NH3+])C(=O)[O-]
REMARK SMILES IDX 4 1 5 2 6 3 7 7 8 8 9 9 3 10 2 11 1 12
REMARK H PARENT 6 4 6 5 6 6
REMARK Flexibility Score: inf
ROOT
ATOM      1  C   UNL     1       6.454   2.284  -7.942  1.00  0.00     0.082 C 
ENDROOT
BRANCH   1   2
ATOM      2  C   UNL     1       6.931   1.550  -6.670  1.00  0.00     0.228 C 
BRANCH   2   3
ATOM      3  N   UNL     1       5.782   1.095  -5.877  1.00  0.00    -0.350 N 
ATOM      4  H   UNL     1       5.019   0.770  -6.514  1.00  0.00     0.345 HD
ATOM      5  H   UNL     1       5.411   1.887  -5.302  1.00  0.00     0.345 HD
ATOM      6  H   UNL     1       6.057   0.308  -5.244  1.00  0.00     0.345 HD
ENDBRANCH   2   3
BRANCH   2   7
ATOM      7  C   UNL     1       7.818   0.381  -7.015  1.00  0.00     0.099 C 
ATOM      8  O   UNL     1       9.069   0.473  -6.904  1.00  0.00    -0.544 OA
ATOM      9  O   UNL     1       7.254  -0.811  -7.452  1.00  0.00    -0.544 OA
ENDBRANCH   2   7
ENDBRANCH   1   2
BRANCH   1  10
ATOM     10  C   UNL     1       7.204   3.602  -8.168  1.00  0.00     0.076 C 
BRANCH  10  11
ATOM     11  S   UNL     1       7.979   4.174  -6.613  1.00  0.00    -0.165 SA
ATOM     12  C   UNL     1       9.702   4.006  -7.186  1.00  0.00     0.085 C 
ENDBRANCH  10  11
ENDBRANCH   1  10
TORSDOF 5
ENDMDL
