MODEL 1
REMARK VINA RESULT:    -2.567      0.000      0.000
REMARK INTER + INTRA:          -2.874
REMARK INTER:                  -2.867
REMARK INTRA:                  -0.007
REMARK UNBOUND:                -0.007
REMARK SMILES CCCC(=O)[O-]
REMARK SMILES IDX 3 1 4 2 5 3 6 4 2 5 1 6
REMARK H PARENT
REMARK Flexibility Score: inf
ROOT
ATOM      1  C   UNL     1      -1.969   7.813  38.917  1.00  0.00     0.052 C 
ENDROOT
BRANCH   1   2
ATOM      2  C   UNL     1      -3.007   7.270  39.851  1.00  0.00     0.041 C 
ATOM      3  O   UNL     1      -3.307   7.899  40.899  1.00  0.00    -0.550 OA
ATOM      4  O   UNL     1      -3.667   6.086  39.546  1.00  0.00    -0.550 OA
ENDBRANCH   1   2
BRANCH   1   5
ATOM      5  C   UNL     1      -2.224   9.286  38.578  1.00  0.00     0.003 C 
ATOM      6  C   UNL     1      -1.759   9.648  37.168  1.00  0.00     0.004 C 
ENDBRANCH   1   5
TORSDOF 2
ENDMDL
MODEL 2
REMARK VINA RESULT:    -2.556     11.764     12.823
REMARK INTER + INTRA:          -2.861
REMARK INTER:                  -2.819
REMARK INTRA:                  -0.041
REMARK UNBOUND:                -0.007
REMARK SMILES CCCC(=O)[O-]
REMARK SMILES IDX 3 1 4 2 5 3 6 4 2 5 1 6
REMARK H PARENT
REMARK Flexibility Score: inf
ROOT
ATOM      1  C   UNL     1       2.939   8.581  27.916  1.00  0.00     0.052 C 
ENDROOT
BRANCH   1   2
ATOM      2  C   UNL     1       3.157   9.576  29.015  1.00  0.00     0.041 C 
ATOM      3  O   UNL     1       4.320   9.975  29.287  1.00  0.00    -0.550 OA
ATOM      4  O   UNL     1       2.073  10.089  29.716  1.00  0.00    -0.550 OA
ENDBRANCH   1   2
BRANCH   1   5
ATOM      5  C   UNL     1       4.045   8.652  26.857  1.00  0.00     0.003 C 
ATOM      6  C   UNL     1       3.749   9.688  25.774  1.00  0.00     0.004 C 
ENDBRANCH   1   5
TORSDOF 2
ENDMDL
MODEL 3
REMARK VINA RESULT:    -2.537      2.791      3.712
REMARK INTER + INTRA:          -2.840
REMARK INTER:                  -2.802
REMARK INTRA:                  -0.038
REMARK UNBOUND:                -0.007
REMARK SMILES CCCC(=O)[O-]
REMARK SMILES IDX 3 1 4 2 5 3 6 4 2 5 1 6
REMARK H PARENT
REMARK Flexibility Score: inf
ROOT
ATOM      1  C   UNL     1      -2.163   9.351  38.499  1.00  0.00     0.052 C 
ENDROOT
BRANCH   1   2
ATOM      2  C   UNL     1      -0.758   9.868  38.564  1.00  0.00     0.041 C 
ATOM      3  O   UNL     1      -0.220  10.101  39.678  1.00  0.00    -0.550 OA
ATOM      4  O   UNL     1      -0.031  10.059  37.395  1.00  0.00    -0.550 OA
ENDBRANCH   1   2
BRANCH   1   5
ATOM      5  C   UNL     1      -2.266   7.917  39.031  1.00  0.00     0.003 C 
ATOM      6  C   UNL     1      -3.022   7.841  40.357  1.00  0.00     0.004 C 
ENDBRANCH   1   5
TORSDOF 2
ENDMDL
MODEL 4
REMARK VINA RESULT:    -2.523      3.021      3.759
REMARK INTER + INTRA:          -2.824
REMARK INTER:                  -2.792
REMARK INTRA:                  -0.032
REMARK UNBOUND:                -0.007
REMARK SMILES CCCC(=O)[O-]
REMARK SMILES IDX 3 1 4 2 5 3 6 4 2 5 1 6
REMARK H PARENT
REMARK Flexibility Score: inf
ROOT
ATOM      1  C   UNL     1      -2.250   9.551  37.986  1.00  0.00     0.052 C 
ENDROOT
BRANCH   1   2
ATOM      2  C   UNL     1      -1.485   9.229  36.739  1.00  0.00     0.041 C 
ATOM      3  O   UNL     1      -0.799  10.119  36.170  1.00  0.00    -0.550 OA
ATOM      4  O   UNL     1      -1.502   7.939  36.225  1.00  0.00    -0.550 OA
ENDBRANCH   1   2
BRANCH   1   5
ATOM      5  C   UNL     1      -1.827   8.658  39.159  1.00  0.00     0.003 C 
ATOM      6  C   UNL     1      -3.000   7.878  39.751  1.00  0.00     0.004 C 
ENDBRANCH   1   5
TORSDOF 2
ENDMDL
MODEL 5
REMARK VINA RESULT:    -2.475     12.404     13.529
REMARK INTER + INTRA:          -2.771
REMARK INTER:                  -2.724
REMARK INTRA:                  -0.047
REMARK UNBOUND:                -0.007
REMARK SMILES CCCC(=O)[O-]
REMARK SMILES IDX 3 1 4 2 5 3 6 4 2 5 1 6
REMARK H PARENT
REMARK Flexibility Score: inf
ROOT
ATOM      1  C   UNL     1       3.654   8.786  27.742  1.00  0.00     0.052 C 
ENDROOT
BRANCH   1   2
ATOM      2  C   UNL     1       3.230   9.421  26.453  1.00  0.00     0.041 C 
ATOM      3  O   UNL     1       4.042  10.123  25.796  1.00  0.00    -0.550 OA
ATOM      4  O   UNL     1       1.948   9.210  25.961  1.00  0.00    -0.550 OA
ENDBRANCH   1   2
BRANCH   1   5
ATOM      5  C   UNL     1       3.733   9.809  28.881  1.00  0.00     0.003 C 
ATOM      6  C   UNL     1       2.387  10.016  29.573  1.00  0.00     0.004 C 
ENDBRANCH   1   5
TORSDOF 2
ENDMDL
MODEL 6
REMARK VINA RESULT:    -2.437     10.654     11.777
REMARK INTER + INTRA:          -2.729
REMARK INTER:                  -2.673
REMARK INTRA:                  -0.056
REMARK UNBOUND:                -0.007
REMARK SMILES CCCC(=O)[O-]
REMARK SMILES IDX 3 1 4 2 5 3 6 4 2 5 1 6
REMARK H PARENT
REMARK Flexibility Score: inf
ROOT
ATOM      1  C   UNL     1       3.474   9.757  29.250  1.00  0.00     0.052 C 
ENDROOT
BRANCH   1   2
ATOM      2  C   UNL     1       2.017   9.507  29.492  1.00  0.00     0.041 C 
ATOM      3  O   UNL     1       1.149  10.123  28.820  1.00  0.00    -0.550 OA
ATOM      4  O   UNL     1       1.619   8.569  30.435  1.00  0.00    -0.550 OA
ENDBRANCH   1   2
BRANCH   1   5
ATOM      5  C   UNL     1       3.866   9.473  27.794  1.00  0.00     0.003 C 
ATOM      6  C   UNL     1       3.522   8.047  27.367  1.00  0.00     0.004 C 
ENDBRANCH   1   5
TORSDOF 2
ENDMDL
MODEL 7
REMARK VINA RESULT:    -2.424      3.162      4.019
REMARK INTER + INTRA:          -2.714
REMARK INTER:                  -2.679
REMARK INTRA:                  -0.035
REMARK UNBOUND:                -0.007
REMARK SMILES CCCC(=O)[O-]
REMARK SMILES IDX 3 1 4 2 5 3 6 4 2 5 1 6
REMARK H PARENT
REMARK Flexibility Score: inf
ROOT
ATOM      1  C   UNL     1      -0.857   9.804  39.009  1.00  0.00     0.052 C 
ENDROOT
BRANCH   1   2
ATOM      2  C   UNL     1       0.396   9.873  39.828  1.00  0.00     0.041 C 
ATOM      3  O   UNL     1       1.501  10.116  39.276  1.00  0.00    -0.550 OA
ATOM      4  O   UNL     1       0.337   9.705  41.206  1.00  0.00    -0.550 OA
ENDBRANCH   1   2
BRANCH   1   5
ATOM      5  C   UNL     1      -1.387   8.369  38.902  1.00  0.00     0.003 C 
ATOM      6  C   UNL     1      -2.715   8.183  39.634  1.00  0.00     0.004 C 
ENDBRANCH   1   5
TORSDOF 2
ENDMDL
MODEL 8
REMARK VINA RESULT:    -2.416      1.652      2.332
REMARK INTER + INTRA:          -2.705
REMARK INTER:                  -2.637
REMARK INTRA:                  -0.068
REMARK UNBOUND:                -0.007
REMARK SMILES CCCC(=O)[O-]
REMARK SMILES IDX 3 1 4 2 5 3 6 4 2 5 1 6
REMARK H PARENT
REMARK Flexibility Score: inf
ROOT
ATOM      1  C   UNL     1      -2.238   9.841  37.814  1.00  0.00     0.052 C 
ENDROOT
BRANCH   1   2
ATOM      2  C   UNL     1      -1.952   8.982  39.008  1.00  0.00     0.041 C 
ATOM      3  O   UNL     1      -0.807   8.986  39.531  1.00  0.00    -0.550 OA
ATOM      4  O   UNL     1      -2.959   8.202  39.562  1.00  0.00    -0.550 OA
ENDBRANCH   1   2
BRANCH   1   5
ATOM      5  C   UNL     1      -1.273   9.548  36.658  1.00  0.00     0.003 C 
ATOM      6  C   UNL     1      -1.457   8.142  36.089  1.00  0.00     0.004 C 
ENDBRANCH   1   5
TORSDOF 2
ENDMDL
