MODEL 1
REMARK VINA RESULT:    -4.487      0.000      0.000
REMARK INTER + INTRA:          -6.164
REMARK INTER:                  -5.799
REMARK INTRA:                  -0.365
REMARK UNBOUND:                -0.365
REMARK SMILES CCCCCCC(=O)[O-]
REMARK SMILES IDX 5 1 6 2 7 3 8 4 9 5 4 6 3 7 2 8 1 9
REMARK H PARENT
REMARK Flexibility Score: inf
ROOT
ATOM      1  C   UNL     1      -5.295 -32.247 -52.081  1.00  0.00     0.006 C 
ENDROOT
BRANCH   1   2
ATOM      2  C   UNL     1      -5.278 -30.842 -52.695  1.00  0.00     0.053 C 
BRANCH   2   3
ATOM      3  C   UNL     1      -4.984 -30.880 -54.163  1.00  0.00     0.041 C 
ATOM      4  O   UNL     1      -4.507 -31.922 -54.686  1.00  0.00    -0.550 OA
ATOM      5  O   UNL     1      -5.268 -29.779 -54.960  1.00  0.00    -0.550 OA
ENDBRANCH   2   3
ENDBRANCH   1   2
BRANCH   1   6
ATOM      6  C   UNL     1      -4.266 -32.397 -50.946  1.00  0.00     0.000 C 
BRANCH   6   7
ATOM      7  C   UNL     1      -3.113 -33.345 -51.315  1.00  0.00    -0.000 C 
BRANCH   7   8
ATOM      8  C   UNL     1      -2.007 -32.644 -52.115  1.00  0.00    -0.003 C 
ATOM      9  C   UNL     1      -1.613 -33.462 -53.342  1.00  0.00     0.004 C 
ENDBRANCH   7   8
ENDBRANCH   6   7
ENDBRANCH   1   6
TORSDOF 5
ENDMDL
MODEL 2
REMARK VINA RESULT:    -4.480      2.455      4.002
REMARK INTER + INTRA:          -6.155
REMARK INTER:                  -5.972
REMARK INTRA:                  -0.183
REMARK UNBOUND:                -0.365
REMARK SMILES CCCCCCC(=O)[O-]
REMARK SMILES IDX 5 1 6 2 7 3 8 4 9 5 4 6 3 7 2 8 1 9
REMARK H PARENT
REMARK Flexibility Score: inf
ROOT
ATOM      1  C   UNL     1      -5.438 -31.814 -51.759  1.00  0.00     0.006 C 
ENDROOT
BRANCH   1   2
ATOM      2  C   UNL     1      -5.241 -30.530 -52.577  1.00  0.00     0.053 C 
BRANCH   2   3
ATOM      3  C   UNL     1      -4.904 -30.828 -54.006  1.00  0.00     0.041 C 
ATOM      4  O   UNL     1      -4.321 -31.902 -54.309  1.00  0.00    -0.550 OA
ATOM      5  O   UNL     1      -5.265 -29.935 -55.007  1.00  0.00    -0.550 OA
ENDBRANCH   2   3
ENDBRANCH   1   2
BRANCH   1   6
ATOM      6  C   UNL     1      -5.993 -31.527 -50.353  1.00  0.00     0.000 C 
BRANCH   6   7
ATOM      7  C   UNL     1      -6.314 -30.039 -50.136  1.00  0.00    -0.000 C 
BRANCH   7   8
ATOM      8  C   UNL     1      -7.110 -29.790 -48.847  1.00  0.00    -0.003 C 
ATOM      9  C   UNL     1      -8.183 -30.858 -48.648  1.00  0.00     0.004 C 
ENDBRANCH   7   8
ENDBRANCH   6   7
ENDBRANCH   1   6
TORSDOF 5
ENDMDL
MODEL 3
REMARK VINA RESULT:    -4.377      3.276      5.116
REMARK INTER + INTRA:          -6.022
REMARK INTER:                  -5.922
REMARK INTRA:                  -0.100
REMARK UNBOUND:                -0.365
REMARK SMILES CCCCCCC(=O)[O-]
REMARK SMILES IDX 5 1 6 2 7 3 8 4 9 5 4 6 3 7 2 8 1 9
REMARK H PARENT
REMARK Flexibility Score: inf
ROOT
ATOM      1  C   UNL     1      -4.243 -32.631 -50.851  1.00  0.00     0.006 C 
ENDROOT
BRANCH   1   2
ATOM      2  C   UNL     1      -2.986 -32.750 -51.722  1.00  0.00     0.053 C 
BRANCH   2   3
ATOM      3  C   UNL     1      -1.740 -32.815 -50.893  1.00  0.00     0.041 C 
ATOM      4  O   UNL     1      -0.886 -31.892 -50.959  1.00  0.00    -0.550 OA
ATOM      5  O   UNL     1      -1.538 -33.878 -50.022  1.00  0.00    -0.550 OA
ENDBRANCH   2   3
ENDBRANCH   1   2
BRANCH   1   6
ATOM      6  C   UNL     1      -5.422 -32.005 -51.617  1.00  0.00     0.000 C 
BRANCH   6   7
ATOM      7  C   UNL     1      -6.067 -30.835 -50.856  1.00  0.00    -0.000 C 
BRANCH   7   8
ATOM      8  C   UNL     1      -7.070 -31.304 -49.792  1.00  0.00    -0.003 C 
ATOM      9  C   UNL     1      -7.584 -30.129 -48.965  1.00  0.00     0.004 C 
ENDBRANCH   7   8
ENDBRANCH   6   7
ENDBRANCH   1   6
TORSDOF 5
ENDMDL
MODEL 4
REMARK VINA RESULT:    -4.297      3.844      4.762
REMARK INTER + INTRA:          -5.918
REMARK INTER:                  -5.759
REMARK INTRA:                  -0.159
REMARK UNBOUND:                -0.365
REMARK SMILES CCCCCCC(=O)[O-]
REMARK SMILES IDX 5 1 6 2 7 3 8 4 9 5 4 6 3 7 2 8 1 9
REMARK H PARENT
REMARK Flexibility Score: inf
ROOT
ATOM      1  C   UNL     1      -5.977 -31.008 -50.559  1.00  0.00     0.006 C 
ENDROOT
BRANCH   1   2
ATOM      2  C   UNL     1      -7.238 -31.300 -49.735  1.00  0.00     0.053 C 
BRANCH   2   3
ATOM      3  C   UNL     1      -7.741 -30.073 -49.037  1.00  0.00     0.041 C 
ATOM      4  O   UNL     1      -7.136 -28.977 -49.167  1.00  0.00    -0.550 OA
ATOM      5  O   UNL     1      -8.897 -30.134 -48.270  1.00  0.00    -0.550 OA
ENDBRANCH   2   3
ENDBRANCH   1   2
BRANCH   1   6
ATOM      6  C   UNL     1      -5.552 -32.213 -51.416  1.00  0.00     0.000 C 
BRANCH   6   7
ATOM      7  C   UNL     1      -4.565 -31.829 -52.530  1.00  0.00    -0.000 C 
BRANCH   7   8
ATOM      8  C   UNL     1      -5.265 -31.559 -53.870  1.00  0.00    -0.003 C 
ATOM      9  C   UNL     1      -5.275 -30.068 -54.195  1.00  0.00     0.004 C 
ENDBRANCH   7   8
ENDBRANCH   6   7
ENDBRANCH   1   6
TORSDOF 5
ENDMDL
MODEL 5
REMARK VINA RESULT:    -4.288      2.958      4.541
REMARK INTER + INTRA:          -5.907
REMARK INTER:                  -5.761
REMARK INTRA:                  -0.146
REMARK UNBOUND:                -0.365
REMARK SMILES CCCCCCC(=O)[O-]
REMARK SMILES IDX 5 1 6 2 7 3 8 4 9 5 4 6 3 7 2 8 1 9
REMARK H PARENT
REMARK Flexibility Score: inf
ROOT
ATOM      1  C   UNL     1      -3.997 -32.781 -51.015  1.00  0.00     0.006 C 
ENDROOT
BRANCH   1   2
ATOM      2  C   UNL     1      -2.742 -32.842 -51.894  1.00  0.00     0.053 C 
BRANCH   2   3
ATOM      3  C   UNL     1      -1.519 -33.173 -51.095  1.00  0.00     0.041 C 
ATOM      4  O   UNL     1      -0.382 -32.815 -51.499  1.00  0.00    -0.550 OA
ATOM      5  O   UNL     1      -1.639 -33.846 -49.885  1.00  0.00    -0.550 OA
ENDBRANCH   2   3
ENDBRANCH   1   2
BRANCH   1   6
ATOM      6  C   UNL     1      -5.220 -32.251 -51.785  1.00  0.00     0.000 C 
BRANCH   6   7
ATOM      7  C   UNL     1      -4.965 -30.878 -52.427  1.00  0.00    -0.000 C 
BRANCH   7   8
ATOM      8  C   UNL     1      -5.215 -30.881 -53.942  1.00  0.00    -0.003 C 
ATOM      9  C   UNL     1      -5.481 -29.469 -54.458  1.00  0.00     0.004 C 
ENDBRANCH   7   8
ENDBRANCH   6   7
ENDBRANCH   1   6
TORSDOF 5
ENDMDL
MODEL 6
REMARK VINA RESULT:    -4.256      2.801      4.368
REMARK INTER + INTRA:          -5.865
REMARK INTER:                  -5.696
REMARK INTRA:                  -0.169
REMARK UNBOUND:                -0.365
REMARK SMILES CCCCCCC(=O)[O-]
REMARK SMILES IDX 5 1 6 2 7 3 8 4 9 5 4 6 3 7 2 8 1 9
REMARK H PARENT
REMARK Flexibility Score: inf
ROOT
ATOM      1  C   UNL     1      -5.589 -29.955 -51.431  1.00  0.00     0.006 C 
ENDROOT
BRANCH   1   2
ATOM      2  C   UNL     1      -4.637 -29.761 -52.618  1.00  0.00     0.053 C 
BRANCH   2   3
ATOM      3  C   UNL     1      -5.101 -30.512 -53.830  1.00  0.00     0.041 C 
ATOM      4  O   UNL     1      -5.405 -31.731 -53.742  1.00  0.00    -0.550 OA
ATOM      5  O   UNL     1      -5.230 -29.857 -55.048  1.00  0.00    -0.550 OA
ENDBRANCH   2   3
ENDBRANCH   1   2
BRANCH   1   6
ATOM      6  C   UNL     1      -5.792 -28.656 -50.632  1.00  0.00     0.000 C 
BRANCH   6   7
ATOM      7  C   UNL     1      -6.446 -28.900 -49.262  1.00  0.00    -0.000 C 
BRANCH   7   8
ATOM      8  C   UNL     1      -6.743 -30.384 -49.007  1.00  0.00    -0.003 C 
ATOM      9  C   UNL     1      -8.214 -30.599 -48.661  1.00  0.00     0.004 C 
ENDBRANCH   7   8
ENDBRANCH   6   7
ENDBRANCH   1   6
TORSDOF 5
ENDMDL
MODEL 7
REMARK VINA RESULT:    -4.192      2.803      4.432
REMARK INTER + INTRA:          -5.783
REMARK INTER:                  -5.641
REMARK INTRA:                  -0.142
REMARK UNBOUND:                -0.365
REMARK SMILES CCCCCCC(=O)[O-]
REMARK SMILES IDX 5 1 6 2 7 3 8 4 9 5 4 6 3 7 2 8 1 9
REMARK H PARENT
REMARK Flexibility Score: inf
ROOT
ATOM      1  C   UNL     1      -5.570 -32.105 -51.672  1.00  0.00     0.006 C 
ENDROOT
BRANCH   1   2
ATOM      2  C   UNL     1      -4.104 -32.543 -51.576  1.00  0.00     0.053 C 
BRANCH   2   3
ATOM      3  C   UNL     1      -3.239 -31.808 -52.553  1.00  0.00     0.041 C 
ATOM      4  O   UNL     1      -2.775 -30.674 -52.261  1.00  0.00    -0.550 OA
ATOM      5  O   UNL     1      -2.917 -32.389 -53.773  1.00  0.00    -0.550 OA
ENDBRANCH   2   3
ENDBRANCH   1   2
BRANCH   1   6
ATOM      6  C   UNL     1      -5.916 -31.008 -50.650  1.00  0.00     0.000 C 
BRANCH   6   7
ATOM      7  C   UNL     1      -7.143 -31.362 -49.794  1.00  0.00    -0.000 C 
BRANCH   7   8
ATOM      8  C   UNL     1      -7.697 -30.153 -49.027  1.00  0.00    -0.003 C 
ATOM      9  C   UNL     1      -6.583 -29.173 -48.668  1.00  0.00     0.004 C 
ENDBRANCH   7   8
ENDBRANCH   6   7
ENDBRANCH   1   6
TORSDOF 5
ENDMDL
MODEL 8
REMARK VINA RESULT:    -4.146      3.872      4.376
REMARK INTER + INTRA:          -5.723
REMARK INTER:                  -5.573
REMARK INTRA:                  -0.150
REMARK UNBOUND:                -0.365
REMARK SMILES CCCCCCC(=O)[O-]
REMARK SMILES IDX 5 1 6 2 7 3 8 4 9 5 4 6 3 7 2 8 1 9
REMARK H PARENT
REMARK Flexibility Score: inf
ROOT
ATOM      1  C   UNL     1      -6.038 -30.950 -50.578  1.00  0.00     0.006 C 
ENDROOT
BRANCH   1   2
ATOM      2  C   UNL     1      -7.179 -31.328 -49.623  1.00  0.00     0.053 C 
BRANCH   2   3
ATOM      3  C   UNL     1      -7.781 -30.120 -48.972  1.00  0.00     0.041 C 
ATOM      4  O   UNL     1      -8.904 -30.198 -48.410  1.00  0.00    -0.550 OA
ATOM      5  O   UNL     1      -7.084 -28.918 -48.956  1.00  0.00    -0.550 OA
ENDBRANCH   2   3
ENDBRANCH   1   2
BRANCH   1   6
ATOM      6  C   UNL     1      -5.590 -32.140 -51.445  1.00  0.00     0.000 C 
BRANCH   6   7
ATOM      7  C   UNL     1      -4.647 -31.719 -52.584  1.00  0.00    -0.000 C 
BRANCH   7   8
ATOM      8  C   UNL     1      -3.269 -32.390 -52.486  1.00  0.00    -0.003 C 
ATOM      9  C   UNL     1      -3.152 -33.221 -51.212  1.00  0.00     0.004 C 
ENDBRANCH   7   8
ENDBRANCH   6   7
ENDBRANCH   1   6
TORSDOF 5
ENDMDL
MODEL 9
REMARK VINA RESULT:    -4.116      3.628      4.491
REMARK INTER + INTRA:          -5.684
REMARK INTER:                  -5.450
REMARK INTRA:                  -0.234
REMARK UNBOUND:                -0.365
REMARK SMILES CCCCCCC(=O)[O-]
REMARK SMILES IDX 5 1 6 2 7 3 8 4 9 5 4 6 3 7 2 8 1 9
REMARK H PARENT
REMARK Flexibility Score: inf
ROOT
ATOM      1  C   UNL     1      -7.055 -30.229 -49.523  1.00  0.00     0.006 C 
ENDROOT
BRANCH   1   2
ATOM      2  C   UNL     1      -6.464 -28.984 -48.849  1.00  0.00     0.053 C 
BRANCH   2   3
ATOM      3  C   UNL     1      -6.227 -27.880 -49.833  1.00  0.00     0.041 C 
ATOM      4  O   UNL     1      -6.696 -26.731 -49.622  1.00  0.00    -0.550 OA
ATOM      5  O   UNL     1      -5.457 -28.111 -50.966  1.00  0.00    -0.550 OA
ENDBRANCH   2   3
ENDBRANCH   1   2
BRANCH   1   6
ATOM      6  C   UNL     1      -6.003 -31.335 -49.722  1.00  0.00     0.000 C 
BRANCH   6   7
ATOM      7  C   UNL     1      -6.005 -31.902 -51.151  1.00  0.00    -0.000 C 
BRANCH   7   8
ATOM      8  C   UNL     1      -4.803 -31.422 -51.977  1.00  0.00    -0.003 C 
ATOM      9  C   UNL     1      -5.163 -31.307 -53.456  1.00  0.00     0.004 C 
ENDBRANCH   7   8
ENDBRANCH   6   7
ENDBRANCH   1   6
TORSDOF 5
ENDMDL
