MODEL 1
REMARK VINA RESULT:    12.757      0.000      0.000
REMARK INTER + INTRA:          12.757
REMARK INTER:                  12.757
REMARK INTRA:                   0.000
REMARK UNBOUND:                 0.000
REMARK SMILES C[NH+]1CCN(C2=[NH+]c3ccccc3Oc3ccc(Cl)cc32)CC1
REMARK SMILES IDX 7 1 6 2 21 3 5 4 8 5 9 6 13 7 10 8 12 9 14 10 11 11 15 12
REMARK SMILES IDX 16 13 17 14 18 15 20 16 19 17 4 18 22 19 3 20 23 21 2 22
REMARK SMILES IDX 1 23
REMARK H PARENT 7 24 2 25
REMARK Flexibility Score: inf
ROOT
ATOM      1  N   UNL     1      46.233  42.936  45.551  1.00  0.00    -0.237 N 
ATOM      2  C   UNL     1      47.184  42.298  44.920  1.00  0.00     0.286 C 
ATOM      3  C   UNL     1      48.101  41.329  45.577  1.00  0.00     0.108 A 
ATOM      4  N   UNL     1      47.332  42.500  43.500  1.00  0.00    -0.250 N 
ATOM      5  C   UNL     1      45.892  42.847  46.945  1.00  0.00     0.168 A 
ATOM      6  C   UNL     1      44.545  43.021  47.311  1.00  0.00     0.056 A 
ATOM      7  C   UNL     1      46.871  42.786  47.958  1.00  0.00     0.173 A 
ATOM      8  C   UNL     1      44.176  43.122  48.654  1.00  0.00     0.005 A 
ATOM      9  C   UNL     1      46.494  42.924  49.301  1.00  0.00     0.052 A 
ATOM     10  O   UNL     1      48.219  42.587  47.678  1.00  0.00    -0.452 OA
ATOM     11  C   UNL     1      45.152  43.082  49.650  1.00  0.00     0.004 A 
ATOM     12  C   UNL     1      48.659  41.561  46.849  1.00  0.00     0.143 A 
ATOM     13  C   UNL     1      49.685  40.733  47.323  1.00  0.00     0.049 A 
ATOM     14  C   UNL     1      50.125  39.644  46.570  1.00  0.00     0.024 A 
ATOM     15  C   UNL     1      49.548  39.380  45.328  1.00  0.00     0.042 A 
ATOM     16  C   UNL     1      48.548  40.220  44.832  1.00  0.00     0.041 A 
ATOM     17  Cl  UNL     1      50.097  38.012  44.377  1.00  0.00    -0.084 Cl
ATOM     18  C   UNL     1      48.588  43.032  42.966  1.00  0.00     0.298 C 
ATOM     19  C   UNL     1      46.170  42.447  42.610  1.00  0.00     0.298 C 
ATOM     20  C   UNL     1      48.908  42.360  41.627  1.00  0.00     0.308 C 
ATOM     21  C   UNL     1      46.566  41.790  41.283  1.00  0.00     0.308 C 
ATOM     22  N   UNL     1      47.758  42.445  40.702  1.00  0.00    -0.331 N 
ATOM     23  C   UNL     1      48.099  41.822  39.413  1.00  0.00     0.332 C 
ATOM     24  H   UNL     1      45.615  43.561  44.983  1.00  0.00     0.312 HD
ATOM     25  H   UNL     1      47.539  43.455  40.520  1.00  0.00     0.348 HD
ENDROOT
TORSDOF 0
ENDMDL
MODEL 2
REMARK VINA RESULT:    14.474      3.111      7.593
REMARK INTER + INTRA:          14.474
REMARK INTER:                  14.474
REMARK INTRA:                   0.000
REMARK UNBOUND:                 0.000
REMARK SMILES C[NH+]1CCN(C2=[NH+]c3ccccc3Oc3ccc(Cl)cc32)CC1
REMARK SMILES IDX 7 1 6 2 21 3 5 4 8 5 9 6 13 7 10 8 12 9 14 10 11 11 15 12
REMARK SMILES IDX 16 13 17 14 18 15 20 16 19 17 4 18 22 19 3 20 23 21 2 22
REMARK SMILES IDX 1 23
REMARK H PARENT 7 24 2 25
REMARK Flexibility Score: inf
ROOT
ATOM      1  N   UNL     1      49.013  42.751  40.699  1.00  0.00    -0.237 N 
ATOM      2  C   UNL     1      48.154  42.272  41.562  1.00  0.00     0.286 C 
ATOM      3  C   UNL     1      46.899  41.577  41.172  1.00  0.00     0.108 A 
ATOM      4  N   UNL     1      48.452  42.374  42.968  1.00  0.00    -0.250 N 
ATOM      5  C   UNL     1      48.928  42.717  39.265  1.00  0.00     0.168 A 
ATOM      6  C   UNL     1      50.125  42.637  38.531  1.00  0.00     0.056 A 
ATOM      7  C   UNL     1      47.720  42.950  38.575  1.00  0.00     0.173 A 
ATOM      8  C   UNL     1      50.123  42.778  37.141  1.00  0.00     0.005 A 
ATOM      9  C   UNL     1      47.734  43.125  37.185  1.00  0.00     0.052 A 
ATOM     10  O   UNL     1      46.492  43.012  39.226  1.00  0.00    -0.452 OA
ATOM     11  C   UNL     1      48.928  43.030  36.468  1.00  0.00     0.004 A 
ATOM     12  C   UNL     1      46.078  42.031  40.121  1.00  0.00     0.143 A 
ATOM     13  C   UNL     1      44.803  41.480  39.941  1.00  0.00     0.049 A 
ATOM     14  C   UNL     1      44.355  40.444  40.762  1.00  0.00     0.024 A 
ATOM     15  C   UNL     1      45.177  39.957  41.778  1.00  0.00     0.042 A 
ATOM     16  C   UNL     1      46.437  40.523  41.986  1.00  0.00     0.041 A 
ATOM     17  Cl  UNL     1      44.618  38.655  42.812  1.00  0.00    -0.084 Cl
ATOM     18  C   UNL     1      47.545  43.107  43.855  1.00  0.00     0.298 C 
ATOM     19  C   UNL     1      49.771  42.001  43.485  1.00  0.00     0.298 C 
ATOM     20  C   UNL     1      47.463  42.400  45.212  1.00  0.00     0.308 C 
ATOM     21  C   UNL     1      49.619  41.327  44.852  1.00  0.00     0.308 C 
ATOM     22  N   UNL     1      48.812  42.162  45.769  1.00  0.00    -0.331 N 
ATOM     23  C   UNL     1      48.708  41.512  47.085  1.00  0.00     0.332 C 
ATOM     24  H   UNL     1      49.887  43.181  41.081  1.00  0.00     0.312 HD
ATOM     25  H   UNL     1      49.294  43.084  45.905  1.00  0.00     0.348 HD
ENDROOT
TORSDOF 0
ENDMDL
MODEL 3
REMARK VINA RESULT:    15.495      3.243      7.134
REMARK INTER + INTRA:          15.495
REMARK INTER:                  15.495
REMARK INTRA:                   0.000
REMARK UNBOUND:                 0.000
REMARK SMILES C[NH+]1CCN(C2=[NH+]c3ccccc3Oc3ccc(Cl)cc32)CC1
REMARK SMILES IDX 7 1 6 2 21 3 5 4 8 5 9 6 13 7 10 8 12 9 14 10 11 11 15 12
REMARK SMILES IDX 16 13 17 14 18 15 20 16 19 17 4 18 22 19 3 20 23 21 2 22
REMARK SMILES IDX 1 23
REMARK H PARENT 7 24 2 25
REMARK Flexibility Score: inf
ROOT
ATOM      1  N   UNL     1      50.024  39.962  43.041  1.00  0.00    -0.237 N 
ATOM      2  C   UNL     1      49.334  40.581  43.964  1.00  0.00     0.286 C 
ATOM      3  C   UNL     1      48.107  41.373  43.681  1.00  0.00     0.108 A 
ATOM      4  N   UNL     1      49.747  40.458  45.340  1.00  0.00    -0.250 N 
ATOM      5  C   UNL     1      49.761  39.922  41.628  1.00  0.00     0.168 A 
ATOM      6  C   UNL     1      50.125  38.764  40.918  1.00  0.00     0.056 A 
ATOM      7  C   UNL     1      49.338  41.059  40.908  1.00  0.00     0.173 A 
ATOM      8  C   UNL     1      50.061  38.730  39.524  1.00  0.00     0.005 A 
ATOM      9  C   UNL     1      49.311  41.025  39.507  1.00  0.00     0.052 A 
ATOM     10  O   UNL     1      48.934  42.231  41.539  1.00  0.00    -0.452 OA
ATOM     11  C   UNL     1      49.661  39.864  38.817  1.00  0.00     0.004 A 
ATOM     12  C   UNL     1      48.002  42.234  42.571  1.00  0.00     0.143 A 
ATOM     13  C   UNL     1      46.923  43.121  42.474  1.00  0.00     0.049 A 
ATOM     14  C   UNL     1      45.918  43.125  43.442  1.00  0.00     0.024 A 
ATOM     15  C   UNL     1      45.989  42.246  44.522  1.00  0.00     0.042 A 
ATOM     16  C   UNL     1      47.079  41.381  44.645  1.00  0.00     0.041 A 
ATOM     17  Cl  UNL     1      44.727  42.247  45.741  1.00  0.00    -0.084 Cl
ATOM     18  C   UNL     1      50.112  41.654  46.102  1.00  0.00     0.298 C 
ATOM     19  C   UNL     1      50.074  39.149  45.910  1.00  0.00     0.298 C 
ATOM     20  C   UNL     1      49.633  41.513  47.550  1.00  0.00     0.308 C 
ATOM     21  C   UNL     1      49.594  39.085  47.364  1.00  0.00     0.308 C 
ATOM     22  N   UNL     1      50.098  40.239  48.140  1.00  0.00    -0.331 N 
ATOM     23  C   UNL     1      49.654  40.139  49.540  1.00  0.00     0.332 C 
ATOM     24  H   UNL     1      50.845  39.395  43.356  1.00  0.00     0.312 HD
ATOM     25  H   UNL     1      51.147  40.222  48.136  1.00  0.00     0.348 HD
ENDROOT
TORSDOF 0
ENDMDL
