MODEL 1
REMARK VINA RESULT:    -1.225      0.000      0.000
REMARK INTER + INTRA:          -1.411
REMARK INTER:                  -1.368
REMARK INTRA:                  -0.043
REMARK UNBOUND:                -0.043
REMARK SMILES CCCC(=O)[O-]
REMARK SMILES IDX 3 1 4 2 5 3 6 4 2 5 1 6
REMARK H PARENT
REMARK Flexibility Score: inf
ROOT
ATOM      1  C   UNL     1     -13.176 -21.341  84.004  1.00  0.00     0.052 C 
ENDROOT
BRANCH   1   2
ATOM      2  C   UNL     1     -13.622 -21.639  82.605  1.00  0.00     0.041 C 
ATOM      3  O   UNL     1     -13.546 -22.810  82.152  1.00  0.00    -0.550 OA
ATOM      4  O   UNL     1     -14.089 -20.615  81.790  1.00  0.00    -0.550 OA
ENDBRANCH   1   2
BRANCH   1   5
ATOM      5  C   UNL     1     -13.481 -22.502  84.958  1.00  0.00     0.003 C 
ATOM      6  C   UNL     1     -14.886 -22.413  85.554  1.00  0.00     0.004 C 
ENDBRANCH   1   5
TORSDOF 2
ENDMDL
MODEL 2
REMARK VINA RESULT:    -1.224      0.773      1.513
REMARK INTER + INTRA:          -1.410
REMARK INTER:                  -1.376
REMARK INTRA:                  -0.034
REMARK UNBOUND:                -0.043
REMARK SMILES CCCC(=O)[O-]
REMARK SMILES IDX 3 1 4 2 5 3 6 4 2 5 1 6
REMARK H PARENT
REMARK Flexibility Score: inf
ROOT
ATOM      1  C   UNL     1     -13.113 -21.334  83.993  1.00  0.00     0.052 C 
ENDROOT
BRANCH   1   2
ATOM      2  C   UNL     1     -13.604 -21.245  82.581  1.00  0.00     0.041 C 
ATOM      3  O   UNL     1     -13.326 -20.241  81.875  1.00  0.00    -0.550 OA
ATOM      4  O   UNL     1     -14.398 -22.257  82.055  1.00  0.00    -0.550 OA
ENDBRANCH   1   2
BRANCH   1   5
ATOM      5  C   UNL     1     -14.018 -22.222  84.856  1.00  0.00     0.003 C 
ATOM      6  C   UNL     1     -13.256 -23.382  85.497  1.00  0.00     0.004 C 
ENDBRANCH   1   5
TORSDOF 2
ENDMDL
MODEL 3
REMARK VINA RESULT:    -1.220      2.396      3.406
REMARK INTER + INTRA:          -1.406
REMARK INTER:                  -1.389
REMARK INTRA:                  -0.017
REMARK UNBOUND:                -0.043
REMARK SMILES CCCC(=O)[O-]
REMARK SMILES IDX 3 1 4 2 5 3 6 4 2 5 1 6
REMARK H PARENT
REMARK Flexibility Score: inf
ROOT
ATOM      1  C   UNL     1     -13.304 -21.652  84.202  1.00  0.00     0.052 C 
ENDROOT
BRANCH   1   2
ATOM      2  C   UNL     1     -13.957 -22.498  85.250  1.00  0.00     0.041 C 
ATOM      3  O   UNL     1     -15.138 -22.257  85.614  1.00  0.00    -0.550 OA
ATOM      4  O   UNL     1     -13.250 -23.532  85.851  1.00  0.00    -0.550 OA
ENDBRANCH   1   2
BRANCH   1   5
ATOM      5  C   UNL     1     -13.606 -22.162  82.788  1.00  0.00     0.003 C 
ATOM      6  C   UNL     1     -14.070 -21.045  81.852  1.00  0.00     0.004 C 
ENDBRANCH   1   5
TORSDOF 2
ENDMDL
MODEL 4
REMARK VINA RESULT:    -1.090      1.669      2.421
REMARK INTER + INTRA:          -1.260
REMARK INTER:                  -1.224
REMARK INTRA:                  -0.036
REMARK UNBOUND:                -0.043
REMARK SMILES CCCC(=O)[O-]
REMARK SMILES IDX 3 1 4 2 5 3 6 4 2 5 1 6
REMARK H PARENT
REMARK Flexibility Score: inf
ROOT
ATOM      1  C   UNL     1     -14.514 -22.295  85.376  1.00  0.00     0.052 C 
ENDROOT
BRANCH   1   2
ATOM      2  C   UNL     1     -13.466 -22.125  84.320  1.00  0.00     0.041 C 
ATOM      3  O   UNL     1     -13.138 -20.974  83.931  1.00  0.00    -0.550 OA
ATOM      4  O   UNL     1     -12.875 -23.241  83.740  1.00  0.00    -0.550 OA
ENDBRANCH   1   2
BRANCH   1   5
ATOM      5  C   UNL     1     -14.358 -23.624  86.125  1.00  0.00     0.003 C 
ATOM      6  C   UNL     1     -15.579 -24.530  85.962  1.00  0.00     0.004 C 
ENDBRANCH   1   5
TORSDOF 2
ENDMDL
MODEL 5
REMARK VINA RESULT:    -0.995      2.682      3.294
REMARK INTER + INTRA:          -1.155
REMARK INTER:                  -1.117
REMARK INTRA:                  -0.038
REMARK UNBOUND:                -0.043
REMARK SMILES CCCC(=O)[O-]
REMARK SMILES IDX 3 1 4 2 5 3 6 4 2 5 1 6
REMARK H PARENT
REMARK Flexibility Score: inf
ROOT
ATOM      1  C   UNL     1     -14.427 -23.100  84.232  1.00  0.00     0.052 C 
ENDROOT
BRANCH   1   2
ATOM      2  C   UNL     1     -15.687 -22.853  85.003  1.00  0.00     0.041 C 
ATOM      3  O   UNL     1     -16.773 -23.360  84.621  1.00  0.00    -0.550 OA
ATOM      4  O   UNL     1     -15.667 -22.033  86.125  1.00  0.00    -0.550 OA
ENDBRANCH   1   2
BRANCH   1   5
ATOM      5  C   UNL     1     -13.278 -22.207  84.717  1.00  0.00     0.003 C 
ATOM      6  C   UNL     1     -13.003 -21.042  83.765  1.00  0.00     0.004 C 
ENDBRANCH   1   5
TORSDOF 2
ENDMDL
MODEL 6
REMARK VINA RESULT:    -0.985      2.954      3.702
REMARK INTER + INTRA:          -1.144
REMARK INTER:                  -1.113
REMARK INTRA:                  -0.031
REMARK UNBOUND:                -0.043
REMARK SMILES CCCC(=O)[O-]
REMARK SMILES IDX 3 1 4 2 5 3 6 4 2 5 1 6
REMARK H PARENT
REMARK Flexibility Score: inf
ROOT
ATOM      1  C   UNL     1     -14.207 -23.595  84.171  1.00  0.00     0.052 C 
ENDROOT
BRANCH   1   2
ATOM      2  C   UNL     1     -13.436 -24.524  85.058  1.00  0.00     0.041 C 
ATOM      3  O   UNL     1     -12.904 -24.095  86.114  1.00  0.00    -0.550 OA
ATOM      4  O   UNL     1     -13.276 -25.856  84.698  1.00  0.00    -0.550 OA
ENDBRANCH   1   2
BRANCH   1   5
ATOM      5  C   UNL     1     -14.201 -22.158  84.708  1.00  0.00     0.003 C 
ATOM      6  C   UNL     1     -13.150 -21.284  84.022  1.00  0.00     0.004 C 
ENDBRANCH   1   5
TORSDOF 2
ENDMDL
MODEL 7
REMARK VINA RESULT:    -0.933      2.383      3.298
REMARK INTER + INTRA:          -1.086
REMARK INTER:                  -1.065
REMARK INTRA:                  -0.021
REMARK UNBOUND:                -0.043
REMARK SMILES CCCC(=O)[O-]
REMARK SMILES IDX 3 1 4 2 5 3 6 4 2 5 1 6
REMARK H PARENT
REMARK Flexibility Score: inf
ROOT
ATOM      1  C   UNL     1     -15.174 -22.859  85.128  1.00  0.00     0.052 C 
ENDROOT
BRANCH   1   2
ATOM      2  C   UNL     1     -13.686 -22.693  85.112  1.00  0.00     0.041 C 
ATOM      3  O   UNL     1     -13.162 -21.729  84.497  1.00  0.00    -0.550 OA
ATOM      4  O   UNL     1     -12.875 -23.625  85.748  1.00  0.00    -0.550 OA
ENDBRANCH   1   2
BRANCH   1   5
ATOM      5  C   UNL     1     -15.623 -24.057  84.282  1.00  0.00     0.003 C 
ATOM      6  C   UNL     1     -15.001 -24.049  82.886  1.00  0.00     0.004 C 
ENDBRANCH   1   5
TORSDOF 2
ENDMDL
MODEL 8
REMARK VINA RESULT:    -0.930      2.411      2.801
REMARK INTER + INTRA:          -1.082
REMARK INTER:                  -1.037
REMARK INTRA:                  -0.046
REMARK UNBOUND:                -0.043
REMARK SMILES CCCC(=O)[O-]
REMARK SMILES IDX 3 1 4 2 5 3 6 4 2 5 1 6
REMARK H PARENT
REMARK Flexibility Score: inf
ROOT
ATOM      1  C   UNL     1     -14.157 -23.033  83.184  1.00  0.00     0.052 C 
ENDROOT
BRANCH   1   2
ATOM      2  C   UNL     1     -13.819 -22.088  84.296  1.00  0.00     0.041 C 
ATOM      3  O   UNL     1     -14.297 -22.265  85.446  1.00  0.00    -0.550 OA
ATOM      4  O   UNL     1     -13.004 -20.990  84.051  1.00  0.00    -0.550 OA
ENDBRANCH   1   2
BRANCH   1   5
ATOM      5  C   UNL     1     -15.213 -22.447  82.239  1.00  0.00     0.003 C 
ATOM      6  C   UNL     1     -16.637 -22.651  82.757  1.00  0.00     0.004 C 
ENDBRANCH   1   5
TORSDOF 2
ENDMDL
MODEL 9
REMARK VINA RESULT:    -0.901      7.539      7.992
REMARK INTER + INTRA:          -1.050
REMARK INTER:                  -1.009
REMARK INTRA:                  -0.040
REMARK UNBOUND:                -0.043
REMARK SMILES CCCC(=O)[O-]
REMARK SMILES IDX 3 1 4 2 5 3 6 4 2 5 1 6
REMARK H PARENT
REMARK Flexibility Score: inf
ROOT
ATOM      1  C   UNL     1     -15.242 -13.591  84.230  1.00  0.00     0.052 C 
ENDROOT
BRANCH   1   2
ATOM      2  C   UNL     1     -14.020 -14.332  84.678  1.00  0.00     0.041 C 
ATOM      3  O   UNL     1     -13.693 -14.340  85.893  1.00  0.00    -0.550 OA
ATOM      4  O   UNL     1     -13.222 -14.986  83.747  1.00  0.00    -0.550 OA
ENDBRANCH   1   2
BRANCH   1   5
ATOM      5  C   UNL     1     -16.459 -14.518  84.111  1.00  0.00     0.003 C 
ATOM      6  C   UNL     1     -17.218 -14.654  85.431  1.00  0.00     0.004 C 
ENDBRANCH   1   5
TORSDOF 2
ENDMDL
