MODEL 1
REMARK VINA RESULT:    -5.427      0.000      0.000
REMARK INTER + INTRA:          -5.585
REMARK INTER:                  -5.585
REMARK INTRA:                   0.000
REMARK UNBOUND:                 0.000
REMARK SMILES O=c1ccc2ccc(O)cc2o1
REMARK SMILES IDX 6 1 7 2 8 3 10 4 11 5 5 6 4 7 3 8 2 9 1 10 12 11 9 12
REMARK H PARENT 9 13
REMARK Flexibility Score: inf
ROOT
ATOM      1  C   UNL     1      -8.059 -23.647 -16.442  1.00  0.00     0.016 A 
ATOM      2  C   UNL     1      -7.134 -23.162 -15.512  1.00  0.00     0.047 A 
ATOM      3  C   UNL     1      -6.080 -22.338 -15.925  1.00  0.00     0.119 A 
ATOM      4  C   UNL     1      -5.950 -21.995 -17.280  1.00  0.00     0.094 A 
ATOM      5  C   UNL     1      -6.871 -22.475 -18.217  1.00  0.00     0.142 A 
ATOM      6  C   UNL     1      -7.932 -23.306 -17.796  1.00  0.00     0.018 A 
ATOM      7  C   UNL     1      -8.837 -23.770 -18.757  1.00  0.00     0.019 A 
ATOM      8  C   UNL     1      -8.667 -23.402 -20.091  1.00  0.00     0.094 A 
ATOM      9  C   UNL     1      -7.592 -22.576 -20.435  1.00  0.00     0.336 A 
ATOM     10  O   UNL     1      -7.422 -22.232 -21.634  1.00  0.00    -0.246 OA
ATOM     11  O   UNL     1      -6.745 -22.148 -19.501  1.00  0.00    -0.423 OA
ENDROOT
BRANCH   3  12
ATOM     12  O   UNL     1      -5.168 -21.866 -14.984  1.00  0.00    -0.508 OA
ATOM     13  H   UNL     1      -5.460 -21.277 -14.213  1.00  0.00     0.293 HD
ENDBRANCH   3  12
TORSDOF 1
ENDMDL
MODEL 2
REMARK VINA RESULT:    -5.422     13.874     15.305
REMARK INTER + INTRA:          -5.580
REMARK INTER:                  -5.580
REMARK INTRA:                   0.000
REMARK UNBOUND:                 0.000
REMARK SMILES O=c1ccc2ccc(O)cc2o1
REMARK SMILES IDX 6 1 7 2 8 3 10 4 11 5 5 6 4 7 3 8 2 9 1 10 12 11 9 12
REMARK H PARENT 9 13
REMARK Flexibility Score: inf
ROOT
ATOM      1  C   UNL     1     -20.510 -27.140 -19.150  1.00  0.00     0.016 A 
ATOM      2  C   UNL     1     -19.858 -26.005 -19.643  1.00  0.00     0.047 A 
ATOM      3  C   UNL     1     -20.162 -24.737 -19.134  1.00  0.00     0.119 A 
ATOM      4  C   UNL     1     -21.127 -24.601 -18.123  1.00  0.00     0.094 A 
ATOM      5  C   UNL     1     -21.784 -25.731 -17.623  1.00  0.00     0.142 A 
ATOM      6  C   UNL     1     -21.475 -27.008 -18.141  1.00  0.00     0.018 A 
ATOM      7  C   UNL     1     -22.148 -28.118 -17.621  1.00  0.00     0.019 A 
ATOM      8  C   UNL     1     -23.098 -27.934 -16.617  1.00  0.00     0.094 A 
ATOM      9  C   UNL     1     -23.353 -26.639 -16.154  1.00  0.00     0.336 A 
ATOM     10  O   UNL     1     -24.207 -26.452 -15.248  1.00  0.00    -0.246 OA
ATOM     11  O   UNL     1     -22.698 -25.599 -16.665  1.00  0.00    -0.423 OA
ENDROOT
BRANCH   3  12
ATOM     12  O   UNL     1     -19.502 -23.618 -19.638  1.00  0.00    -0.508 OA
ATOM     13  H   UNL     1     -19.982 -22.736 -19.773  1.00  0.00     0.293 HD
ENDBRANCH   3  12
TORSDOF 1
ENDMDL
MODEL 3
REMARK VINA RESULT:    -5.090     13.795     15.047
REMARK INTER + INTRA:          -5.239
REMARK INTER:                  -5.239
REMARK INTRA:                   0.000
REMARK UNBOUND:                 0.000
REMARK SMILES O=c1ccc2ccc(O)cc2o1
REMARK SMILES IDX 6 1 7 2 8 3 10 4 11 5 5 6 4 7 3 8 2 9 1 10 12 11 9 12
REMARK H PARENT 9 13
REMARK Flexibility Score: inf
ROOT
ATOM      1  C   UNL     1     -22.217 -28.060 -17.633  1.00  0.00     0.016 A 
ATOM      2  C   UNL     1     -23.120 -27.858 -16.584  1.00  0.00     0.047 A 
ATOM      3  C   UNL     1     -23.290 -26.582 -16.032  1.00  0.00     0.119 A 
ATOM      4  C   UNL     1     -22.552 -25.499 -16.534  1.00  0.00     0.094 A 
ATOM      5  C   UNL     1     -21.646 -25.691 -17.583  1.00  0.00     0.142 A 
ATOM      6  C   UNL     1     -21.477 -26.980 -18.135  1.00  0.00     0.018 A 
ATOM      7  C   UNL     1     -20.564 -27.140 -19.183  1.00  0.00     0.019 A 
ATOM      8  C   UNL     1     -19.854 -26.034 -19.648  1.00  0.00     0.094 A 
ATOM      9  C   UNL     1     -20.073 -24.788 -19.051  1.00  0.00     0.336 A 
ATOM     10  O   UNL     1     -19.442 -23.777 -19.457  1.00  0.00    -0.246 OA
ATOM     11  O   UNL     1     -20.948 -24.662 -18.055  1.00  0.00    -0.423 OA
ENDROOT
BRANCH   3  12
ATOM     12  O   UNL     1     -24.195 -26.401 -14.989  1.00  0.00    -0.508 OA
ATOM     13  H   UNL     1     -24.891 -27.102 -14.763  1.00  0.00     0.293 HD
ENDBRANCH   3  12
TORSDOF 1
ENDMDL
MODEL 4
REMARK VINA RESULT:    -5.064      1.727      2.707
REMARK INTER + INTRA:          -5.212
REMARK INTER:                  -5.212
REMARK INTRA:                   0.000
REMARK UNBOUND:                 0.000
REMARK SMILES O=c1ccc2ccc(O)cc2o1
REMARK SMILES IDX 6 1 7 2 8 3 10 4 11 5 5 6 4 7 3 8 2 9 1 10 12 11 9 12
REMARK H PARENT 9 13
REMARK Flexibility Score: inf
ROOT
ATOM      1  C   UNL     1      -6.067 -21.888 -15.989  1.00  0.00     0.016 A 
ATOM      2  C   UNL     1      -6.874 -22.839 -15.356  1.00  0.00     0.047 A 
ATOM      3  C   UNL     1      -7.664 -23.714 -16.111  1.00  0.00     0.119 A 
ATOM      4  C   UNL     1      -7.646 -23.640 -17.512  1.00  0.00     0.094 A 
ATOM      5  C   UNL     1      -6.841 -22.693 -18.156  1.00  0.00     0.142 A 
ATOM      6  C   UNL     1      -6.047 -21.811 -17.390  1.00  0.00     0.018 A 
ATOM      7  C   UNL     1      -5.253 -20.875 -18.061  1.00  0.00     0.019 A 
ATOM      8  C   UNL     1      -5.268 -20.840 -19.455  1.00  0.00     0.094 A 
ATOM      9  C   UNL     1      -6.081 -21.744 -20.147  1.00  0.00     0.336 A 
ATOM     10  O   UNL     1      -6.108 -21.728 -21.406  1.00  0.00    -0.246 OA
ATOM     11  O   UNL     1      -6.827 -22.625 -19.484  1.00  0.00    -0.423 OA
ENDROOT
BRANCH   3  12
ATOM     12  O   UNL     1      -8.461 -24.654 -15.461  1.00  0.00    -0.508 OA
ATOM     13  H   UNL     1      -8.156 -25.107 -14.608  1.00  0.00     0.293 HD
ENDBRANCH   3  12
TORSDOF 1
ENDMDL
MODEL 5
REMARK VINA RESULT:    -5.049      1.854      2.548
REMARK INTER + INTRA:          -5.197
REMARK INTER:                  -5.197
REMARK INTRA:                   0.000
REMARK UNBOUND:                 0.000
REMARK SMILES O=c1ccc2ccc(O)cc2o1
REMARK SMILES IDX 6 1 7 2 8 3 10 4 11 5 5 6 4 7 3 8 2 9 1 10 12 11 9 12
REMARK H PARENT 9 13
REMARK Flexibility Score: inf
ROOT
ATOM      1  C   UNL     1      -6.131 -22.059 -18.544  1.00  0.00     0.016 A 
ATOM      2  C   UNL     1      -6.330 -21.868 -17.173  1.00  0.00     0.047 A 
ATOM      3  C   UNL     1      -7.347 -22.559 -16.502  1.00  0.00     0.119 A 
ATOM      4  C   UNL     1      -8.171 -23.449 -17.207  1.00  0.00     0.094 A 
ATOM      5  C   UNL     1      -7.978 -23.648 -18.579  1.00  0.00     0.142 A 
ATOM      6  C   UNL     1      -6.953 -22.948 -19.252  1.00  0.00     0.018 A 
ATOM      7  C   UNL     1      -6.785 -23.168 -20.623  1.00  0.00     0.019 A 
ATOM      8  C   UNL     1      -7.628 -24.063 -21.281  1.00  0.00     0.094 A 
ATOM      9  C   UNL     1      -8.623 -24.719 -20.549  1.00  0.00     0.336 A 
ATOM     10  O   UNL     1      -9.394 -25.531 -21.125  1.00  0.00    -0.246 OA
ATOM     11  O   UNL     1      -8.762 -24.493 -19.245  1.00  0.00    -0.423 OA
ENDROOT
BRANCH   3  12
ATOM     12  O   UNL     1      -7.530 -22.354 -15.136  1.00  0.00    -0.508 OA
ATOM     13  H   UNL     1      -7.359 -23.091 -14.463  1.00  0.00     0.293 HD
ENDBRANCH   3  12
TORSDOF 1
ENDMDL
MODEL 6
REMARK VINA RESULT:    -5.046      1.059      4.292
REMARK INTER + INTRA:          -5.193
REMARK INTER:                  -5.193
REMARK INTRA:                   0.000
REMARK UNBOUND:                 0.000
REMARK SMILES O=c1ccc2ccc(O)cc2o1
REMARK SMILES IDX 6 1 7 2 8 3 10 4 11 5 5 6 4 7 3 8 2 9 1 10 12 11 9 12
REMARK H PARENT 9 13
REMARK Flexibility Score: inf
ROOT
ATOM      1  C   UNL     1      -8.849 -24.060 -19.278  1.00  0.00     0.016 A 
ATOM      2  C   UNL     1      -8.693 -24.106 -20.667  1.00  0.00     0.047 A 
ATOM      3  C   UNL     1      -7.613 -23.459 -21.280  1.00  0.00     0.119 A 
ATOM      4  C   UNL     1      -6.680 -22.761 -20.498  1.00  0.00     0.094 A 
ATOM      5  C   UNL     1      -6.827 -22.710 -19.108  1.00  0.00     0.142 A 
ATOM      6  C   UNL     1      -7.919 -23.362 -18.493  1.00  0.00     0.018 A 
ATOM      7  C   UNL     1      -8.039 -23.294 -17.102  1.00  0.00     0.019 A 
ATOM      8  C   UNL     1      -7.087 -22.589 -16.367  1.00  0.00     0.094 A 
ATOM      9  C   UNL     1      -6.033 -21.966 -17.043  1.00  0.00     0.336 A 
ATOM     10  O   UNL     1      -5.163 -21.325 -16.397  1.00  0.00    -0.246 OA
ATOM     11  O   UNL     1      -5.941 -22.047 -18.369  1.00  0.00    -0.423 OA
ENDROOT
BRANCH   3  12
ATOM     12  O   UNL     1      -7.475 -23.516 -22.665  1.00  0.00    -0.508 OA
ATOM     13  H   UNL     1      -7.213 -22.700 -23.205  1.00  0.00     0.293 HD
ENDBRANCH   3  12
TORSDOF 1
ENDMDL
MODEL 7
REMARK VINA RESULT:    -4.963      2.270      4.932
REMARK INTER + INTRA:          -5.108
REMARK INTER:                  -5.108
REMARK INTRA:                   0.000
REMARK UNBOUND:                 0.000
REMARK SMILES O=c1ccc2ccc(O)cc2o1
REMARK SMILES IDX 6 1 7 2 8 3 10 4 11 5 5 6 4 7 3 8 2 9 1 10 12 11 9 12
REMARK H PARENT 9 13
REMARK Flexibility Score: inf
ROOT
ATOM      1  C   UNL     1      -6.166 -24.326 -21.131  1.00  0.00     0.016 A 
ATOM      2  C   UNL     1      -7.104 -25.164 -21.742  1.00  0.00     0.047 A 
ATOM      3  C   UNL     1      -8.339 -25.412 -21.129  1.00  0.00     0.119 A 
ATOM      4  C   UNL     1      -8.638 -24.816 -19.895  1.00  0.00     0.094 A 
ATOM      5  C   UNL     1      -7.707 -23.975 -19.276  1.00  0.00     0.142 A 
ATOM      6  C   UNL     1      -6.462 -23.729 -19.897  1.00  0.00     0.018 A 
ATOM      7  C   UNL     1      -5.552 -22.884 -19.254  1.00  0.00     0.019 A 
ATOM      8  C   UNL     1      -5.895 -22.314 -18.029  1.00  0.00     0.094 A 
ATOM      9  C   UNL     1      -7.145 -22.604 -17.473  1.00  0.00     0.336 A 
ATOM     10  O   UNL     1      -7.474 -22.099 -16.367  1.00  0.00    -0.246 OA
ATOM     11  O   UNL     1      -7.994 -23.411 -18.105  1.00  0.00    -0.423 OA
ENDROOT
BRANCH   3  12
ATOM     12  O   UNL     1      -9.260 -26.250 -21.754  1.00  0.00    -0.508 OA
ATOM     13  H   UNL     1     -10.198 -25.936 -21.973  1.00  0.00     0.293 HD
ENDBRANCH   3  12
TORSDOF 1
ENDMDL
MODEL 8
REMARK VINA RESULT:    -4.796      2.938      4.274
REMARK INTER + INTRA:          -4.936
REMARK INTER:                  -4.936
REMARK INTRA:                   0.000
REMARK UNBOUND:                 0.000
REMARK SMILES O=c1ccc2ccc(O)cc2o1
REMARK SMILES IDX 6 1 7 2 8 3 10 4 11 5 5 6 4 7 3 8 2 9 1 10 12 11 9 12
REMARK H PARENT 9 13
REMARK Flexibility Score: inf
ROOT
ATOM      1  C   UNL     1      -6.068 -24.116 -20.843  1.00  0.00     0.016 A 
ATOM      2  C   UNL     1      -6.735 -24.349 -19.636  1.00  0.00     0.047 A 
ATOM      3  C   UNL     1      -8.009 -23.812 -19.415  1.00  0.00     0.119 A 
ATOM      4  C   UNL     1      -8.622 -23.035 -20.410  1.00  0.00     0.094 A 
ATOM      5  C   UNL     1      -7.963 -22.796 -21.621  1.00  0.00     0.142 A 
ATOM      6  C   UNL     1      -6.678 -23.339 -21.839  1.00  0.00     0.018 A 
ATOM      7  C   UNL     1      -6.045 -23.083 -23.060  1.00  0.00     0.019 A 
ATOM      8  C   UNL     1      -6.694 -22.306 -24.017  1.00  0.00     0.094 A 
ATOM      9  C   UNL     1      -7.967 -21.800 -23.731  1.00  0.00     0.336 A 
ATOM     10  O   UNL     1      -8.569 -21.096 -24.583  1.00  0.00    -0.246 OA
ATOM     11  O   UNL     1      -8.548 -22.058 -22.562  1.00  0.00    -0.423 OA
ENDROOT
BRANCH   3  12
ATOM     12  O   UNL     1      -8.657 -24.056 -18.206  1.00  0.00    -0.508 OA
ATOM     13  H   UNL     1      -9.098 -23.309 -17.682  1.00  0.00     0.293 HD
ENDBRANCH   3  12
TORSDOF 1
ENDMDL
MODEL 9
REMARK VINA RESULT:    -4.795      1.812      4.792
REMARK INTER + INTRA:          -4.936
REMARK INTER:                  -4.936
REMARK INTRA:                   0.000
REMARK UNBOUND:                 0.000
REMARK SMILES O=c1ccc2ccc(O)cc2o1
REMARK SMILES IDX 6 1 7 2 8 3 10 4 11 5 5 6 4 7 3 8 2 9 1 10 12 11 9 12
REMARK H PARENT 9 13
REMARK Flexibility Score: inf
ROOT
ATOM      1  C   UNL     1      -6.525 -22.998 -20.677  1.00  0.00     0.016 A 
ATOM      2  C   UNL     1      -7.324 -23.875 -21.417  1.00  0.00     0.047 A 
ATOM      3  C   UNL     1      -8.348 -24.598 -20.794  1.00  0.00     0.119 A 
ATOM      4  C   UNL     1      -8.576 -24.443 -19.418  1.00  0.00     0.094 A 
ATOM      5  C   UNL     1      -7.783 -23.566 -18.669  1.00  0.00     0.142 A 
ATOM      6  C   UNL     1      -6.751 -22.840 -19.302  1.00  0.00     0.018 A 
ATOM      7  C   UNL     1      -5.975 -21.972 -18.526  1.00  0.00     0.019 A 
ATOM      8  C   UNL     1      -6.240 -21.850 -17.163  1.00  0.00     0.094 A 
ATOM      9  C   UNL     1      -7.279 -22.603 -16.604  1.00  0.00     0.336 A 
ATOM     10  O   UNL     1      -7.534 -22.506 -15.375  1.00  0.00    -0.246 OA
ATOM     11  O   UNL     1      -8.002 -23.422 -17.364  1.00  0.00    -0.423 OA
ENDROOT
BRANCH   3  12
ATOM     12  O   UNL     1      -9.132 -25.468 -21.549  1.00  0.00    -0.508 OA
ATOM     13  H   UNL     1      -8.954 -25.621 -22.534  1.00  0.00     0.293 HD
ENDBRANCH   3  12
TORSDOF 1
ENDMDL
