MODEL 1
REMARK VINA RESULT:    -3.309      0.000      0.000
REMARK INTER + INTRA:          -5.027
REMARK INTER:                  -4.760
REMARK INTRA:                  -0.267
REMARK UNBOUND:                -0.267
REMARK SMILES CCCCCCCCCO
REMARK SMILES IDX 6 1 5 2 4 3 3 4 2 5 1 6 7 7 8 8 9 9 10 10
REMARK H PARENT 10 11
REMARK Flexibility Score: inf
ROOT
ATOM      1  C   UNL     1     117.409 118.564 112.962  1.00  0.00     0.000 C 
ENDROOT
BRANCH   1   2
ATOM      2  C   UNL     1     118.850 118.615 112.442  1.00  0.00     0.000 C 
BRANCH   2   3
ATOM      3  C   UNL     1     119.482 117.214 112.433  1.00  0.00    -0.000 C 
BRANCH   3   4
ATOM      4  C   UNL     1     118.503 116.119 112.883  1.00  0.00    -0.000 C 
BRANCH   4   5
ATOM      5  C   UNL     1     118.677 114.811 112.096  1.00  0.00    -0.003 C 
ATOM      6  C   UNL     1     118.630 113.602 113.025  1.00  0.00     0.004 C 
ENDBRANCH   4   5
ENDBRANCH   3   4
ENDBRANCH   2   3
ENDBRANCH   1   2
BRANCH   1   7
ATOM      7  C   UNL     1     116.418 119.019 111.882  1.00  0.00     0.002 C 
BRANCH   7   8
ATOM      8  C   UNL     1     115.318 119.947 112.427  1.00  0.00     0.028 C 
BRANCH   8   9
ATOM      9  C   UNL     1     114.830 119.559 113.828  1.00  0.00     0.156 C 
BRANCH   9  10
ATOM     10  O   UNL     1     114.229 120.657 114.456  1.00  0.00    -0.396 OA
ATOM     11  H   UNL     1     113.437 120.300 114.935  1.00  0.00     0.210 HD
ENDBRANCH   9  10
ENDBRANCH   8   9
ENDBRANCH   7   8
ENDBRANCH   1   7
TORSDOF 8
ENDMDL
MODEL 2
REMARK VINA RESULT:    -3.298      3.585      4.634
REMARK INTER + INTRA:          -5.011
REMARK INTER:                  -4.561
REMARK INTRA:                  -0.450
REMARK UNBOUND:                -0.267
REMARK SMILES CCCCCCCCCO
REMARK SMILES IDX 6 1 5 2 4 3 3 4 2 5 1 6 7 7 8 8 9 9 10 10
REMARK H PARENT 10 11
REMARK Flexibility Score: inf
ROOT
ATOM      1  C   UNL     1     120.335 118.552 113.820  1.00  0.00     0.000 C 
ENDROOT
BRANCH   1   2
ATOM      2  C   UNL     1     119.232 118.311 112.782  1.00  0.00     0.000 C 
BRANCH   2   3
ATOM      3  C   UNL     1     118.480 117.003 113.072  1.00  0.00    -0.000 C 
BRANCH   3   4
ATOM      4  C   UNL     1     118.756 115.915 112.022  1.00  0.00    -0.000 C 
BRANCH   4   5
ATOM      5  C   UNL     1     118.708 114.498 112.613  1.00  0.00    -0.003 C 
ATOM      6  C   UNL     1     118.380 114.535 114.102  1.00  0.00     0.004 C 
ENDBRANCH   4   5
ENDBRANCH   3   4
ENDBRANCH   2   3
ENDBRANCH   1   2
BRANCH   1   7
ATOM      7  C   UNL     1     119.950 117.959 115.182  1.00  0.00     0.002 C 
BRANCH   7   8
ATOM      8  C   UNL     1     120.744 118.570 116.350  1.00  0.00     0.028 C 
BRANCH   8   9
ATOM      9  C   UNL     1     122.188 118.932 115.984  1.00  0.00     0.156 C 
BRANCH   9  10
ATOM     10  O   UNL     1     122.407 120.303 116.167  1.00  0.00    -0.396 OA
ATOM     11  H   UNL     1     123.287 120.383 116.619  1.00  0.00     0.210 HD
ENDBRANCH   9  10
ENDBRANCH   8   9
ENDBRANCH   7   8
ENDBRANCH   1   7
TORSDOF 8
ENDMDL
MODEL 3
REMARK VINA RESULT:    -3.251      3.674      6.093
REMARK INTER + INTRA:          -4.943
REMARK INTER:                  -4.620
REMARK INTRA:                  -0.323
REMARK UNBOUND:                -0.267
REMARK SMILES CCCCCCCCCO
REMARK SMILES IDX 6 1 5 2 4 3 3 4 2 5 1 6 7 7 8 8 9 9 10 10
REMARK H PARENT 10 11
REMARK Flexibility Score: inf
ROOT
ATOM      1  C   UNL     1     114.542 114.627 112.755  1.00  0.00     0.000 C 
ENDROOT
BRANCH   1   2
ATOM      2  C   UNL     1     114.505 116.042 113.344  1.00  0.00     0.000 C 
BRANCH   2   3
ATOM      3  C   UNL     1     114.352 117.096 112.237  1.00  0.00    -0.000 C 
BRANCH   3   4
ATOM      4  C   UNL     1     115.587 118.001 112.105  1.00  0.00    -0.000 C 
BRANCH   4   5
ATOM      5  C   UNL     1     115.235 119.495 112.169  1.00  0.00    -0.003 C 
ATOM      6  C   UNL     1     114.689 119.872 113.542  1.00  0.00     0.004 C 
ENDBRANCH   4   5
ENDBRANCH   3   4
ENDBRANCH   2   3
ENDBRANCH   1   2
BRANCH   1   7
ATOM      7  C   UNL     1     115.888 114.351 112.070  1.00  0.00     0.002 C 
BRANCH   7   8
ATOM      8  C   UNL     1     117.056 114.237 113.065  1.00  0.00     0.028 C 
BRANCH   8   9
ATOM      9  C   UNL     1     118.154 113.268 112.611  1.00  0.00     0.156 C 
BRANCH   9  10
ATOM     10  O   UNL     1     118.973 112.919 113.692  1.00  0.00    -0.396 OA
ATOM     11  H   UNL     1     119.682 112.332 113.322  1.00  0.00     0.210 HD
ENDBRANCH   9  10
ENDBRANCH   8   9
ENDBRANCH   7   8
ENDBRANCH   1   7
TORSDOF 8
ENDMDL
MODEL 4
REMARK VINA RESULT:    -3.250      2.611      4.997
REMARK INTER + INTRA:          -4.943
REMARK INTER:                  -4.288
REMARK INTRA:                  -0.655
REMARK UNBOUND:                -0.267
REMARK SMILES CCCCCCCCCO
REMARK SMILES IDX 6 1 5 2 4 3 3 4 2 5 1 6 7 7 8 8 9 9 10 10
REMARK H PARENT 10 11
REMARK Flexibility Score: inf
ROOT
ATOM      1  C   UNL     1     116.891 116.833 111.902  1.00  0.00     0.000 C 
ENDROOT
BRANCH   1   2
ATOM      2  C   UNL     1     115.505 116.294 112.277  1.00  0.00     0.000 C 
BRANCH   2   3
ATOM      3  C   UNL     1     114.650 117.385 112.939  1.00  0.00    -0.000 C 
BRANCH   3   4
ATOM      4  C   UNL     1     114.758 118.740 112.223  1.00  0.00    -0.000 C 
BRANCH   4   5
ATOM      5  C   UNL     1     114.755 119.926 113.199  1.00  0.00    -0.003 C 
ATOM      6  C   UNL     1     114.994 119.458 114.632  1.00  0.00     0.004 C 
ENDBRANCH   4   5
ENDBRANCH   3   4
ENDBRANCH   2   3
ENDBRANCH   1   2
BRANCH   1   7
ATOM      7  C   UNL     1     117.868 116.704 113.079  1.00  0.00     0.002 C 
BRANCH   7   8
ATOM      8  C   UNL     1     118.324 118.066 113.633  1.00  0.00     0.028 C 
BRANCH   8   9
ATOM      9  C   UNL     1     119.685 118.520 113.092  1.00  0.00     0.156 C 
BRANCH   9  10
ATOM     10  O   UNL     1     120.520 118.917 114.144  1.00  0.00    -0.396 OA
ATOM     11  H   UNL     1     120.354 118.276 114.883  1.00  0.00     0.210 HD
ENDBRANCH   9  10
ENDBRANCH   8   9
ENDBRANCH   7   8
ENDBRANCH   1   7
TORSDOF 8
ENDMDL
MODEL 5
REMARK VINA RESULT:    -3.232      1.807      2.234
REMARK INTER + INTRA:          -4.916
REMARK INTER:                  -4.485
REMARK INTRA:                  -0.431
REMARK UNBOUND:                -0.267
REMARK SMILES CCCCCCCCCO
REMARK SMILES IDX 6 1 5 2 4 3 3 4 2 5 1 6 7 7 8 8 9 9 10 10
REMARK H PARENT 10 11
REMARK Flexibility Score: inf
ROOT
ATOM      1  C   UNL     1     116.152 117.792 112.156  1.00  0.00     0.000 C 
ENDROOT
BRANCH   1   2
ATOM      2  C   UNL     1     117.293 118.777 111.875  1.00  0.00     0.000 C 
BRANCH   2   3
ATOM      3  C   UNL     1     118.657 118.073 111.943  1.00  0.00    -0.000 C 
BRANCH   3   4
ATOM      4  C   UNL     1     119.557 118.629 113.057  1.00  0.00    -0.000 C 
BRANCH   4   5
ATOM      5  C   UNL     1     119.049 118.271 114.462  1.00  0.00    -0.003 C 
ATOM      6  C   UNL     1     118.905 116.761 114.625  1.00  0.00     0.004 C 
ENDBRANCH   4   5
ENDBRANCH   3   4
ENDBRANCH   2   3
ENDBRANCH   1   2
BRANCH   1   7
ATOM      7  C   UNL     1     114.810 118.526 112.286  1.00  0.00     0.002 C 
BRANCH   7   8
ATOM      8  C   UNL     1     114.918 119.838 113.084  1.00  0.00     0.028 C 
BRANCH   8   9
ATOM      9  C   UNL     1     114.944 119.630 114.602  1.00  0.00     0.156 C 
BRANCH   9  10
ATOM     10  O   UNL     1     114.394 120.740 115.256  1.00  0.00    -0.396 OA
ATOM     11  H   UNL     1     115.144 121.177 115.736  1.00  0.00     0.210 HD
ENDBRANCH   9  10
ENDBRANCH   8   9
ENDBRANCH   7   8
ENDBRANCH   1   7
TORSDOF 8
ENDMDL
MODEL 6
REMARK VINA RESULT:    -3.229      3.172      4.357
REMARK INTER + INTRA:          -4.912
REMARK INTER:                  -4.609
REMARK INTRA:                  -0.303
REMARK UNBOUND:                -0.267
REMARK SMILES CCCCCCCCCO
REMARK SMILES IDX 6 1 5 2 4 3 3 4 2 5 1 6 7 7 8 8 9 9 10 10
REMARK H PARENT 10 11
REMARK Flexibility Score: inf
ROOT
ATOM      1  C   UNL     1     118.520 115.709 113.149  1.00  0.00     0.000 C 
ENDROOT
BRANCH   1   2
ATOM      2  C   UNL     1     118.329 114.234 112.775  1.00  0.00     0.000 C 
BRANCH   2   3
ATOM      3  C   UNL     1     116.954 114.001 112.132  1.00  0.00    -0.000 C 
BRANCH   3   4
ATOM      4  C   UNL     1     115.794 114.456 113.032  1.00  0.00    -0.000 C 
BRANCH   4   5
ATOM      5  C   UNL     1     114.489 114.671 112.250  1.00  0.00    -0.003 C 
ATOM      6  C   UNL     1     113.281 114.649 113.182  1.00  0.00     0.004 C 
ENDBRANCH   4   5
ENDBRANCH   3   4
ENDBRANCH   2   3
ENDBRANCH   1   2
BRANCH   1   7
ATOM      7  C   UNL     1     118.945 116.535 111.927  1.00  0.00     0.002 C 
BRANCH   7   8
ATOM      8  C   UNL     1     118.773 118.050 112.137  1.00  0.00     0.028 C 
BRANCH   8   9
ATOM      9  C   UNL     1     118.961 118.490 113.594  1.00  0.00     0.156 C 
BRANCH   9  10
ATOM     10  O   UNL     1     120.283 118.898 113.812  1.00  0.00    -0.396 OA
ATOM     11  H   UNL     1     120.684 119.025 112.914  1.00  0.00     0.210 HD
ENDBRANCH   9  10
ENDBRANCH   8   9
ENDBRANCH   7   8
ENDBRANCH   1   7
TORSDOF 8
ENDMDL
MODEL 7
REMARK VINA RESULT:    -3.220      2.371      3.255
REMARK INTER + INTRA:          -4.899
REMARK INTER:                  -4.344
REMARK INTRA:                  -0.555
REMARK UNBOUND:                -0.267
REMARK SMILES CCCCCCCCCO
REMARK SMILES IDX 6 1 5 2 4 3 3 4 2 5 1 6 7 7 8 8 9 9 10 10
REMARK H PARENT 10 11
REMARK Flexibility Score: inf
ROOT
ATOM      1  C   UNL     1     116.577 119.027 115.517  1.00  0.00     0.000 C 
ENDROOT
BRANCH   1   2
ATOM      2  C   UNL     1     117.420 117.827 115.966  1.00  0.00     0.000 C 
BRANCH   2   3
ATOM      3  C   UNL     1     118.323 117.331 114.826  1.00  0.00    -0.000 C 
BRANCH   3   4
ATOM      4  C   UNL     1     119.622 118.142 114.702  1.00  0.00    -0.000 C 
BRANCH   4   5
ATOM      5  C   UNL     1     119.904 118.589 113.260  1.00  0.00    -0.003 C 
ATOM      6  C   UNL     1     118.629 118.579 112.423  1.00  0.00     0.004 C 
ENDBRANCH   4   5
ENDBRANCH   3   4
ENDBRANCH   2   3
ENDBRANCH   1   2
BRANCH   1   7
ATOM      7  C   UNL     1     115.440 118.584 114.587  1.00  0.00     0.002 C 
BRANCH   7   8
ATOM      8  C   UNL     1     114.934 119.715 113.675  1.00  0.00     0.028 C 
BRANCH   8   9
ATOM      9  C   UNL     1     114.971 119.361 112.183  1.00  0.00     0.156 C 
BRANCH   9  10
ATOM     10  O   UNL     1     114.260 118.177 111.946  1.00  0.00    -0.396 OA
ATOM     11  H   UNL     1     114.887 117.570 111.475  1.00  0.00     0.210 HD
ENDBRANCH   9  10
ENDBRANCH   8   9
ENDBRANCH   7   8
ENDBRANCH   1   7
TORSDOF 8
ENDMDL
MODEL 8
REMARK VINA RESULT:    -3.178      4.271      5.639
REMARK INTER + INTRA:          -4.839
REMARK INTER:                  -4.150
REMARK INTRA:                  -0.690
REMARK UNBOUND:                -0.267
REMARK SMILES CCCCCCCCCO
REMARK SMILES IDX 6 1 5 2 4 3 3 4 2 5 1 6 7 7 8 8 9 9 10 10
REMARK H PARENT 10 11
REMARK Flexibility Score: inf
ROOT
ATOM      1  C   UNL     1     116.620 116.004 112.158  1.00  0.00     0.000 C 
ENDROOT
BRANCH   1   2
ATOM      2  C   UNL     1     115.616 117.162 112.097  1.00  0.00     0.000 C 
BRANCH   2   3
ATOM      3  C   UNL     1     114.206 116.689 112.481  1.00  0.00    -0.000 C 
BRANCH   3   4
ATOM      4  C   UNL     1     113.922 115.245 112.038  1.00  0.00    -0.000 C 
BRANCH   4   5
ATOM      5  C   UNL     1     113.380 114.372 113.179  1.00  0.00    -0.003 C 
ATOM      6  C   UNL     1     113.521 115.077 114.524  1.00  0.00     0.004 C 
ENDBRANCH   4   5
ENDBRANCH   3   4
ENDBRANCH   2   3
ENDBRANCH   1   2
BRANCH   1   7
ATOM      7  C   UNL     1     117.173 115.830 113.580  1.00  0.00     0.002 C 
BRANCH   7   8
ATOM      8  C   UNL     1     117.282 114.355 114.005  1.00  0.00     0.028 C 
BRANCH   8   9
ATOM      9  C   UNL     1     118.387 113.587 113.270  1.00  0.00     0.156 C 
BRANCH   9  10
ATOM     10  O   UNL     1     118.951 112.620 114.111  1.00  0.00    -0.396 OA
ATOM     11  H   UNL     1     118.603 111.746 113.796  1.00  0.00     0.210 HD
ENDBRANCH   9  10
ENDBRANCH   8   9
ENDBRANCH   7   8
ENDBRANCH   1   7
TORSDOF 8
ENDMDL
MODEL 9
REMARK VINA RESULT:    -3.138      3.001      3.572
REMARK INTER + INTRA:          -4.781
REMARK INTER:                  -4.243
REMARK INTRA:                  -0.538
REMARK UNBOUND:                -0.267
REMARK SMILES CCCCCCCCCO
REMARK SMILES IDX 6 1 5 2 4 3 3 4 2 5 1 6 7 7 8 8 9 9 10 10
REMARK H PARENT 10 11
REMARK Flexibility Score: inf
ROOT
ATOM      1  C   UNL     1     114.739 118.555 112.426  1.00  0.00     0.000 C 
ENDROOT
BRANCH   1   2
ATOM      2  C   UNL     1     116.086 119.146 111.992  1.00  0.00     0.000 C 
BRANCH   2   3
ATOM      3  C   UNL     1     117.246 118.506 112.769  1.00  0.00    -0.000 C 
BRANCH   3   4
ATOM      4  C   UNL     1     118.454 118.185 111.875  1.00  0.00    -0.000 C 
BRANCH   4   5
ATOM      5  C   UNL     1     118.996 116.766 112.102  1.00  0.00    -0.003 C 
ATOM      6  C   UNL     1     118.222 116.052 113.206  1.00  0.00     0.004 C 
ENDBRANCH   4   5
ENDBRANCH   3   4
ENDBRANCH   2   3
ENDBRANCH   1   2
BRANCH   1   7
ATOM      7  C   UNL     1     114.598 117.102 111.954  1.00  0.00     0.002 C 
BRANCH   7   8
ATOM      8  C   UNL     1     114.424 116.107 113.115  1.00  0.00     0.028 C 
BRANCH   8   9
ATOM      9  C   UNL     1     113.704 114.815 112.711  1.00  0.00     0.156 C 
BRANCH   9  10
ATOM     10  O   UNL     1     112.876 114.373 113.750  1.00  0.00    -0.396 OA
ATOM     11  H   UNL     1     112.090 113.952 113.315  1.00  0.00     0.210 HD
ENDBRANCH   9  10
ENDBRANCH   8   9
ENDBRANCH   7   8
ENDBRANCH   1   7
TORSDOF 8
ENDMDL
