MODEL 1
REMARK VINA RESULT:    -3.855      0.000      0.000
REMARK INTER + INTRA:          -4.242
REMARK INTER:                  -4.193
REMARK INTRA:                  -0.049
REMARK UNBOUND:                -0.049
REMARK SMILES COc1cc2ccc(=O)oc2cc1O
REMARK SMILES IDX 3 1 13 2 12 3 11 4 5 5 4 6 6 7 7 8 8 9 9 10 10 11 2 12 1 13
REMARK SMILES IDX 14 14
REMARK H PARENT 14 15
REMARK Flexibility Score: inf
ROOT
ATOM      1  C   UNL     1      35.342 -31.918  10.138  1.00  0.00     0.161 A 
ATOM      2  C   UNL     1      36.606 -31.351   9.907  1.00  0.00     0.161 A 
ATOM      3  C   UNL     1      37.170 -31.377   8.624  1.00  0.00     0.098 A 
ATOM      4  C   UNL     1      36.480 -31.967   7.562  1.00  0.00     0.142 A 
ATOM      5  C   UNL     1      35.210 -32.540   7.785  1.00  0.00     0.022 A 
ATOM      6  C   UNL     1      34.645 -32.515   9.068  1.00  0.00     0.062 A 
ATOM      7  C   UNL     1      34.544 -33.125   6.704  1.00  0.00     0.019 A 
ATOM      8  C   UNL     1      35.147 -33.125   5.447  1.00  0.00     0.094 A 
ATOM      9  C   UNL     1      36.409 -32.538   5.300  1.00  0.00     0.336 A 
ATOM     10  O   UNL     1      36.971 -32.527   4.174  1.00  0.00    -0.246 OA
ATOM     11  O   UNL     1      37.021 -31.989   6.347  1.00  0.00    -0.423 OA
ENDROOT
BRANCH   1  12
ATOM     12  O   UNL     1      34.817 -31.869  11.439  1.00  0.00    -0.493 OA
ATOM     13  C   UNL     1      33.962 -30.838  11.924  1.00  0.00     0.278 C 
ENDBRANCH   1  12
BRANCH   2  14
ATOM     14  O   UNL     1      37.296 -30.760  10.963  1.00  0.00    -0.504 OA
ATOM     15  H   UNL     1      37.227 -31.117  11.910  1.00  0.00     0.293 HD
ENDBRANCH   2  14
TORSDOF 2
ENDMDL
MODEL 2
REMARK VINA RESULT:    -3.681      1.902      2.766
REMARK INTER + INTRA:          -4.053
REMARK INTER:                  -4.001
REMARK INTRA:                  -0.052
REMARK UNBOUND:                -0.049
REMARK SMILES COc1cc2ccc(=O)oc2cc1O
REMARK SMILES IDX 3 1 13 2 12 3 11 4 5 5 4 6 6 7 7 8 8 9 9 10 10 11 2 12 1 13
REMARK SMILES IDX 14 14
REMARK H PARENT 14 15
REMARK Flexibility Score: inf
ROOT
ATOM      1  C   UNL     1      34.332 -29.642  11.547  1.00  0.00     0.161 A 
ATOM      2  C   UNL     1      35.554 -29.018  11.252  1.00  0.00     0.161 A 
ATOM      3  C   UNL     1      36.413 -29.563  10.287  1.00  0.00     0.098 A 
ATOM      4  C   UNL     1      36.059 -30.732   9.609  1.00  0.00     0.142 A 
ATOM      5  C   UNL     1      34.833 -31.367   9.900  1.00  0.00     0.022 A 
ATOM      6  C   UNL     1      33.975 -30.823  10.866  1.00  0.00     0.062 A 
ATOM      7  C   UNL     1      34.507 -32.536   9.206  1.00  0.00     0.019 A 
ATOM      8  C   UNL     1      35.395 -33.038   8.255  1.00  0.00     0.094 A 
ATOM      9  C   UNL     1      36.593 -32.355   8.019  1.00  0.00     0.336 A 
ATOM     10  O   UNL     1      37.407 -32.791   7.165  1.00  0.00    -0.246 OA
ATOM     11  O   UNL     1      36.878 -31.244   8.693  1.00  0.00    -0.423 OA
ENDROOT
BRANCH   1  12
ATOM     12  O   UNL     1      33.505 -29.062  12.521  1.00  0.00    -0.493 OA
ATOM     13  C   UNL     1      33.506 -29.423  13.899  1.00  0.00     0.278 C 
ENDBRANCH   1  12
BRANCH   2  14
ATOM     14  O   UNL     1      35.909 -27.851  11.925  1.00  0.00    -0.504 OA
ATOM     15  H   UNL     1      35.692 -26.934  11.550  1.00  0.00     0.293 HD
ENDBRANCH   2  14
TORSDOF 2
ENDMDL
MODEL 3
REMARK VINA RESULT:    -3.628      2.191      5.295
REMARK INTER + INTRA:          -3.995
REMARK INTER:                  -3.971
REMARK INTRA:                  -0.024
REMARK UNBOUND:                -0.049
REMARK SMILES COc1cc2ccc(=O)oc2cc1O
REMARK SMILES IDX 3 1 13 2 12 3 11 4 5 5 4 6 6 7 7 8 8 9 9 10 10 11 2 12 1 13
REMARK SMILES IDX 14 14
REMARK H PARENT 14 15
REMARK Flexibility Score: inf
ROOT
ATOM      1  C   UNL     1      34.981 -32.043   9.134  1.00  0.00     0.161 A 
ATOM      2  C   UNL     1      36.362 -31.791   9.130  1.00  0.00     0.161 A 
ATOM      3  C   UNL     1      36.889 -30.721   9.867  1.00  0.00     0.098 A 
ATOM      4  C   UNL     1      36.044 -29.895  10.613  1.00  0.00     0.142 A 
ATOM      5  C   UNL     1      34.654 -30.140  10.621  1.00  0.00     0.022 A 
ATOM      6  C   UNL     1      34.127 -31.210   9.884  1.00  0.00     0.062 A 
ATOM      7  C   UNL     1      33.833 -29.296  11.375  1.00  0.00     0.019 A 
ATOM      8  C   UNL     1      34.406 -28.245  12.092  1.00  0.00     0.094 A 
ATOM      9  C   UNL     1      35.792 -28.063  12.036  1.00  0.00     0.336 A 
ATOM     10  O   UNL     1      36.328 -27.121  12.676  1.00  0.00    -0.246 OA
ATOM     11  O   UNL     1      36.550 -28.881  11.310  1.00  0.00    -0.423 OA
ENDROOT
BRANCH   1  12
ATOM     12  O   UNL     1      34.498 -33.125   8.381  1.00  0.00    -0.493 OA
ATOM     13  C   UNL     1      34.140 -33.053   7.004  1.00  0.00     0.278 C 
ENDBRANCH   1  12
BRANCH   2  14
ATOM     14  O   UNL     1      37.208 -32.614   8.389  1.00  0.00    -0.504 OA
ATOM     15  H   UNL     1      38.184 -32.380   8.244  1.00  0.00     0.293 HD
ENDBRANCH   2  14
TORSDOF 2
ENDMDL
MODEL 4
REMARK VINA RESULT:    -3.539      2.664      4.134
REMARK INTER + INTRA:          -3.898
REMARK INTER:                  -3.853
REMARK INTRA:                  -0.045
REMARK UNBOUND:                -0.049
REMARK SMILES COc1cc2ccc(=O)oc2cc1O
REMARK SMILES IDX 3 1 13 2 12 3 11 4 5 5 4 6 6 7 7 8 8 9 9 10 10 11 2 12 1 13
REMARK SMILES IDX 14 14
REMARK H PARENT 14 15
REMARK Flexibility Score: inf
ROOT
ATOM      1  C   UNL     1      35.624 -28.564  11.773  1.00  0.00     0.161 A 
ATOM      2  C   UNL     1      34.247 -28.834  11.742  1.00  0.00     0.161 A 
ATOM      3  C   UNL     1      33.740 -29.832  10.898  1.00  0.00     0.098 A 
ATOM      4  C   UNL     1      34.601 -30.567  10.080  1.00  0.00     0.142 A 
ATOM      5  C   UNL     1      35.987 -30.303  10.104  1.00  0.00     0.022 A 
ATOM      6  C   UNL     1      36.494 -29.304  10.947  1.00  0.00     0.062 A 
ATOM      7  C   UNL     1      36.823 -31.054   9.274  1.00  0.00     0.019 A 
ATOM      8  C   UNL     1      36.270 -32.036   8.452  1.00  0.00     0.094 A 
ATOM      9  C   UNL     1      34.886 -32.244   8.481  1.00  0.00     0.336 A 
ATOM     10  O   UNL     1      34.368 -33.125   7.748  1.00  0.00    -0.246 OA
ATOM     11  O   UNL     1      34.114 -31.514   9.281  1.00  0.00    -0.423 OA
ENDROOT
BRANCH   1  12
ATOM     12  O   UNL     1      36.087 -27.555  12.633  1.00  0.00    -0.493 OA
ATOM     13  C   UNL     1      37.425 -27.068  12.657  1.00  0.00     0.278 C 
ENDBRANCH   1  12
BRANCH   2  14
ATOM     14  O   UNL     1      33.385 -28.102  12.557  1.00  0.00    -0.504 OA
ATOM     15  H   UNL     1      33.715 -27.633  13.393  1.00  0.00     0.293 HD
ENDBRANCH   2  14
TORSDOF 2
ENDMDL
MODEL 5
REMARK VINA RESULT:    -3.502      2.263      5.089
REMARK INTER + INTRA:          -3.858
REMARK INTER:                  -3.793
REMARK INTRA:                  -0.065
REMARK UNBOUND:                -0.049
REMARK SMILES COc1cc2ccc(=O)oc2cc1O
REMARK SMILES IDX 3 1 13 2 12 3 11 4 5 5 4 6 6 7 7 8 8 9 9 10 10 11 2 12 1 13
REMARK SMILES IDX 14 14
REMARK H PARENT 14 15
REMARK Flexibility Score: inf
ROOT
ATOM      1  C   UNL     1      35.731 -32.317   9.073  1.00  0.00     0.161 A 
ATOM      2  C   UNL     1      35.213 -31.146   9.650  1.00  0.00     0.161 A 
ATOM      3  C   UNL     1      36.036 -30.312  10.419  1.00  0.00     0.098 A 
ATOM      4  C   UNL     1      37.380 -30.637  10.620  1.00  0.00     0.142 A 
ATOM      5  C   UNL     1      37.909 -31.812  10.044  1.00  0.00     0.022 A 
ATOM      6  C   UNL     1      37.087 -32.647   9.276  1.00  0.00     0.062 A 
ATOM      7  C   UNL     1      39.257 -32.112  10.263  1.00  0.00     0.019 A 
ATOM      8  C   UNL     1      40.034 -31.249  11.036  1.00  0.00     0.094 A 
ATOM      9  C   UNL     1      39.441 -30.101  11.574  1.00  0.00     0.336 A 
ATOM     10  O   UNL     1      40.125 -29.310  12.274  1.00  0.00    -0.246 OA
ATOM     11  O   UNL     1      38.156 -29.841  11.351  1.00  0.00    -0.423 OA
ENDROOT
BRANCH   1  12
ATOM     12  O   UNL     1      34.871 -33.122   8.311  1.00  0.00    -0.493 OA
ATOM     13  C   UNL     1      34.819 -33.125   6.888  1.00  0.00     0.278 C 
ENDBRANCH   1  12
BRANCH   2  14
ATOM     14  O   UNL     1      33.873 -30.818   9.452  1.00  0.00    -0.504 OA
ATOM     15  H   UNL     1      33.195 -31.511   9.157  1.00  0.00     0.293 HD
ENDBRANCH   2  14
TORSDOF 2
ENDMDL
MODEL 6
REMARK VINA RESULT:    -3.211     21.813     22.718
REMARK INTER + INTRA:          -3.542
REMARK INTER:                  -3.492
REMARK INTRA:                  -0.050
REMARK UNBOUND:                -0.049
REMARK SMILES COc1cc2ccc(=O)oc2cc1O
REMARK SMILES IDX 3 1 13 2 12 3 11 4 5 5 4 6 6 7 7 8 8 9 9 10 10 11 2 12 1 13
REMARK SMILES IDX 14 14
REMARK H PARENT 14 15
REMARK Flexibility Score: inf
ROOT
ATOM      1  C   UNL     1      22.900 -14.980   7.329  1.00  0.00     0.161 A 
ATOM      2  C   UNL     1      23.168 -13.617   7.122  1.00  0.00     0.161 A 
ATOM      3  C   UNL     1      22.586 -12.936   6.044  1.00  0.00     0.098 A 
ATOM      4  C   UNL     1      21.733 -13.607   5.165  1.00  0.00     0.142 A 
ATOM      5  C   UNL     1      21.458 -14.977   5.363  1.00  0.00     0.022 A 
ATOM      6  C   UNL     1      22.041 -15.659   6.441  1.00  0.00     0.062 A 
ATOM      7  C   UNL     1      20.602 -15.622   4.466  1.00  0.00     0.019 A 
ATOM      8  C   UNL     1      20.048 -14.900   3.409  1.00  0.00     0.094 A 
ATOM      9  C   UNL     1      20.365 -13.544   3.275  1.00  0.00     0.336 A 
ATOM     10  O   UNL     1      19.875 -12.875   2.328  1.00  0.00    -0.246 OA
ATOM     11  O   UNL     1      21.183 -12.955   4.143  1.00  0.00    -0.423 OA
ENDROOT
BRANCH   1  12
ATOM     12  O   UNL     1      23.506 -15.621   8.421  1.00  0.00    -0.493 OA
ATOM     13  C   UNL     1      24.005 -16.955   8.397  1.00  0.00     0.278 C 
ENDBRANCH   1  12
BRANCH   2  14
ATOM     14  O   UNL     1      24.018 -12.945   7.999  1.00  0.00    -0.504 OA
ATOM     15  H   UNL     1      24.193 -13.287   8.937  1.00  0.00     0.293 HD
ENDBRANCH   2  14
TORSDOF 2
ENDMDL
MODEL 7
REMARK VINA RESULT:    -3.018     21.539     22.860
REMARK INTER + INTRA:          -3.331
REMARK INTER:                  -3.267
REMARK INTRA:                  -0.064
REMARK UNBOUND:                -0.049
REMARK SMILES COc1cc2ccc(=O)oc2cc1O
REMARK SMILES IDX 3 1 13 2 12 3 11 4 5 5 4 6 6 7 7 8 8 9 9 10 10 11 2 12 1 13
REMARK SMILES IDX 14 14
REMARK H PARENT 14 15
REMARK Flexibility Score: inf
ROOT
ATOM      1  C   UNL     1      20.724 -14.149   4.184  1.00  0.00     0.161 A 
ATOM      2  C   UNL     1      20.646 -15.549   4.270  1.00  0.00     0.161 A 
ATOM      3  C   UNL     1      21.337 -16.236   5.278  1.00  0.00     0.098 A 
ATOM      4  C   UNL     1      22.110 -15.534   6.207  1.00  0.00     0.142 A 
ATOM      5  C   UNL     1      22.195 -14.128   6.128  1.00  0.00     0.022 A 
ATOM      6  C   UNL     1      21.505 -13.440   5.119  1.00  0.00     0.062 A 
ATOM      7  C   UNL     1      22.977 -13.454   7.070  1.00  0.00     0.019 A 
ATOM      8  C   UNL     1      23.645 -14.183   8.053  1.00  0.00     0.094 A 
ATOM      9  C   UNL     1      23.514 -15.576   8.071  1.00  0.00     0.336 A 
ATOM     10  O   UNL     1      24.108 -16.252   8.950  1.00  0.00    -0.246 OA
ATOM     11  O   UNL     1      22.764 -16.192   7.161  1.00  0.00    -0.423 OA
ENDROOT
BRANCH   1  12
ATOM     12  O   UNL     1      20.016 -13.504   3.158  1.00  0.00    -0.493 OA
ATOM     13  C   UNL     1      20.622 -12.875   2.033  1.00  0.00     0.278 C 
ENDBRANCH   1  12
BRANCH   2  14
ATOM     14  O   UNL     1      19.875 -16.251   3.346  1.00  0.00    -0.504 OA
ATOM     15  H   UNL     1      20.175 -16.371   2.386  1.00  0.00     0.293 HD
ENDBRANCH   2  14
TORSDOF 2
ENDMDL
MODEL 8
REMARK VINA RESULT:    -3.015     22.230     23.311
REMARK INTER + INTRA:          -3.328
REMARK INTER:                  -3.277
REMARK INTRA:                  -0.051
REMARK UNBOUND:                -0.049
REMARK SMILES COc1cc2ccc(=O)oc2cc1O
REMARK SMILES IDX 3 1 13 2 12 3 11 4 5 5 4 6 6 7 7 8 8 9 9 10 10 11 2 12 1 13
REMARK SMILES IDX 14 14
REMARK H PARENT 14 15
REMARK Flexibility Score: inf
ROOT
ATOM      1  C   UNL     1      20.237 -16.664   2.165  1.00  0.00     0.161 A 
ATOM      2  C   UNL     1      20.587 -15.378   1.725  1.00  0.00     0.161 A 
ATOM      3  C   UNL     1      20.955 -14.389   2.648  1.00  0.00     0.098 A 
ATOM      4  C   UNL     1      20.978 -14.675   4.015  1.00  0.00     0.142 A 
ATOM      5  C   UNL     1      20.628 -15.965   4.467  1.00  0.00     0.022 A 
ATOM      6  C   UNL     1      20.259 -16.954   3.544  1.00  0.00     0.062 A 
ATOM      7  C   UNL     1      20.660 -16.222   5.841  1.00  0.00     0.019 A 
ATOM      8  C   UNL     1      21.033 -15.204   6.719  1.00  0.00     0.094 A 
ATOM      9  C   UNL     1      21.367 -13.949   6.199  1.00  0.00     0.336 A 
ATOM     10  O   UNL     1      21.707 -13.018   6.974  1.00  0.00    -0.246 OA
ATOM     11  O   UNL     1      21.329 -13.732   4.887  1.00  0.00    -0.423 OA
ENDROOT
BRANCH   1  12
ATOM     12  O   UNL     1      19.875 -17.622   1.205  1.00  0.00    -0.493 OA
ATOM     13  C   UNL     1      20.260 -18.993   1.249  1.00  0.00     0.278 C 
ENDBRANCH   1  12
BRANCH   2  14
ATOM     14  O   UNL     1      20.565 -15.089   0.361  1.00  0.00    -0.504 OA
ATOM     15  H   UNL     1      21.326 -14.591  -0.088  1.00  0.00     0.293 HD
ENDBRANCH   2  14
TORSDOF 2
ENDMDL
