MODEL 1
REMARK VINA RESULT:    -3.183      0.000      0.000
REMARK INTER + INTRA:          -3.774
REMARK INTER:                  -3.741
REMARK INTRA:                  -0.033
REMARK UNBOUND:                -0.033
REMARK SMILES O=C([O-])CCC(=O)[O-]
REMARK SMILES IDX 4 1 2 2 1 3 3 4 5 5 6 6 7 7 8 8
REMARK H PARENT
REMARK Flexibility Score: inf
ROOT
ATOM      1  C   UNL     1      -1.187   2.679  -3.713  1.00  0.00     0.059 C 
ENDROOT
BRANCH   1   2
ATOM      2  C   UNL     1      -2.196   2.047  -2.807  1.00  0.00     0.042 C 
ATOM      3  O   UNL     1      -2.434   2.545  -1.676  1.00  0.00    -0.550 OA
ATOM      4  O   UNL     1      -2.839   0.877  -3.193  1.00  0.00    -0.550 OA
ENDBRANCH   1   2
BRANCH   1   5
ATOM      5  C   UNL     1       0.007   3.194  -2.908  1.00  0.00     0.059 C 
BRANCH   5   6
ATOM      6  C   UNL     1       1.288   2.888  -3.617  1.00  0.00     0.042 C 
ATOM      7  O   UNL     1       1.580   3.487  -4.685  1.00  0.00    -0.550 OA
ATOM      8  O   UNL     1       2.183   1.976  -3.072  1.00  0.00    -0.550 OA
ENDBRANCH   5   6
ENDBRANCH   1   5
TORSDOF 3
ENDMDL
MODEL 2
REMARK VINA RESULT:    -3.169      0.075      1.146
REMARK INTER + INTRA:          -3.758
REMARK INTER:                  -3.722
REMARK INTRA:                  -0.036
REMARK UNBOUND:                -0.033
REMARK SMILES O=C([O-])CCC(=O)[O-]
REMARK SMILES IDX 4 1 2 2 1 3 3 4 5 5 6 6 7 7 8 8
REMARK H PARENT
REMARK Flexibility Score: inf
ROOT
ATOM      1  C   UNL     1      -1.172   2.668  -3.745  1.00  0.00     0.059 C 
ENDROOT
BRANCH   1   2
ATOM      2  C   UNL     1      -2.184   2.041  -2.839  1.00  0.00     0.042 C 
ATOM      3  O   UNL     1      -2.414   2.536  -1.705  1.00  0.00    -0.550 OA
ATOM      4  O   UNL     1      -2.838   0.878  -3.228  1.00  0.00    -0.550 OA
ENDBRANCH   1   2
BRANCH   1   5
ATOM      5  C   UNL     1       0.010   3.205  -2.937  1.00  0.00     0.059 C 
BRANCH   5   6
ATOM      6  C   UNL     1       1.302   2.877  -3.617  1.00  0.00     0.042 C 
ATOM      7  O   UNL     1       2.088   2.033  -3.112  1.00  0.00    -0.550 OA
ATOM      8  O   UNL     1       1.616   3.468  -4.835  1.00  0.00    -0.550 OA
ENDBRANCH   5   6
ENDBRANCH   1   5
TORSDOF 3
ENDMDL
MODEL 3
REMARK VINA RESULT:    -3.147      0.084      4.130
REMARK INTER + INTRA:          -3.733
REMARK INTER:                  -3.702
REMARK INTRA:                  -0.031
REMARK UNBOUND:                -0.033
REMARK SMILES O=C([O-])CCC(=O)[O-]
REMARK SMILES IDX 4 1 2 2 1 3 3 4 5 5 6 6 7 7 8 8
REMARK H PARENT
REMARK Flexibility Score: inf
ROOT
ATOM      1  C   UNL     1      -0.038   3.150  -2.927  1.00  0.00     0.059 C 
ENDROOT
BRANCH   1   2
ATOM      2  C   UNL     1       1.247   2.900  -3.651  1.00  0.00     0.042 C 
ATOM      3  O   UNL     1       1.474   3.464  -4.753  1.00  0.00    -0.550 OA
ATOM      4  O   UNL     1       2.173   2.003  -3.134  1.00  0.00    -0.550 OA
ENDBRANCH   1   2
BRANCH   1   5
ATOM      5  C   UNL     1      -1.224   2.642  -3.748  1.00  0.00     0.059 C 
BRANCH   5   6
ATOM      6  C   UNL     1      -2.243   2.005  -2.857  1.00  0.00     0.042 C 
ATOM      7  O   UNL     1      -2.810   0.936  -3.206  1.00  0.00    -0.550 OA
ATOM      8  O   UNL     1      -2.531   2.564  -1.618  1.00  0.00    -0.550 OA
ENDBRANCH   5   6
ENDBRANCH   1   5
TORSDOF 3
ENDMDL
MODEL 4
REMARK VINA RESULT:    -3.118      1.135      1.638
REMARK INTER + INTRA:          -3.699
REMARK INTER:                  -3.657
REMARK INTRA:                  -0.041
REMARK UNBOUND:                -0.033
REMARK SMILES O=C([O-])CCC(=O)[O-]
REMARK SMILES IDX 4 1 2 2 1 3 3 4 5 5 6 6 7 7 8 8
REMARK H PARENT
REMARK Flexibility Score: inf
ROOT
ATOM      1  C   UNL     1      -0.129   3.301  -2.698  1.00  0.00     0.059 C 
ENDROOT
BRANCH   1   2
ATOM      2  C   UNL     1      -1.447   2.624  -2.904  1.00  0.00     0.042 C 
ATOM      3  O   UNL     1      -1.780   2.218  -4.049  1.00  0.00    -0.550 OA
ATOM      4  O   UNL     1      -2.331   2.485  -1.841  1.00  0.00    -0.550 OA
ENDBRANCH   1   2
BRANCH   1   5
ATOM      5  C   UNL     1       0.823   2.981  -3.851  1.00  0.00     0.059 C 
BRANCH   5   6
ATOM      6  C   UNL     1       2.217   2.791  -3.342  1.00  0.00     0.042 C 
ATOM      7  O   UNL     1       2.988   3.779  -3.223  1.00  0.00    -0.550 OA
ATOM      8  O   UNL     1       2.649   1.530  -2.952  1.00  0.00    -0.550 OA
ENDBRANCH   5   6
ENDBRANCH   1   5
TORSDOF 3
ENDMDL
MODEL 5
REMARK VINA RESULT:    -3.106      1.202      4.167
REMARK INTER + INTRA:          -3.684
REMARK INTER:                  -3.639
REMARK INTRA:                  -0.045
REMARK UNBOUND:                -0.033
REMARK SMILES O=C([O-])CCC(=O)[O-]
REMARK SMILES IDX 4 1 2 2 1 3 3 4 5 5 6 6 7 7 8 8
REMARK H PARENT
REMARK Flexibility Score: inf
ROOT
ATOM      1  C   UNL     1       0.899   2.969  -3.836  1.00  0.00     0.059 C 
ENDROOT
BRANCH   1   2
ATOM      2  C   UNL     1       2.255   2.712  -3.260  1.00  0.00     0.042 C 
ATOM      3  O   UNL     1       2.608   1.539  -2.969  1.00  0.00    -0.550 OA
ATOM      4  O   UNL     1       3.112   3.774  -2.998  1.00  0.00    -0.550 OA
ENDBRANCH   1   2
BRANCH   1   5
ATOM      5  C   UNL     1      -0.087   3.356  -2.733  1.00  0.00     0.059 C 
BRANCH   5   6
ATOM      6  C   UNL     1      -1.401   2.672  -2.941  1.00  0.00     0.042 C 
ATOM      7  O   UNL     1      -1.713   2.229  -4.077  1.00  0.00    -0.550 OA
ATOM      8  O   UNL     1      -2.262   2.480  -1.867  1.00  0.00    -0.550 OA
ENDBRANCH   5   6
ENDBRANCH   1   5
TORSDOF 3
ENDMDL
MODEL 6
REMARK VINA RESULT:    -2.875      1.813      2.286
REMARK INTER + INTRA:          -3.412
REMARK INTER:                  -3.290
REMARK INTRA:                  -0.123
REMARK UNBOUND:                -0.033
REMARK SMILES O=C([O-])CCC(=O)[O-]
REMARK SMILES IDX 4 1 2 2 1 3 3 4 5 5 6 6 7 7 8 8
REMARK H PARENT
REMARK Flexibility Score: inf
ROOT
ATOM      1  C   UNL     1      -0.813   2.674  -3.138  1.00  0.00     0.059 C 
ENDROOT
BRANCH   1   2
ATOM      2  C   UNL     1      -2.101   2.126  -2.610  1.00  0.00     0.042 C 
ATOM      3  O   UNL     1      -2.612   2.605  -1.564  1.00  0.00    -0.550 OA
ATOM      4  O   UNL     1      -2.713   1.053  -3.246  1.00  0.00    -0.550 OA
ENDBRANCH   1   2
BRANCH   1   5
ATOM      5  C   UNL     1      -1.079   3.785  -4.155  1.00  0.00     0.059 C 
BRANCH   5   6
ATOM      6  C   UNL     1      -0.832   3.293  -5.546  1.00  0.00     0.042 C 
ATOM      7  O   UNL     1      -1.698   2.593  -6.134  1.00  0.00    -0.550 OA
ATOM      8  O   UNL     1       0.334   3.649  -6.212  1.00  0.00    -0.550 OA
ENDBRANCH   5   6
ENDBRANCH   1   5
TORSDOF 3
ENDMDL
MODEL 7
REMARK VINA RESULT:    -2.843      1.949      2.784
REMARK INTER + INTRA:          -3.375
REMARK INTER:                  -3.265
REMARK INTRA:                  -0.111
REMARK UNBOUND:                -0.033
REMARK SMILES O=C([O-])CCC(=O)[O-]
REMARK SMILES IDX 4 1 2 2 1 3 3 4 5 5 6 6 7 7 8 8
REMARK H PARENT
REMARK Flexibility Score: inf
ROOT
ATOM      1  C   UNL     1      -3.656   2.467  -3.141  1.00  0.00     0.059 C 
ENDROOT
BRANCH   1   2
ATOM      2  C   UNL     1      -4.214   1.087  -3.295  1.00  0.00     0.042 C 
ATOM      3  O   UNL     1      -5.459   0.903  -3.304  1.00  0.00    -0.550 OA
ATOM      4  O   UNL     1      -3.356  -0.003  -3.381  1.00  0.00    -0.550 OA
ENDBRANCH   1   2
BRANCH   1   5
ATOM      5  C   UNL     1      -2.370   2.436  -2.315  1.00  0.00     0.059 C 
BRANCH   5   6
ATOM      6  C   UNL     1      -1.189   2.765  -3.172  1.00  0.00     0.042 C 
ATOM      7  O   UNL     1      -0.094   3.093  -2.643  1.00  0.00    -0.550 OA
ATOM      8  O   UNL     1      -1.283   2.662  -4.554  1.00  0.00    -0.550 OA
ENDBRANCH   5   6
ENDBRANCH   1   5
TORSDOF 3
ENDMDL
MODEL 8
REMARK VINA RESULT:    -2.839      2.595      5.416
REMARK INTER + INTRA:          -3.370
REMARK INTER:                  -3.274
REMARK INTRA:                  -0.097
REMARK UNBOUND:                -0.033
REMARK SMILES O=C([O-])CCC(=O)[O-]
REMARK SMILES IDX 4 1 2 2 1 3 3 4 5 5 6 6 7 7 8 8
REMARK H PARENT
REMARK Flexibility Score: inf
ROOT
ATOM      1  C   UNL     1       3.732   1.889  -4.000  1.00  0.00     0.059 C 
ENDROOT
BRANCH   1   2
ATOM      2  C   UNL     1       4.940   2.453  -3.321  1.00  0.00     0.042 C 
ATOM      3  O   UNL     1       5.430   1.876  -2.315  1.00  0.00    -0.550 OA
ATOM      4  O   UNL     1       5.497   3.644  -3.770  1.00  0.00    -0.550 OA
ENDBRANCH   1   2
BRANCH   1   5
ATOM      5  C   UNL     1       2.540   1.871  -3.042  1.00  0.00     0.059 C 
BRANCH   5   6
ATOM      6  C   UNL     1       1.513   2.874  -3.465  1.00  0.00     0.042 C 
ATOM      7  O   UNL     1       0.303   2.711  -3.158  1.00  0.00    -0.550 OA
ATOM      8  O   UNL     1       1.900   4.016  -4.155  1.00  0.00    -0.550 OA
ENDBRANCH   5   6
ENDBRANCH   1   5
TORSDOF 3
ENDMDL
MODEL 9
REMARK VINA RESULT:    -2.803      2.270      4.907
REMARK INTER + INTRA:          -3.328
REMARK INTER:                  -3.208
REMARK INTRA:                  -0.120
REMARK UNBOUND:                -0.033
REMARK SMILES O=C([O-])CCC(=O)[O-]
REMARK SMILES IDX 4 1 2 2 1 3 3 4 5 5 6 6 7 7 8 8
REMARK H PARENT
REMARK Flexibility Score: inf
ROOT
ATOM      1  C   UNL     1      -2.516   1.766  -3.873  1.00  0.00     0.059 C 
ENDROOT
BRANCH   1   2
ATOM      2  C   UNL     1      -1.879   2.443  -2.701  1.00  0.00     0.042 C 
ATOM      3  O   UNL     1      -0.681   2.827  -2.764  1.00  0.00    -0.550 OA
ATOM      4  O   UNL     1      -2.592   2.606  -1.520  1.00  0.00    -0.550 OA
ENDBRANCH   1   2
BRANCH   1   5
ATOM      5  C   UNL     1      -3.329   0.555  -3.415  1.00  0.00     0.059 C 
BRANCH   5   6
ATOM      6  C   UNL     1      -4.777   0.740  -3.745  1.00  0.00     0.042 C 
ATOM      7  O   UNL     1      -5.504   1.470  -3.021  1.00  0.00    -0.550 OA
ATOM      8  O   UNL     1      -5.312   0.147  -4.882  1.00  0.00    -0.550 OA
ENDBRANCH   5   6
ENDBRANCH   1   5
TORSDOF 3
ENDMDL
