MODEL 1
REMARK VINA RESULT:    -4.171      0.000      0.000
REMARK INTER + INTRA:          -9.789
REMARK INTER:                  -7.585
REMARK INTRA:                  -2.203
REMARK UNBOUND:                -2.203
REMARK SMILES CCCCCCCCCCCCCC[C@@H](C)C(=O)[O-]
REMARK SMILES IDX 9 1 10 2 11 3 12 4 13 5 14 6 15 7 16 8 17 9 18 10 19 11 8 12
REMARK SMILES IDX 7 13 6 14 5 15 4 16 3 17 2 18 1 19
REMARK H PARENT
REMARK Flexibility Score: inf
ROOT
ATOM      1  C   UNL     1     181.311 185.218 200.989  1.00  0.00     0.000 C 
ENDROOT
BRANCH   1   2
ATOM      2  C   UNL     1     181.855 186.374 201.849  1.00  0.00     0.000 C 
BRANCH   2   3
ATOM      3  C   UNL     1     182.330 187.611 201.060  1.00  0.00     0.000 C 
BRANCH   3   4
ATOM      4  C   UNL     1     182.134 187.531 199.535  1.00  0.00     0.000 C 
BRANCH   4   5
ATOM      5  C   UNL     1     183.463 187.435 198.767  1.00  0.00     0.001 C 
BRANCH   5   6
ATOM      6  C   UNL     1     184.694 187.441 199.697  1.00  0.00     0.009 C 
BRANCH   6   7
ATOM      7  C   UNL     1     186.044 187.456 198.940  1.00  0.00     0.032 C 
ATOM      8  C   UNL     1     185.812 187.485 197.427  1.00  0.00     0.014 C 
BRANCH   7   9
ATOM      9  C   UNL     1     186.893 188.632 199.337  1.00  0.00     0.044 C 
ATOM     10  O   UNL     1     187.850 188.994 198.606  1.00  0.00    -0.550 OA
ATOM     11  O   UNL     1     186.620 189.334 200.505  1.00  0.00    -0.550 OA
ENDBRANCH   7   9
ENDBRANCH   6   7
ENDBRANCH   5   6
ENDBRANCH   4   5
ENDBRANCH   3   4
ENDBRANCH   2   3
ENDBRANCH   1   2
BRANCH   1  12
ATOM     12  C   UNL     1     180.876 183.969 201.779  1.00  0.00     0.000 C 
BRANCH  12  13
ATOM     13  C   UNL     1     181.182 182.639 201.058  1.00  0.00    -0.000 C 
BRANCH  13  14
ATOM     14  C   UNL     1     182.059 181.697 201.902  1.00  0.00    -0.000 C 
BRANCH  14  15
ATOM     15  C   UNL     1     183.447 181.455 201.282  1.00  0.00    -0.000 C 
BRANCH  15  16
ATOM     16  C   UNL     1     184.590 182.287 201.893  1.00  0.00    -0.000 C 
BRANCH  16  17
ATOM     17  C   UNL     1     184.666 183.714 201.322  1.00  0.00    -0.000 C 
BRANCH  17  18
ATOM     18  C   UNL     1     185.284 183.752 199.916  1.00  0.00    -0.003 C 
ATOM     19  C   UNL     1     184.235 183.866 198.812  1.00  0.00     0.004 C 
ENDBRANCH  17  18
ENDBRANCH  16  17
ENDBRANCH  15  16
ENDBRANCH  14  15
ENDBRANCH  13  14
ENDBRANCH  12  13
ENDBRANCH   1  12
TORSDOF 14
ENDMDL
MODEL 2
REMARK VINA RESULT:    -4.145      1.439      2.172
REMARK INTER + INTRA:          -9.740
REMARK INTER:                  -7.520
REMARK INTRA:                  -2.219
REMARK UNBOUND:                -2.203
REMARK SMILES CCCCCCCCCCCCCC[C@@H](C)C(=O)[O-]
REMARK SMILES IDX 9 1 10 2 11 3 12 4 13 5 14 6 15 7 16 8 17 9 18 10 19 11 8 12
REMARK SMILES IDX 7 13 6 14 5 15 4 16 3 17 2 18 1 19
REMARK H PARENT
REMARK Flexibility Score: inf
ROOT
ATOM      1  C   UNL     1     180.207 183.803 200.762  1.00  0.00     0.000 C 
ENDROOT
BRANCH   1   2
ATOM      2  C   UNL     1     180.473 184.501 202.108  1.00  0.00     0.000 C 
BRANCH   2   3
ATOM      3  C   UNL     1     181.505 185.647 202.060  1.00  0.00     0.000 C 
BRANCH   3   4
ATOM      4  C   UNL     1     180.953 187.007 201.598  1.00  0.00     0.000 C 
BRANCH   4   5
ATOM      5  C   UNL     1     180.924 187.152 200.067  1.00  0.00     0.001 C 
BRANCH   5   6
ATOM      6  C   UNL     1     181.962 188.165 199.542  1.00  0.00     0.009 C 
BRANCH   6   7
ATOM      7  C   UNL     1     183.426 187.768 199.847  1.00  0.00     0.032 C 
ATOM      8  C   UNL     1     184.198 187.517 198.548  1.00  0.00     0.014 C 
BRANCH   7   9
ATOM      9  C   UNL     1     184.135 188.823 200.651  1.00  0.00     0.044 C 
ATOM     10  O   UNL     1     185.319 189.140 200.372  1.00  0.00    -0.550 OA
ATOM     11  O   UNL     1     183.483 189.463 201.699  1.00  0.00    -0.550 OA
ENDBRANCH   7   9
ENDBRANCH   6   7
ENDBRANCH   5   6
ENDBRANCH   4   5
ENDBRANCH   3   4
ENDBRANCH   2   3
ENDBRANCH   1   2
BRANCH   1  12
ATOM     12  C   UNL     1     180.893 182.435 200.592  1.00  0.00     0.000 C 
BRANCH  12  13
ATOM     13  C   UNL     1     181.673 181.970 201.841  1.00  0.00    -0.000 C 
BRANCH  13  14
ATOM     14  C   UNL     1     182.876 181.078 201.489  1.00  0.00    -0.000 C 
BRANCH  14  15
ATOM     15  C   UNL     1     184.228 181.751 201.785  1.00  0.00    -0.000 C 
BRANCH  15  16
ATOM     16  C   UNL     1     184.166 183.275 202.002  1.00  0.00    -0.000 C 
BRANCH  16  17
ATOM     17  C   UNL     1     184.805 184.072 200.852  1.00  0.00    -0.000 C 
BRANCH  17  18
ATOM     18  C   UNL     1     183.948 184.051 199.576  1.00  0.00    -0.003 C 
ATOM     19  C   UNL     1     184.627 183.319 198.420  1.00  0.00     0.004 C 
ENDBRANCH  17  18
ENDBRANCH  16  17
ENDBRANCH  15  16
ENDBRANCH  14  15
ENDBRANCH  13  14
ENDBRANCH  12  13
ENDBRANCH   1  12
TORSDOF 14
ENDMDL
MODEL 3
REMARK VINA RESULT:    -4.131      1.163      1.740
REMARK INTER + INTRA:          -9.715
REMARK INTER:                  -7.516
REMARK INTRA:                  -2.198
REMARK UNBOUND:                -2.203
REMARK SMILES CCCCCCCCCCCCCC[C@@H](C)C(=O)[O-]
REMARK SMILES IDX 9 1 10 2 11 3 12 4 13 5 14 6 15 7 16 8 17 9 18 10 19 11 8 12
REMARK SMILES IDX 7 13 6 14 5 15 4 16 3 17 2 18 1 19
REMARK H PARENT
REMARK Flexibility Score: inf
ROOT
ATOM      1  C   UNL     1     181.576 185.182 200.879  1.00  0.00     0.000 C 
ENDROOT
BRANCH   1   2
ATOM      2  C   UNL     1     181.889 186.412 201.752  1.00  0.00     0.000 C 
BRANCH   2   3
ATOM      3  C   UNL     1     181.459 187.767 201.153  1.00  0.00     0.000 C 
BRANCH   3   4
ATOM      4  C   UNL     1     181.094 187.738 199.658  1.00  0.00     0.000 C 
BRANCH   4   5
ATOM      5  C   UNL     1     182.113 188.483 198.779  1.00  0.00     0.001 C 
BRANCH   5   6
ATOM      6  C   UNL     1     183.406 187.675 198.545  1.00  0.00     0.009 C 
BRANCH   6   7
ATOM      7  C   UNL     1     184.699 188.502 198.739  1.00  0.00     0.032 C 
ATOM      8  C   UNL     1     185.049 188.615 200.225  1.00  0.00     0.014 C 
BRANCH   7   9
ATOM      9  C   UNL     1     185.862 187.903 197.997  1.00  0.00     0.044 C 
ATOM     10  O   UNL     1     187.033 188.287 198.244  1.00  0.00    -0.550 OA
ATOM     11  O   UNL     1     185.652 186.913 197.044  1.00  0.00    -0.550 OA
ENDBRANCH   7   9
ENDBRANCH   6   7
ENDBRANCH   5   6
ENDBRANCH   4   5
ENDBRANCH   3   4
ENDBRANCH   2   3
ENDBRANCH   1   2
BRANCH   1  12
ATOM     12  C   UNL     1     180.845 184.038 201.607  1.00  0.00     0.000 C 
BRANCH  12  13
ATOM     13  C   UNL     1     181.053 182.654 200.956  1.00  0.00    -0.000 C 
BRANCH  13  14
ATOM     14  C   UNL     1     181.926 181.722 201.814  1.00  0.00    -0.000 C 
BRANCH  14  15
ATOM     15  C   UNL     1     183.140 181.164 201.048  1.00  0.00    -0.000 C 
BRANCH  15  16
ATOM     16  C   UNL     1     184.191 182.213 200.637  1.00  0.00    -0.000 C 
BRANCH  16  17
ATOM     17  C   UNL     1     184.195 182.498 199.125  1.00  0.00    -0.000 C 
BRANCH  17  18
ATOM     18  C   UNL     1     184.384 183.990 198.811  1.00  0.00    -0.003 C 
ATOM     19  C   UNL     1     185.124 184.739 199.918  1.00  0.00     0.004 C 
ENDBRANCH  17  18
ENDBRANCH  16  17
ENDBRANCH  15  16
ENDBRANCH  14  15
ENDBRANCH  13  14
ENDBRANCH  12  13
ENDBRANCH   1  12
TORSDOF 14
ENDMDL
MODEL 4
REMARK VINA RESULT:    -4.012      1.611      3.173
REMARK INTER + INTRA:          -9.498
REMARK INTER:                  -7.363
REMARK INTRA:                  -2.135
REMARK UNBOUND:                -2.203
REMARK SMILES CCCCCCCCCCCCCC[C@@H](C)C(=O)[O-]
REMARK SMILES IDX 9 1 10 2 11 3 12 4 13 5 14 6 15 7 16 8 17 9 18 10 19 11 8 12
REMARK SMILES IDX 7 13 6 14 5 15 4 16 3 17 2 18 1 19
REMARK H PARENT
REMARK Flexibility Score: inf
ROOT
ATOM      1  C   UNL     1     181.359 183.284 200.945  1.00  0.00     0.000 C 
ENDROOT
BRANCH   1   2
ATOM      2  C   UNL     1     180.308 184.125 201.693  1.00  0.00     0.000 C 
BRANCH   2   3
ATOM      3  C   UNL     1     180.748 185.560 202.047  1.00  0.00     0.000 C 
BRANCH   3   4
ATOM      4  C   UNL     1     182.144 185.962 201.540  1.00  0.00     0.000 C 
BRANCH   4   5
ATOM      5  C   UNL     1     182.185 187.392 200.973  1.00  0.00     0.001 C 
BRANCH   5   6
ATOM      6  C   UNL     1     181.932 187.440 199.452  1.00  0.00     0.009 C 
BRANCH   6   7
ATOM      7  C   UNL     1     181.954 188.871 198.864  1.00  0.00     0.032 C 
ATOM      8  C   UNL     1     181.510 189.892 199.915  1.00  0.00     0.014 C 
BRANCH   7   9
ATOM      9  C   UNL     1     183.319 189.244 198.354  1.00  0.00     0.044 C 
ATOM     10  O   UNL     1     184.122 189.865 199.095  1.00  0.00    -0.550 OA
ATOM     11  O   UNL     1     183.707 188.893 197.066  1.00  0.00    -0.550 OA
ENDBRANCH   7   9
ENDBRANCH   6   7
ENDBRANCH   5   6
ENDBRANCH   4   5
ENDBRANCH   3   4
ENDBRANCH   2   3
ENDBRANCH   1   2
BRANCH   1  12
ATOM     12  C   UNL     1     181.986 182.144 201.770  1.00  0.00     0.000 C 
BRANCH  12  13
ATOM     13  C   UNL     1     183.322 181.623 201.198  1.00  0.00    -0.000 C 
BRANCH  13  14
ATOM     14  C   UNL     1     184.545 182.275 201.866  1.00  0.00    -0.000 C 
BRANCH  14  15
ATOM     15  C   UNL     1     184.995 183.569 201.162  1.00  0.00    -0.000 C 
BRANCH  15  16
ATOM     16  C   UNL     1     185.078 183.483 199.627  1.00  0.00    -0.000 C 
BRANCH  16  17
ATOM     17  C   UNL     1     184.188 184.519 198.918  1.00  0.00    -0.000 C 
BRANCH  17  18
ATOM     18  C   UNL     1     184.991 185.718 198.388  1.00  0.00    -0.003 C 
ATOM     19  C   UNL     1     185.530 186.608 199.507  1.00  0.00     0.004 C 
ENDBRANCH  17  18
ENDBRANCH  16  17
ENDBRANCH  15  16
ENDBRANCH  14  15
ENDBRANCH  13  14
ENDBRANCH  12  13
ENDBRANCH   1  12
TORSDOF 14
ENDMDL
MODEL 5
REMARK VINA RESULT:    -3.948      2.306      4.233
REMARK INTER + INTRA:          -9.382
REMARK INTER:                  -7.491
REMARK INTRA:                  -1.891
REMARK UNBOUND:                -2.203
REMARK SMILES CCCCCCCCCCCCCC[C@@H](C)C(=O)[O-]
REMARK SMILES IDX 9 1 10 2 11 3 12 4 13 5 14 6 15 7 16 8 17 9 18 10 19 11 8 12
REMARK SMILES IDX 7 13 6 14 5 15 4 16 3 17 2 18 1 19
REMARK H PARENT
REMARK Flexibility Score: inf
ROOT
ATOM      1  C   UNL     1     180.383 188.439 200.387  1.00  0.00     0.000 C 
ENDROOT
BRANCH   1   2
ATOM      2  C   UNL     1     181.222 187.575 199.425  1.00  0.00     0.000 C 
BRANCH   2   3
ATOM      3  C   UNL     1     182.407 188.301 198.758  1.00  0.00     0.000 C 
BRANCH   3   4
ATOM      4  C   UNL     1     183.717 187.496 198.691  1.00  0.00     0.000 C 
BRANCH   4   5
ATOM      5  C   UNL     1     183.788 186.383 199.751  1.00  0.00     0.001 C 
BRANCH   5   6
ATOM      6  C   UNL     1     184.700 185.212 199.329  1.00  0.00     0.009 C 
BRANCH   6   7
ATOM      7  C   UNL     1     184.403 183.892 200.079  1.00  0.00     0.032 C 
ATOM      8  C   UNL     1     184.208 182.741 199.088  1.00  0.00     0.014 C 
BRANCH   7   9
ATOM      9  C   UNL     1     185.502 183.538 201.043  1.00  0.00     0.044 C 
ATOM     10  O   UNL     1     185.315 182.653 201.916  1.00  0.00    -0.550 OA
ATOM     11  O   UNL     1     186.734 184.178 200.969  1.00  0.00    -0.550 OA
ENDBRANCH   7   9
ENDBRANCH   6   7
ENDBRANCH   5   6
ENDBRANCH   4   5
ENDBRANCH   3   4
ENDBRANCH   2   3
ENDBRANCH   1   2
BRANCH   1  12
ATOM     12  C   UNL     1     180.414 187.987 201.859  1.00  0.00     0.000 C 
BRANCH  12  13
ATOM     13  C   UNL     1     181.097 186.620 202.077  1.00  0.00    -0.000 C 
BRANCH  13  14
ATOM     14  C   UNL     1     180.090 185.458 202.124  1.00  0.00    -0.000 C 
BRANCH  14  15
ATOM     15  C   UNL     1     180.762 184.077 201.999  1.00  0.00    -0.000 C 
BRANCH  15  16
ATOM     16  C   UNL     1     180.654 183.422 200.609  1.00  0.00    -0.000 C 
BRANCH  16  17
ATOM     17  C   UNL     1     181.102 181.950 200.602  1.00  0.00    -0.000 C 
BRANCH  17  18
ATOM     18  C   UNL     1     181.781 181.538 201.917  1.00  0.00    -0.003 C 
ATOM     19  C   UNL     1     182.727 180.350 201.747  1.00  0.00     0.004 C 
ENDBRANCH  17  18
ENDBRANCH  16  17
ENDBRANCH  15  16
ENDBRANCH  14  15
ENDBRANCH  13  14
ENDBRANCH  12  13
ENDBRANCH   1  12
TORSDOF 14
ENDMDL
MODEL 6
REMARK VINA RESULT:    -3.933      1.793      3.577
REMARK INTER + INTRA:          -9.354
REMARK INTER:                  -7.605
REMARK INTRA:                  -1.749
REMARK UNBOUND:                -2.203
REMARK SMILES CCCCCCCCCCCCCC[C@@H](C)C(=O)[O-]
REMARK SMILES IDX 9 1 10 2 11 3 12 4 13 5 14 6 15 7 16 8 17 9 18 10 19 11 8 12
REMARK SMILES IDX 7 13 6 14 5 15 4 16 3 17 2 18 1 19
REMARK H PARENT
REMARK Flexibility Score: inf
ROOT
ATOM      1  C   UNL     1     185.535 183.435 200.691  1.00  0.00     0.000 C 
ENDROOT
BRANCH   1   2
ATOM      2  C   UNL     1     184.699 183.341 199.401  1.00  0.00     0.000 C 
BRANCH   2   3
ATOM      3  C   UNL     1     184.167 184.686 198.866  1.00  0.00     0.000 C 
BRANCH   3   4
ATOM      4  C   UNL     1     183.474 185.580 199.909  1.00  0.00     0.000 C 
BRANCH   4   5
ATOM      5  C   UNL     1     182.936 186.891 199.310  1.00  0.00     0.001 C 
BRANCH   5   6
ATOM      6  C   UNL     1     183.977 188.029 199.330  1.00  0.00     0.009 C 
BRANCH   6   7
ATOM      7  C   UNL     1     184.495 188.422 197.927  1.00  0.00     0.032 C 
ATOM      8  C   UNL     1     184.749 189.931 197.849  1.00  0.00     0.014 C 
BRANCH   7   9
ATOM      9  C   UNL     1     185.757 187.686 197.571  1.00  0.00     0.044 C 
ATOM     10  O   UNL     1     186.814 187.893 198.220  1.00  0.00    -0.550 OA
ATOM     11  O   UNL     1     185.762 186.762 196.531  1.00  0.00    -0.550 OA
ENDBRANCH   7   9
ENDBRANCH   6   7
ENDBRANCH   5   6
ENDBRANCH   4   5
ENDBRANCH   3   4
ENDBRANCH   2   3
ENDBRANCH   1   2
BRANCH   1  12
ATOM     12  C   UNL     1     184.771 183.098 201.986  1.00  0.00     0.000 C 
BRANCH  12  13
ATOM     13  C   UNL     1     184.369 181.612 202.104  1.00  0.00    -0.000 C 
BRANCH  13  14
ATOM     14  C   UNL     1     182.846 181.406 202.055  1.00  0.00    -0.000 C 
BRANCH  14  15
ATOM     15  C   UNL     1     182.062 182.731 202.009  1.00  0.00    -0.000 C 
BRANCH  15  16
ATOM     16  C   UNL     1     181.148 182.907 200.781  1.00  0.00    -0.000 C 
BRANCH  16  17
ATOM     17  C   UNL     1     181.361 181.821 199.713  1.00  0.00    -0.000 C 
BRANCH  17  18
ATOM     18  C   UNL     1     180.115 180.944 199.510  1.00  0.00    -0.003 C 
ATOM     19  C   UNL     1     180.461 179.501 199.148  1.00  0.00     0.004 C 
ENDBRANCH  17  18
ENDBRANCH  16  17
ENDBRANCH  15  16
ENDBRANCH  14  15
ENDBRANCH  13  14
ENDBRANCH  12  13
ENDBRANCH   1  12
TORSDOF 14
ENDMDL
MODEL 7
REMARK VINA RESULT:    -3.827      3.706      6.929
REMARK INTER + INTRA:          -9.163
REMARK INTER:                  -7.126
REMARK INTRA:                  -2.037
REMARK UNBOUND:                -2.203
REMARK SMILES CCCCCCCCCCCCCC[C@@H](C)C(=O)[O-]
REMARK SMILES IDX 9 1 10 2 11 3 12 4 13 5 14 6 15 7 16 8 17 9 18 10 19 11 8 12
REMARK SMILES IDX 7 13 6 14 5 15 4 16 3 17 2 18 1 19
REMARK H PARENT
REMARK Flexibility Score: inf
ROOT
ATOM      1  C   UNL     1     183.494 186.430 199.109  1.00  0.00     0.000 C 
ENDROOT
BRANCH   1   2
ATOM      2  C   UNL     1     182.264 186.668 200.005  1.00  0.00     0.000 C 
BRANCH   2   3
ATOM      3  C   UNL     1     182.305 185.964 201.376  1.00  0.00     0.000 C 
BRANCH   3   4
ATOM      4  C   UNL     1     180.934 185.579 201.959  1.00  0.00     0.000 C 
BRANCH   4   5
ATOM      5  C   UNL     1     180.688 184.061 201.957  1.00  0.00     0.001 C 
BRANCH   5   6
ATOM      6  C   UNL     1     181.960 183.249 201.633  1.00  0.00     0.009 C 
BRANCH   6   7
ATOM      7  C   UNL     1     181.966 182.648 200.208  1.00  0.00     0.032 C 
ATOM      8  C   UNL     1     183.366 182.732 199.594  1.00  0.00     0.014 C 
BRANCH   7   9
ATOM      9  C   UNL     1     181.505 181.217 200.203  1.00  0.00     0.044 C 
ATOM     10  O   UNL     1     181.537 180.540 201.262  1.00  0.00    -0.550 OA
ATOM     11  O   UNL     1     181.029 180.636 199.033  1.00  0.00    -0.550 OA
ENDBRANCH   7   9
ENDBRANCH   6   7
ENDBRANCH   5   6
ENDBRANCH   4   5
ENDBRANCH   3   4
ENDBRANCH   2   3
ENDBRANCH   1   2
BRANCH   1  12
ATOM     12  C   UNL     1     184.829 186.285 199.864  1.00  0.00     0.000 C 
BRANCH  12  13
ATOM     13  C   UNL     1     185.698 187.560 199.841  1.00  0.00    -0.000 C 
BRANCH  13  14
ATOM     14  C   UNL     1     186.378 187.787 198.479  1.00  0.00    -0.000 C 
BRANCH  14  15
ATOM     15  C   UNL     1     186.353 189.261 198.035  1.00  0.00    -0.000 C 
BRANCH  15  16
ATOM     16  C   UNL     1     185.268 190.127 198.703  1.00  0.00    -0.000 C 
BRANCH  16  17
ATOM     17  C   UNL     1     184.025 190.321 197.819  1.00  0.00    -0.000 C 
BRANCH  17  18
ATOM     18  C   UNL     1     182.714 190.137 198.600  1.00  0.00    -0.003 C 
ATOM     19  C   UNL     1     182.907 190.247 200.111  1.00  0.00     0.004 C 
ENDBRANCH  17  18
ENDBRANCH  16  17
ENDBRANCH  15  16
ENDBRANCH  14  15
ENDBRANCH  13  14
ENDBRANCH  12  13
ENDBRANCH   1  12
TORSDOF 14
ENDMDL
MODEL 8
REMARK VINA RESULT:    -3.818      1.486      2.497
REMARK INTER + INTRA:          -9.146
REMARK INTER:                  -7.008
REMARK INTRA:                  -2.138
REMARK UNBOUND:                -2.203
REMARK SMILES CCCCCCCCCCCCCC[C@@H](C)C(=O)[O-]
REMARK SMILES IDX 9 1 10 2 11 3 12 4 13 5 14 6 15 7 16 8 17 9 18 10 19 11 8 12
REMARK SMILES IDX 7 13 6 14 5 15 4 16 3 17 2 18 1 19
REMARK H PARENT
REMARK Flexibility Score: inf
ROOT
ATOM      1  C   UNL     1     182.359 186.738 199.649  1.00  0.00     0.000 C 
ENDROOT
BRANCH   1   2
ATOM      2  C   UNL     1     181.594 188.009 199.234  1.00  0.00     0.000 C 
BRANCH   2   3
ATOM      3  C   UNL     1     182.405 189.017 198.394  1.00  0.00     0.000 C 
BRANCH   3   4
ATOM      4  C   UNL     1     183.222 190.038 199.204  1.00  0.00     0.000 C 
BRANCH   4   5
ATOM      5  C   UNL     1     184.734 189.753 199.173  1.00  0.00     0.001 C 
BRANCH   5   6
ATOM      6  C   UNL     1     185.218 188.954 200.401  1.00  0.00     0.009 C 
BRANCH   6   7
ATOM      7  C   UNL     1     186.075 187.718 200.038  1.00  0.00     0.032 C 
ATOM      8  C   UNL     1     186.019 187.447 198.532  1.00  0.00     0.014 C 
BRANCH   7   9
ATOM      9  C   UNL     1     187.508 187.889 200.461  1.00  0.00     0.044 C 
ATOM     10  O   UNL     1     188.233 186.880 200.654  1.00  0.00    -0.550 OA
ATOM     11  O   UNL     1     188.044 189.161 200.627  1.00  0.00    -0.550 OA
ENDBRANCH   7   9
ENDBRANCH   6   7
ENDBRANCH   5   6
ENDBRANCH   4   5
ENDBRANCH   3   4
ENDBRANCH   2   3
ENDBRANCH   1   2
BRANCH   1  12
ATOM     12  C   UNL     1     182.246 186.371 201.141  1.00  0.00     0.000 C 
BRANCH  12  13
ATOM     13  C   UNL     1     180.800 186.103 201.608  1.00  0.00    -0.000 C 
BRANCH  13  14
ATOM     14  C   UNL     1     180.596 184.660 202.101  1.00  0.00    -0.000 C 
BRANCH  14  15
ATOM     15  C   UNL     1     181.812 183.756 201.831  1.00  0.00    -0.000 C 
BRANCH  15  16
ATOM     16  C   UNL     1     181.666 182.807 200.626  1.00  0.00    -0.000 C 
BRANCH  16  17
ATOM     17  C   UNL     1     183.018 182.304 200.090  1.00  0.00    -0.000 C 
BRANCH  17  18
ATOM     18  C   UNL     1     183.761 183.375 199.276  1.00  0.00    -0.003 C 
ATOM     19  C   UNL     1     185.031 183.868 199.967  1.00  0.00     0.004 C 
ENDBRANCH  17  18
ENDBRANCH  16  17
ENDBRANCH  15  16
ENDBRANCH  14  15
ENDBRANCH  13  14
ENDBRANCH  12  13
ENDBRANCH   1  12
TORSDOF 14
ENDMDL
MODEL 9
REMARK VINA RESULT:    -3.791      3.689      7.000
REMARK INTER + INTRA:          -9.097
REMARK INTER:                  -7.297
REMARK INTRA:                  -1.801
REMARK UNBOUND:                -2.203
REMARK SMILES CCCCCCCCCCCCCC[C@@H](C)C(=O)[O-]
REMARK SMILES IDX 9 1 10 2 11 3 12 4 13 5 14 6 15 7 16 8 17 9 18 10 19 11 8 12
REMARK SMILES IDX 7 13 6 14 5 15 4 16 3 17 2 18 1 19
REMARK H PARENT
REMARK Flexibility Score: inf
ROOT
ATOM      1  C   UNL     1     184.043 186.258 199.194  1.00  0.00     0.000 C 
ENDROOT
BRANCH   1   2
ATOM      2  C   UNL     1     185.259 185.555 199.825  1.00  0.00     0.000 C 
BRANCH   2   3
ATOM      3  C   UNL     1     185.150 184.019 199.921  1.00  0.00     0.000 C 
BRANCH   3   4
ATOM      4  C   UNL     1     184.497 183.330 198.710  1.00  0.00     0.000 C 
BRANCH   4   5
ATOM      5  C   UNL     1     183.644 182.112 199.104  1.00  0.00     0.001 C 
BRANCH   5   6
ATOM      6  C   UNL     1     183.519 181.938 200.632  1.00  0.00     0.009 C 
BRANCH   6   7
ATOM      7  C   UNL     1     182.063 182.020 201.149  1.00  0.00     0.032 C 
ATOM      8  C   UNL     1     181.516 183.442 200.994  1.00  0.00     0.014 C 
BRANCH   7   9
ATOM      9  C   UNL     1     181.159 181.057 200.428  1.00  0.00     0.044 C 
ATOM     10  O   UNL     1     181.279 179.820 200.613  1.00  0.00    -0.550 OA
ATOM     11  O   UNL     1     180.178 181.529 199.564  1.00  0.00    -0.550 OA
ENDBRANCH   7   9
ENDBRANCH   6   7
ENDBRANCH   5   6
ENDBRANCH   4   5
ENDBRANCH   3   4
ENDBRANCH   2   3
ENDBRANCH   1   2
BRANCH   1  12
ATOM     12  C   UNL     1     183.002 186.785 200.201  1.00  0.00     0.000 C 
BRANCH  12  13
ATOM     13  C   UNL     1     182.879 188.324 200.220  1.00  0.00    -0.000 C 
BRANCH  13  14
ATOM     14  C   UNL     1     184.245 189.027 200.145  1.00  0.00    -0.000 C 
BRANCH  14  15
ATOM     15  C   UNL     1     184.391 189.922 198.900  1.00  0.00    -0.000 C 
BRANCH  15  16
ATOM     16  C   UNL     1     185.839 190.142 198.421  1.00  0.00    -0.000 C 
BRANCH  16  17
ATOM     17  C   UNL     1     186.650 188.838 198.340  1.00  0.00    -0.000 C 
BRANCH  17  18
ATOM     18  C   UNL     1     187.938 188.896 199.176  1.00  0.00    -0.003 C 
ATOM     19  C   UNL     1     187.891 187.981 200.399  1.00  0.00     0.004 C 
ENDBRANCH  17  18
ENDBRANCH  16  17
ENDBRANCH  15  16
ENDBRANCH  14  15
ENDBRANCH  13  14
ENDBRANCH  12  13
ENDBRANCH   1  12
TORSDOF 14
ENDMDL
