MODEL 1
REMARK VINA RESULT:    -7.281      0.000      0.000
REMARK INTER + INTRA:          -7.919
REMARK INTER:                  -7.919
REMARK INTRA:                   0.000
REMARK UNBOUND:                 0.000
REMARK SMILES Cc1cc(O)c2c(c1)C(=O)c1cc(O)cc(O)c1C2=O
REMARK SMILES IDX 1 1 2 2 8 3 7 4 6 5 4 6 3 7 19 8 20 9 18 10 11 11 9 12 10 13
REMARK SMILES IDX 12 14 13 15 15 16 16 17 5 18 17 20 14 22
REMARK H PARENT 5 19 17 21 14 23
REMARK Flexibility Score: inf
ROOT
ATOM      1  C   UNL     1      13.887   3.248  56.125  1.00  0.00     0.044 C 
ATOM      2  C   UNL     1      12.665   3.816  55.463  1.00  0.00    -0.047 A 
ATOM      3  C   UNL     1      11.559   2.997  55.205  1.00  0.00     0.016 A 
ATOM      4  C   UNL     1      10.396   3.528  54.621  1.00  0.00     0.038 A 
ATOM      5  C   UNL     1      10.337   4.899  54.295  1.00  0.00     0.076 A 
ATOM      6  C   UNL     1      11.446   5.727  54.582  1.00  0.00     0.127 A 
ATOM      7  C   UNL     1      12.596   5.181  55.166  1.00  0.00     0.050 A 
ATOM      8  C   UNL     1       9.115   5.436  53.639  1.00  0.00     0.201 C 
ATOM      9  O   UNL     1       9.174   6.533  53.022  1.00  0.00    -0.288 OA
ATOM     10  C   UNL     1       7.864   4.628  53.613  1.00  0.00     0.076 A 
ATOM     11  C   UNL     1       7.953   3.242  53.885  1.00  0.00     0.041 A 
ATOM     12  C   UNL     1       9.233   2.654  54.346  1.00  0.00     0.194 C 
ATOM     13  O   UNL     1       9.327   1.408  54.520  1.00  0.00    -0.289 OA
ATOM     14  C   UNL     1       6.820   2.423  53.727  1.00  0.00     0.059 A 
ATOM     15  C   UNL     1       5.601   2.969  53.318  1.00  0.00     0.120 A 
ATOM     16  C   UNL     1       5.497   4.340  53.095  1.00  0.00     0.093 A 
ATOM     17  C   UNL     1       6.599   5.182  53.271  1.00  0.00     0.131 A 
ENDROOT
BRANCH   6  18
ATOM     18  O   UNL     1      11.406   7.093  54.300  1.00  0.00    -0.507 OA
ATOM     19  H   UNL     1      12.059   7.744  54.721  1.00  0.00     0.293 HD
ENDBRANCH   6  18
BRANCH  17  20
ATOM     20  O   UNL     1       6.382   6.555  53.131  1.00  0.00    -0.507 OA
ATOM     21  H   UNL     1       7.125   7.235  53.057  1.00  0.00     0.293 HD
ENDBRANCH  17  20
BRANCH  15  22
ATOM     22  O   UNL     1       4.483   2.157  53.145  1.00  0.00    -0.508 OA
ATOM     23  H   UNL     1       3.955   2.157  52.279  1.00  0.00     0.293 HD
ENDBRANCH  15  22
TORSDOF 3
ENDMDL
MODEL 2
REMARK VINA RESULT:    -6.739      1.296      5.500
REMARK INTER + INTRA:          -7.330
REMARK INTER:                  -7.330
REMARK INTRA:                   0.000
REMARK UNBOUND:                 0.000
REMARK SMILES Cc1cc(O)c2c(c1)C(=O)c1cc(O)cc(O)c1C2=O
REMARK SMILES IDX 1 1 2 2 8 3 7 4 6 5 4 6 3 7 19 8 20 9 18 10 11 11 9 12 10 13
REMARK SMILES IDX 12 14 13 15 15 16 16 17 5 18 17 20 14 22
REMARK H PARENT 5 19 17 21 14 23
REMARK Flexibility Score: inf
ROOT
ATOM      1  C   UNL     1       4.333   1.753  53.164  1.00  0.00     0.044 C 
ATOM      2  C   UNL     1       5.537   2.629  53.358  1.00  0.00    -0.047 A 
ATOM      3  C   UNL     1       6.729   2.088  53.856  1.00  0.00     0.016 A 
ATOM      4  C   UNL     1       7.873   2.891  54.005  1.00  0.00     0.038 A 
ATOM      5  C   UNL     1       7.824   4.255  53.646  1.00  0.00     0.076 A 
ATOM      6  C   UNL     1       6.627   4.790  53.120  1.00  0.00     0.127 A 
ATOM      7  C   UNL     1       5.498   3.974  52.976  1.00  0.00     0.050 A 
ATOM      8  C   UNL     1       9.030   5.100  53.850  1.00  0.00     0.201 C 
ATOM      9  O   UNL     1       8.909   6.354  53.887  1.00  0.00    -0.288 OA
ATOM     10  C   UNL     1      10.350   4.466  54.124  1.00  0.00     0.076 A 
ATOM     11  C   UNL     1      10.374   3.115  54.541  1.00  0.00     0.041 A 
ATOM     12  C   UNL     1       9.127   2.313  54.538  1.00  0.00     0.194 C 
ATOM     13  O   UNL     1       9.138   1.129  54.975  1.00  0.00    -0.289 OA
ATOM     14  C   UNL     1      11.585   2.528  54.948  1.00  0.00     0.059 A 
ATOM     15  C   UNL     1      12.772   3.264  54.930  1.00  0.00     0.120 A 
ATOM     16  C   UNL     1      12.762   4.581  54.477  1.00  0.00     0.093 A 
ATOM     17  C   UNL     1      11.577   5.181  54.040  1.00  0.00     0.131 A 
ENDROOT
BRANCH   6  18
ATOM     18  O   UNL     1       6.558   6.127  52.726  1.00  0.00    -0.507 OA
ATOM     19  H   UNL     1       6.198   6.847  53.343  1.00  0.00     0.293 HD
ENDBRANCH   6  18
BRANCH  17  20
ATOM     20  O   UNL     1      11.674   6.466  53.501  1.00  0.00    -0.507 OA
ATOM     21  H   UNL     1      12.000   7.270  54.019  1.00  0.00     0.293 HD
ENDBRANCH  17  20
BRANCH  15  22
ATOM     22  O   UNL     1      13.970   2.690  55.349  1.00  0.00    -0.508 OA
ATOM     23  H   UNL     1      14.018   2.106  56.175  1.00  0.00     0.293 HD
ENDBRANCH  15  22
TORSDOF 3
ENDMDL
MODEL 3
REMARK VINA RESULT:    -6.646      8.085     10.064
REMARK INTER + INTRA:          -7.229
REMARK INTER:                  -7.229
REMARK INTRA:                   0.000
REMARK UNBOUND:                 0.000
REMARK SMILES Cc1cc(O)c2c(c1)C(=O)c1cc(O)cc(O)c1C2=O
REMARK SMILES IDX 1 1 2 2 8 3 7 4 6 5 4 6 3 7 19 8 20 9 18 10 11 11 9 12 10 13
REMARK SMILES IDX 12 14 13 15 15 16 16 17 5 18 17 20 14 22
REMARK H PARENT 5 19 17 21 14 23
REMARK Flexibility Score: inf
ROOT
ATOM      1  C   UNL     1      10.208   7.700  44.726  1.00  0.00     0.044 C 
ATOM      2  C   UNL     1       9.384   8.372  45.784  1.00  0.00    -0.047 A 
ATOM      3  C   UNL     1       8.388   9.289  45.425  1.00  0.00     0.016 A 
ATOM      4  C   UNL     1       7.584   9.895  46.406  1.00  0.00     0.038 A 
ATOM      5  C   UNL     1       7.778   9.576  47.767  1.00  0.00     0.076 A 
ATOM      6  C   UNL     1       8.767   8.632  48.123  1.00  0.00     0.127 A 
ATOM      7  C   UNL     1       9.556   8.036  47.131  1.00  0.00     0.050 A 
ATOM      8  C   UNL     1       6.949  10.258  48.795  1.00  0.00     0.201 C 
ATOM      9  O   UNL     1       7.335  10.272  49.994  1.00  0.00    -0.288 OA
ATOM     10  C   UNL     1       5.732  11.018  48.392  1.00  0.00     0.076 A 
ATOM     11  C   UNL     1       5.586  11.380  47.032  1.00  0.00     0.041 A 
ATOM     12  C   UNL     1       6.538  10.867  46.018  1.00  0.00     0.194 C 
ATOM     13  O   UNL     1       6.446  11.248  44.818  1.00  0.00    -0.289 OA
ATOM     14  C   UNL     1       4.527  12.220  46.641  1.00  0.00     0.059 A 
ATOM     15  C   UNL     1       3.608  12.688  47.582  1.00  0.00     0.120 A 
ATOM     16  C   UNL     1       3.721  12.297  48.914  1.00  0.00     0.093 A 
ATOM     17  C   UNL     1       4.746  11.441  49.326  1.00  0.00     0.131 A 
ENDROOT
BRANCH   6  18
ATOM     18  O   UNL     1       8.960   8.272  49.457  1.00  0.00    -0.507 OA
ATOM     19  H   UNL     1       8.307   7.672  49.948  1.00  0.00     0.293 HD
ENDBRANCH   6  18
BRANCH  17  20
ATOM     20  O   UNL     1       4.724  11.012  50.656  1.00  0.00    -0.507 OA
ATOM     21  H   UNL     1       5.426  10.411  51.063  1.00  0.00     0.293 HD
ENDBRANCH  17  20
BRANCH  15  22
ATOM     22  O   UNL     1       2.569  13.534  47.200  1.00  0.00    -0.508 OA
ATOM     23  H   UNL     1       1.598  13.275  47.329  1.00  0.00     0.293 HD
ENDBRANCH  15  22
TORSDOF 3
ENDMDL
MODEL 4
REMARK VINA RESULT:    -6.535      2.461      4.935
REMARK INTER + INTRA:          -7.108
REMARK INTER:                  -7.108
REMARK INTRA:                   0.000
REMARK UNBOUND:                 0.000
REMARK SMILES Cc1cc(O)c2c(c1)C(=O)c1cc(O)cc(O)c1C2=O
REMARK SMILES IDX 1 1 2 2 8 3 7 4 6 5 4 6 3 7 19 8 20 9 18 10 11 11 9 12 10 13
REMARK SMILES IDX 12 14 13 15 15 16 16 17 5 18 17 20 14 22
REMARK H PARENT 5 19 17 21 14 23
REMARK Flexibility Score: inf
ROOT
ATOM      1  C   UNL     1       9.862  10.692  52.047  1.00  0.00     0.044 C 
ATOM      2  C   UNL     1       9.265   9.357  52.383  1.00  0.00    -0.047 A 
ATOM      3  C   UNL     1      10.063   8.207  52.383  1.00  0.00     0.016 A 
ATOM      4  C   UNL     1       9.522   6.958  52.734  1.00  0.00     0.038 A 
ATOM      5  C   UNL     1       8.161   6.860  53.094  1.00  0.00     0.076 A 
ATOM      6  C   UNL     1       7.365   8.027  53.119  1.00  0.00     0.127 A 
ATOM      7  C   UNL     1       7.923   9.263  52.768  1.00  0.00     0.050 A 
ATOM      8  C   UNL     1       7.595   5.525  53.421  1.00  0.00     0.201 C 
ATOM      9  O   UNL     1       6.346   5.356  53.387  1.00  0.00    -0.288 OA
ATOM     10  C   UNL     1       8.500   4.369  53.674  1.00  0.00     0.076 A 
ATOM     11  C   UNL     1       9.846   4.464  53.251  1.00  0.00     0.041 A 
ATOM     12  C   UNL     1      10.372   5.747  52.725  1.00  0.00     0.194 C 
ATOM     13  O   UNL     1      11.553   5.809  52.284  1.00  0.00    -0.289 OA
ATOM     14  C   UNL     1      10.690   3.343  53.340  1.00  0.00     0.059 A 
ATOM     15  C   UNL     1      10.214   2.136  53.858  1.00  0.00     0.120 A 
ATOM     16  C   UNL     1       8.903   2.050  54.319  1.00  0.00     0.093 A 
ATOM     17  C   UNL     1       8.050   3.157  54.268  1.00  0.00     0.131 A 
ENDROOT
BRANCH   6  18
ATOM     18  O   UNL     1       6.025   7.966  53.502  1.00  0.00    -0.507 OA
ATOM     19  H   UNL     1       5.279   8.272  52.887  1.00  0.00     0.293 HD
ENDBRANCH   6  18
BRANCH  17  20
ATOM     20  O   UNL     1       6.787   3.017  54.849  1.00  0.00    -0.507 OA
ATOM     21  H   UNL     1       6.623   2.545  55.727  1.00  0.00     0.293 HD
ENDBRANCH  17  20
BRANCH  15  22
ATOM     22  O   UNL     1      11.043   1.019  53.931  1.00  0.00    -0.508 OA
ATOM     23  H   UNL     1      11.208   0.536  54.806  1.00  0.00     0.293 HD
ENDBRANCH  15  22
TORSDOF 3
ENDMDL
MODEL 5
REMARK VINA RESULT:    -6.487      1.441      3.399
REMARK INTER + INTRA:          -7.056
REMARK INTER:                  -7.056
REMARK INTRA:                   0.000
REMARK UNBOUND:                 0.000
REMARK SMILES Cc1cc(O)c2c(c1)C(=O)c1cc(O)cc(O)c1C2=O
REMARK SMILES IDX 1 1 2 2 8 3 7 4 6 5 4 6 3 7 19 8 20 9 18 10 11 11 9 12 10 13
REMARK SMILES IDX 12 14 13 15 15 16 16 17 5 18 17 20 14 22
REMARK H PARENT 5 19 17 21 14 23
REMARK Flexibility Score: inf
ROOT
ATOM      1  C   UNL     1      13.746   7.393  54.145  1.00  0.00     0.044 C 
ATOM      2  C   UNL     1      12.871   6.191  54.350  1.00  0.00    -0.047 A 
ATOM      3  C   UNL     1      11.504   6.256  54.054  1.00  0.00     0.016 A 
ATOM      4  C   UNL     1      10.684   5.124  54.206  1.00  0.00     0.038 A 
ATOM      5  C   UNL     1      11.241   3.909  54.658  1.00  0.00     0.076 A 
ATOM      6  C   UNL     1      12.626   3.842  54.930  1.00  0.00     0.127 A 
ATOM      7  C   UNL     1      13.428   4.979  54.770  1.00  0.00     0.050 A 
ATOM      8  C   UNL     1      10.351   2.734  54.854  1.00  0.00     0.201 C 
ATOM      9  O   UNL     1      10.737   1.780  55.581  1.00  0.00    -0.288 OA
ATOM     10  C   UNL     1       8.972   2.737  54.290  1.00  0.00     0.076 A 
ATOM     11  C   UNL     1       8.409   3.974  53.899  1.00  0.00     0.041 A 
ATOM     12  C   UNL     1       9.238   5.203  53.897  1.00  0.00     0.194 C 
ATOM     13  O   UNL     1       8.715   6.316  53.614  1.00  0.00    -0.289 OA
ATOM     14  C   UNL     1       7.061   4.036  53.501  1.00  0.00     0.059 A 
ATOM     15  C   UNL     1       6.276   2.881  53.473  1.00  0.00     0.120 A 
ATOM     16  C   UNL     1       6.838   1.653  53.813  1.00  0.00     0.093 A 
ATOM     17  C   UNL     1       8.183   1.558  54.186  1.00  0.00     0.131 A 
ENDROOT
BRANCH   6  18
ATOM     18  O   UNL     1      13.211   2.646  55.347  1.00  0.00    -0.507 OA
ATOM     19  H   UNL     1      12.777   2.055  56.049  1.00  0.00     0.293 HD
ENDBRANCH   6  18
BRANCH  17  20
ATOM     20  O   UNL     1       8.695   0.277  54.406  1.00  0.00    -0.507 OA
ATOM     21  H   UNL     1       9.427  -0.137  53.848  1.00  0.00     0.293 HD
ENDBRANCH  17  20
BRANCH  15  22
ATOM     22  O   UNL     1       4.937   2.943  53.096  1.00  0.00    -0.508 OA
ATOM     23  H   UNL     1       4.197   3.055  53.779  1.00  0.00     0.293 HD
ENDBRANCH  15  22
TORSDOF 3
ENDMDL
MODEL 6
REMARK VINA RESULT:    -6.459      7.280      9.860
REMARK INTER + INTRA:          -7.025
REMARK INTER:                  -7.025
REMARK INTRA:                   0.000
REMARK UNBOUND:                 0.000
REMARK SMILES Cc1cc(O)c2c(c1)C(=O)c1cc(O)cc(O)c1C2=O
REMARK SMILES IDX 1 1 2 2 8 3 7 4 6 5 4 6 3 7 19 8 20 9 18 10 11 11 9 12 10 13
REMARK SMILES IDX 12 14 13 15 15 16 16 17 5 18 17 20 14 22
REMARK H PARENT 5 19 17 21 14 23
REMARK Flexibility Score: inf
ROOT
ATOM      1  C   UNL     1       4.068  12.600  49.509  1.00  0.00     0.044 C 
ATOM      2  C   UNL     1       5.030  11.774  48.706  1.00  0.00    -0.047 A 
ATOM      3  C   UNL     1       6.075  11.092  49.342  1.00  0.00     0.016 A 
ATOM      4  C   UNL     1       6.958  10.285  48.604  1.00  0.00     0.038 A 
ATOM      5  C   UNL     1       6.791  10.155  47.209  1.00  0.00     0.076 A 
ATOM      6  C   UNL     1       5.720  10.825  46.575  1.00  0.00     0.127 A 
ATOM      7  C   UNL     1       4.848  11.622  47.328  1.00  0.00     0.050 A 
ATOM      8  C   UNL     1       7.759   9.332  46.438  1.00  0.00     0.201 C 
ATOM      9  O   UNL     1       7.853   9.491  45.192  1.00  0.00    -0.288 OA
ATOM     10  C   UNL     1       8.691   8.412  47.148  1.00  0.00     0.076 A 
ATOM     11  C   UNL     1       8.891   8.596  48.536  1.00  0.00     0.041 A 
ATOM     12  C   UNL     1       8.064   9.573  49.284  1.00  0.00     0.194 C 
ATOM     13  O   UNL     1       8.291   9.785  50.507  1.00  0.00    -0.289 OA
ATOM     14  C   UNL     1       9.870   7.844  49.210  1.00  0.00     0.059 A 
ATOM     15  C   UNL     1      10.638   6.901  48.522  1.00  0.00     0.120 A 
ATOM     16  C   UNL     1      10.413   6.683  47.165  1.00  0.00     0.093 A 
ATOM     17  C   UNL     1       9.428   7.397  46.476  1.00  0.00     0.131 A 
ENDROOT
BRANCH   6  18
ATOM     18  O   UNL     1       5.510  10.690  45.203  1.00  0.00    -0.507 OA
ATOM     19  H   UNL     1       4.984  11.376  44.673  1.00  0.00     0.293 HD
ENDBRANCH   6  18
BRANCH  17  20
ATOM     20  O   UNL     1       9.194   7.041  45.146  1.00  0.00    -0.507 OA
ATOM     21  H   UNL     1       8.318   7.197  44.669  1.00  0.00     0.293 HD
ENDBRANCH  17  20
BRANCH  15  22
ATOM     22  O   UNL     1      11.619   6.167  49.183  1.00  0.00    -0.508 OA
ATOM     23  H   UNL     1      11.415   5.272  49.612  1.00  0.00     0.293 HD
ENDBRANCH  15  22
TORSDOF 3
ENDMDL
MODEL 7
REMARK VINA RESULT:    -6.458     10.475     13.995
REMARK INTER + INTRA:          -7.024
REMARK INTER:                  -7.024
REMARK INTRA:                   0.000
REMARK UNBOUND:                 0.000
REMARK SMILES Cc1cc(O)c2c(c1)C(=O)c1cc(O)cc(O)c1C2=O
REMARK SMILES IDX 1 1 2 2 8 3 7 4 6 5 4 6 3 7 19 8 20 9 18 10 11 11 9 12 10 13
REMARK SMILES IDX 12 14 13 15 15 16 16 17 5 18 17 20 14 22
REMARK H PARENT 5 19 17 21 14 23
REMARK Flexibility Score: inf
ROOT
ATOM      1  C   UNL     1      -3.124   7.235  45.042  1.00  0.00     0.044 C 
ATOM      2  C   UNL     1      -2.205   8.388  45.318  1.00  0.00    -0.047 A 
ATOM      3  C   UNL     1      -1.340   8.352  46.419  1.00  0.00     0.016 A 
ATOM      4  C   UNL     1      -0.448   9.411  46.664  1.00  0.00     0.038 A 
ATOM      5  C   UNL     1      -0.418  10.520  45.793  1.00  0.00     0.076 A 
ATOM      6  C   UNL     1      -1.274  10.540  44.669  1.00  0.00     0.127 A 
ATOM      7  C   UNL     1      -2.155   9.475  44.439  1.00  0.00     0.050 A 
ATOM      8  C   UNL     1       0.501  11.649  46.091  1.00  0.00     0.201 C 
ATOM      9  O   UNL     1       0.293  12.773  45.561  1.00  0.00    -0.288 OA
ATOM     10  C   UNL     1       1.589  11.484  47.096  1.00  0.00     0.076 A 
ATOM     11  C   UNL     1       1.509  10.400  48.000  1.00  0.00     0.041 A 
ATOM     12  C   UNL     1       0.458   9.367  47.834  1.00  0.00     0.194 C 
ATOM     13  O   UNL     1       0.347   8.439  48.682  1.00  0.00    -0.289 OA
ATOM     14  C   UNL     1       2.436  10.295  49.053  1.00  0.00     0.059 A 
ATOM     15  C   UNL     1       3.447  11.247  49.205  1.00  0.00     0.120 A 
ATOM     16  C   UNL     1       3.558  12.291  48.290  1.00  0.00     0.093 A 
ATOM     17  C   UNL     1       2.667  12.404  47.218  1.00  0.00     0.131 A 
ENDROOT
BRANCH   6  18
ATOM     18  O   UNL     1      -1.244  11.608  43.771  1.00  0.00    -0.507 OA
ATOM     19  H   UNL     1      -1.688  11.553  42.861  1.00  0.00     0.293 HD
ENDBRANCH   6  18
BRANCH  17  20
ATOM     20  O   UNL     1       2.914  13.416  46.287  1.00  0.00    -0.507 OA
ATOM     21  H   UNL     1       2.433  13.494  45.402  1.00  0.00     0.293 HD
ENDBRANCH  17  20
BRANCH  15  22
ATOM     22  O   UNL     1       4.355  11.155  50.257  1.00  0.00    -0.508 OA
ATOM     23  H   UNL     1       4.052  10.971  51.206  1.00  0.00     0.293 HD
ENDBRANCH  15  22
TORSDOF 3
ENDMDL
MODEL 8
REMARK VINA RESULT:    -6.448      2.100      5.098
REMARK INTER + INTRA:          -7.013
REMARK INTER:                  -7.013
REMARK INTRA:                   0.000
REMARK UNBOUND:                 0.000
REMARK SMILES Cc1cc(O)c2c(c1)C(=O)c1cc(O)cc(O)c1C2=O
REMARK SMILES IDX 1 1 2 2 8 3 7 4 6 5 4 6 3 7 19 8 20 9 18 10 11 11 9 12 10 13
REMARK SMILES IDX 12 14 13 15 15 16 16 17 5 18 17 20 14 22
REMARK H PARENT 5 19 17 21 14 23
REMARK Flexibility Score: inf
ROOT
ATOM      1  C   UNL     1       8.598   0.280  54.532  1.00  0.00     0.044 C 
ATOM      2  C   UNL     1       8.374   1.732  54.224  1.00  0.00    -0.047 A 
ATOM      3  C   UNL     1       9.454   2.622  54.204  1.00  0.00     0.016 A 
ATOM      4  C   UNL     1       9.260   3.977  53.879  1.00  0.00     0.038 A 
ATOM      5  C   UNL     1       7.967   4.445  53.567  1.00  0.00     0.076 A 
ATOM      6  C   UNL     1       6.884   3.537  53.564  1.00  0.00     0.127 A 
ATOM      7  C   UNL     1       7.097   2.191  53.887  1.00  0.00     0.050 A 
ATOM      8  C   UNL     1       7.773   5.888  53.268  1.00  0.00     0.201 C 
ATOM      9  O   UNL     1       6.618   6.387  53.347  1.00  0.00    -0.288 OA
ATOM     10  C   UNL     1       8.949   6.760  52.991  1.00  0.00     0.076 A 
ATOM     11  C   UNL     1      10.231   6.297  53.366  1.00  0.00     0.041 A 
ATOM     12  C   UNL     1      10.407   4.913  53.866  1.00  0.00     0.194 C 
ATOM     13  O   UNL     1      11.540   4.526  54.265  1.00  0.00    -0.289 OA
ATOM     14  C   UNL     1      11.344   7.150  53.255  1.00  0.00     0.059 A 
ATOM     15  C   UNL     1      11.197   8.448  52.761  1.00  0.00     0.120 A 
ATOM     16  C   UNL     1       9.944   8.893  52.346  1.00  0.00     0.093 A 
ATOM     17  C   UNL     1       8.825   8.057  52.420  1.00  0.00     0.131 A 
ENDROOT
BRANCH   6  18
ATOM     18  O   UNL     1       5.599   3.964  53.227  1.00  0.00    -0.507 OA
ATOM     19  H   UNL     1       4.870   4.066  53.925  1.00  0.00     0.293 HD
ENDBRANCH   6  18
BRANCH  17  20
ATOM     20  O   UNL     1       7.630   8.542  51.884  1.00  0.00    -0.507 OA
ATOM     21  H   UNL     1       7.412   8.532  50.898  1.00  0.00     0.293 HD
ENDBRANCH  17  20
BRANCH  15  22
ATOM     22  O   UNL     1      12.294   9.300  52.665  1.00  0.00    -0.508 OA
ATOM     23  H   UNL     1      13.229   8.946  52.498  1.00  0.00     0.293 HD
ENDBRANCH  15  22
TORSDOF 3
ENDMDL
MODEL 9
REMARK VINA RESULT:    -6.291      3.000      5.005
REMARK INTER + INTRA:          -6.842
REMARK INTER:                  -6.842
REMARK INTRA:                   0.000
REMARK UNBOUND:                 0.000
REMARK SMILES Cc1cc(O)c2c(c1)C(=O)c1cc(O)cc(O)c1C2=O
REMARK SMILES IDX 1 1 2 2 8 3 7 4 6 5 4 6 3 7 19 8 20 9 18 10 11 11 9 12 10 13
REMARK SMILES IDX 12 14 13 15 15 16 16 17 5 18 17 20 14 22
REMARK H PARENT 5 19 17 21 14 23
REMARK Flexibility Score: inf
ROOT
ATOM      1  C   UNL     1       8.894   0.310  56.125  1.00  0.00     0.044 C 
ATOM      2  C   UNL     1       8.908   1.471  55.173  1.00  0.00    -0.047 A 
ATOM      3  C   UNL     1      10.058   1.757  54.428  1.00  0.00     0.016 A 
ATOM      4  C   UNL     1      10.070   2.818  53.506  1.00  0.00     0.038 A 
ATOM      5  C   UNL     1       8.910   3.601  53.323  1.00  0.00     0.076 A 
ATOM      6  C   UNL     1       7.743   3.292  54.058  1.00  0.00     0.127 A 
ATOM      7  C   UNL     1       7.750   2.229  54.970  1.00  0.00     0.050 A 
ATOM      8  C   UNL     1       8.952   4.746  52.375  1.00  0.00     0.201 C 
ATOM      9  O   UNL     1       8.084   5.655  52.463  1.00  0.00    -0.288 OA
ATOM     10  C   UNL     1      10.078   4.875  51.408  1.00  0.00     0.076 A 
ATOM     11  C   UNL     1      11.255   4.127  51.642  1.00  0.00     0.041 A 
ATOM     12  C   UNL     1      11.293   3.118  52.728  1.00  0.00     0.194 C 
ATOM     13  O   UNL     1      12.365   2.502  52.979  1.00  0.00    -0.289 OA
ATOM     14  C   UNL     1      12.388   4.332  50.835  1.00  0.00     0.059 A 
ATOM     15  C   UNL     1      12.357   5.261  49.791  1.00  0.00     0.120 A 
ATOM     16  C   UNL     1      11.186   5.966  49.527  1.00  0.00     0.093 A 
ATOM     17  C   UNL     1      10.036   5.762  50.296  1.00  0.00     0.131 A 
ENDROOT
BRANCH   6  18
ATOM     18  O   UNL     1       6.572   4.028  53.875  1.00  0.00    -0.507 OA
ATOM     19  H   UNL     1       6.479   4.977  54.220  1.00  0.00     0.293 HD
ENDBRANCH   6  18
BRANCH  17  20
ATOM     20  O   UNL     1       8.875   6.429  49.898  1.00  0.00    -0.507 OA
ATOM     21  H   UNL     1       8.252   6.902  50.537  1.00  0.00     0.293 HD
ENDBRANCH  17  20
BRANCH  15  22
ATOM     22  O   UNL     1      13.484   5.478  49.002  1.00  0.00    -0.508 OA
ATOM     23  H   UNL     1      13.655   4.939  48.161  1.00  0.00     0.293 HD
ENDBRANCH  15  22
TORSDOF 3
ENDMDL
