MODEL 1
REMARK VINA RESULT:    -3.282      0.000      0.000
REMARK INTER + INTRA:          -4.233
REMARK INTER:                  -4.050
REMARK INTRA:                  -0.183
REMARK UNBOUND:                -0.183
REMARK SMILES CCCCC=CC(C)=O
REMARK SMILES IDX 4 1 3 2 2 3 1 4 5 5 6 6 7 7 9 8 8 9
REMARK H PARENT
REMARK Flexibility Score: inf
ROOT
ATOM      1  C   UNL     1      -4.779   7.957   6.040  1.00  0.00     0.027 C 
ENDROOT
BRANCH   1   2
ATOM      2  C   UNL     1      -4.240   9.045   6.982  1.00  0.00     0.004 C 
BRANCH   2   3
ATOM      3  C   UNL     1      -2.801   9.460   6.640  1.00  0.00    -0.003 C 
ATOM      4  C   UNL     1      -1.868   9.416   7.850  1.00  0.00     0.004 C 
ENDBRANCH   2   3
ENDBRANCH   1   2
BRANCH   1   5
ATOM      5  C   UNL     1      -4.511   8.304   4.604  1.00  0.00    -0.023 C 
ATOM      6  C   UNL     1      -5.263   7.812   3.613  1.00  0.00     0.042 C 
BRANCH   6   7
ATOM      7  C   UNL     1      -5.008   8.129   2.195  1.00  0.00     0.152 C 
ATOM      8  O   UNL     1      -5.175   7.258   1.299  1.00  0.00    -0.295 OA
ATOM      9  C   UNL     1      -4.546   9.498   1.816  1.00  0.00     0.093 C 
ENDBRANCH   6   7
ENDBRANCH   1   5
TORSDOF 4
ENDMDL
MODEL 2
REMARK VINA RESULT:    -3.224     20.009     20.359
REMARK INTER + INTRA:          -4.161
REMARK INTER:                  -3.901
REMARK INTRA:                  -0.260
REMARK UNBOUND:                -0.183
REMARK SMILES CCCCC=CC(C)=O
REMARK SMILES IDX 4 1 3 2 2 3 1 4 5 5 6 6 7 7 9 8 8 9
REMARK H PARENT
REMARK Flexibility Score: inf
ROOT
ATOM      1  C   UNL     1       6.872  -9.910   0.119  1.00  0.00     0.027 C 
ENDROOT
BRANCH   1   2
ATOM      2  C   UNL     1       7.511  -9.811   1.514  1.00  0.00     0.004 C 
BRANCH   2   3
ATOM      3  C   UNL     1       9.008  -9.472   1.452  1.00  0.00    -0.003 C 
ATOM      4  C   UNL     1       9.387  -8.299   2.356  1.00  0.00     0.004 C 
ENDBRANCH   2   3
ENDBRANCH   1   2
BRANCH   1   5
ATOM      5  C   UNL     1       5.781  -8.892  -0.049  1.00  0.00    -0.023 C 
ATOM      6  C   UNL     1       5.590  -7.916   0.845  1.00  0.00     0.042 C 
BRANCH   6   7
ATOM      7  C   UNL     1       4.515  -6.915   0.705  1.00  0.00     0.152 C 
ATOM      8  O   UNL     1       3.902  -6.481   1.717  1.00  0.00    -0.295 OA
ATOM      9  C   UNL     1       4.147  -6.411  -0.653  1.00  0.00     0.093 C 
ENDBRANCH   6   7
ENDBRANCH   1   5
TORSDOF 4
ENDMDL
MODEL 3
REMARK VINA RESULT:    -3.222      2.256      5.146
REMARK INTER + INTRA:          -4.159
REMARK INTER:                  -3.980
REMARK INTRA:                  -0.179
REMARK UNBOUND:                -0.183
REMARK SMILES CCCCC=CC(C)=O
REMARK SMILES IDX 4 1 3 2 2 3 1 4 5 5 6 6 7 7 9 8 8 9
REMARK H PARENT
REMARK Flexibility Score: inf
ROOT
ATOM      1  C   UNL     1      -5.275   7.962   3.033  1.00  0.00     0.027 C 
ENDROOT
BRANCH   1   2
ATOM      2  C   UNL     1      -4.626   9.156   2.314  1.00  0.00     0.004 C 
BRANCH   2   3
ATOM      3  C   UNL     1      -4.984   9.208   0.821  1.00  0.00    -0.003 C 
ATOM      4  C   UNL     1      -5.685   7.940   0.335  1.00  0.00     0.004 C 
ENDBRANCH   2   3
ENDBRANCH   1   2
BRANCH   1   5
ATOM      5  C   UNL     1      -5.136   8.087   4.523  1.00  0.00    -0.023 C 
ATOM      6  C   UNL     1      -4.131   8.774   5.077  1.00  0.00     0.042 C 
BRANCH   6   7
ATOM      7  C   UNL     1      -3.969   8.897   6.538  1.00  0.00     0.152 C 
ATOM      8  O   UNL     1      -4.937   8.676   7.316  1.00  0.00    -0.295 OA
ATOM      9  C   UNL     1      -2.643   9.289   7.104  1.00  0.00     0.093 C 
ENDBRANCH   6   7
ENDBRANCH   1   5
TORSDOF 4
ENDMDL
MODEL 4
REMARK VINA RESULT:    -3.166     14.229     15.198
REMARK INTER + INTRA:          -4.090
REMARK INTER:                  -3.898
REMARK INTRA:                  -0.193
REMARK UNBOUND:                -0.183
REMARK SMILES CCCCC=CC(C)=O
REMARK SMILES IDX 4 1 3 2 2 3 1 4 5 5 6 6 7 7 9 8 8 9
REMARK H PARENT
REMARK Flexibility Score: inf
ROOT
ATOM      1  C   UNL     1      -4.896  -5.397   8.579  1.00  0.00     0.027 C 
ENDROOT
BRANCH   1   2
ATOM      2  C   UNL     1      -5.505  -4.018   8.279  1.00  0.00     0.004 C 
BRANCH   2   3
ATOM      3  C   UNL     1      -5.939  -3.874   6.812  1.00  0.00    -0.003 C 
ATOM      4  C   UNL     1      -7.370  -4.349   6.569  1.00  0.00     0.004 C 
ENDBRANCH   2   3
ENDBRANCH   1   2
BRANCH   1   5
ATOM      5  C   UNL     1      -4.114  -5.911   7.405  1.00  0.00    -0.023 C 
ATOM      6  C   UNL     1      -3.505  -7.102   7.437  1.00  0.00     0.042 C 
BRANCH   6   7
ATOM      7  C   UNL     1      -2.720  -7.618   6.299  1.00  0.00     0.152 C 
ATOM      8  O   UNL     1      -2.726  -7.023   5.188  1.00  0.00    -0.295 OA
ATOM      9  C   UNL     1      -1.909  -8.862   6.466  1.00  0.00     0.093 C 
ENDBRANCH   6   7
ENDBRANCH   1   5
TORSDOF 4
ENDMDL
MODEL 5
REMARK VINA RESULT:    -3.145     14.251     15.223
REMARK INTER + INTRA:          -4.063
REMARK INTER:                  -3.889
REMARK INTRA:                  -0.175
REMARK UNBOUND:                -0.183
REMARK SMILES CCCCC=CC(C)=O
REMARK SMILES IDX 4 1 3 2 2 3 1 4 5 5 6 6 7 7 9 8 8 9
REMARK H PARENT
REMARK Flexibility Score: inf
ROOT
ATOM      1  C   UNL     1      -3.366  -7.060   8.298  1.00  0.00     0.027 C 
ENDROOT
BRANCH   1   2
ATOM      2  C   UNL     1      -2.472  -7.939   7.409  1.00  0.00     0.004 C 
BRANCH   2   3
ATOM      3  C   UNL     1      -2.751  -7.737   5.912  1.00  0.00    -0.003 C 
ATOM      4  C   UNL     1      -2.224  -8.885   5.051  1.00  0.00     0.004 C 
ENDBRANCH   2   3
ENDBRANCH   1   2
BRANCH   1   5
ATOM      5  C   UNL     1      -4.066  -6.007   7.488  1.00  0.00    -0.023 C 
ATOM      6  C   UNL     1      -4.851  -5.089   8.063  1.00  0.00     0.042 C 
BRANCH   6   7
ATOM      7  C   UNL     1      -5.559  -4.055   7.284  1.00  0.00     0.152 C 
ATOM      8  O   UNL     1      -5.523  -4.060   6.023  1.00  0.00    -0.295 OA
ATOM      9  C   UNL     1      -6.325  -2.988   7.996  1.00  0.00     0.093 C 
ENDBRANCH   6   7
ENDBRANCH   1   5
TORSDOF 4
ENDMDL
MODEL 6
REMARK VINA RESULT:    -3.111     15.639     17.307
REMARK INTER + INTRA:          -4.022
REMARK INTER:                  -3.854
REMARK INTRA:                  -0.168
REMARK UNBOUND:                -0.183
REMARK SMILES CCCCC=CC(C)=O
REMARK SMILES IDX 4 1 3 2 2 3 1 4 5 5 6 6 7 7 9 8 8 9
REMARK H PARENT
REMARK Flexibility Score: inf
ROOT
ATOM      1  C   UNL     1       6.525  -0.291  -6.518  1.00  0.00     0.027 C 
ENDROOT
BRANCH   1   2
ATOM      2  C   UNL     1       5.601  -1.406  -7.032  1.00  0.00     0.004 C 
BRANCH   2   3
ATOM      3  C   UNL     1       5.288  -1.267  -8.530  1.00  0.00    -0.003 C 
ATOM      4  C   UNL     1       4.149  -2.179  -8.984  1.00  0.00     0.004 C 
ENDBRANCH   2   3
ENDBRANCH   1   2
BRANCH   1   5
ATOM      5  C   UNL     1       5.734   0.902  -6.065  1.00  0.00    -0.023 C 
ATOM      6  C   UNL     1       5.712   2.037  -6.773  1.00  0.00     0.042 C 
BRANCH   6   7
ATOM      7  C   UNL     1       4.952   3.225  -6.339  1.00  0.00     0.152 C 
ATOM      8  O   UNL     1       3.807   3.106  -5.824  1.00  0.00    -0.295 OA
ATOM      9  C   UNL     1       5.545   4.585  -6.512  1.00  0.00     0.093 C 
ENDBRANCH   6   7
ENDBRANCH   1   5
TORSDOF 4
ENDMDL
MODEL 7
REMARK VINA RESULT:    -3.094     15.792     17.260
REMARK INTER + INTRA:          -4.001
REMARK INTER:                  -3.765
REMARK INTRA:                  -0.236
REMARK UNBOUND:                -0.183
REMARK SMILES CCCCC=CC(C)=O
REMARK SMILES IDX 4 1 3 2 2 3 1 4 5 5 6 6 7 7 9 8 8 9
REMARK H PARENT
REMARK Flexibility Score: inf
ROOT
ATOM      1  C   UNL     1       7.126   2.586  -7.196  1.00  0.00     0.027 C 
ENDROOT
BRANCH   1   2
ATOM      2  C   UNL     1       5.871   3.355  -7.640  1.00  0.00     0.004 C 
BRANCH   2   3
ATOM      3  C   UNL     1       5.192   4.094  -6.477  1.00  0.00    -0.003 C 
ATOM      4  C   UNL     1       4.123   3.251  -5.782  1.00  0.00     0.004 C 
ENDBRANCH   2   3
ENDBRANCH   1   2
BRANCH   1   5
ATOM      5  C   UNL     1       6.909   1.103  -7.276  1.00  0.00    -0.023 C 
ATOM      6  C   UNL     1       6.336   0.424  -6.276  1.00  0.00     0.042 C 
BRANCH   6   7
ATOM      7  C   UNL     1       6.127  -1.036  -6.330  1.00  0.00     0.152 C 
ATOM      8  O   UNL     1       5.392  -1.550  -7.215  1.00  0.00    -0.295 OA
ATOM      9  C   UNL     1       6.794  -1.915  -5.322  1.00  0.00     0.093 C 
ENDBRANCH   6   7
ENDBRANCH   1   5
TORSDOF 4
ENDMDL
MODEL 8
REMARK VINA RESULT:    -3.047     15.667     17.076
REMARK INTER + INTRA:          -3.943
REMARK INTER:                  -3.683
REMARK INTRA:                  -0.259
REMARK UNBOUND:                -0.183
REMARK SMILES CCCCC=CC(C)=O
REMARK SMILES IDX 4 1 3 2 2 3 1 4 5 5 6 6 7 7 9 8 8 9
REMARK H PARENT
REMARK Flexibility Score: inf
ROOT
ATOM      1  C   UNL     1       7.348   0.530  -7.318  1.00  0.00     0.027 C 
ENDROOT
BRANCH   1   2
ATOM      2  C   UNL     1       7.793  -0.060  -5.970  1.00  0.00     0.004 C 
BRANCH   2   3
ATOM      3  C   UNL     1       7.035  -1.348  -5.612  1.00  0.00    -0.003 C 
ATOM      4  C   UNL     1       5.981  -1.723  -6.653  1.00  0.00     0.004 C 
ENDBRANCH   2   3
ENDBRANCH   1   2
BRANCH   1   5
ATOM      5  C   UNL     1       6.650   1.845  -7.129  1.00  0.00    -0.023 C 
ATOM      6  C   UNL     1       5.500   1.936  -6.451  1.00  0.00     0.042 C 
BRANCH   6   7
ATOM      7  C   UNL     1       4.791   3.217  -6.267  1.00  0.00     0.152 C 
ATOM      8  O   UNL     1       3.673   3.257  -5.686  1.00  0.00    -0.295 OA
ATOM      9  C   UNL     1       5.405   4.481  -6.775  1.00  0.00     0.093 C 
ENDBRANCH   6   7
ENDBRANCH   1   5
TORSDOF 4
ENDMDL
MODEL 9
REMARK VINA RESULT:    -3.038     12.375     14.428
REMARK INTER + INTRA:          -3.931
REMARK INTER:                  -3.781
REMARK INTRA:                  -0.151
REMARK UNBOUND:                -0.183
REMARK SMILES CCCCC=CC(C)=O
REMARK SMILES IDX 4 1 3 2 2 3 1 4 5 5 6 6 7 7 9 8 8 9
REMARK H PARENT
REMARK Flexibility Score: inf
ROOT
ATOM      1  C   UNL     1      -9.365   1.475  -4.770  1.00  0.00     0.027 C 
ENDROOT
BRANCH   1   2
ATOM      2  C   UNL     1     -10.122   2.009  -5.996  1.00  0.00     0.004 C 
BRANCH   2   3
ATOM      3  C   UNL     1     -10.099   3.543  -6.079  1.00  0.00    -0.003 C 
ATOM      4  C   UNL     1      -9.912   4.207  -4.715  1.00  0.00     0.004 C 
ENDBRANCH   2   3
ENDBRANCH   1   2
BRANCH   1   5
ATOM      5  C   UNL     1      -9.593   0.001  -4.593  1.00  0.00    -0.023 C 
ATOM      6  C   UNL     1      -9.088  -0.893  -5.450  1.00  0.00     0.042 C 
BRANCH   6   7
ATOM      7  C   UNL     1      -9.313  -2.344  -5.302  1.00  0.00     0.152 C 
ATOM      8  O   UNL     1      -9.272  -2.890  -4.166  1.00  0.00    -0.295 OA
ATOM      9  C   UNL     1      -9.591  -3.176  -6.512  1.00  0.00     0.093 C 
ENDBRANCH   6   7
ENDBRANCH   1   5
TORSDOF 4
ENDMDL
