MODEL 1
REMARK VINA RESULT:    -0.981      0.000      0.000
REMARK INTER + INTRA:          -0.948
REMARK INTER:                  -1.411
REMARK INTRA:                   0.463
REMARK UNBOUND:                 0.463
REMARK SMILES O=c1c(O[C@H]2O[C@@H](CO)[C@@H](O)[C@@H](O)[C@@H]2O)c(-c2ccc(O)cc2)oc2cc(O)cc(O)c12
REMARK SMILES IDX 4 1 3 2 16 3 24 4 2 5 25 6 1 7 32 8 26 9 30 10 27 11 29 12
REMARK SMILES IDX 17 13 18 14 19 15 20 16 23 17 22 18 21 19 31 21 28 23 5 25
REMARK SMILES IDX 14 26 6 27 12 28 7 29 10 30 15 31 13 33 8 35 9 36 11 38
REMARK H PARENT 21 20 31 22 28 24 15 32 13 34 9 37 11 39
REMARK Flexibility Score: inf
ROOT
ATOM      1  O   UNL     1      -6.261 -16.981  -5.199  1.00  0.00    -0.454 OA
ENDROOT
BRANCH   1   2
ATOM      2  C   UNL     1      -6.219 -17.612  -6.458  1.00  0.00     0.214 A 
ATOM      3  C   UNL     1      -5.182 -18.526  -6.718  1.00  0.00     0.180 A 
ATOM      4  O   UNL     1      -5.090 -19.111  -7.905  1.00  0.00    -0.452 OA
ATOM      5  C   UNL     1      -7.162 -17.360  -7.478  1.00  0.00     0.239 A 
ATOM      6  C   UNL     1      -5.938 -18.886  -8.899  1.00  0.00     0.146 A 
ATOM      7  O   UNL     1      -8.162 -16.639  -7.231  1.00  0.00    -0.285 OA
ATOM      8  C   UNL     1      -7.004 -17.964  -8.750  1.00  0.00     0.111 A 
ATOM      9  C   UNL     1      -5.764 -19.586 -10.094  1.00  0.00     0.094 A 
ATOM     10  C   UNL     1      -7.861 -17.731  -9.868  1.00  0.00     0.134 A 
ATOM     11  C   UNL     1      -6.644 -19.398 -11.158  1.00  0.00     0.123 A 
ATOM     12  C   UNL     1      -7.687 -18.477 -11.039  1.00  0.00     0.093 A 
BRANCH   3  13
ATOM     13  C   UNL     1      -4.150 -18.840  -5.709  1.00  0.00     0.021 A 
ATOM     14  C   UNL     1      -4.385 -19.786  -4.698  1.00  0.00     0.016 A 
ATOM     15  C   UNL     1      -3.393 -20.074  -3.756  1.00  0.00     0.047 A 
ATOM     16  C   UNL     1      -2.151 -19.435  -3.823  1.00  0.00     0.115 A 
ATOM     17  C   UNL     1      -2.892 -18.218  -5.786  1.00  0.00     0.016 A 
ATOM     18  C   UNL     1      -1.902 -18.508  -4.843  1.00  0.00     0.047 A 
BRANCH  16  19
ATOM     19  O   UNL     1      -1.173 -19.730  -2.876  1.00  0.00    -0.508 OA
ATOM     20  H   UNL     1      -0.349 -19.150  -2.768  1.00  0.00     0.293 HD
ENDBRANCH  16  19
ENDBRANCH   3  13
BRANCH  10  21
ATOM     21  O   UNL     1      -8.869 -16.762  -9.890  1.00  0.00    -0.507 OA
ATOM     22  H   UNL     1      -9.847 -16.947  -9.723  1.00  0.00     0.293 HD
ENDBRANCH  10  21
BRANCH  11  23
ATOM     23  O   UNL     1      -6.466 -20.124 -12.334  1.00  0.00    -0.508 OA
ATOM     24  H   UNL     1      -7.253 -20.507 -12.845  1.00  0.00     0.293 HD
ENDBRANCH  11  23
ENDBRANCH   1   2
BRANCH   1  25
ATOM     25  C   UNL     1      -6.961 -17.456  -4.045  1.00  0.00     0.339 C 
ATOM     26  C   UNL     1      -8.478 -17.505  -4.318  1.00  0.00     0.214 C 
ATOM     27  O   UNL     1      -6.638 -16.709  -2.878  1.00  0.00    -0.332 OA
ATOM     28  C   UNL     1      -9.069 -16.094  -4.397  1.00  0.00     0.180 C 
ATOM     29  C   UNL     1      -7.131 -15.374  -2.876  1.00  0.00     0.179 C 
ATOM     30  C   UNL     1      -8.656 -15.285  -3.156  1.00  0.00     0.177 C 
BRANCH  26  31
ATOM     31  O   UNL     1      -9.125 -18.221  -3.296  1.00  0.00    -0.384 OA
ATOM     32  H   UNL     1      -8.713 -19.124  -3.272  1.00  0.00     0.211 HD
ENDBRANCH  26  31
BRANCH  28  33
ATOM     33  O   UNL     1      -8.643 -15.466  -5.579  1.00  0.00    -0.387 OA
ATOM     34  H   UNL     1      -9.184 -14.640  -5.682  1.00  0.00     0.211 HD
ENDBRANCH  28  33
BRANCH  29  35
ATOM     35  C   UNL     1      -6.266 -14.418  -3.722  1.00  0.00     0.191 C 
BRANCH  35  36
ATOM     36  O   UNL     1      -4.924 -14.812  -3.658  1.00  0.00    -0.394 OA
ATOM     37  H   UNL     1      -4.911 -15.677  -3.173  1.00  0.00     0.210 HD
ENDBRANCH  35  36
ENDBRANCH  29  35
BRANCH  30  38
ATOM     38  O   UNL     1      -9.073 -13.951  -3.292  1.00  0.00    -0.387 OA
ATOM     39  H   UNL     1      -8.335 -13.464  -3.744  1.00  0.00     0.211 HD
ENDBRANCH  30  38
ENDBRANCH   1  25
TORSDOF 11
ENDMDL
MODEL 2
REMARK VINA RESULT:     0.879      1.643      4.901
REMARK INTER + INTRA:           1.728
REMARK INTER:                  -0.016
REMARK INTRA:                   1.743
REMARK UNBOUND:                 0.463
REMARK SMILES O=c1c(O[C@H]2O[C@@H](CO)[C@@H](O)[C@@H](O)[C@@H]2O)c(-c2ccc(O)cc2)oc2cc(O)cc(O)c12
REMARK SMILES IDX 4 1 3 2 16 3 24 4 2 5 25 6 1 7 32 8 26 9 30 10 27 11 29 12
REMARK SMILES IDX 17 13 18 14 19 15 20 16 23 17 22 18 21 19 31 21 28 23 5 25
REMARK SMILES IDX 14 26 6 27 12 28 7 29 10 30 15 31 13 33 8 35 9 36 11 38
REMARK H PARENT 21 20 31 22 28 24 15 32 13 34 9 37 11 39
REMARK Flexibility Score: inf
ROOT
ATOM      1  O   UNL     1      -4.801 -17.370  -6.202  1.00  0.00    -0.454 OA
ENDROOT
BRANCH   1   2
ATOM      2  C   UNL     1      -5.616 -17.679  -7.309  1.00  0.00     0.214 A 
ATOM      3  C   UNL     1      -6.965 -17.279  -7.284  1.00  0.00     0.180 A 
ATOM      4  O   UNL     1      -7.771 -17.584  -8.292  1.00  0.00    -0.452 OA
ATOM      5  C   UNL     1      -5.148 -18.385  -8.438  1.00  0.00     0.239 A 
ATOM      6  C   UNL     1      -7.380 -18.265  -9.361  1.00  0.00     0.146 A 
ATOM      7  O   UNL     1      -3.923 -18.650  -8.537  1.00  0.00    -0.285 OA
ATOM      8  C   UNL     1      -6.048 -18.738  -9.474  1.00  0.00     0.111 A 
ATOM      9  C   UNL     1      -8.307 -18.499 -10.378  1.00  0.00     0.094 A 
ATOM     10  C   UNL     1      -5.695 -19.502 -10.627  1.00  0.00     0.134 A 
ATOM     11  C   UNL     1      -7.935 -19.191 -11.528  1.00  0.00     0.123 A 
ATOM     12  C   UNL     1      -6.634 -19.685 -11.649  1.00  0.00     0.093 A 
BRANCH   3  13
ATOM     13  C   UNL     1      -7.538 -16.544  -6.137  1.00  0.00     0.021 A 
ATOM     14  C   UNL     1      -8.123 -17.225  -5.056  1.00  0.00     0.016 A 
ATOM     15  C   UNL     1      -8.654 -16.512  -3.978  1.00  0.00     0.047 A 
ATOM     16  C   UNL     1      -8.590 -15.115  -3.957  1.00  0.00     0.115 A 
ATOM     17  C   UNL     1      -7.455 -15.143  -6.100  1.00  0.00     0.016 A 
ATOM     18  C   UNL     1      -7.986 -14.432  -5.019  1.00  0.00     0.047 A 
BRANCH  16  19
ATOM     19  O   UNL     1      -9.125 -14.418  -2.875  1.00  0.00    -0.508 OA
ATOM     20  H   UNL     1      -8.742 -14.516  -1.942  1.00  0.00     0.293 HD
ENDBRANCH  16  19
ENDBRANCH   3  13
BRANCH  10  21
ATOM     21  O   UNL     1      -4.455 -20.125 -10.800  1.00  0.00    -0.507 OA
ATOM     22  H   UNL     1      -4.098 -20.458 -11.683  1.00  0.00     0.293 HD
ENDBRANCH  10  21
BRANCH  11  23
ATOM     23  O   UNL     1      -8.869 -19.393 -12.542  1.00  0.00    -0.508 OA
ATOM     24  H   UNL     1      -8.818 -18.887 -13.418  1.00  0.00     0.293 HD
ENDBRANCH  11  23
ENDBRANCH   1   2
BRANCH   1  25
ATOM     25  C   UNL     1      -5.257 -17.106  -4.872  1.00  0.00     0.339 C 
ATOM     26  C   UNL     1      -4.192 -16.315  -4.086  1.00  0.00     0.214 C 
ATOM     27  O   UNL     1      -5.664 -18.292  -4.201  1.00  0.00    -0.332 OA
ATOM     28  C   UNL     1      -2.982 -17.196  -3.758  1.00  0.00     0.180 C 
ATOM     29  C   UNL     1      -4.603 -19.182  -3.876  1.00  0.00     0.179 C 
ATOM     30  C   UNL     1      -3.451 -18.498  -3.090  1.00  0.00     0.177 C 
BRANCH  26  31
ATOM     31  O   UNL     1      -4.746 -15.826  -2.890  1.00  0.00    -0.384 OA
ATOM     32  H   UNL     1      -3.993 -15.474  -2.347  1.00  0.00     0.211 HD
ENDBRANCH  26  31
BRANCH  28  33
ATOM     33  O   UNL     1      -2.254 -17.458  -4.930  1.00  0.00    -0.387 OA
ATOM     34  H   UNL     1      -2.440 -18.399  -5.186  1.00  0.00     0.211 HD
ENDBRANCH  28  33
BRANCH  29  35
ATOM     35  C   UNL     1      -4.143 -20.027  -5.081  1.00  0.00     0.191 C 
BRANCH  35  36
ATOM     36  O   UNL     1      -2.759 -19.898  -5.251  1.00  0.00    -0.394 OA
ATOM     37  H   UNL     1      -2.365 -20.768  -4.980  1.00  0.00     0.210 HD
ENDBRANCH  35  36
ENDBRANCH  29  35
BRANCH  30  38
ATOM     38  O   UNL     1      -2.362 -19.369  -2.919  1.00  0.00    -0.387 OA
ATOM     39  H   UNL     1      -1.736 -19.196  -3.670  1.00  0.00     0.211 HD
ENDBRANCH  30  38
ENDBRANCH   1  25
TORSDOF 11
ENDMDL
