MODEL 1
REMARK VINA RESULT:    19.487      0.000      0.000
REMARK INTER + INTRA:          24.042
REMARK INTER:                  24.614
REMARK INTRA:                  -0.572
REMARK UNBOUND:                -0.572
REMARK SMILES Oc1cc(O)cc(CCc2ccccc2O)c1
REMARK SMILES IDX 9 1 10 2 12 3 13 4 11 5 14 6 15 7 16 8 8 10 7 11 6 12 17 13
REMARK SMILES IDX 4 14 2 15 3 16 5 17 1 19
REMARK H PARENT 16 9 5 18 1 20
REMARK Flexibility Score: inf
ROOT
ATOM      1  C   UNL     1       6.952  46.115  23.964  1.00  0.00     0.044 C 
ENDROOT
BRANCH   1   2
ATOM      2  C   UNL     1       6.538  47.016  25.101  1.00  0.00    -0.006 A 
ATOM      3  C   UNL     1       6.364  47.421  27.492  1.00  0.00     0.001 A 
ATOM      4  C   UNL     1       5.717  48.634  27.244  1.00  0.00     0.004 A 
ATOM      5  C   UNL     1       6.769  46.613  26.427  1.00  0.00     0.007 A 
ATOM      6  C   UNL     1       5.469  49.038  25.931  1.00  0.00     0.046 A 
ATOM      7  C   UNL     1       5.871  48.233  24.854  1.00  0.00     0.118 A 
BRANCH   7   8
ATOM      8  O   UNL     1       5.607  48.637  23.546  1.00  0.00    -0.508 OA
ATOM      9  H   UNL     1       5.776  49.588  23.238  1.00  0.00     0.293 HD
ENDBRANCH   7   8
ENDBRANCH   1   2
BRANCH   1  10
ATOM     10  C   UNL     1       5.789  45.215  23.538  1.00  0.00     0.040 C 
BRANCH  10  11
ATOM     11  C   UNL     1       6.045  43.790  23.950  1.00  0.00    -0.040 A 
ATOM     12  C   UNL     1       7.328  43.235  23.816  1.00  0.00     0.050 A 
ATOM     13  C   UNL     1       4.992  42.988  24.420  1.00  0.00     0.050 A 
ATOM     14  C   UNL     1       7.561  41.898  24.169  1.00  0.00     0.119 A 
ATOM     15  C   UNL     1       5.222  41.655  24.773  1.00  0.00     0.119 A 
ATOM     16  C   UNL     1       6.508  41.112  24.649  1.00  0.00     0.092 A 
BRANCH  14  17
ATOM     17  O   UNL     1       8.832  41.342  24.044  1.00  0.00    -0.508 OA
ATOM     18  H   UNL     1       9.667  41.878  24.251  1.00  0.00     0.293 HD
ENDBRANCH  14  17
BRANCH  15  19
ATOM     19  O   UNL     1       4.166  40.877  25.243  1.00  0.00    -0.508 OA
ATOM     20  H   UNL     1       3.971  39.960  24.857  1.00  0.00     0.293 HD
ENDBRANCH  15  19
ENDBRANCH  10  11
ENDBRANCH   1  10
TORSDOF 6
ENDMDL
MODEL 2
REMARK VINA RESULT:    19.925      0.151      2.039
REMARK INTER + INTRA:          24.595
REMARK INTER:                  25.144
REMARK INTRA:                  -0.549
REMARK UNBOUND:                -0.572
REMARK SMILES Oc1cc(O)cc(CCc2ccccc2O)c1
REMARK SMILES IDX 9 1 10 2 12 3 13 4 11 5 14 6 15 7 16 8 8 10 7 11 6 12 17 13
REMARK SMILES IDX 4 14 2 15 3 16 5 17 1 19
REMARK H PARENT 16 9 5 18 1 20
REMARK Flexibility Score: inf
ROOT
ATOM      1  C   UNL     1       7.000  46.108  24.000  1.00  0.00     0.044 C 
ENDROOT
BRANCH   1   2
ATOM      2  C   UNL     1       6.625  46.974  25.177  1.00  0.00    -0.006 A 
ATOM      3  C   UNL     1       6.601  47.340  27.580  1.00  0.00     0.001 A 
ATOM      4  C   UNL     1       5.883  48.524  27.398  1.00  0.00     0.004 A 
ATOM      5  C   UNL     1       6.967  46.565  26.478  1.00  0.00     0.007 A 
ATOM      6  C   UNL     1       5.525  48.933  26.112  1.00  0.00     0.046 A 
ATOM      7  C   UNL     1       5.887  48.161  24.997  1.00  0.00     0.118 A 
BRANCH   7   8
ATOM      8  O   UNL     1       5.514  48.569  23.717  1.00  0.00    -0.508 OA
ATOM      9  H   UNL     1       6.141  48.481  22.926  1.00  0.00     0.293 HD
ENDBRANCH   7   8
ENDBRANCH   1   2
BRANCH   1  10
ATOM     10  C   UNL     1       5.811  45.248  23.564  1.00  0.00     0.040 C 
BRANCH  10  11
ATOM     11  C   UNL     1       6.040  43.806  23.932  1.00  0.00    -0.040 A 
ATOM     12  C   UNL     1       4.967  43.009  24.366  1.00  0.00     0.050 A 
ATOM     13  C   UNL     1       7.334  43.262  23.898  1.00  0.00     0.050 A 
ATOM     14  C   UNL     1       5.184  41.674  24.739  1.00  0.00     0.119 A 
ATOM     15  C   UNL     1       7.553  41.932  24.270  1.00  0.00     0.119 A 
ATOM     16  C   UNL     1       6.476  41.139  24.688  1.00  0.00     0.092 A 
BRANCH  14  17
ATOM     17  O   UNL     1       4.126  40.876  25.165  1.00  0.00    -0.508 OA
ATOM     18  H   UNL     1       3.174  41.054  24.865  1.00  0.00     0.293 HD
ENDBRANCH  14  17
BRANCH  15  19
ATOM     19  O   UNL     1       8.843  41.409  24.223  1.00  0.00    -0.508 OA
ATOM     20  H   UNL     1       9.506  41.698  23.513  1.00  0.00     0.293 HD
ENDBRANCH  15  19
ENDBRANCH  10  11
ENDBRANCH   1  10
TORSDOF 6
ENDMDL
MODEL 3
REMARK VINA RESULT:    19.990      3.629      5.045
REMARK INTER + INTRA:          24.676
REMARK INTER:                  24.506
REMARK INTRA:                   0.171
REMARK UNBOUND:                -0.572
REMARK SMILES Oc1cc(O)cc(CCc2ccccc2O)c1
REMARK SMILES IDX 9 1 10 2 12 3 13 4 11 5 14 6 15 7 16 8 8 10 7 11 6 12 17 13
REMARK SMILES IDX 4 14 2 15 3 16 5 17 1 19
REMARK H PARENT 16 9 5 18 1 20
REMARK Flexibility Score: inf
ROOT
ATOM      1  C   UNL     1       7.117  42.633  25.926  1.00  0.00     0.044 C 
ENDROOT
BRANCH   1   2
ATOM      2  C   UNL     1       5.944  42.478  24.990  1.00  0.00    -0.006 A 
ATOM      3  C   UNL     1       4.025  41.189  24.238  1.00  0.00     0.001 A 
ATOM      4  C   UNL     1       3.793  42.118  23.221  1.00  0.00     0.004 A 
ATOM      5  C   UNL     1       5.097  41.363  25.116  1.00  0.00     0.007 A 
ATOM      6  C   UNL     1       4.637  43.221  23.077  1.00  0.00     0.046 A 
ATOM      7  C   UNL     1       5.718  43.405  23.953  1.00  0.00     0.118 A 
BRANCH   7   8
ATOM      8  O   UNL     1       6.565  44.502  23.794  1.00  0.00    -0.508 OA
ATOM      9  H   UNL     1       6.230  45.453  23.904  1.00  0.00     0.293 HD
ENDBRANCH   7   8
ENDBRANCH   1   2
BRANCH   1  10
ATOM     10  C   UNL     1       7.939  41.342  25.978  1.00  0.00     0.040 C 
BRANCH  10  11
ATOM     11  C   UNL     1       8.708  41.153  24.698  1.00  0.00    -0.040 A 
ATOM     12  C   UNL     1      10.111  41.097  24.717  1.00  0.00     0.050 A 
ATOM     13  C   UNL     1       8.031  41.088  23.468  1.00  0.00     0.050 A 
ATOM     14  C   UNL     1      10.830  40.953  23.521  1.00  0.00     0.119 A 
ATOM     15  C   UNL     1       8.746  40.944  22.275  1.00  0.00     0.119 A 
ATOM     16  C   UNL     1      10.145  40.875  22.304  1.00  0.00     0.092 A 
BRANCH  14  17
ATOM     17  O   UNL     1      12.221  40.891  23.533  1.00  0.00    -0.508 OA
ATOM     18  H   UNL     1      12.774  41.258  22.766  1.00  0.00     0.293 HD
ENDBRANCH  14  17
BRANCH  15  19
ATOM     19  O   UNL     1       8.057  40.875  21.066  1.00  0.00    -0.508 OA
ATOM     20  H   UNL     1       8.495  40.514  20.227  1.00  0.00     0.293 HD
ENDBRANCH  15  19
ENDBRANCH  10  11
ENDBRANCH   1  10
TORSDOF 6
ENDMDL
MODEL 4
REMARK VINA RESULT:    21.942      3.175      6.354
REMARK INTER + INTRA:          27.142
REMARK INTER:                  26.123
REMARK INTRA:                   1.019
REMARK UNBOUND:                -0.572
REMARK SMILES Oc1cc(O)cc(CCc2ccccc2O)c1
REMARK SMILES IDX 9 1 10 2 12 3 13 4 11 5 14 6 15 7 16 8 8 10 7 11 6 12 17 13
REMARK SMILES IDX 4 14 2 15 3 16 5 17 1 19
REMARK H PARENT 16 9 5 18 1 20
REMARK Flexibility Score: inf
ROOT
ATOM      1  C   UNL     1       8.088  41.478  25.978  1.00  0.00     0.044 C 
ENDROOT
BRANCH   1   2
ATOM      2  C   UNL     1       8.916  41.293  24.732  1.00  0.00    -0.006 A 
ATOM      3  C   UNL     1       9.030  40.960  22.326  1.00  0.00     0.001 A 
ATOM      4  C   UNL     1      10.422  40.876  22.398  1.00  0.00     0.004 A 
ATOM      5  C   UNL     1       8.278  41.163  23.486  1.00  0.00     0.007 A 
ATOM      6  C   UNL     1      11.066  40.988  23.632  1.00  0.00     0.046 A 
ATOM      7  C   UNL     1      10.320  41.192  24.804  1.00  0.00     0.118 A 
BRANCH   7   8
ATOM      8  O   UNL     1      10.969  41.289  26.034  1.00  0.00    -0.508 OA
ATOM      9  H   UNL     1      10.652  40.771  26.846  1.00  0.00     0.293 HD
ENDBRANCH   7   8
ENDBRANCH   1   2
BRANCH   1  10
ATOM     10  C   UNL     1       6.637  41.053  25.730  1.00  0.00     0.040 C 
BRANCH  10  11
ATOM     11  C   UNL     1       5.950  42.030  24.815  1.00  0.00    -0.040 A 
ATOM     12  C   UNL     1       4.755  41.673  24.169  1.00  0.00     0.050 A 
ATOM     13  C   UNL     1       6.526  43.285  24.556  1.00  0.00     0.050 A 
ATOM     14  C   UNL     1       4.130  42.571  23.291  1.00  0.00     0.119 A 
ATOM     15  C   UNL     1       5.904  44.182  23.681  1.00  0.00     0.119 A 
ATOM     16  C   UNL     1       4.705  43.823  23.052  1.00  0.00     0.092 A 
BRANCH  14  17
ATOM     17  O   UNL     1       2.942  42.227  22.651  1.00  0.00    -0.508 OA
ATOM     18  H   UNL     1       2.763  42.489  21.688  1.00  0.00     0.293 HD
ENDBRANCH  14  17
BRANCH  15  19
ATOM     19  O   UNL     1       6.488  45.424  23.442  1.00  0.00    -0.508 OA
ATOM     20  H   UNL     1       7.130  45.843  24.104  1.00  0.00     0.293 HD
ENDBRANCH  15  19
ENDBRANCH  10  11
ENDBRANCH   1  10
TORSDOF 6
ENDMDL
MODEL 5
REMARK VINA RESULT:    21.944      3.208      6.173
REMARK INTER + INTRA:          27.145
REMARK INTER:                  26.087
REMARK INTRA:                   1.058
REMARK UNBOUND:                -0.572
REMARK SMILES Oc1cc(O)cc(CCc2ccccc2O)c1
REMARK SMILES IDX 9 1 10 2 12 3 13 4 11 5 14 6 15 7 16 8 8 10 7 11 6 12 17 13
REMARK SMILES IDX 4 14 2 15 3 16 5 17 1 19
REMARK H PARENT 16 9 5 18 1 20
REMARK Flexibility Score: inf
ROOT
ATOM      1  C   UNL     1       8.136  41.319  25.836  1.00  0.00     0.044 C 
ENDROOT
BRANCH   1   2
ATOM      2  C   UNL     1       8.973  41.189  24.588  1.00  0.00    -0.006 A 
ATOM      3  C   UNL     1       9.104  40.939  22.173  1.00  0.00     0.001 A 
ATOM      4  C   UNL     1      10.497  40.875  22.250  1.00  0.00     0.004 A 
ATOM      5  C   UNL     1       8.344  41.090  23.335  1.00  0.00     0.007 A 
ATOM      6  C   UNL     1      11.133  40.957  23.490  1.00  0.00     0.046 A 
ATOM      7  C   UNL     1      10.379  41.108  24.664  1.00  0.00     0.118 A 
BRANCH   7   8
ATOM      8  O   UNL     1      11.021  41.175  25.900  1.00  0.00    -0.508 OA
ATOM      9  H   UNL     1      10.543  40.937  26.761  1.00  0.00     0.293 HD
ENDBRANCH   7   8
ENDBRANCH   1   2
BRANCH   1  10
ATOM     10  C   UNL     1       6.694  40.879  25.565  1.00  0.00     0.040 C 
BRANCH  10  11
ATOM     11  C   UNL     1       5.980  41.899  24.720  1.00  0.00    -0.040 A 
ATOM     12  C   UNL     1       6.587  43.135  24.440  1.00  0.00     0.050 A 
ATOM     13  C   UNL     1       4.680  41.647  24.252  1.00  0.00     0.050 A 
ATOM     14  C   UNL     1       5.910  44.099  23.679  1.00  0.00     0.119 A 
ATOM     15  C   UNL     1       4.003  42.607  23.493  1.00  0.00     0.119 A 
ATOM     16  C   UNL     1       4.621  43.831  23.206  1.00  0.00     0.092 A 
BRANCH  14  17
ATOM     17  O   UNL     1       6.507  45.324  23.392  1.00  0.00    -0.508 OA
ATOM     18  H   UNL     1       7.512  45.413  23.296  1.00  0.00     0.293 HD
ENDBRANCH  14  17
BRANCH  15  19
ATOM     19  O   UNL     1       2.717  42.336  23.032  1.00  0.00    -0.508 OA
ATOM     20  H   UNL     1       2.554  41.694  22.265  1.00  0.00     0.293 HD
ENDBRANCH  15  19
ENDBRANCH  10  11
ENDBRANCH   1  10
TORSDOF 6
ENDMDL
