MODEL 1
REMARK VINA RESULT:    -5.411      0.000      0.000
REMARK INTER + INTRA:          -6.893
REMARK INTER:                  -6.519
REMARK INTRA:                  -0.374
REMARK UNBOUND:                -0.374
REMARK SMILES Oc1cc(O)c2c(c1)O[C@@H](c1ccc(O)c(O)c1)[C@H](O)C2
REMARK SMILES IDX 21 1 19 2 10 3 9 4 7 5 8 6 2 7 3 8 4 9 6 10 20 11 11 13
REMARK SMILES IDX 18 14 12 15 16 16 13 17 14 18 17 19 15 21 5 23 1 25
REMARK H PARENT 20 12 17 20 15 22 5 24 1 26
REMARK Flexibility Score: inf
ROOT
ATOM      1  C   UNL     1      -1.772   6.304   6.001  1.00  0.00     0.079 C 
ATOM      2  C   UNL     1      -2.533   4.974   5.844  1.00  0.00     0.164 C 
ATOM      3  C   UNL     1      -3.905   5.231   5.196  1.00  0.00     0.232 C 
ATOM      4  O   UNL     1      -3.733   5.895   3.944  1.00  0.00    -0.482 OA
ATOM      5  C   UNL     1      -2.768   6.889   3.753  1.00  0.00     0.131 A 
ATOM      6  C   UNL     1      -2.781   7.627   2.567  1.00  0.00     0.093 A 
ATOM      7  C   UNL     1      -1.839   8.640   2.355  1.00  0.00     0.122 A 
ATOM      8  C   UNL     1      -0.887   8.919   3.339  1.00  0.00     0.092 A 
ATOM      9  C   UNL     1      -0.859   8.189   4.533  1.00  0.00     0.126 A 
ATOM     10  C   UNL     1      -1.783   7.134   4.733  1.00  0.00     0.039 A 
ENDROOT
BRANCH   2  11
ATOM     11  O   UNL     1      -2.708   4.374   7.101  1.00  0.00    -0.389 OA
ATOM     12  H   UNL     1      -2.027   4.772   7.704  1.00  0.00     0.211 HD
ENDBRANCH   2  11
BRANCH   3  13
ATOM     13  C   UNL     1      -4.660   3.940   4.986  1.00  0.00    -0.001 A 
ATOM     14  C   UNL     1      -4.185   2.983   4.073  1.00  0.00     0.057 A 
ATOM     15  C   UNL     1      -5.868   3.700   5.661  1.00  0.00     0.012 A 
ATOM     16  C   UNL     1      -4.893   1.796   3.852  1.00  0.00     0.157 A 
ATOM     17  C   UNL     1      -6.577   2.517   5.444  1.00  0.00     0.050 A 
ATOM     18  C   UNL     1      -6.093   1.559   4.542  1.00  0.00     0.157 A 
BRANCH  16  19
ATOM     19  O   UNL     1      -4.389   0.866   2.943  1.00  0.00    -0.504 OA
ATOM     20  H   UNL     1      -4.886   0.013   2.714  1.00  0.00     0.293 HD
ENDBRANCH  16  19
BRANCH  18  21
ATOM     21  O   UNL     1      -6.803   0.379   4.327  1.00  0.00    -0.504 OA
ATOM     22  H   UNL     1      -7.694   0.376   3.843  1.00  0.00     0.293 HD
ENDBRANCH  18  21
ENDBRANCH   3  13
BRANCH   9  23
ATOM     23  O   UNL     1       0.086   8.544   5.498  1.00  0.00    -0.507 OA
ATOM     24  H   UNL     1       0.740   9.307   5.381  1.00  0.00     0.293 HD
ENDBRANCH   9  23
BRANCH   7  25
ATOM     25  O   UNL     1      -1.845   9.380   1.175  1.00  0.00    -0.508 OA
ATOM     26  H   UNL     1      -0.986   9.713   0.754  1.00  0.00     0.293 HD
ENDBRANCH   7  25
TORSDOF 6
ENDMDL
MODEL 2
REMARK VINA RESULT:    -5.056     10.335     12.783
REMARK INTER + INTRA:          -6.465
REMARK INTER:                  -6.132
REMARK INTRA:                  -0.332
REMARK UNBOUND:                -0.374
REMARK SMILES Oc1cc(O)c2c(c1)O[C@@H](c1ccc(O)c(O)c1)[C@H](O)C2
REMARK SMILES IDX 21 1 19 2 10 3 9 4 7 5 8 6 2 7 3 8 4 9 6 10 20 11 11 13
REMARK SMILES IDX 18 14 12 15 16 16 13 17 14 18 17 19 15 21 5 23 1 25
REMARK H PARENT 20 12 17 20 15 22 5 24 1 26
REMARK Flexibility Score: inf
ROOT
ATOM      1  C   UNL     1      -1.611   3.071  -7.683  1.00  0.00     0.079 C 
ATOM      2  C   UNL     1      -0.148   2.928  -7.223  1.00  0.00     0.164 C 
ATOM      3  C   UNL     1       0.508   4.316  -7.129  1.00  0.00     0.232 C 
ATOM      4  O   UNL     1      -0.246   5.150  -6.250  1.00  0.00    -0.482 OA
ATOM      5  C   UNL     1      -1.644   5.129  -6.215  1.00  0.00     0.131 A 
ATOM      6  C   UNL     1      -2.320   6.100  -5.473  1.00  0.00     0.093 A 
ATOM      7  C   UNL     1      -3.718   6.113  -5.434  1.00  0.00     0.122 A 
ATOM      8  C   UNL     1      -4.441   5.156  -6.149  1.00  0.00     0.092 A 
ATOM      9  C   UNL     1      -3.781   4.175  -6.898  1.00  0.00     0.126 A 
ATOM     10  C   UNL     1      -2.366   4.130  -6.905  1.00  0.00     0.039 A 
ENDROOT
BRANCH   2  11
ATOM     11  O   UNL     1       0.561   2.129  -8.133  1.00  0.00    -0.389 OA
ATOM     12  H   UNL     1      -0.095   1.819  -8.811  1.00  0.00     0.211 HD
ENDBRANCH   2  11
BRANCH   3  13
ATOM     13  C   UNL     1       1.932   4.215  -6.636  1.00  0.00    -0.001 A 
ATOM     14  C   UNL     1       2.230   3.475  -5.479  1.00  0.00     0.057 A 
ATOM     15  C   UNL     1       2.967   4.898  -7.297  1.00  0.00     0.012 A 
ATOM     16  C   UNL     1       3.543   3.399  -5.000  1.00  0.00     0.157 A 
ATOM     17  C   UNL     1       4.278   4.824  -6.822  1.00  0.00     0.050 A 
ATOM     18  C   UNL     1       4.573   4.074  -5.676  1.00  0.00     0.157 A 
BRANCH  16  19
ATOM     19  O   UNL     1       3.803   2.651  -3.853  1.00  0.00    -0.504 OA
ATOM     20  H   UNL     1       4.677   2.728  -3.346  1.00  0.00     0.293 HD
ENDBRANCH  16  19
BRANCH  18  21
ATOM     21  O   UNL     1       5.883   4.002  -5.204  1.00  0.00    -0.504 OA
ATOM     22  H   UNL     1       6.498   4.808  -5.219  1.00  0.00     0.293 HD
ENDBRANCH  18  21
ENDBRANCH   3  13
BRANCH   9  23
ATOM     23  O   UNL     1      -4.558   3.273  -7.628  1.00  0.00    -0.507 OA
ATOM     24  H   UNL     1      -4.311   2.300  -7.753  1.00  0.00     0.293 HD
ENDBRANCH   9  23
BRANCH   7  25
ATOM     25  O   UNL     1      -4.398   7.079  -4.695  1.00  0.00    -0.508 OA
ATOM     26  H   UNL     1      -4.376   7.084  -3.683  1.00  0.00     0.293 HD
ENDBRANCH   7  25
TORSDOF 6
ENDMDL
MODEL 3
REMARK VINA RESULT:    -4.829     12.781     15.390
REMARK INTER + INTRA:          -6.191
REMARK INTER:                  -5.990
REMARK INTRA:                  -0.201
REMARK UNBOUND:                -0.374
REMARK SMILES Oc1cc(O)c2c(c1)O[C@@H](c1ccc(O)c(O)c1)[C@H](O)C2
REMARK SMILES IDX 21 1 19 2 10 3 9 4 7 5 8 6 2 7 3 8 4 9 6 10 20 11 11 13
REMARK SMILES IDX 18 14 12 15 16 16 13 17 14 18 17 19 15 21 5 23 1 25
REMARK H PARENT 20 12 17 20 15 22 5 24 1 26
REMARK Flexibility Score: inf
ROOT
ATOM      1  C   UNL     1       2.437  -2.528  -8.084  1.00  0.00     0.079 C 
ATOM      2  C   UNL     1       3.332  -1.442  -7.458  1.00  0.00     0.164 C 
ATOM      3  C   UNL     1       2.733  -0.051  -7.730  1.00  0.00     0.232 C 
ATOM      4  O   UNL     1       1.398   0.007  -7.228  1.00  0.00    -0.482 OA
ATOM      5  C   UNL     1       0.514  -1.073  -7.328  1.00  0.00     0.131 A 
ATOM      6  C   UNL     1      -0.828  -0.884  -6.990  1.00  0.00     0.093 A 
ATOM      7  C   UNL     1      -1.738  -1.941  -7.098  1.00  0.00     0.122 A 
ATOM      8  C   UNL     1      -1.303  -3.188  -7.554  1.00  0.00     0.092 A 
ATOM      9  C   UNL     1       0.039  -3.395  -7.896  1.00  0.00     0.126 A 
ATOM     10  C   UNL     1       0.972  -2.341  -7.747  1.00  0.00     0.039 A 
ENDROOT
BRANCH   2  11
ATOM     11  O   UNL     1       4.623  -1.516  -8.005  1.00  0.00    -0.389 OA
ATOM     12  H   UNL     1       4.520  -1.456  -8.990  1.00  0.00     0.211 HD
ENDBRANCH   2  11
BRANCH   3  13
ATOM     13  C   UNL     1       3.563   1.036  -7.089  1.00  0.00    -0.001 A 
ATOM     14  C   UNL     1       3.256   1.493  -5.797  1.00  0.00     0.057 A 
ATOM     15  C   UNL     1       4.620   1.636  -7.794  1.00  0.00     0.012 A 
ATOM     16  C   UNL     1       4.004   2.519  -5.207  1.00  0.00     0.157 A 
ATOM     17  C   UNL     1       5.368   2.659  -7.209  1.00  0.00     0.050 A 
ATOM     18  C   UNL     1       5.067   3.104  -5.915  1.00  0.00     0.157 A 
BRANCH  16  19
ATOM     19  O   UNL     1       3.674   2.944  -3.921  1.00  0.00    -0.504 OA
ATOM     20  H   UNL     1       2.920   3.598  -3.746  1.00  0.00     0.293 HD
ENDBRANCH  16  19
BRANCH  18  21
ATOM     21  O   UNL     1       5.815   4.126  -5.333  1.00  0.00    -0.504 OA
ATOM     22  H   UNL     1       5.558   5.100  -5.441  1.00  0.00     0.293 HD
ENDBRANCH  18  21
ENDBRANCH   3  13
BRANCH   9  23
ATOM     23  O   UNL     1       0.404  -4.649  -8.388  1.00  0.00    -0.507 OA
ATOM     24  H   UNL     1       1.045  -5.269  -7.911  1.00  0.00     0.293 HD
ENDBRANCH   9  23
BRANCH   7  25
ATOM     25  O   UNL     1      -3.078  -1.761  -6.762  1.00  0.00    -0.508 OA
ATOM     26  H   UNL     1      -3.501  -2.254  -5.985  1.00  0.00     0.293 HD
ENDBRANCH   7  25
TORSDOF 6
ENDMDL
MODEL 4
REMARK VINA RESULT:    -4.680     10.411     12.031
REMARK INTER + INTRA:          -6.012
REMARK INTER:                  -5.652
REMARK INTRA:                  -0.360
REMARK UNBOUND:                -0.374
REMARK SMILES Oc1cc(O)c2c(c1)O[C@@H](c1ccc(O)c(O)c1)[C@H](O)C2
REMARK SMILES IDX 21 1 19 2 10 3 9 4 7 5 8 6 2 7 3 8 4 9 6 10 20 11 11 13
REMARK SMILES IDX 18 14 12 15 16 16 13 17 14 18 17 19 15 21 5 23 1 25
REMARK H PARENT 20 12 17 20 15 22 5 24 1 26
REMARK Flexibility Score: inf
ROOT
ATOM      1  C   UNL     1       1.358   5.685  -7.739  1.00  0.00     0.079 C 
ATOM      2  C   UNL     1      -0.127   5.849  -7.361  1.00  0.00     0.164 C 
ATOM      3  C   UNL     1      -0.754   4.470  -7.097  1.00  0.00     0.232 C 
ATOM      4  O   UNL     1      -0.019   3.790  -6.079  1.00  0.00    -0.482 OA
ATOM      5  C   UNL     1       1.375   3.856  -5.994  1.00  0.00     0.131 A 
ATOM      6  C   UNL     1       2.041   3.019  -5.096  1.00  0.00     0.093 A 
ATOM      7  C   UNL     1       3.436   3.051  -5.001  1.00  0.00     0.122 A 
ATOM      8  C   UNL     1       4.166   3.919  -5.817  1.00  0.00     0.092 A 
ATOM      9  C   UNL     1       3.516   4.766  -6.722  1.00  0.00     0.126 A 
ATOM     10  C   UNL     1       2.102   4.768  -6.790  1.00  0.00     0.039 A 
ENDROOT
BRANCH   2  11
ATOM     11  O   UNL     1      -0.815   6.491  -8.402  1.00  0.00    -0.389 OA
ATOM     12  H   UNL     1      -0.421   7.399  -8.487  1.00  0.00     0.211 HD
ENDBRANCH   2  11
BRANCH   3  13
ATOM     13  C   UNL     1      -2.200   4.598  -6.679  1.00  0.00    -0.001 A 
ATOM     14  C   UNL     1      -3.212   3.973  -7.427  1.00  0.00     0.057 A 
ATOM     15  C   UNL     1      -2.555   5.381  -5.568  1.00  0.00     0.012 A 
ATOM     16  C   UNL     1      -4.556   4.110  -7.062  1.00  0.00     0.157 A 
ATOM     17  C   UNL     1      -3.895   5.519  -5.200  1.00  0.00     0.050 A 
ATOM     18  C   UNL     1      -4.900   4.884  -5.941  1.00  0.00     0.157 A 
BRANCH  16  19
ATOM     19  O   UNL     1      -5.533   3.471  -7.824  1.00  0.00    -0.504 OA
ATOM     20  H   UNL     1      -6.387   3.110  -7.413  1.00  0.00     0.293 HD
ENDBRANCH  16  19
BRANCH  18  21
ATOM     21  O   UNL     1      -6.237   5.023  -5.572  1.00  0.00    -0.504 OA
ATOM     22  H   UNL     1      -6.502   5.398  -4.668  1.00  0.00     0.293 HD
ENDBRANCH  18  21
ENDBRANCH   3  13
BRANCH   9  23
ATOM     23  O   UNL     1       4.303   5.578  -7.542  1.00  0.00    -0.507 OA
ATOM     24  H   UNL     1       4.695   6.460  -7.239  1.00  0.00     0.293 HD
ENDBRANCH   9  23
BRANCH   7  25
ATOM     25  O   UNL     1       4.106   2.219  -4.108  1.00  0.00    -0.508 OA
ATOM     26  H   UNL     1       4.951   2.519  -3.637  1.00  0.00     0.293 HD
ENDBRANCH   7  25
TORSDOF 6
ENDMDL
MODEL 5
REMARK VINA RESULT:    -4.625     11.790     14.540
REMARK INTER + INTRA:          -5.946
REMARK INTER:                  -5.573
REMARK INTRA:                  -0.373
REMARK UNBOUND:                -0.374
REMARK SMILES Oc1cc(O)c2c(c1)O[C@@H](c1ccc(O)c(O)c1)[C@H](O)C2
REMARK SMILES IDX 21 1 19 2 10 3 9 4 7 5 8 6 2 7 3 8 4 9 6 10 20 11 11 13
REMARK SMILES IDX 18 14 12 15 16 16 13 17 14 18 17 19 15 21 5 23 1 25
REMARK H PARENT 20 12 17 20 15 22 5 24 1 26
REMARK Flexibility Score: inf
ROOT
ATOM      1  C   UNL     1       1.874   1.949  -5.459  1.00  0.00     0.079 C 
ATOM      2  C   UNL     1       2.792   3.152  -5.173  1.00  0.00     0.164 C 
ATOM      3  C   UNL     1       3.848   3.279  -6.284  1.00  0.00     0.232 C 
ATOM      4  O   UNL     1       3.204   3.392  -7.553  1.00  0.00    -0.482 OA
ATOM      5  C   UNL     1       2.057   2.660  -7.877  1.00  0.00     0.131 A 
ATOM      6  C   UNL     1       1.592   2.674  -9.194  1.00  0.00     0.093 A 
ATOM      7  C   UNL     1       0.458   1.938  -9.551  1.00  0.00     0.122 A 
ATOM      8  C   UNL     1      -0.207   1.177  -8.586  1.00  0.00     0.092 A 
ATOM      9  C   UNL     1       0.245   1.151  -7.261  1.00  0.00     0.126 A 
ATOM     10  C   UNL     1       1.366   1.930  -6.886  1.00  0.00     0.039 A 
ENDROOT
BRANCH   2  11
ATOM     11  O   UNL     1       3.427   2.982  -3.932  1.00  0.00    -0.389 OA
ATOM     12  H   UNL     1       3.420   3.868  -3.485  1.00  0.00     0.211 HD
ENDBRANCH   2  11
BRANCH   3  13
ATOM     13  C   UNL     1       4.737   4.478  -6.058  1.00  0.00    -0.001 A 
ATOM     14  C   UNL     1       4.212   5.778  -6.158  1.00  0.00     0.057 A 
ATOM     15  C   UNL     1       6.107   4.312  -5.794  1.00  0.00     0.012 A 
ATOM     16  C   UNL     1       5.037   6.895  -5.977  1.00  0.00     0.157 A 
ATOM     17  C   UNL     1       6.932   5.424  -5.612  1.00  0.00     0.050 A 
ATOM     18  C   UNL     1       6.402   6.719  -5.700  1.00  0.00     0.157 A 
BRANCH  16  19
ATOM     19  O   UNL     1       4.480   8.170  -6.077  1.00  0.00    -0.504 OA
ATOM     20  H   UNL     1       3.582   8.332  -6.518  1.00  0.00     0.293 HD
ENDBRANCH  16  19
BRANCH  18  21
ATOM     21  O   UNL     1       7.227   7.827  -5.518  1.00  0.00    -0.504 OA
ATOM     22  H   UNL     1       7.625   8.050  -4.612  1.00  0.00     0.293 HD
ENDBRANCH  18  21
ENDBRANCH   3  13
BRANCH   9  23
ATOM     23  O   UNL     1      -0.434   0.337  -6.352  1.00  0.00    -0.507 OA
ATOM     24  H   UNL     1      -1.381   0.515  -6.045  1.00  0.00     0.293 HD
ENDBRANCH   9  23
BRANCH   7  25
ATOM     25  O   UNL     1      -0.012   1.948 -10.862  1.00  0.00    -0.508 OA
ATOM     26  H   UNL     1      -0.270   1.093 -11.339  1.00  0.00     0.293 HD
ENDBRANCH   7  25
TORSDOF 6
ENDMDL
MODEL 6
REMARK VINA RESULT:    -4.491     11.419     13.748
REMARK INTER + INTRA:          -5.784
REMARK INTER:                  -5.408
REMARK INTRA:                  -0.376
REMARK UNBOUND:                -0.374
REMARK SMILES Oc1cc(O)c2c(c1)O[C@@H](c1ccc(O)c(O)c1)[C@H](O)C2
REMARK SMILES IDX 21 1 19 2 10 3 9 4 7 5 8 6 2 7 3 8 4 9 6 10 20 11 11 13
REMARK SMILES IDX 18 14 12 15 16 16 13 17 14 18 17 19 15 21 5 23 1 25
REMARK H PARENT 20 12 17 20 15 22 5 24 1 26
REMARK Flexibility Score: inf
ROOT
ATOM      1  C   UNL     1       0.703   3.319  -5.637  1.00  0.00     0.079 C 
ATOM      2  C   UNL     1       2.219   3.067  -5.528  1.00  0.00     0.164 C 
ATOM      3  C   UNL     1       2.892   3.333  -6.886  1.00  0.00     0.232 C 
ATOM      4  O   UNL     1       2.605   4.664  -7.315  1.00  0.00    -0.482 OA
ATOM      5  C   UNL     1       1.353   5.257  -7.124  1.00  0.00     0.131 A 
ATOM      6  C   UNL     1       1.083   6.484  -7.735  1.00  0.00     0.093 A 
ATOM      7  C   UNL     1      -0.166   7.093  -7.575  1.00  0.00     0.122 A 
ATOM      8  C   UNL     1      -1.150   6.465  -6.808  1.00  0.00     0.092 A 
ATOM      9  C   UNL     1      -0.898   5.236  -6.188  1.00  0.00     0.126 A 
ATOM     10  C   UNL     1       0.380   4.638  -6.311  1.00  0.00     0.039 A 
ENDROOT
BRANCH   2  11
ATOM     11  O   UNL     1       2.453   1.739  -5.136  1.00  0.00    -0.389 OA
ATOM     12  H   UNL     1       2.683   1.764  -4.170  1.00  0.00     0.211 HD
ENDBRANCH   2  11
BRANCH   3  13
ATOM     13  C   UNL     1       4.387   3.138  -6.802  1.00  0.00    -0.001 A 
ATOM     14  C   UNL     1       5.165   3.972  -5.980  1.00  0.00     0.057 A 
ATOM     15  C   UNL     1       5.024   2.156  -7.578  1.00  0.00     0.012 A 
ATOM     16  C   UNL     1       6.555   3.816  -5.918  1.00  0.00     0.157 A 
ATOM     17  C   UNL     1       6.410   1.996  -7.518  1.00  0.00     0.050 A 
ATOM     18  C   UNL     1       7.181   2.822  -6.688  1.00  0.00     0.157 A 
BRANCH  16  19
ATOM     19  O   UNL     1       7.294   4.657  -5.088  1.00  0.00    -0.504 OA
ATOM     20  H   UNL     1       7.958   4.299  -4.412  1.00  0.00     0.293 HD
ENDBRANCH  16  19
BRANCH  18  21
ATOM     21  O   UNL     1       8.564   2.661  -6.630  1.00  0.00    -0.504 OA
ATOM     22  H   UNL     1       9.109   3.021  -5.854  1.00  0.00     0.293 HD
ENDBRANCH  18  21
ENDBRANCH   3  13
BRANCH   9  23
ATOM     23  O   UNL     1      -1.936   4.636  -5.472  1.00  0.00    -0.507 OA
ATOM     24  H   UNL     1      -1.788   4.076  -4.643  1.00  0.00     0.293 HD
ENDBRANCH   9  23
BRANCH   7  25
ATOM     25  O   UNL     1      -0.442   8.316  -8.181  1.00  0.00    -0.508 OA
ATOM     26  H   UNL     1      -1.202   8.906  -7.863  1.00  0.00     0.293 HD
ENDBRANCH   7  25
TORSDOF 6
ENDMDL
MODEL 7
REMARK VINA RESULT:    -4.482     11.995     14.118
REMARK INTER + INTRA:          -5.773
REMARK INTER:                  -5.397
REMARK INTRA:                  -0.376
REMARK UNBOUND:                -0.374
REMARK SMILES Oc1cc(O)c2c(c1)O[C@@H](c1ccc(O)c(O)c1)[C@H](O)C2
REMARK SMILES IDX 21 1 19 2 10 3 9 4 7 5 8 6 2 7 3 8 4 9 6 10 20 11 11 13
REMARK SMILES IDX 18 14 12 15 16 16 13 17 14 18 17 19 15 21 5 23 1 25
REMARK H PARENT 20 12 17 20 15 22 5 24 1 26
REMARK Flexibility Score: inf
ROOT
ATOM      1  C   UNL     1       4.238   1.974  -6.163  1.00  0.00     0.079 C 
ATOM      2  C   UNL     1       3.165   3.055  -5.934  1.00  0.00     0.164 C 
ATOM      3  C   UNL     1       2.478   3.400  -7.266  1.00  0.00     0.232 C 
ATOM      4  O   UNL     1       1.925   2.219  -7.846  1.00  0.00    -0.482 OA
ATOM      5  C   UNL     1       2.581   0.985  -7.795  1.00  0.00     0.131 A 
ATOM      6  C   UNL     1       2.078  -0.082  -8.544  1.00  0.00     0.093 A 
ATOM      7  C   UNL     1       2.724  -1.323  -8.526  1.00  0.00     0.122 A 
ATOM      8  C   UNL     1       3.882  -1.492  -7.763  1.00  0.00     0.092 A 
ATOM      9  C   UNL     1       4.399  -0.434  -7.007  1.00  0.00     0.126 A 
ATOM     10  C   UNL     1       3.725   0.810  -6.987  1.00  0.00     0.039 A 
ENDROOT
BRANCH   2  11
ATOM     11  O   UNL     1       3.758   4.208  -5.394  1.00  0.00    -0.389 OA
ATOM     12  H   UNL     1       4.355   3.905  -4.661  1.00  0.00     0.211 HD
ENDBRANCH   2  11
BRANCH   3  13
ATOM     13  C   UNL     1       1.387   4.426  -7.068  1.00  0.00    -0.001 A 
ATOM     14  C   UNL     1       0.272   4.129  -6.266  1.00  0.00     0.057 A 
ATOM     15  C   UNL     1       1.448   5.669  -7.720  1.00  0.00     0.012 A 
ATOM     16  C   UNL     1      -0.756   5.064  -6.100  1.00  0.00     0.157 A 
ATOM     17  C   UNL     1       0.425   6.604  -7.557  1.00  0.00     0.050 A 
ATOM     18  C   UNL     1      -0.679   6.309  -6.745  1.00  0.00     0.157 A 
BRANCH  16  19
ATOM     19  O   UNL     1      -1.844   4.737  -5.292  1.00  0.00    -0.504 OA
ATOM     20  H   UNL     1      -2.404   3.908  -5.452  1.00  0.00     0.293 HD
ENDBRANCH  16  19
BRANCH  18  21
ATOM     21  O   UNL     1      -1.700   7.245  -6.583  1.00  0.00    -0.504 OA
ATOM     22  H   UNL     1      -1.501   8.216  -6.370  1.00  0.00     0.293 HD
ENDBRANCH  18  21
ENDBRANCH   3  13
BRANCH   9  23
ATOM     23  O   UNL     1       5.584  -0.651  -6.300  1.00  0.00    -0.507 OA
ATOM     24  H   UNL     1       6.267  -1.351  -6.560  1.00  0.00     0.293 HD
ENDBRANCH   9  23
BRANCH   7  25
ATOM     25  O   UNL     1       2.228  -2.392  -9.270  1.00  0.00    -0.508 OA
ATOM     26  H   UNL     1       2.842  -3.000  -9.797  1.00  0.00     0.293 HD
ENDBRANCH   7  25
TORSDOF 6
ENDMDL
MODEL 8
REMARK VINA RESULT:    -4.405     10.766     12.763
REMARK INTER + INTRA:          -5.681
REMARK INTER:                  -5.364
REMARK INTRA:                  -0.318
REMARK UNBOUND:                -0.374
REMARK SMILES Oc1cc(O)c2c(c1)O[C@@H](c1ccc(O)c(O)c1)[C@H](O)C2
REMARK SMILES IDX 21 1 19 2 10 3 9 4 7 5 8 6 2 7 3 8 4 9 6 10 20 11 11 13
REMARK SMILES IDX 18 14 12 15 16 16 13 17 14 18 17 19 15 21 5 23 1 25
REMARK H PARENT 20 12 17 20 15 22 5 24 1 26
REMARK Flexibility Score: inf
ROOT
ATOM      1  C   UNL     1       1.533   1.409  -6.894  1.00  0.00     0.079 C 
ATOM      2  C   UNL     1       0.430   2.458  -7.132  1.00  0.00     0.164 C 
ATOM      3  C   UNL     1       0.416   3.473  -5.977  1.00  0.00     0.232 C 
ATOM      4  O   UNL     1       1.703   4.077  -5.848  1.00  0.00    -0.482 OA
ATOM      5  C   UNL     1       2.888   3.353  -6.014  1.00  0.00     0.131 A 
ATOM      6  C   UNL     1       4.104   3.957  -5.688  1.00  0.00     0.093 A 
ATOM      7  C   UNL     1       5.304   3.251  -5.828  1.00  0.00     0.122 A 
ATOM      8  C   UNL     1       5.283   1.933  -6.288  1.00  0.00     0.092 A 
ATOM      9  C   UNL     1       4.074   1.311  -6.621  1.00  0.00     0.126 A 
ATOM     10  C   UNL     1       2.861   2.036  -6.523  1.00  0.00     0.039 A 
ENDROOT
BRANCH   2  11
ATOM     11  O   UNL     1      -0.819   1.823  -7.220  1.00  0.00    -0.389 OA
ATOM     12  H   UNL     1      -0.740   0.968  -6.721  1.00  0.00     0.211 HD
ENDBRANCH   2  11
BRANCH   3  13
ATOM     13  C   UNL     1      -0.626   4.543  -6.202  1.00  0.00    -0.001 A 
ATOM     14  C   UNL     1      -1.837   4.514  -5.490  1.00  0.00     0.057 A 
ATOM     15  C   UNL     1      -0.419   5.551  -7.158  1.00  0.00     0.012 A 
ATOM     16  C   UNL     1      -2.818   5.487  -5.713  1.00  0.00     0.157 A 
ATOM     17  C   UNL     1      -1.395   6.524  -7.383  1.00  0.00     0.050 A 
ATOM     18  C   UNL     1      -2.597   6.498  -6.662  1.00  0.00     0.157 A 
BRANCH  16  19
ATOM     19  O   UNL     1      -4.005   5.430  -4.984  1.00  0.00    -0.504 OA
ATOM     20  H   UNL     1      -4.433   6.258  -4.585  1.00  0.00     0.293 HD
ENDBRANCH  16  19
BRANCH  18  21
ATOM     21  O   UNL     1      -3.570   7.470  -6.888  1.00  0.00    -0.504 OA
ATOM     22  H   UNL     1      -4.357   7.589  -6.260  1.00  0.00     0.293 HD
ENDBRANCH  18  21
ENDBRANCH   3  13
BRANCH   9  23
ATOM     23  O   UNL     1       4.112  -0.023  -7.032  1.00  0.00    -0.507 OA
ATOM     24  H   UNL     1       4.093  -0.307  -8.003  1.00  0.00     0.293 HD
ENDBRANCH   9  23
BRANCH   7  25
ATOM     25  O   UNL     1       6.520   3.848  -5.504  1.00  0.00    -0.508 OA
ATOM     26  H   UNL     1       6.632   4.401  -4.663  1.00  0.00     0.293 HD
ENDBRANCH   7  25
TORSDOF 6
ENDMDL
MODEL 9
REMARK VINA RESULT:    -4.366     12.333     13.454
REMARK INTER + INTRA:          -5.634
REMARK INTER:                  -5.260
REMARK INTRA:                  -0.374
REMARK UNBOUND:                -0.374
REMARK SMILES Oc1cc(O)c2c(c1)O[C@@H](c1ccc(O)c(O)c1)[C@H](O)C2
REMARK SMILES IDX 21 1 19 2 10 3 9 4 7 5 8 6 2 7 3 8 4 9 6 10 20 11 11 13
REMARK SMILES IDX 18 14 12 15 16 16 13 17 14 18 17 19 15 21 5 23 1 25
REMARK H PARENT 20 12 17 20 15 22 5 24 1 26
REMARK Flexibility Score: inf
ROOT
ATOM      1  C   UNL     1       2.255   2.958  -5.778  1.00  0.00     0.079 C 
ATOM      2  C   UNL     1       1.090   1.959  -5.913  1.00  0.00     0.164 C 
ATOM      3  C   UNL     1       1.128   1.297  -7.301  1.00  0.00     0.232 C 
ATOM      4  O   UNL     1       2.393   0.668  -7.503  1.00  0.00    -0.482 OA
ATOM      5  C   UNL     1       3.591   1.240  -7.063  1.00  0.00     0.131 A 
ATOM      6  C   UNL     1       4.802   0.668  -7.460  1.00  0.00     0.093 A 
ATOM      7  C   UNL     1       6.016   1.229  -7.049  1.00  0.00     0.122 A 
ATOM      8  C   UNL     1       6.015   2.373  -6.247  1.00  0.00     0.092 A 
ATOM      9  C   UNL     1       4.811   2.959  -5.840  1.00  0.00     0.126 A 
ATOM     10  C   UNL     1       3.581   2.369  -6.216  1.00  0.00     0.039 A 
ENDROOT
BRANCH   2  11
ATOM     11  O   UNL     1      -0.132   2.628  -5.740  1.00  0.00    -0.389 OA
ATOM     12  H   UNL     1       0.009   3.563  -6.041  1.00  0.00     0.211 HD
ENDBRANCH   2  11
BRANCH   3  13
ATOM     13  C   UNL     1       0.024   0.277  -7.450  1.00  0.00    -0.001 A 
ATOM     14  C   UNL     1       0.035  -0.896  -6.676  1.00  0.00     0.057 A 
ATOM     15  C   UNL     1      -0.998   0.464  -8.395  1.00  0.00     0.012 A 
ATOM     16  C   UNL     1      -0.969  -1.859  -6.828  1.00  0.00     0.157 A 
ATOM     17  C   UNL     1      -2.002  -0.495  -8.549  1.00  0.00     0.050 A 
ATOM     18  C   UNL     1      -1.995  -1.657  -7.766  1.00  0.00     0.157 A 
BRANCH  16  19
ATOM     19  O   UNL     1      -0.930  -3.008  -6.040  1.00  0.00    -0.504 OA
ATOM     20  H   UNL     1      -0.554  -3.003  -5.098  1.00  0.00     0.293 HD
ENDBRANCH  16  19
BRANCH  18  21
ATOM     21  O   UNL     1      -2.998  -2.613  -7.922  1.00  0.00    -0.504 OA
ATOM     22  H   UNL     1      -3.043  -3.436  -7.332  1.00  0.00     0.293 HD
ENDBRANCH  18  21
ENDBRANCH   3  13
BRANCH   9  23
ATOM     23  O   UNL     1       4.875   4.127  -5.076  1.00  0.00    -0.507 OA
ATOM     24  H   UNL     1       4.075   4.528  -4.606  1.00  0.00     0.293 HD
ENDBRANCH   9  23
BRANCH   7  25
ATOM     25  O   UNL     1       7.227   0.664  -7.440  1.00  0.00    -0.508 OA
ATOM     26  H   UNL     1       7.367   0.305  -8.377  1.00  0.00     0.293 HD
ENDBRANCH   7  25
TORSDOF 6
ENDMDL
