MODEL 1
REMARK VINA RESULT:    -3.521      0.000      0.000
REMARK INTER + INTRA:          -4.720
REMARK INTER:                  -4.550
REMARK INTRA:                  -0.170
REMARK UNBOUND:                -0.170
REMARK SMILES CCCCCCC(=O)[O-]
REMARK SMILES IDX 5 1 6 2 7 3 8 4 9 5 4 6 3 7 2 8 1 9
REMARK H PARENT
REMARK Flexibility Score: inf
ROOT
ATOM      1  C   UNL     1      40.413  26.718  18.923  1.00  0.00     0.006 C 
ENDROOT
BRANCH   1   2
ATOM      2  C   UNL     1      41.161  26.576  20.255  1.00  0.00     0.053 C 
BRANCH   2   3
ATOM      3  C   UNL     1      40.631  27.516  21.294  1.00  0.00     0.041 C 
ATOM      4  O   UNL     1      39.932  28.507  20.954  1.00  0.00    -0.550 OA
ATOM      5  O   UNL     1      40.879  27.279  22.640  1.00  0.00    -0.550 OA
ENDBRANCH   2   3
ENDBRANCH   1   2
BRANCH   1   6
ATOM      6  C   UNL     1      41.244  26.216  17.733  1.00  0.00     0.000 C 
BRANCH   6   7
ATOM      7  C   UNL     1      41.421  27.319  16.682  1.00  0.00    -0.000 C 
BRANCH   7   8
ATOM      8  C   UNL     1      41.785  28.654  17.343  1.00  0.00    -0.003 C 
ATOM      9  C   UNL     1      42.216  29.684  16.302  1.00  0.00     0.004 C 
ENDBRANCH   7   8
ENDBRANCH   6   7
ENDBRANCH   1   6
TORSDOF 5
ENDMDL
MODEL 2
REMARK VINA RESULT:    -3.503      2.623      3.659
REMARK INTER + INTRA:          -4.697
REMARK INTER:                  -4.615
REMARK INTRA:                  -0.083
REMARK UNBOUND:                -0.170
REMARK SMILES CCCCCCC(=O)[O-]
REMARK SMILES IDX 5 1 6 2 7 3 8 4 9 5 4 6 3 7 2 8 1 9
REMARK H PARENT
REMARK Flexibility Score: inf
ROOT
ATOM      1  C   UNL     1      41.822  27.444  17.378  1.00  0.00     0.006 C 
ENDROOT
BRANCH   1   2
ATOM      2  C   UNL     1      40.818  26.641  16.541  1.00  0.00     0.053 C 
BRANCH   2   3
ATOM      3  C   UNL     1      39.515  26.459  17.257  1.00  0.00     0.041 C 
ATOM      4  O   UNL     1      39.448  26.630  18.502  1.00  0.00    -0.550 OA
ATOM      5  O   UNL     1      38.368  26.136  16.544  1.00  0.00    -0.550 OA
ENDBRANCH   2   3
ENDBRANCH   1   2
BRANCH   1   6
ATOM      6  C   UNL     1      41.585  28.958  17.275  1.00  0.00     0.000 C 
BRANCH   6   7
ATOM      7  C   UNL     1      42.427  29.571  16.149  1.00  0.00    -0.000 C 
BRANCH   7   8
ATOM      8  C   UNL     1      42.330  31.100  16.160  1.00  0.00    -0.003 C 
ATOM      9  C   UNL     1      43.672  31.740  15.812  1.00  0.00     0.004 C 
ENDBRANCH   7   8
ENDBRANCH   6   7
ENDBRANCH   1   6
TORSDOF 5
ENDMDL
MODEL 3
REMARK VINA RESULT:    -3.458      4.187      5.030
REMARK INTER + INTRA:          -4.638
REMARK INTER:                  -4.528
REMARK INTRA:                  -0.111
REMARK UNBOUND:                -0.170
REMARK SMILES CCCCCCC(=O)[O-]
REMARK SMILES IDX 5 1 6 2 7 3 8 4 9 5 4 6 3 7 2 8 1 9
REMARK H PARENT
REMARK Flexibility Score: inf
ROOT
ATOM      1  C   UNL     1      38.924  26.243  17.287  1.00  0.00     0.006 C 
ENDROOT
BRANCH   1   2
ATOM      2  C   UNL     1      40.326  26.626  16.795  1.00  0.00     0.053 C 
BRANCH   2   3
ATOM      3  C   UNL     1      41.398  26.085  17.690  1.00  0.00     0.041 C 
ATOM      4  O   UNL     1      41.435  26.416  18.904  1.00  0.00    -0.550 OA
ATOM      5  O   UNL     1      42.335  25.188  17.193  1.00  0.00    -0.550 OA
ENDBRANCH   2   3
ENDBRANCH   1   2
BRANCH   1   6
ATOM      6  C   UNL     1      37.887  26.252  16.154  1.00  0.00     0.000 C 
BRANCH   6   7
ATOM      7  C   UNL     1      36.618  25.495  16.565  1.00  0.00    -0.000 C 
BRANCH   7   8
ATOM      8  C   UNL     1      35.424  25.913  15.699  1.00  0.00    -0.003 C 
ATOM      9  C   UNL     1      35.074  27.383  15.917  1.00  0.00     0.004 C 
ENDBRANCH   7   8
ENDBRANCH   6   7
ENDBRANCH   1   6
TORSDOF 5
ENDMDL
MODEL 4
REMARK VINA RESULT:    -3.433      2.602      3.977
REMARK INTER + INTRA:          -4.606
REMARK INTER:                  -4.492
REMARK INTRA:                  -0.114
REMARK UNBOUND:                -0.170
REMARK SMILES CCCCCCC(=O)[O-]
REMARK SMILES IDX 5 1 6 2 7 3 8 4 9 5 4 6 3 7 2 8 1 9
REMARK H PARENT
REMARK Flexibility Score: inf
ROOT
ATOM      1  C   UNL     1      41.749  28.770  17.144  1.00  0.00     0.006 C 
ENDROOT
BRANCH   1   2
ATOM      2  C   UNL     1      41.359  27.371  16.649  1.00  0.00     0.053 C 
BRANCH   2   3
ATOM      3  C   UNL     1      41.700  26.311  17.651  1.00  0.00     0.041 C 
ATOM      4  O   UNL     1      41.336  26.433  18.850  1.00  0.00    -0.550 OA
ATOM      5  O   UNL     1      42.389  25.172  17.254  1.00  0.00    -0.550 OA
ENDBRANCH   2   3
ENDBRANCH   1   2
BRANCH   1   6
ATOM      6  C   UNL     1      42.453  29.596  16.058  1.00  0.00     0.000 C 
BRANCH   6   7
ATOM      7  C   UNL     1      42.357  31.097  16.361  1.00  0.00    -0.000 C 
BRANCH   7   8
ATOM      8  C   UNL     1      43.466  31.874  15.643  1.00  0.00    -0.003 C 
ATOM      9  C   UNL     1      44.842  31.497  16.186  1.00  0.00     0.004 C 
ENDBRANCH   7   8
ENDBRANCH   6   7
ENDBRANCH   1   6
TORSDOF 5
ENDMDL
MODEL 5
REMARK VINA RESULT:    -3.414      1.717      2.498
REMARK INTER + INTRA:          -4.582
REMARK INTER:                  -4.396
REMARK INTRA:                  -0.185
REMARK UNBOUND:                -0.170
REMARK SMILES CCCCCCC(=O)[O-]
REMARK SMILES IDX 5 1 6 2 7 3 8 4 9 5 4 6 3 7 2 8 1 9
REMARK H PARENT
REMARK Flexibility Score: inf
ROOT
ATOM      1  C   UNL     1      41.393  26.758  19.023  1.00  0.00     0.006 C 
ENDROOT
BRANCH   1   2
ATOM      2  C   UNL     1      41.087  27.706  20.190  1.00  0.00     0.053 C 
BRANCH   2   3
ATOM      3  C   UNL     1      40.601  26.964  21.397  1.00  0.00     0.041 C 
ATOM      4  O   UNL     1      40.166  25.788  21.285  1.00  0.00    -0.550 OA
ATOM      5  O   UNL     1      40.659  27.559  22.651  1.00  0.00    -0.550 OA
ENDBRANCH   2   3
ENDBRANCH   1   2
BRANCH   1   6
ATOM      6  C   UNL     1      41.318  27.467  17.663  1.00  0.00     0.000 C 
BRANCH   6   7
ATOM      7  C   UNL     1      40.439  26.682  16.682  1.00  0.00    -0.000 C 
BRANCH   7   8
ATOM      8  C   UNL     1      39.132  26.238  17.348  1.00  0.00    -0.003 C 
ATOM      9  C   UNL     1      37.989  26.187  16.338  1.00  0.00     0.004 C 
ENDBRANCH   7   8
ENDBRANCH   6   7
ENDBRANCH   1   6
TORSDOF 5
ENDMDL
MODEL 6
REMARK VINA RESULT:    -3.412     10.980     11.943
REMARK INTER + INTRA:          -4.579
REMARK INTER:                  -4.464
REMARK INTRA:                  -0.115
REMARK UNBOUND:                -0.170
REMARK SMILES CCCCCCC(=O)[O-]
REMARK SMILES IDX 5 1 6 2 7 3 8 4 9 5 4 6 3 7 2 8 1 9
REMARK H PARENT
REMARK Flexibility Score: inf
ROOT
ATOM      1  C   UNL     1      33.731  27.406  28.828  1.00  0.00     0.006 C 
ENDROOT
BRANCH   1   2
ATOM      2  C   UNL     1      32.387  27.550  28.100  1.00  0.00     0.053 C 
BRANCH   2   3
ATOM      3  C   UNL     1      32.413  26.900  26.751  1.00  0.00     0.041 C 
ATOM      4  O   UNL     1      32.730  27.569  25.732  1.00  0.00    -0.550 OA
ATOM      5  O   UNL     1      32.119  25.549  26.622  1.00  0.00    -0.550 OA
ENDBRANCH   2   3
ENDBRANCH   1   2
BRANCH   1   6
ATOM      6  C   UNL     1      34.444  28.755  29.003  1.00  0.00     0.000 C 
BRANCH   6   7
ATOM      7  C   UNL     1      35.885  28.555  29.490  1.00  0.00    -0.000 C 
BRANCH   7   8
ATOM      8  C   UNL     1      36.584  29.902  29.704  1.00  0.00    -0.003 C 
ATOM      9  C   UNL     1      36.891  30.582  28.372  1.00  0.00     0.004 C 
ENDBRANCH   7   8
ENDBRANCH   6   7
ENDBRANCH   1   6
TORSDOF 5
ENDMDL
MODEL 7
REMARK VINA RESULT:    -3.327     10.600     11.594
REMARK INTER + INTRA:          -4.469
REMARK INTER:                  -4.262
REMARK INTRA:                  -0.208
REMARK UNBOUND:                -0.170
REMARK SMILES CCCCCCC(=O)[O-]
REMARK SMILES IDX 5 1 6 2 7 3 8 4 9 5 4 6 3 7 2 8 1 9
REMARK H PARENT
REMARK Flexibility Score: inf
ROOT
ATOM      1  C   UNL     1      38.684  32.112  27.852  1.00  0.00     0.006 C 
ENDROOT
BRANCH   1   2
ATOM      2  C   UNL     1      39.243  32.987  28.981  1.00  0.00     0.053 C 
BRANCH   2   3
ATOM      3  C   UNL     1      40.572  32.490  29.464  1.00  0.00     0.041 C 
ATOM      4  O   UNL     1      41.552  33.276  29.540  1.00  0.00    -0.550 OA
ATOM      5  O   UNL     1      40.718  31.168  29.863  1.00  0.00    -0.550 OA
ENDBRANCH   2   3
ENDBRANCH   1   2
BRANCH   1   6
ATOM      6  C   UNL     1      37.259  31.621  28.148  1.00  0.00     0.000 C 
BRANCH   6   7
ATOM      7  C   UNL     1      37.204  30.866  29.482  1.00  0.00    -0.000 C 
BRANCH   7   8
ATOM      8  C   UNL     1      36.761  29.414  29.273  1.00  0.00    -0.003 C 
ATOM      9  C   UNL     1      35.320  29.343  28.773  1.00  0.00     0.004 C 
ENDBRANCH   7   8
ENDBRANCH   6   7
ENDBRANCH   1   6
TORSDOF 5
ENDMDL
MODEL 8
REMARK VINA RESULT:    -3.326     10.686     11.774
REMARK INTER + INTRA:          -4.468
REMARK INTER:                  -4.264
REMARK INTRA:                  -0.203
REMARK UNBOUND:                -0.170
REMARK SMILES CCCCCCC(=O)[O-]
REMARK SMILES IDX 5 1 6 2 7 3 8 4 9 5 4 6 3 7 2 8 1 9
REMARK H PARENT
REMARK Flexibility Score: inf
ROOT
ATOM      1  C   UNL     1      37.309  30.751  28.243  1.00  0.00     0.006 C 
ENDROOT
BRANCH   1   2
ATOM      2  C   UNL     1      37.296  32.283  28.312  1.00  0.00     0.053 C 
BRANCH   2   3
ATOM      3  C   UNL     1      38.632  32.834  28.709  1.00  0.00     0.041 C 
ATOM      4  O   UNL     1      39.535  32.988  27.846  1.00  0.00    -0.550 OA
ATOM      5  O   UNL     1      38.868  33.209  30.025  1.00  0.00    -0.550 OA
ENDBRANCH   2   3
ENDBRANCH   1   2
BRANCH   1   6
ATOM      6  C   UNL     1      37.162  30.105  29.629  1.00  0.00     0.000 C 
BRANCH   6   7
ATOM      7  C   UNL     1      36.211  28.903  29.577  1.00  0.00    -0.000 C 
BRANCH   7   8
ATOM      8  C   UNL     1      34.997  29.201  28.690  1.00  0.00    -0.003 C 
ATOM      9  C   UNL     1      33.910  28.145  28.870  1.00  0.00     0.004 C 
ENDBRANCH   7   8
ENDBRANCH   6   7
ENDBRANCH   1   6
TORSDOF 5
ENDMDL
MODEL 9
REMARK VINA RESULT:    -3.151     10.885     12.021
REMARK INTER + INTRA:          -4.242
REMARK INTER:                  -4.143
REMARK INTRA:                  -0.100
REMARK UNBOUND:                -0.170
REMARK SMILES CCCCCCC(=O)[O-]
REMARK SMILES IDX 5 1 6 2 7 3 8 4 9 5 4 6 3 7 2 8 1 9
REMARK H PARENT
REMARK Flexibility Score: inf
ROOT
ATOM      1  C   UNL     1      43.984  32.105  29.421  1.00  0.00     0.006 C 
ENDROOT
BRANCH   1   2
ATOM      2  C   UNL     1      43.012  33.292  29.378  1.00  0.00     0.053 C 
BRANCH   2   3
ATOM      3  C   UNL     1      43.638  34.501  28.753  1.00  0.00     0.041 C 
ATOM      4  O   UNL     1      44.116  35.412  29.478  1.00  0.00    -0.550 OA
ATOM      5  O   UNL     1      43.724  34.605  27.371  1.00  0.00    -0.550 OA
ENDBRANCH   2   3
ENDBRANCH   1   2
BRANCH   1   6
ATOM      6  C   UNL     1      43.289  30.800  29.836  1.00  0.00     0.000 C 
BRANCH   6   7
ATOM      7  C   UNL     1      43.728  29.635  28.941  1.00  0.00    -0.000 C 
BRANCH   7   8
ATOM      8  C   UNL     1      45.108  29.112  29.356  1.00  0.00    -0.003 C 
ATOM      9  C   UNL     1      45.043  27.640  29.753  1.00  0.00     0.004 C 
ENDBRANCH   7   8
ENDBRANCH   6   7
ENDBRANCH   1   6
TORSDOF 5
ENDMDL
