MODEL 1
REMARK VINA RESULT:    -4.405      0.000      0.000
REMARK INTER + INTRA:         -16.589
REMARK INTER:                 -11.616
REMARK INTRA:                  -4.973
REMARK UNBOUND:                -4.973
REMARK SMILES CCCCCCCCCCCCCCCCCCCCCCCCCCCCCC(=O)[O-]
REMARK SMILES IDX 16 1 17 2 18 3 19 4 20 5 21 6 22 7 23 8 24 9 25 10 26 11
REMARK SMILES IDX 27 12 28 13 29 14 30 15 31 16 32 17 15 18 14 19 13 20 12 21
REMARK SMILES IDX 11 22 10 23 9 24 8 25 7 26 6 27 5 28 4 29 3 30 2 31 1 32
REMARK H PARENT
REMARK Flexibility Score: inf
ROOT
ATOM      1  C   UNL     1      58.927 -28.868   0.670  1.00  0.00     0.000 C 
ENDROOT
BRANCH   1   2
ATOM      2  C   UNL     1      59.596 -29.625  -0.493  1.00  0.00     0.000 C 
BRANCH   2   3
ATOM      3  C   UNL     1      60.803 -28.876  -1.083  1.00  0.00     0.000 C 
BRANCH   3   4
ATOM      4  C   UNL     1      62.134 -29.240  -0.399  1.00  0.00     0.000 C 
BRANCH   4   5
ATOM      5  C   UNL     1      63.369 -28.458  -0.885  1.00  0.00     0.000 C 
BRANCH   5   6
ATOM      6  C   UNL     1      63.221 -27.928  -2.322  1.00  0.00     0.000 C 
BRANCH   6   7
ATOM      7  C   UNL     1      63.633 -26.451  -2.466  1.00  0.00     0.000 C 
BRANCH   7   8
ATOM      8  C   UNL     1      62.575 -25.534  -3.107  1.00  0.00     0.000 C 
BRANCH   8   9
ATOM      9  C   UNL     1      61.212 -26.223  -3.283  1.00  0.00     0.000 C 
BRANCH   9  10
ATOM     10  C   UNL     1      60.082 -25.501  -2.530  1.00  0.00     0.000 C 
BRANCH  10  11
ATOM     11  C   UNL     1      58.762 -26.301  -2.495  1.00  0.00     0.000 C 
BRANCH  11  12
ATOM     12  C   UNL     1      58.468 -26.997  -3.834  1.00  0.00     0.000 C 
BRANCH  12  13
ATOM     13  C   UNL     1      57.806 -26.067  -4.866  1.00  0.00     0.006 C 
BRANCH  13  14
ATOM     14  C   UNL     1      58.729 -25.672  -6.033  1.00  0.00     0.053 C 
BRANCH  14  15
ATOM     15  C   UNL     1      59.359 -24.326  -5.842  1.00  0.00     0.041 C 
ATOM     16  O   UNL     1      60.541 -24.116  -6.224  1.00  0.00    -0.550 OA
ATOM     17  O   UNL     1      58.626 -23.290  -5.276  1.00  0.00    -0.550 OA
ENDBRANCH  14  15
ENDBRANCH  13  14
ENDBRANCH  12  13
ENDBRANCH  11  12
ENDBRANCH  10  11
ENDBRANCH   9  10
ENDBRANCH   8   9
ENDBRANCH   7   8
ENDBRANCH   6   7
ENDBRANCH   5   6
ENDBRANCH   4   5
ENDBRANCH   3   4
ENDBRANCH   2   3
ENDBRANCH   1   2
BRANCH   1  18
ATOM     18  C   UNL     1      59.071 -29.523   2.056  1.00  0.00     0.000 C 
BRANCH  18  19
ATOM     19  C   UNL     1      60.270 -28.984   2.855  1.00  0.00     0.000 C 
BRANCH  19  20
ATOM     20  C   UNL     1      60.100 -29.182   4.370  1.00  0.00     0.000 C 
BRANCH  20  21
ATOM     21  C   UNL     1      59.147 -28.153   5.002  1.00  0.00     0.000 C 
BRANCH  21  22
ATOM     22  C   UNL     1      59.321 -26.740   4.416  1.00  0.00     0.000 C 
BRANCH  22  23
ATOM     23  C   UNL     1      58.007 -25.995   4.102  1.00  0.00     0.000 C 
BRANCH  23  24
ATOM     24  C   UNL     1      57.050 -26.731   3.148  1.00  0.00    -0.000 C 
BRANCH  24  25
ATOM     25  C   UNL     1      55.575 -26.595   3.555  1.00  0.00    -0.000 C 
BRANCH  25  26
ATOM     26  C   UNL     1      55.065 -27.891   4.197  1.00  0.00    -0.000 C 
BRANCH  26  27
ATOM     27  C   UNL     1      55.852 -29.108   3.689  1.00  0.00    -0.000 C 
BRANCH  27  28
ATOM     28  C   UNL     1      55.005 -30.026   2.796  1.00  0.00    -0.000 C 
BRANCH  28  29
ATOM     29  C   UNL     1      55.413 -29.953   1.314  1.00  0.00    -0.000 C 
BRANCH  29  30
ATOM     30  C   UNL     1      54.733 -28.791   0.565  1.00  0.00    -0.000 C 
BRANCH  30  31
ATOM     31  C   UNL     1      55.670 -27.970  -0.339  1.00  0.00    -0.003 C 
ATOM     32  C   UNL     1      55.932 -28.634  -1.690  1.00  0.00     0.004 C 
ENDBRANCH  30  31
ENDBRANCH  29  30
ENDBRANCH  28  29
ENDBRANCH  27  28
ENDBRANCH  26  27
ENDBRANCH  25  26
ENDBRANCH  24  25
ENDBRANCH  23  24
ENDBRANCH  22  23
ENDBRANCH  21  22
ENDBRANCH  20  21
ENDBRANCH  19  20
ENDBRANCH  18  19
ENDBRANCH   1  18
TORSDOF 28
ENDMDL
MODEL 2
REMARK VINA RESULT:    -4.331      2.009      4.501
REMARK INTER + INTRA:         -16.392
REMARK INTER:                 -11.485
REMARK INTRA:                  -4.907
REMARK UNBOUND:                -4.973
REMARK SMILES CCCCCCCCCCCCCCCCCCCCCCCCCCCCCC(=O)[O-]
REMARK SMILES IDX 16 1 17 2 18 3 19 4 20 5 21 6 22 7 23 8 24 9 25 10 26 11
REMARK SMILES IDX 27 12 28 13 29 14 30 15 31 16 32 17 15 18 14 19 13 20 12 21
REMARK SMILES IDX 11 22 10 23 9 24 8 25 7 26 6 27 5 28 4 29 3 30 2 31 1 32
REMARK H PARENT
REMARK Flexibility Score: inf
ROOT
ATOM      1  C   UNL     1      60.714 -28.687  -1.829  1.00  0.00     0.000 C 
ENDROOT
BRANCH   1   2
ATOM      2  C   UNL     1      61.604 -28.884  -0.588  1.00  0.00     0.000 C 
BRANCH   2   3
ATOM      3  C   UNL     1      63.078 -28.521  -0.841  1.00  0.00     0.000 C 
BRANCH   3   4
ATOM      4  C   UNL     1      63.340 -28.020  -2.274  1.00  0.00     0.000 C 
BRANCH   4   5
ATOM      5  C   UNL     1      63.598 -26.508  -2.414  1.00  0.00     0.000 C 
BRANCH   5   6
ATOM      6  C   UNL     1      62.789 -25.859  -3.551  1.00  0.00     0.000 C 
BRANCH   6   7
ATOM      7  C   UNL     1      61.409 -25.351  -3.095  1.00  0.00     0.000 C 
BRANCH   7   8
ATOM      8  C   UNL     1      60.475 -24.882  -4.227  1.00  0.00     0.000 C 
BRANCH   8   9
ATOM      9  C   UNL     1      61.049 -25.151  -5.627  1.00  0.00     0.000 C 
BRANCH   9  10
ATOM     10  C   UNL     1      59.955 -25.293  -6.699  1.00  0.00     0.000 C 
BRANCH  10  11
ATOM     11  C   UNL     1      58.634 -25.874  -6.152  1.00  0.00     0.000 C 
BRANCH  11  12
ATOM     12  C   UNL     1      57.417 -25.017  -6.538  1.00  0.00     0.000 C 
BRANCH  12  13
ATOM     13  C   UNL     1      57.438 -23.616  -5.901  1.00  0.00     0.006 C 
BRANCH  13  14
ATOM     14  C   UNL     1      56.050 -22.956  -5.799  1.00  0.00     0.053 C 
BRANCH  14  15
ATOM     15  C   UNL     1      55.124 -23.699  -4.885  1.00  0.00     0.041 C 
ATOM     16  O   UNL     1      55.426 -23.869  -3.673  1.00  0.00    -0.550 OA
ATOM     17  O   UNL     1      53.907 -24.169  -5.362  1.00  0.00    -0.550 OA
ENDBRANCH  14  15
ENDBRANCH  13  14
ENDBRANCH  12  13
ENDBRANCH  11  12
ENDBRANCH  10  11
ENDBRANCH   9  10
ENDBRANCH   8   9
ENDBRANCH   7   8
ENDBRANCH   6   7
ENDBRANCH   5   6
ENDBRANCH   4   5
ENDBRANCH   3   4
ENDBRANCH   2   3
ENDBRANCH   1   2
BRANCH   1  18
ATOM     18  C   UNL     1      59.450 -27.835  -1.608  1.00  0.00     0.000 C 
BRANCH  18  19
ATOM     19  C   UNL     1      58.547 -27.764  -2.852  1.00  0.00     0.000 C 
BRANCH  19  20
ATOM     20  C   UNL     1      57.504 -26.638  -2.755  1.00  0.00     0.000 C 
BRANCH  20  21
ATOM     21  C   UNL     1      57.867 -25.579  -1.699  1.00  0.00     0.000 C 
BRANCH  21  22
ATOM     22  C   UNL     1      56.770 -25.399  -0.635  1.00  0.00     0.000 C 
BRANCH  22  23
ATOM     23  C   UNL     1      56.675 -26.534   0.407  1.00  0.00     0.000 C 
BRANCH  23  24
ATOM     24  C   UNL     1      55.510 -27.518   0.197  1.00  0.00    -0.000 C 
BRANCH  24  25
ATOM     25  C   UNL     1      55.976 -28.916  -0.234  1.00  0.00    -0.000 C 
BRANCH  25  26
ATOM     26  C   UNL     1      56.653 -29.649   0.930  1.00  0.00    -0.000 C 
BRANCH  26  27
ATOM     27  C   UNL     1      58.002 -30.245   0.499  1.00  0.00    -0.000 C 
BRANCH  27  28
ATOM     28  C   UNL     1      59.095 -30.052   1.560  1.00  0.00    -0.000 C 
BRANCH  28  29
ATOM     29  C   UNL     1      59.149 -28.613   2.101  1.00  0.00    -0.000 C 
BRANCH  29  30
ATOM     30  C   UNL     1      58.794 -28.525   3.598  1.00  0.00    -0.000 C 
BRANCH  30  31
ATOM     31  C   UNL     1      59.521 -27.408   4.369  1.00  0.00    -0.003 C 
ATOM     32  C   UNL     1      60.871 -27.851   4.931  1.00  0.00     0.004 C 
ENDBRANCH  30  31
ENDBRANCH  29  30
ENDBRANCH  28  29
ENDBRANCH  27  28
ENDBRANCH  26  27
ENDBRANCH  25  26
ENDBRANCH  24  25
ENDBRANCH  23  24
ENDBRANCH  22  23
ENDBRANCH  21  22
ENDBRANCH  20  21
ENDBRANCH  19  20
ENDBRANCH  18  19
ENDBRANCH   1  18
TORSDOF 28
ENDMDL
MODEL 3
REMARK VINA RESULT:    -4.327      1.416      4.321
REMARK INTER + INTRA:         -16.383
REMARK INTER:                 -11.417
REMARK INTRA:                  -4.966
REMARK UNBOUND:                -4.973
REMARK SMILES CCCCCCCCCCCCCCCCCCCCCCCCCCCCCC(=O)[O-]
REMARK SMILES IDX 16 1 17 2 18 3 19 4 20 5 21 6 22 7 23 8 24 9 25 10 26 11
REMARK SMILES IDX 27 12 28 13 29 14 30 15 31 16 32 17 15 18 14 19 13 20 12 21
REMARK SMILES IDX 11 22 10 23 9 24 8 25 7 26 6 27 5 28 4 29 3 30 2 31 1 32
REMARK H PARENT
REMARK Flexibility Score: inf
ROOT
ATOM      1  C   UNL     1      63.338 -28.677  -1.614  1.00  0.00     0.000 C 
ENDROOT
BRANCH   1   2
ATOM      2  C   UNL     1      63.649 -27.188  -1.855  1.00  0.00     0.000 C 
BRANCH   2   3
ATOM      3  C   UNL     1      62.983 -26.633  -3.126  1.00  0.00     0.000 C 
BRANCH   3   4
ATOM      4  C   UNL     1      62.019 -25.466  -2.843  1.00  0.00     0.000 C 
BRANCH   4   5
ATOM      5  C   UNL     1      60.582 -25.867  -2.458  1.00  0.00     0.000 C 
BRANCH   5   6
ATOM      6  C   UNL     1      60.127 -27.184  -3.112  1.00  0.00     0.000 C 
BRANCH   6   7
ATOM      7  C   UNL     1      58.609 -27.418  -3.002  1.00  0.00     0.000 C 
BRANCH   7   8
ATOM      8  C   UNL     1      57.873 -26.500  -2.009  1.00  0.00     0.000 C 
BRANCH   8   9
ATOM      9  C   UNL     1      56.525 -25.994  -2.546  1.00  0.00     0.000 C 
BRANCH   9  10
ATOM     10  C   UNL     1      56.528 -24.481  -2.826  1.00  0.00     0.000 C 
BRANCH  10  11
ATOM     11  C   UNL     1      56.728 -24.135  -4.317  1.00  0.00     0.000 C 
BRANCH  11  12
ATOM     12  C   UNL     1      56.514 -25.354  -5.231  1.00  0.00     0.000 C 
BRANCH  12  13
ATOM     13  C   UNL     1      57.701 -25.617  -6.175  1.00  0.00     0.006 C 
BRANCH  13  14
ATOM     14  C   UNL     1      58.996 -24.890  -5.767  1.00  0.00     0.053 C 
BRANCH  14  15
ATOM     15  C   UNL     1      60.175 -25.303  -6.596  1.00  0.00     0.041 C 
ATOM     16  O   UNL     1      61.347 -25.118  -6.171  1.00  0.00    -0.550 OA
ATOM     17  O   UNL     1      59.979 -25.928  -7.820  1.00  0.00    -0.550 OA
ENDBRANCH  14  15
ENDBRANCH  13  14
ENDBRANCH  12  13
ENDBRANCH  11  12
ENDBRANCH  10  11
ENDBRANCH   9  10
ENDBRANCH   8   9
ENDBRANCH   7   8
ENDBRANCH   6   7
ENDBRANCH   5   6
ENDBRANCH   4   5
ENDBRANCH   3   4
ENDBRANCH   2   3
ENDBRANCH   1   2
BRANCH   1  18
ATOM     18  C   UNL     1      62.482 -28.980  -0.370  1.00  0.00     0.000 C 
BRANCH  18  19
ATOM     19  C   UNL     1      61.007 -29.256  -0.708  1.00  0.00     0.000 C 
BRANCH  19  20
ATOM     20  C   UNL     1      60.084 -29.083   0.511  1.00  0.00     0.000 C 
BRANCH  20  21
ATOM     21  C   UNL     1      58.931 -30.101   0.533  1.00  0.00     0.000 C 
BRANCH  21  22
ATOM     22  C   UNL     1      57.639 -29.551  -0.098  1.00  0.00     0.000 C 
BRANCH  22  23
ATOM     23  C   UNL     1      56.511 -29.219   0.902  1.00  0.00     0.000 C 
BRANCH  23  24
ATOM     24  C   UNL     1      56.374 -27.728   1.261  1.00  0.00    -0.000 C 
BRANCH  24  25
ATOM     25  C   UNL     1      56.517 -27.458   2.765  1.00  0.00    -0.000 C 
BRANCH  25  26
ATOM     26  C   UNL     1      56.558 -28.772   3.554  1.00  0.00    -0.000 C 
BRANCH  26  27
ATOM     27  C   UNL     1      57.646 -28.734   4.638  1.00  0.00    -0.000 C 
BRANCH  27  28
ATOM     28  C   UNL     1      59.015 -29.191   4.112  1.00  0.00    -0.000 C 
BRANCH  28  29
ATOM     29  C   UNL     1      60.016 -28.030   3.978  1.00  0.00    -0.000 C 
BRANCH  29  30
ATOM     30  C   UNL     1      60.088 -27.156   5.244  1.00  0.00    -0.000 C 
BRANCH  30  31
ATOM     31  C   UNL     1      60.227 -25.645   4.978  1.00  0.00    -0.003 C 
ATOM     32  C   UNL     1      58.933 -25.004   4.479  1.00  0.00     0.004 C 
ENDBRANCH  30  31
ENDBRANCH  29  30
ENDBRANCH  28  29
ENDBRANCH  27  28
ENDBRANCH  26  27
ENDBRANCH  25  26
ENDBRANCH  24  25
ENDBRANCH  23  24
ENDBRANCH  22  23
ENDBRANCH  21  22
ENDBRANCH  20  21
ENDBRANCH  19  20
ENDBRANCH  18  19
ENDBRANCH   1  18
TORSDOF 28
ENDMDL
MODEL 4
REMARK VINA RESULT:    -4.268      3.203      7.399
REMARK INTER + INTRA:         -16.228
REMARK INTER:                 -11.324
REMARK INTRA:                  -4.903
REMARK UNBOUND:                -4.973
REMARK SMILES CCCCCCCCCCCCCCCCCCCCCCCCCCCCCC(=O)[O-]
REMARK SMILES IDX 16 1 17 2 18 3 19 4 20 5 21 6 22 7 23 8 24 9 25 10 26 11
REMARK SMILES IDX 27 12 28 13 29 14 30 15 31 16 32 17 15 18 14 19 13 20 12 21
REMARK SMILES IDX 11 22 10 23 9 24 8 25 7 26 6 27 5 28 4 29 3 30 2 31 1 32
REMARK H PARENT
REMARK Flexibility Score: inf
ROOT
ATOM      1  C   UNL     1      62.521 -25.598  -2.824  1.00  0.00     0.000 C 
ENDROOT
BRANCH   1   2
ATOM      2  C   UNL     1      63.190 -26.976  -2.981  1.00  0.00     0.000 C 
BRANCH   2   3
ATOM      3  C   UNL     1      63.635 -27.585  -1.641  1.00  0.00     0.000 C 
BRANCH   3   4
ATOM      4  C   UNL     1      62.974 -28.944  -1.344  1.00  0.00     0.000 C 
BRANCH   4   5
ATOM      5  C   UNL     1      62.123 -29.006  -0.061  1.00  0.00     0.000 C 
BRANCH   5   6
ATOM      6  C   UNL     1      60.613 -28.893  -0.332  1.00  0.00     0.000 C 
BRANCH   6   7
ATOM      7  C   UNL     1      59.758 -29.683   0.676  1.00  0.00     0.000 C 
BRANCH   7   8
ATOM      8  C   UNL     1      60.136 -29.482   2.156  1.00  0.00     0.000 C 
BRANCH   8   9
ATOM      9  C   UNL     1      58.943 -29.053   3.025  1.00  0.00     0.000 C 
BRANCH   9  10
ATOM     10  C   UNL     1      59.183 -27.711   3.739  1.00  0.00     0.000 C 
BRANCH  10  11
ATOM     11  C   UNL     1      57.948 -26.784   3.730  1.00  0.00     0.000 C 
BRANCH  11  12
ATOM     12  C   UNL     1      57.296 -26.698   2.340  1.00  0.00     0.000 C 
BRANCH  12  13
ATOM     13  C   UNL     1      55.827 -27.158   2.331  1.00  0.00     0.006 C 
BRANCH  13  14
ATOM     14  C   UNL     1      55.565 -28.391   1.447  1.00  0.00     0.053 C 
BRANCH  14  15
ATOM     15  C   UNL     1      55.171 -29.599   2.243  1.00  0.00     0.041 C 
ATOM     16  O   UNL     1      54.814 -29.480   3.445  1.00  0.00    -0.550 OA
ATOM     17  O   UNL     1      55.159 -30.852   1.644  1.00  0.00    -0.550 OA
ENDBRANCH  14  15
ENDBRANCH  13  14
ENDBRANCH  12  13
ENDBRANCH  11  12
ENDBRANCH  10  11
ENDBRANCH   9  10
ENDBRANCH   8   9
ENDBRANCH   7   8
ENDBRANCH   6   7
ENDBRANCH   5   6
ENDBRANCH   4   5
ENDBRANCH   3   4
ENDBRANCH   2   3
ENDBRANCH   1   2
BRANCH   1  18
ATOM     18  C   UNL     1      60.987 -25.616  -2.703  1.00  0.00     0.000 C 
BRANCH  18  19
ATOM     19  C   UNL     1      60.356 -26.913  -3.239  1.00  0.00     0.000 C 
BRANCH  19  20
ATOM     20  C   UNL     1      58.851 -26.764  -3.513  1.00  0.00     0.000 C 
BRANCH  20  21
ATOM     21  C   UNL     1      57.995 -27.736  -2.683  1.00  0.00     0.000 C 
BRANCH  21  22
ATOM     22  C   UNL     1      57.583 -27.153  -1.320  1.00  0.00     0.000 C 
BRANCH  22  23
ATOM     23  C   UNL     1      57.605 -25.612  -1.233  1.00  0.00     0.000 C 
BRANCH  23  24
ATOM     24  C   UNL     1      56.232 -24.950  -1.013  1.00  0.00    -0.000 C 
BRANCH  24  25
ATOM     25  C   UNL     1      55.821 -24.026  -2.167  1.00  0.00    -0.000 C 
BRANCH  25  26
ATOM     26  C   UNL     1      54.952 -24.776  -3.184  1.00  0.00    -0.000 C 
BRANCH  26  27
ATOM     27  C   UNL     1      55.637 -24.841  -4.557  1.00  0.00    -0.000 C 
BRANCH  27  28
ATOM     28  C   UNL     1      56.899 -23.968  -4.626  1.00  0.00    -0.000 C 
BRANCH  28  29
ATOM     29  C   UNL     1      57.328 -23.660  -6.071  1.00  0.00    -0.000 C 
BRANCH  29  30
ATOM     30  C   UNL     1      58.518 -24.521  -6.536  1.00  0.00    -0.000 C 
BRANCH  30  31
ATOM     31  C   UNL     1      59.865 -24.166  -5.881  1.00  0.00    -0.003 C 
ATOM     32  C   UNL     1      61.024 -25.018  -6.398  1.00  0.00     0.004 C 
ENDBRANCH  30  31
ENDBRANCH  29  30
ENDBRANCH  28  29
ENDBRANCH  27  28
ENDBRANCH  26  27
ENDBRANCH  25  26
ENDBRANCH  24  25
ENDBRANCH  23  24
ENDBRANCH  22  23
ENDBRANCH  21  22
ENDBRANCH  20  21
ENDBRANCH  19  20
ENDBRANCH  18  19
ENDBRANCH   1  18
TORSDOF 28
ENDMDL
MODEL 5
REMARK VINA RESULT:    -4.268      3.164      7.203
REMARK INTER + INTRA:         -16.227
REMARK INTER:                 -11.649
REMARK INTRA:                  -4.578
REMARK UNBOUND:                -4.973
REMARK SMILES CCCCCCCCCCCCCCCCCCCCCCCCCCCCCC(=O)[O-]
REMARK SMILES IDX 16 1 17 2 18 3 19 4 20 5 21 6 22 7 23 8 24 9 25 10 26 11
REMARK SMILES IDX 27 12 28 13 29 14 30 15 31 16 32 17 15 18 14 19 13 20 12 21
REMARK SMILES IDX 11 22 10 23 9 24 8 25 7 26 6 27 5 28 4 29 3 30 2 31 1 32
REMARK H PARENT
REMARK Flexibility Score: inf
ROOT
ATOM      1  C   UNL     1      61.163 -29.141  -0.869  1.00  0.00     0.000 C 
ENDROOT
BRANCH   1   2
ATOM      2  C   UNL     1      60.037 -29.000   0.173  1.00  0.00     0.000 C 
BRANCH   2   3
ATOM      3  C   UNL     1      58.855 -29.950  -0.088  1.00  0.00     0.000 C 
BRANCH   3   4
ATOM      4  C   UNL     1      57.568 -29.214  -0.505  1.00  0.00     0.000 C 
BRANCH   4   5
ATOM      5  C   UNL     1      57.774 -27.894  -1.272  1.00  0.00     0.000 C 
BRANCH   5   6
ATOM      6  C   UNL     1      56.496 -27.041  -1.360  1.00  0.00     0.000 C 
BRANCH   6   7
ATOM      7  C   UNL     1      56.563 -25.966  -2.460  1.00  0.00     0.000 C 
BRANCH   7   8
ATOM      8  C   UNL     1      56.406 -24.514  -1.971  1.00  0.00     0.000 C 
BRANCH   8   9
ATOM      9  C   UNL     1      55.230 -23.781  -2.637  1.00  0.00     0.000 C 
BRANCH   9  10
ATOM     10  C   UNL     1      54.224 -24.744  -3.289  1.00  0.00     0.000 C 
BRANCH  10  11
ATOM     11  C   UNL     1      52.999 -24.028  -3.898  1.00  0.00     0.000 C 
BRANCH  11  12
ATOM     12  C   UNL     1      53.319 -22.585  -4.320  1.00  0.00     0.000 C 
BRANCH  12  13
ATOM     13  C   UNL     1      53.699 -22.460  -5.806  1.00  0.00     0.006 C 
BRANCH  13  14
ATOM     14  C   UNL     1      53.581 -21.029  -6.363  1.00  0.00     0.053 C 
BRANCH  14  15
ATOM     15  C   UNL     1      54.765 -20.176  -6.021  1.00  0.00     0.041 C 
ATOM     16  O   UNL     1      55.891 -20.417  -6.533  1.00  0.00    -0.550 OA
ATOM     17  O   UNL     1      54.616 -19.091  -5.167  1.00  0.00    -0.550 OA
ENDBRANCH  14  15
ENDBRANCH  13  14
ENDBRANCH  12  13
ENDBRANCH  11  12
ENDBRANCH  10  11
ENDBRANCH   9  10
ENDBRANCH   8   9
ENDBRANCH   7   8
ENDBRANCH   6   7
ENDBRANCH   5   6
ENDBRANCH   4   5
ENDBRANCH   3   4
ENDBRANCH   2   3
ENDBRANCH   1   2
BRANCH   1  18
ATOM     18  C   UNL     1      62.590 -29.209  -0.295  1.00  0.00     0.000 C 
BRANCH  18  19
ATOM     19  C   UNL     1      63.624 -28.469  -1.161  1.00  0.00     0.000 C 
BRANCH  19  20
ATOM     20  C   UNL     1      62.988 -27.810  -2.396  1.00  0.00     0.000 C 
BRANCH  20  21
ATOM     21  C   UNL     1      63.259 -26.297  -2.469  1.00  0.00     0.000 C 
BRANCH  21  22
ATOM     22  C   UNL     1      62.109 -25.516  -3.129  1.00  0.00     0.000 C 
BRANCH  22  23
ATOM     23  C   UNL     1      60.710 -26.144  -2.961  1.00  0.00     0.000 C 
BRANCH  23  24
ATOM     24  C   UNL     1      59.785 -26.020  -4.186  1.00  0.00    -0.000 C 
BRANCH  24  25
ATOM     25  C   UNL     1      60.469 -25.354  -5.388  1.00  0.00    -0.000 C 
BRANCH  25  26
ATOM     26  C   UNL     1      59.774 -24.036  -5.750  1.00  0.00    -0.000 C 
BRANCH  26  27
ATOM     27  C   UNL     1      58.462 -23.870  -4.969  1.00  0.00    -0.000 C 
BRANCH  27  28
ATOM     28  C   UNL     1      57.246 -23.698  -5.892  1.00  0.00    -0.000 C 
BRANCH  28  29
ATOM     29  C   UNL     1      56.416 -24.986  -6.025  1.00  0.00    -0.000 C 
BRANCH  29  30
ATOM     30  C   UNL     1      56.608 -25.682  -7.385  1.00  0.00    -0.000 C 
BRANCH  30  31
ATOM     31  C   UNL     1      57.732 -26.734  -7.419  1.00  0.00    -0.003 C 
ATOM     32  C   UNL     1      58.781 -26.454  -8.494  1.00  0.00     0.004 C 
ENDBRANCH  30  31
ENDBRANCH  29  30
ENDBRANCH  28  29
ENDBRANCH  27  28
ENDBRANCH  26  27
ENDBRANCH  25  26
ENDBRANCH  24  25
ENDBRANCH  23  24
ENDBRANCH  22  23
ENDBRANCH  21  22
ENDBRANCH  20  21
ENDBRANCH  19  20
ENDBRANCH  18  19
ENDBRANCH   1  18
TORSDOF 28
ENDMDL
MODEL 6
REMARK VINA RESULT:    -4.238      3.158      7.636
REMARK INTER + INTRA:         -16.147
REMARK INTER:                 -11.303
REMARK INTRA:                  -4.844
REMARK UNBOUND:                -4.973
REMARK SMILES CCCCCCCCCCCCCCCCCCCCCCCCCCCCCC(=O)[O-]
REMARK SMILES IDX 16 1 17 2 18 3 19 4 20 5 21 6 22 7 23 8 24 9 25 10 26 11
REMARK SMILES IDX 27 12 28 13 29 14 30 15 31 16 32 17 15 18 14 19 13 20 12 21
REMARK SMILES IDX 11 22 10 23 9 24 8 25 7 26 6 27 5 28 4 29 3 30 2 31 1 32
REMARK H PARENT
REMARK Flexibility Score: inf
ROOT
ATOM      1  C   UNL     1      62.743 -28.140  -1.978  1.00  0.00     0.000 C 
ENDROOT
BRANCH   1   2
ATOM      2  C   UNL     1      62.947 -28.838  -0.620  1.00  0.00     0.000 C 
BRANCH   2   3
ATOM      3  C   UNL     1      61.623 -29.223   0.063  1.00  0.00     0.000 C 
BRANCH   3   4
ATOM      4  C   UNL     1      60.417 -29.193  -0.894  1.00  0.00     0.000 C 
BRANCH   4   5
ATOM      5  C   UNL     1      59.046 -29.468  -0.248  1.00  0.00     0.000 C 
BRANCH   5   6
ATOM      6  C   UNL     1      59.100 -29.508   1.289  1.00  0.00     0.000 C 
BRANCH   6   7
ATOM      7  C   UNL     1      57.783 -29.062   1.951  1.00  0.00     0.000 C 
BRANCH   7   8
ATOM      8  C   UNL     1      57.906 -27.876   2.925  1.00  0.00     0.000 C 
BRANCH   8   9
ATOM      9  C   UNL     1      57.051 -26.668   2.509  1.00  0.00     0.000 C 
BRANCH   9  10
ATOM     10  C   UNL     1      56.963 -26.501   0.982  1.00  0.00     0.000 C 
BRANCH  10  11
ATOM     11  C   UNL     1      55.591 -25.983   0.502  1.00  0.00     0.000 C 
BRANCH  11  12
ATOM     12  C   UNL     1      54.470 -27.013   0.720  1.00  0.00     0.000 C 
BRANCH  12  13
ATOM     13  C   UNL     1      54.023 -27.705  -0.580  1.00  0.00     0.006 C 
BRANCH  13  14
ATOM     14  C   UNL     1      54.427 -29.188  -0.669  1.00  0.00     0.053 C 
BRANCH  14  15
ATOM     15  C   UNL     1      53.898 -30.000   0.475  1.00  0.00     0.041 C 
ATOM     16  O   UNL     1      52.657 -30.090   0.670  1.00  0.00    -0.550 OA
ATOM     17  O   UNL     1      54.776 -30.691   1.301  1.00  0.00    -0.550 OA
ENDBRANCH  14  15
ENDBRANCH  13  14
ENDBRANCH  12  13
ENDBRANCH  11  12
ENDBRANCH  10  11
ENDBRANCH   9  10
ENDBRANCH   8   9
ENDBRANCH   7   8
ENDBRANCH   6   7
ENDBRANCH   5   6
ENDBRANCH   4   5
ENDBRANCH   3   4
ENDBRANCH   2   3
ENDBRANCH   1   2
BRANCH   1  18
ATOM     18  C   UNL     1      63.592 -26.876  -2.206  1.00  0.00     0.000 C 
BRANCH  18  19
ATOM     19  C   UNL     1      62.851 -25.788  -3.002  1.00  0.00     0.000 C 
BRANCH  19  20
ATOM     20  C   UNL     1      61.409 -26.195  -3.348  1.00  0.00     0.000 C 
BRANCH  20  21
ATOM     21  C   UNL     1      60.361 -25.253  -2.730  1.00  0.00     0.000 C 
BRANCH  21  22
ATOM     22  C   UNL     1      59.200 -26.010  -2.062  1.00  0.00     0.000 C 
BRANCH  22  23
ATOM     23  C   UNL     1      58.487 -27.041  -2.962  1.00  0.00     0.000 C 
BRANCH  23  24
ATOM     24  C   UNL     1      56.968 -27.165  -2.740  1.00  0.00    -0.000 C 
BRANCH  24  25
ATOM     25  C   UNL     1      56.205 -25.879  -3.088  1.00  0.00    -0.000 C 
BRANCH  25  26
ATOM     26  C   UNL     1      56.553 -25.403  -4.503  1.00  0.00    -0.000 C 
BRANCH  26  27
ATOM     27  C   UNL     1      57.218 -24.019  -4.475  1.00  0.00    -0.000 C 
BRANCH  27  28
ATOM     28  C   UNL     1      58.302 -23.865  -5.552  1.00  0.00    -0.000 C 
BRANCH  28  29
ATOM     29  C   UNL     1      58.698 -25.208  -6.190  1.00  0.00    -0.000 C 
BRANCH  29  30
ATOM     30  C   UNL     1      60.204 -25.300  -6.500  1.00  0.00    -0.000 C 
BRANCH  30  31
ATOM     31  C   UNL     1      60.591 -24.918  -7.940  1.00  0.00    -0.003 C 
ATOM     32  C   UNL     1      61.297 -26.047  -8.690  1.00  0.00     0.004 C 
ENDBRANCH  30  31
ENDBRANCH  29  30
ENDBRANCH  28  29
ENDBRANCH  27  28
ENDBRANCH  26  27
ENDBRANCH  25  26
ENDBRANCH  24  25
ENDBRANCH  23  24
ENDBRANCH  22  23
ENDBRANCH  21  22
ENDBRANCH  20  21
ENDBRANCH  19  20
ENDBRANCH  18  19
ENDBRANCH   1  18
TORSDOF 28
ENDMDL
MODEL 7
REMARK VINA RESULT:    -4.227      1.733      3.051
REMARK INTER + INTRA:         -16.119
REMARK INTER:                 -11.372
REMARK INTRA:                  -4.747
REMARK UNBOUND:                -4.973
REMARK SMILES CCCCCCCCCCCCCCCCCCCCCCCCCCCCCC(=O)[O-]
REMARK SMILES IDX 16 1 17 2 18 3 19 4 20 5 21 6 22 7 23 8 24 9 25 10 26 11
REMARK SMILES IDX 27 12 28 13 29 14 30 15 31 16 32 17 15 18 14 19 13 20 12 21
REMARK SMILES IDX 11 22 10 23 9 24 8 25 7 26 6 27 5 28 4 29 3 30 2 31 1 32
REMARK H PARENT
REMARK Flexibility Score: inf
ROOT
ATOM      1  C   UNL     1      59.754 -29.518   0.185  1.00  0.00     0.000 C 
ENDROOT
BRANCH   1   2
ATOM      2  C   UNL     1      60.756 -28.877  -0.794  1.00  0.00     0.000 C 
BRANCH   2   3
ATOM      3  C   UNL     1      62.220 -29.216  -0.464  1.00  0.00     0.000 C 
BRANCH   3   4
ATOM      4  C   UNL     1      63.199 -28.822  -1.586  1.00  0.00     0.000 C 
BRANCH   4   5
ATOM      5  C   UNL     1      63.611 -27.338  -1.620  1.00  0.00     0.000 C 
BRANCH   5   6
ATOM      6  C   UNL     1      63.613 -26.745  -3.040  1.00  0.00     0.000 C 
BRANCH   6   7
ATOM      7  C   UNL     1      62.592 -25.607  -3.220  1.00  0.00     0.000 C 
BRANCH   7   8
ATOM      8  C   UNL     1      61.147 -25.951  -2.815  1.00  0.00     0.000 C 
BRANCH   8   9
ATOM      9  C   UNL     1      60.198 -26.063  -4.019  1.00  0.00     0.000 C 
BRANCH   9  10
ATOM     10  C   UNL     1      59.488 -24.736  -4.339  1.00  0.00     0.000 C 
BRANCH  10  11
ATOM     11  C   UNL     1      59.983 -24.077  -5.644  1.00  0.00     0.000 C 
BRANCH  11  12
ATOM     12  C   UNL     1      60.852 -25.028  -6.483  1.00  0.00     0.000 C 
BRANCH  12  13
ATOM     13  C   UNL     1      60.112 -25.606  -7.702  1.00  0.00     0.006 C 
BRANCH  13  14
ATOM     14  C   UNL     1      58.695 -25.036  -7.900  1.00  0.00     0.053 C 
BRANCH  14  15
ATOM     15  C   UNL     1      57.622 -26.026  -7.561  1.00  0.00     0.041 C 
ATOM     16  O   UNL     1      56.718 -25.728  -6.736  1.00  0.00    -0.550 OA
ATOM     17  O   UNL     1      57.598 -27.266  -8.188  1.00  0.00    -0.550 OA
ENDBRANCH  14  15
ENDBRANCH  13  14
ENDBRANCH  12  13
ENDBRANCH  11  12
ENDBRANCH  10  11
ENDBRANCH   9  10
ENDBRANCH   8   9
ENDBRANCH   7   8
ENDBRANCH   6   7
ENDBRANCH   5   6
ENDBRANCH   4   5
ENDBRANCH   3   4
ENDBRANCH   2   3
ENDBRANCH   1   2
BRANCH   1  18
ATOM     18  C   UNL     1      60.171 -29.496   1.667  1.00  0.00     0.000 C 
BRANCH  18  19
ATOM     19  C   UNL     1      59.123 -28.832   2.577  1.00  0.00     0.000 C 
BRANCH  19  20
ATOM     20  C   UNL     1      57.877 -28.376   1.800  1.00  0.00     0.000 C 
BRANCH  20  21
ATOM     21  C   UNL     1      57.234 -27.111   2.396  1.00  0.00     0.000 C 
BRANCH  21  22
ATOM     22  C   UNL     1      55.988 -27.419   3.244  1.00  0.00     0.000 C 
BRANCH  22  23
ATOM     23  C   UNL     1      54.667 -26.827   2.707  1.00  0.00     0.000 C 
BRANCH  23  24
ATOM     24  C   UNL     1      54.748 -26.223   1.293  1.00  0.00    -0.000 C 
BRANCH  24  25
ATOM     25  C   UNL     1      53.820 -26.921   0.289  1.00  0.00    -0.000 C 
BRANCH  25  26
ATOM     26  C   UNL     1      53.610 -28.391   0.671  1.00  0.00    -0.000 C 
BRANCH  26  27
ATOM     27  C   UNL     1      54.687 -29.287   0.040  1.00  0.00    -0.000 C 
BRANCH  27  28
ATOM     28  C   UNL     1      55.040 -28.862  -1.393  1.00  0.00    -0.000 C 
BRANCH  28  29
ATOM     29  C   UNL     1      56.557 -28.728  -1.615  1.00  0.00    -0.000 C 
BRANCH  29  30
ATOM     30  C   UNL     1      56.954 -27.365  -2.214  1.00  0.00    -0.000 C 
BRANCH  30  31
ATOM     31  C   UNL     1      57.828 -26.489  -1.298  1.00  0.00    -0.003 C 
ATOM     32  C   UNL     1      57.213 -25.119  -1.015  1.00  0.00     0.004 C 
ENDBRANCH  30  31
ENDBRANCH  29  30
ENDBRANCH  28  29
ENDBRANCH  27  28
ENDBRANCH  26  27
ENDBRANCH  25  26
ENDBRANCH  24  25
ENDBRANCH  23  24
ENDBRANCH  22  23
ENDBRANCH  21  22
ENDBRANCH  20  21
ENDBRANCH  19  20
ENDBRANCH  18  19
ENDBRANCH   1  18
TORSDOF 28
ENDMDL
MODEL 8
REMARK VINA RESULT:    -4.205      2.449      7.518
REMARK INTER + INTRA:         -16.062
REMARK INTER:                 -11.729
REMARK INTRA:                  -4.333
REMARK UNBOUND:                -4.973
REMARK SMILES CCCCCCCCCCCCCCCCCCCCCCCCCCCCCC(=O)[O-]
REMARK SMILES IDX 16 1 17 2 18 3 19 4 20 5 21 6 22 7 23 8 24 9 25 10 26 11
REMARK SMILES IDX 27 12 28 13 29 14 30 15 31 16 32 17 15 18 14 19 13 20 12 21
REMARK SMILES IDX 11 22 10 23 9 24 8 25 7 26 6 27 5 28 4 29 3 30 2 31 1 32
REMARK H PARENT
REMARK Flexibility Score: inf
ROOT
ATOM      1  C   UNL     1      61.278 -28.887  -1.354  1.00  0.00     0.000 C 
ENDROOT
BRANCH   1   2
ATOM      2  C   UNL     1      60.052 -28.532  -0.492  1.00  0.00     0.000 C 
BRANCH   2   3
ATOM      3  C   UNL     1      59.196 -29.758  -0.129  1.00  0.00     0.000 C 
BRANCH   3   4
ATOM      4  C   UNL     1      59.382 -30.216   1.330  1.00  0.00     0.000 C 
BRANCH   4   5
ATOM      5  C   UNL     1      60.071 -29.202   2.263  1.00  0.00     0.000 C 
BRANCH   5   6
ATOM      6  C   UNL     1      59.334 -29.015   3.601  1.00  0.00     0.000 C 
BRANCH   6   7
ATOM      7  C   UNL     1      59.103 -27.536   3.961  1.00  0.00     0.000 C 
BRANCH   7   8
ATOM      8  C   UNL     1      57.802 -26.923   3.411  1.00  0.00     0.000 C 
BRANCH   8   9
ATOM      9  C   UNL     1      56.767 -27.982   3.000  1.00  0.00     0.000 C 
BRANCH   9  10
ATOM     10  C   UNL     1      56.348 -27.860   1.525  1.00  0.00     0.000 C 
BRANCH  10  11
ATOM     11  C   UNL     1      56.708 -26.497   0.897  1.00  0.00     0.000 C 
BRANCH  11  12
ATOM     12  C   UNL     1      57.079 -26.621  -0.591  1.00  0.00     0.000 C 
BRANCH  12  13
ATOM     13  C   UNL     1      56.086 -25.904  -1.523  1.00  0.00     0.006 C 
BRANCH  13  14
ATOM     14  C   UNL     1      56.221 -24.371  -1.517  1.00  0.00     0.053 C 
BRANCH  14  15
ATOM     15  C   UNL     1      54.904 -23.675  -1.347  1.00  0.00     0.041 C 
ATOM     16  O   UNL     1      54.385 -23.568  -0.204  1.00  0.00    -0.550 OA
ATOM     17  O   UNL     1      54.270 -23.110  -2.446  1.00  0.00    -0.550 OA
ENDBRANCH  14  15
ENDBRANCH  13  14
ENDBRANCH  12  13
ENDBRANCH  11  12
ENDBRANCH  10  11
ENDBRANCH   9  10
ENDBRANCH   8   9
ENDBRANCH   7   8
ENDBRANCH   6   7
ENDBRANCH   5   6
ENDBRANCH   4   5
ENDBRANCH   3   4
ENDBRANCH   2   3
ENDBRANCH   1   2
BRANCH   1  18
ATOM     18  C   UNL     1      62.635 -28.833  -0.628  1.00  0.00     0.000 C 
BRANCH  18  19
ATOM     19  C   UNL     1      63.635 -27.872  -1.293  1.00  0.00     0.000 C 
BRANCH  19  20
ATOM     20  C   UNL     1      63.182 -27.432  -2.695  1.00  0.00     0.000 C 
BRANCH  20  21
ATOM     21  C   UNL     1      62.794 -25.945  -2.755  1.00  0.00     0.000 C 
BRANCH  21  22
ATOM     22  C   UNL     1      61.590 -25.680  -3.676  1.00  0.00     0.000 C 
BRANCH  22  23
ATOM     23  C   UNL     1      60.214 -25.695  -2.978  1.00  0.00     0.000 C 
BRANCH  23  24
ATOM     24  C   UNL     1      59.246 -26.789  -3.463  1.00  0.00    -0.000 C 
BRANCH  24  25
ATOM     25  C   UNL     1      58.408 -26.354  -4.673  1.00  0.00    -0.000 C 
BRANCH  25  26
ATOM     26  C   UNL     1      58.121 -24.849  -4.626  1.00  0.00    -0.000 C 
BRANCH  26  27
ATOM     27  C   UNL     1      58.755 -24.127  -5.825  1.00  0.00    -0.000 C 
BRANCH  27  28
ATOM     28  C   UNL     1      59.121 -25.089  -6.964  1.00  0.00    -0.000 C 
BRANCH  28  29
ATOM     29  C   UNL     1      60.615 -25.035  -7.329  1.00  0.00    -0.000 C 
BRANCH  29  30
ATOM     30  C   UNL     1      60.868 -25.214  -8.838  1.00  0.00    -0.000 C 
BRANCH  30  31
ATOM     31  C   UNL     1      61.672 -26.472  -9.213  1.00  0.00    -0.003 C 
ATOM     32  C   UNL     1      60.785 -27.658  -9.591  1.00  0.00     0.004 C 
ENDBRANCH  30  31
ENDBRANCH  29  30
ENDBRANCH  28  29
ENDBRANCH  27  28
ENDBRANCH  26  27
ENDBRANCH  25  26
ENDBRANCH  24  25
ENDBRANCH  23  24
ENDBRANCH  22  23
ENDBRANCH  21  22
ENDBRANCH  20  21
ENDBRANCH  19  20
ENDBRANCH  18  19
ENDBRANCH   1  18
TORSDOF 28
ENDMDL
MODEL 9
REMARK VINA RESULT:    -4.186      2.908      5.053
REMARK INTER + INTRA:         -16.011
REMARK INTER:                 -11.203
REMARK INTRA:                  -4.808
REMARK UNBOUND:                -4.973
REMARK SMILES CCCCCCCCCCCCCCCCCCCCCCCCCCCCCC(=O)[O-]
REMARK SMILES IDX 16 1 17 2 18 3 19 4 20 5 21 6 22 7 23 8 24 9 25 10 26 11
REMARK SMILES IDX 27 12 28 13 29 14 30 15 31 16 32 17 15 18 14 19 13 20 12 21
REMARK SMILES IDX 11 22 10 23 9 24 8 25 7 26 6 27 5 28 4 29 3 30 2 31 1 32
REMARK H PARENT
REMARK Flexibility Score: inf
ROOT
ATOM      1  C   UNL     1      63.274 -28.526  -0.987  1.00  0.00     0.000 C 
ENDROOT
BRANCH   1   2
ATOM      2  C   UNL     1      63.058 -27.912  -2.384  1.00  0.00     0.000 C 
BRANCH   2   3
ATOM      3  C   UNL     1      63.334 -26.399  -2.425  1.00  0.00     0.000 C 
BRANCH   3   4
ATOM      4  C   UNL     1      62.339 -25.627  -3.312  1.00  0.00     0.000 C 
BRANCH   4   5
ATOM      5  C   UNL     1      60.851 -25.813  -2.962  1.00  0.00     0.000 C 
BRANCH   5   6
ATOM      6  C   UNL     1      59.944 -25.898  -4.203  1.00  0.00     0.000 C 
BRANCH   6   7
ATOM      7  C   UNL     1      60.610 -25.341  -5.475  1.00  0.00     0.000 C 
BRANCH   7   8
ATOM      8  C   UNL     1      59.708 -25.298  -6.722  1.00  0.00     0.000 C 
BRANCH   8   9
ATOM      9  C   UNL     1      58.305 -25.872  -6.468  1.00  0.00     0.000 C 
BRANCH   9  10
ATOM     10  C   UNL     1      57.199 -24.810  -6.588  1.00  0.00     0.000 C 
BRANCH  10  11
ATOM     11  C   UNL     1      57.594 -23.444  -5.987  1.00  0.00     0.000 C 
BRANCH  11  12
ATOM     12  C   UNL     1      56.476 -22.399  -6.133  1.00  0.00     0.000 C 
BRANCH  12  13
ATOM     13  C   UNL     1      55.123 -23.013  -6.534  1.00  0.00     0.006 C 
BRANCH  13  14
ATOM     14  C   UNL     1      53.964 -22.000  -6.571  1.00  0.00     0.053 C 
BRANCH  14  15
ATOM     15  C   UNL     1      53.251 -21.890  -5.256  1.00  0.00     0.041 C 
ATOM     16  O   UNL     1      52.518 -22.831  -4.849  1.00  0.00    -0.550 OA
ATOM     17  O   UNL     1      53.428 -20.764  -4.462  1.00  0.00    -0.550 OA
ENDBRANCH  14  15
ENDBRANCH  13  14
ENDBRANCH  12  13
ENDBRANCH  11  12
ENDBRANCH  10  11
ENDBRANCH   9  10
ENDBRANCH   8   9
ENDBRANCH   7   8
ENDBRANCH   6   7
ENDBRANCH   5   6
ENDBRANCH   4   5
ENDBRANCH   3   4
ENDBRANCH   2   3
ENDBRANCH   1   2
BRANCH   1  18
ATOM     18  C   UNL     1      61.992 -28.924  -0.234  1.00  0.00     0.000 C 
BRANCH  18  19
ATOM     19  C   UNL     1      60.738 -28.903  -1.126  1.00  0.00     0.000 C 
BRANCH  19  20
ATOM     20  C   UNL     1      59.526 -29.564  -0.449  1.00  0.00     0.000 C 
BRANCH  20  21
ATOM     21  C   UNL     1      59.655 -29.616   1.084  1.00  0.00     0.000 C 
BRANCH  21  22
ATOM     22  C   UNL     1      58.561 -28.806   1.801  1.00  0.00     0.000 C 
BRANCH  22  23
ATOM     23  C   UNL     1      57.113 -29.235   1.482  1.00  0.00     0.000 C 
BRANCH  23  24
ATOM     24  C   UNL     1      56.346 -28.295   0.535  1.00  0.00    -0.000 C 
BRANCH  24  25
ATOM     25  C   UNL     1      56.861 -26.849   0.579  1.00  0.00    -0.000 C 
BRANCH  25  26
ATOM     26  C   UNL     1      57.467 -26.444  -0.770  1.00  0.00    -0.000 C 
BRANCH  26  27
ATOM     27  C   UNL     1      56.772 -27.171  -1.930  1.00  0.00    -0.000 C 
BRANCH  27  28
ATOM     28  C   UNL     1      56.573 -26.268  -3.156  1.00  0.00    -0.000 C 
BRANCH  28  29
ATOM     29  C   UNL     1      56.598 -24.771  -2.800  1.00  0.00    -0.000 C 
BRANCH  29  30
ATOM     30  C   UNL     1      55.234 -24.086  -3.004  1.00  0.00    -0.000 C 
BRANCH  30  31
ATOM     31  C   UNL     1      54.228 -24.298  -1.857  1.00  0.00    -0.003 C 
ATOM     32  C   UNL     1      54.752 -23.814  -0.505  1.00  0.00     0.004 C 
ENDBRANCH  30  31
ENDBRANCH  29  30
ENDBRANCH  28  29
ENDBRANCH  27  28
ENDBRANCH  26  27
ENDBRANCH  25  26
ENDBRANCH  24  25
ENDBRANCH  23  24
ENDBRANCH  22  23
ENDBRANCH  21  22
ENDBRANCH  20  21
ENDBRANCH  19  20
ENDBRANCH  18  19
ENDBRANCH   1  18
TORSDOF 28
ENDMDL
