MODEL 1
REMARK VINA RESULT:    -4.773      0.000      0.000
REMARK INTER + INTRA:          -5.192
REMARK INTER:                  -5.192
REMARK INTRA:                   0.000
REMARK UNBOUND:                 0.000
REMARK SMILES Cc1cc(O)c2c(c1)C(=O)c1cc(O)cc(O)c1C2=O
REMARK SMILES IDX 1 1 2 2 8 3 7 4 6 5 4 6 3 7 19 8 20 9 18 10 11 11 9 12 10 13
REMARK SMILES IDX 12 14 13 15 15 16 16 17 5 18 17 20 14 22
REMARK H PARENT 5 19 17 21 14 23
REMARK Flexibility Score: inf
ROOT
ATOM      1  C   UNL     1      12.236  -4.280   6.179  1.00  0.00     0.044 C 
ATOM      2  C   UNL     1      12.047  -3.010   6.954  1.00  0.00    -0.047 A 
ATOM      3  C   UNL     1      13.155  -2.241   7.328  1.00  0.00     0.016 A 
ATOM      4  C   UNL     1      12.990  -1.065   8.077  1.00  0.00     0.038 A 
ATOM      5  C   UNL     1      11.695  -0.650   8.460  1.00  0.00     0.076 A 
ATOM      6  C   UNL     1      10.585  -1.478   8.152  1.00  0.00     0.127 A 
ATOM      7  C   UNL     1      10.771  -2.633   7.387  1.00  0.00     0.050 A 
ATOM      8  C   UNL     1      11.547   0.672   9.122  1.00  0.00     0.201 C 
ATOM      9  O   UNL     1      10.484   1.332   8.972  1.00  0.00    -0.288 OA
ATOM     10  C   UNL     1      12.715   1.293   9.799  1.00  0.00     0.076 A 
ATOM     11  C   UNL     1      14.009   0.874   9.415  1.00  0.00     0.041 A 
ATOM     12  C   UNL     1      14.169  -0.260   8.474  1.00  0.00     0.194 C 
ATOM     13  O   UNL     1      15.314  -0.556   8.033  1.00  0.00    -0.289 OA
ATOM     14  C   UNL     1      15.138   1.533   9.931  1.00  0.00     0.059 A 
ATOM     15  C   UNL     1      14.992   2.590  10.833  1.00  0.00     0.120 A 
ATOM     16  C   UNL     1      13.719   2.979  11.246  1.00  0.00     0.093 A 
ATOM     17  C   UNL     1      12.580   2.327  10.763  1.00  0.00     0.131 A 
ENDROOT
BRANCH   6  18
ATOM     18  O   UNL     1       9.294  -1.211   8.613  1.00  0.00    -0.507 OA
ATOM     19  H   UNL     1       8.469  -1.274   8.033  1.00  0.00     0.293 HD
ENDBRANCH   6  18
BRANCH  17  20
ATOM     20  O   UNL     1      11.344   2.711  11.290  1.00  0.00    -0.507 OA
ATOM     21  H   UNL     1      11.133   3.651  11.592  1.00  0.00     0.293 HD
ENDBRANCH  17  20
BRANCH  15  22
ATOM     22  O   UNL     1      16.109   3.253  11.337  1.00  0.00    -0.508 OA
ATOM     23  H   UNL     1      16.676   3.856  10.753  1.00  0.00     0.293 HD
ENDBRANCH  15  22
TORSDOF 3
ENDMDL
MODEL 2
REMARK VINA RESULT:    -4.710      2.347      3.421
REMARK INTER + INTRA:          -5.123
REMARK INTER:                  -5.123
REMARK INTRA:                   0.000
REMARK UNBOUND:                 0.000
REMARK SMILES Cc1cc(O)c2c(c1)C(=O)c1cc(O)cc(O)c1C2=O
REMARK SMILES IDX 1 1 2 2 8 3 7 4 6 5 4 6 3 7 19 8 20 9 18 10 11 11 9 12 10 13
REMARK SMILES IDX 12 14 13 15 15 16 16 17 5 18 17 20 14 22
REMARK H PARENT 5 19 17 21 14 23
REMARK Flexibility Score: inf
ROOT
ATOM      1  C   UNL     1      11.647  -2.295   6.255  1.00  0.00     0.044 C 
ATOM      2  C   UNL     1      12.310  -2.008   7.569  1.00  0.00    -0.047 A 
ATOM      3  C   UNL     1      12.229  -0.731   8.135  1.00  0.00     0.016 A 
ATOM      4  C   UNL     1      12.870  -0.444   9.351  1.00  0.00     0.038 A 
ATOM      5  C   UNL     1      13.606  -1.452  10.013  1.00  0.00     0.076 A 
ATOM      6  C   UNL     1      13.756  -2.719   9.393  1.00  0.00     0.127 A 
ATOM      7  C   UNL     1      13.091  -2.987   8.192  1.00  0.00     0.050 A 
ATOM      8  C   UNL     1      14.144  -1.156  11.366  1.00  0.00     0.201 C 
ATOM      9  O   UNL     1      14.280  -2.087  12.204  1.00  0.00    -0.288 OA
ATOM     10  C   UNL     1      14.344   0.255  11.788  1.00  0.00     0.076 A 
ATOM     11  C   UNL     1      13.608   1.261  11.122  1.00  0.00     0.041 A 
ATOM     12  C   UNL     1      12.784   0.913   9.940  1.00  0.00     0.194 C 
ATOM     13  O   UNL     1      12.029   1.781   9.420  1.00  0.00    -0.289 OA
ATOM     14  C   UNL     1      13.665   2.588  11.582  1.00  0.00     0.059 A 
ATOM     15  C   UNL     1      14.455   2.923  12.684  1.00  0.00     0.120 A 
ATOM     16  C   UNL     1      15.214   1.942  13.318  1.00  0.00     0.093 A 
ATOM     17  C   UNL     1      15.191   0.617  12.867  1.00  0.00     0.131 A 
ENDROOT
BRANCH   6  18
ATOM     18  O   UNL     1      14.578  -3.721   9.912  1.00  0.00    -0.507 OA
ATOM     19  H   UNL     1      15.300  -4.184   9.378  1.00  0.00     0.293 HD
ENDBRANCH   6  18
BRANCH  17  20
ATOM     20  O   UNL     1      16.047  -0.292  13.494  1.00  0.00    -0.507 OA
ATOM     21  H   UNL     1      16.988  -0.482  13.180  1.00  0.00     0.293 HD
ENDBRANCH  17  20
BRANCH  15  22
ATOM     22  O   UNL     1      14.504   4.236  13.149  1.00  0.00    -0.508 OA
ATOM     23  H   UNL     1      13.751   4.632  13.700  1.00  0.00     0.293 HD
ENDBRANCH  15  22
TORSDOF 3
ENDMDL
MODEL 3
REMARK VINA RESULT:    -4.598      5.097      6.720
REMARK INTER + INTRA:          -5.001
REMARK INTER:                  -5.001
REMARK INTRA:                   0.000
REMARK UNBOUND:                 0.000
REMARK SMILES Cc1cc(O)c2c(c1)C(=O)c1cc(O)cc(O)c1C2=O
REMARK SMILES IDX 1 1 2 2 8 3 7 4 6 5 4 6 3 7 19 8 20 9 18 10 11 11 9 12 10 13
REMARK SMILES IDX 12 14 13 15 15 16 16 17 5 18 17 20 14 22
REMARK H PARENT 5 19 17 21 14 23
REMARK Flexibility Score: inf
ROOT
ATOM      1  C   UNL     1       5.432  -3.147   8.456  1.00  0.00     0.044 C 
ATOM      2  C   UNL     1       6.818  -3.190   9.028  1.00  0.00    -0.047 A 
ATOM      3  C   UNL     1       7.048  -3.786  10.273  1.00  0.00     0.016 A 
ATOM      4  C   UNL     1       8.338  -3.807  10.829  1.00  0.00     0.038 A 
ATOM      5  C   UNL     1       9.416  -3.221  10.129  1.00  0.00     0.076 A 
ATOM      6  C   UNL     1       9.161  -2.543   8.909  1.00  0.00     0.127 A 
ATOM      7  C   UNL     1       7.873  -2.554   8.365  1.00  0.00     0.050 A 
ATOM      8  C   UNL     1      10.786  -3.392  10.678  1.00  0.00     0.201 C 
ATOM      9  O   UNL     1      11.774  -3.424   9.896  1.00  0.00    -0.288 OA
ATOM     10  C   UNL     1      10.970  -3.710  12.118  1.00  0.00     0.076 A 
ATOM     11  C   UNL     1       9.889  -4.294  12.815  1.00  0.00     0.041 A 
ATOM     12  C   UNL     1       8.571  -4.435  12.151  1.00  0.00     0.194 C 
ATOM     13  O   UNL     1       7.641  -5.067  12.724  1.00  0.00    -0.289 OA
ATOM     14  C   UNL     1      10.068  -4.736  14.138  1.00  0.00     0.059 A 
ATOM     15  C   UNL     1      11.303  -4.587  14.774  1.00  0.00     0.120 A 
ATOM     16  C   UNL     1      12.360  -3.974  14.103  1.00  0.00     0.093 A 
ATOM     17  C   UNL     1      12.202  -3.509  12.793  1.00  0.00     0.131 A 
ENDROOT
BRANCH   6  18
ATOM     18  O   UNL     1      10.143  -1.822   8.228  1.00  0.00    -0.507 OA
ATOM     19  H   UNL     1      10.684  -1.079   8.648  1.00  0.00     0.293 HD
ENDBRANCH   6  18
BRANCH  17  20
ATOM     20  O   UNL     1      13.276  -2.824  12.219  1.00  0.00    -0.507 OA
ATOM     21  H   UNL     1      13.732  -3.115  11.366  1.00  0.00     0.293 HD
ENDBRANCH  17  20
BRANCH  15  22
ATOM     22  O   UNL     1      11.486  -5.034  16.080  1.00  0.00    -0.508 OA
ATOM     23  H   UNL     1      11.713  -4.395  16.833  1.00  0.00     0.293 HD
ENDBRANCH  15  22
TORSDOF 3
ENDMDL
MODEL 4
REMARK VINA RESULT:    -4.489      4.982      7.985
REMARK INTER + INTRA:          -4.883
REMARK INTER:                  -4.883
REMARK INTRA:                   0.000
REMARK UNBOUND:                 0.000
REMARK SMILES Cc1cc(O)c2c(c1)C(=O)c1cc(O)cc(O)c1C2=O
REMARK SMILES IDX 1 1 2 2 8 3 7 4 6 5 4 6 3 7 19 8 20 9 18 10 11 11 9 12 10 13
REMARK SMILES IDX 12 14 13 15 15 16 16 17 5 18 17 20 14 22
REMARK H PARENT 5 19 17 21 14 23
REMARK Flexibility Score: inf
ROOT
ATOM      1  C   UNL     1      11.617  -5.118  15.692  1.00  0.00     0.044 C 
ATOM      2  C   UNL     1      11.282  -4.612  14.320  1.00  0.00    -0.047 A 
ATOM      3  C   UNL     1       9.988  -4.763  13.811  1.00  0.00     0.016 A 
ATOM      4  C   UNL     1       9.672  -4.318  12.516  1.00  0.00     0.038 A 
ATOM      5  C   UNL     1      10.667  -3.711  11.718  1.00  0.00     0.076 A 
ATOM      6  C   UNL     1      11.997  -3.638  12.208  1.00  0.00     0.127 A 
ATOM      7  C   UNL     1      12.283  -4.069  13.507  1.00  0.00     0.050 A 
ATOM      8  C   UNL     1      10.261  -3.121  10.416  1.00  0.00     0.201 C 
ATOM      9  O   UNL     1      10.888  -2.130   9.955  1.00  0.00    -0.288 OA
ATOM     10  C   UNL     1       9.010  -3.578   9.757  1.00  0.00     0.076 A 
ATOM     11  C   UNL     1       8.018  -4.186  10.558  1.00  0.00     0.041 A 
ATOM     12  C   UNL     1       8.300  -4.488  11.982  1.00  0.00     0.194 C 
ATOM     13  O   UNL     1       7.379  -4.915  12.731  1.00  0.00    -0.289 OA
ATOM     14  C   UNL     1       6.768  -4.506  10.000  1.00  0.00     0.059 A 
ATOM     15  C   UNL     1       6.505  -4.241   8.653  1.00  0.00     0.120 A 
ATOM     16  C   UNL     1       7.495  -3.679   7.850  1.00  0.00     0.093 A 
ATOM     17  C   UNL     1       8.754  -3.369   8.377  1.00  0.00     0.131 A 
ENDROOT
BRANCH   6  18
ATOM     18  O   UNL     1      13.063  -3.182  11.431  1.00  0.00    -0.507 OA
ATOM     19  H   UNL     1      13.654  -3.788  10.880  1.00  0.00     0.293 HD
ENDBRANCH   6  18
BRANCH  17  20
ATOM     20  O   UNL     1       9.724  -2.894   7.491  1.00  0.00    -0.507 OA
ATOM     21  H   UNL     1      10.090  -1.952   7.515  1.00  0.00     0.293 HD
ENDBRANCH  17  20
BRANCH  15  22
ATOM     22  O   UNL     1       5.263  -4.546   8.100  1.00  0.00    -0.508 OA
ATOM     23  H   UNL     1       4.453  -4.730   8.681  1.00  0.00     0.293 HD
ENDBRANCH  15  22
TORSDOF 3
ENDMDL
MODEL 5
REMARK VINA RESULT:    -4.452      2.008      5.627
REMARK INTER + INTRA:          -4.843
REMARK INTER:                  -4.843
REMARK INTRA:                   0.000
REMARK UNBOUND:                 0.000
REMARK SMILES Cc1cc(O)c2c(c1)C(=O)c1cc(O)cc(O)c1C2=O
REMARK SMILES IDX 1 1 2 2 8 3 7 4 6 5 4 6 3 7 19 8 20 9 18 10 11 11 9 12 10 13
REMARK SMILES IDX 12 14 13 15 15 16 16 17 5 18 17 20 14 22
REMARK H PARENT 5 19 17 21 14 23
REMARK Flexibility Score: inf
ROOT
ATOM      1  C   UNL     1      14.983   2.916  13.360  1.00  0.00     0.044 C 
ATOM      2  C   UNL     1      14.330   2.147  12.249  1.00  0.00    -0.047 A 
ATOM      3  C   UNL     1      14.825   0.893  11.876  1.00  0.00     0.016 A 
ATOM      4  C   UNL     1      14.239   0.178  10.818  1.00  0.00     0.038 A 
ATOM      5  C   UNL     1      13.138   0.727  10.123  1.00  0.00     0.076 A 
ATOM      6  C   UNL     1      12.696   2.034  10.450  1.00  0.00     0.127 A 
ATOM      7  C   UNL     1      13.282   2.718  11.520  1.00  0.00     0.050 A 
ATOM      8  C   UNL     1      12.453  -0.119   9.112  1.00  0.00     0.201 C 
ATOM      9  O   UNL     1      11.222   0.039   8.894  1.00  0.00    -0.288 OA
ATOM     10  C   UNL     1      13.171  -1.268   8.501  1.00  0.00     0.076 A 
ATOM     11  C   UNL     1      14.273  -1.813   9.199  1.00  0.00     0.041 A 
ATOM     12  C   UNL     1      14.773  -1.147  10.425  1.00  0.00     0.194 C 
ATOM     13  O   UNL     1      15.673  -1.697  11.118  1.00  0.00    -0.289 OA
ATOM     14  C   UNL     1      14.891  -2.982   8.724  1.00  0.00     0.059 A 
ATOM     15  C   UNL     1      14.435  -3.602   7.558  1.00  0.00     0.120 A 
ATOM     16  C   UNL     1      13.375  -3.044   6.845  1.00  0.00     0.093 A 
ATOM     17  C   UNL     1      12.755  -1.870   7.285  1.00  0.00     0.131 A 
ENDROOT
BRANCH   6  18
ATOM     18  O   UNL     1      11.709   2.701   9.722  1.00  0.00    -0.507 OA
ATOM     19  H   UNL     1      11.903   3.457   9.079  1.00  0.00     0.293 HD
ENDBRANCH   6  18
BRANCH  17  20
ATOM     20  O   UNL     1      11.761  -1.321   6.471  1.00  0.00    -0.507 OA
ATOM     21  H   UNL     1      11.900  -1.090   5.498  1.00  0.00     0.293 HD
ENDBRANCH  17  20
BRANCH  15  22
ATOM     22  O   UNL     1      15.038  -4.768   7.091  1.00  0.00    -0.508 OA
ATOM     23  H   UNL     1      16.012  -4.786   6.812  1.00  0.00     0.293 HD
ENDBRANCH  15  22
TORSDOF 3
ENDMDL
MODEL 6
REMARK VINA RESULT:    -4.386      3.201      5.323
REMARK INTER + INTRA:          -4.771
REMARK INTER:                  -4.771
REMARK INTRA:                   0.000
REMARK UNBOUND:                 0.000
REMARK SMILES Cc1cc(O)c2c(c1)C(=O)c1cc(O)cc(O)c1C2=O
REMARK SMILES IDX 1 1 2 2 8 3 7 4 6 5 4 6 3 7 19 8 20 9 18 10 11 11 9 12 10 13
REMARK SMILES IDX 12 14 13 15 15 16 16 17 5 18 17 20 14 22
REMARK H PARENT 5 19 17 21 14 23
REMARK Flexibility Score: inf
ROOT
ATOM      1  C   UNL     1      10.613   2.447   8.231  1.00  0.00     0.044 C 
ATOM      2  C   UNL     1      11.658   1.948   9.185  1.00  0.00    -0.047 A 
ATOM      3  C   UNL     1      12.145   0.641   9.074  1.00  0.00     0.016 A 
ATOM      4  C   UNL     1      13.103   0.154   9.979  1.00  0.00     0.038 A 
ATOM      5  C   UNL     1      13.581   0.989  11.013  1.00  0.00     0.076 A 
ATOM      6  C   UNL     1      13.021   2.283  11.172  1.00  0.00     0.127 A 
ATOM      7  C   UNL     1      12.085   2.752  10.246  1.00  0.00     0.050 A 
ATOM      8  C   UNL     1      14.698   0.493  11.858  1.00  0.00     0.201 C 
ATOM      9  O   UNL     1      15.515   1.310  12.360  1.00  0.00    -0.288 OA
ATOM     10  C   UNL     1      14.958  -0.968  11.953  1.00  0.00     0.076 A 
ATOM     11  C   UNL     1      14.476  -1.800  10.919  1.00  0.00     0.041 A 
ATOM     12  C   UNL     1      13.608  -1.234   9.859  1.00  0.00     0.194 C 
ATOM     13  O   UNL     1      13.279  -1.942   8.868  1.00  0.00    -0.289 OA
ATOM     14  C   UNL     1      14.819  -3.163  10.902  1.00  0.00     0.059 A 
ATOM     15  C   UNL     1      15.621  -3.705  11.909  1.00  0.00     0.120 A 
ATOM     16  C   UNL     1      16.064  -2.896  12.954  1.00  0.00     0.093 A 
ATOM     17  C   UNL     1      15.721  -1.541  13.005  1.00  0.00     0.131 A 
ENDROOT
BRANCH   6  18
ATOM     18  O   UNL     1      13.338   3.116  12.247  1.00  0.00    -0.507 OA
ATOM     19  H   UNL     1      13.566   4.095  12.148  1.00  0.00     0.293 HD
ENDBRANCH   6  18
BRANCH  17  20
ATOM     20  O   UNL     1      16.125  -0.815  14.128  1.00  0.00    -0.507 OA
ATOM     21  H   UNL     1      15.806   0.122  14.333  1.00  0.00     0.293 HD
ENDBRANCH  17  20
BRANCH  15  22
ATOM     22  O   UNL     1      15.972  -5.053  11.889  1.00  0.00    -0.508 OA
ATOM     23  H   UNL     1      15.541  -5.704  11.243  1.00  0.00     0.293 HD
ENDBRANCH  15  22
TORSDOF 3
ENDMDL
MODEL 7
REMARK VINA RESULT:    -4.384      2.594      4.709
REMARK INTER + INTRA:          -4.768
REMARK INTER:                  -4.768
REMARK INTRA:                   0.000
REMARK UNBOUND:                 0.000
REMARK SMILES Cc1cc(O)c2c(c1)C(=O)c1cc(O)cc(O)c1C2=O
REMARK SMILES IDX 1 1 2 2 8 3 7 4 6 5 4 6 3 7 19 8 20 9 18 10 11 11 9 12 10 13
REMARK SMILES IDX 12 14 13 15 15 16 16 17 5 18 17 20 14 22
REMARK H PARENT 5 19 17 21 14 23
REMARK Flexibility Score: inf
ROOT
ATOM      1  C   UNL     1      10.038   3.431   7.213  1.00  0.00     0.044 C 
ATOM      2  C   UNL     1      10.915   2.813   8.261  1.00  0.00    -0.047 A 
ATOM      3  C   UNL     1      11.739   1.728   7.940  1.00  0.00     0.016 A 
ATOM      4  C   UNL     1      12.542   1.124   8.922  1.00  0.00     0.038 A 
ATOM      5  C   UNL     1      12.523   1.614  10.246  1.00  0.00     0.076 A 
ATOM      6  C   UNL     1      11.623   2.658  10.584  1.00  0.00     0.127 A 
ATOM      7  C   UNL     1      10.848   3.256   9.586  1.00  0.00     0.050 A 
ATOM      8  C   UNL     1      13.493   1.049  11.219  1.00  0.00     0.201 C 
ATOM      9  O   UNL     1      13.922   1.765  12.163  1.00  0.00    -0.288 OA
ATOM     10  C   UNL     1      14.095  -0.287  10.971  1.00  0.00     0.076 A 
ATOM     11  C   UNL     1      14.111  -0.775   9.645  1.00  0.00     0.041 A 
ATOM     12  C   UNL     1      13.407  -0.028   8.574  1.00  0.00     0.194 C 
ATOM     13  O   UNL     1      13.523  -0.391   7.372  1.00  0.00    -0.289 OA
ATOM     14  C   UNL     1      14.791  -1.968   9.347  1.00  0.00     0.059 A 
ATOM     15  C   UNL     1      15.439  -2.684  10.357  1.00  0.00     0.120 A 
ATOM     16  C   UNL     1      15.391  -2.228  11.672  1.00  0.00     0.093 A 
ATOM     17  C   UNL     1      14.704  -1.054  11.998  1.00  0.00     0.131 A 
ENDROOT
BRANCH   6  18
ATOM     18  O   UNL     1      11.443   3.104  11.895  1.00  0.00    -0.507 OA
ATOM     19  H   UNL     1      11.721   4.020  12.217  1.00  0.00     0.293 HD
ENDBRANCH   6  18
BRANCH  17  20
ATOM     20  O   UNL     1      14.622  -0.708  13.349  1.00  0.00    -0.507 OA
ATOM     21  H   UNL     1      13.754  -0.668  13.864  1.00  0.00     0.293 HD
ENDBRANCH  17  20
BRANCH  15  22
ATOM     22  O   UNL     1      16.125  -3.861  10.063  1.00  0.00    -0.508 OA
ATOM     23  H   UNL     1      15.955  -4.375   9.206  1.00  0.00     0.293 HD
ENDBRANCH  15  22
TORSDOF 3
ENDMDL
MODEL 8
REMARK VINA RESULT:    -4.369      2.667      4.462
REMARK INTER + INTRA:          -4.753
REMARK INTER:                  -4.753
REMARK INTRA:                   0.000
REMARK UNBOUND:                 0.000
REMARK SMILES Cc1cc(O)c2c(c1)C(=O)c1cc(O)cc(O)c1C2=O
REMARK SMILES IDX 1 1 2 2 8 3 7 4 6 5 4 6 3 7 19 8 20 9 18 10 11 11 9 12 10 13
REMARK SMILES IDX 12 14 13 15 15 16 16 17 5 18 17 20 14 22
REMARK H PARENT 5 19 17 21 14 23
REMARK Flexibility Score: inf
ROOT
ATOM      1  C   UNL     1      10.917   3.419   7.089  1.00  0.00     0.044 C 
ATOM      2  C   UNL     1      11.639   2.411   7.933  1.00  0.00    -0.047 A 
ATOM      3  C   UNL     1      12.070   2.750   9.221  1.00  0.00     0.016 A 
ATOM      4  C   UNL     1      12.772   1.823  10.008  1.00  0.00     0.038 A 
ATOM      5  C   UNL     1      13.047   0.534   9.500  1.00  0.00     0.076 A 
ATOM      6  C   UNL     1      12.683   0.226   8.164  1.00  0.00     0.127 A 
ATOM      7  C   UNL     1      11.967   1.158   7.407  1.00  0.00     0.050 A 
ATOM      8  C   UNL     1      13.658  -0.466  10.413  1.00  0.00     0.201 C 
ATOM      9  O   UNL     1      13.413  -1.692  10.254  1.00  0.00    -0.288 OA
ATOM     10  C   UNL     1      14.401  -0.010  11.617  1.00  0.00     0.076 A 
ATOM     11  C   UNL     1      14.124   1.281  12.121  1.00  0.00     0.041 A 
ATOM     12  C   UNL     1      13.230   2.193  11.368  1.00  0.00     0.194 C 
ATOM     13  O   UNL     1      12.882   3.294  11.875  1.00  0.00    -0.289 OA
ATOM     14  C   UNL     1      14.702   1.696  13.334  1.00  0.00     0.059 A 
ATOM     15  C   UNL     1      15.560   0.846  14.037  1.00  0.00     0.120 A 
ATOM     16  C   UNL     1      15.868  -0.412  13.522  1.00  0.00     0.093 A 
ATOM     17  C   UNL     1      15.322  -0.840  12.307  1.00  0.00     0.131 A 
ENDROOT
BRANCH   6  18
ATOM     18  O   UNL     1      13.040  -0.972   7.542  1.00  0.00    -0.507 OA
ATOM     19  H   UNL     1      13.969  -1.368   7.582  1.00  0.00     0.293 HD
ENDBRANCH   6  18
BRANCH  17  20
ATOM     20  O   UNL     1      15.746  -2.074  11.809  1.00  0.00    -0.507 OA
ATOM     21  H   UNL     1      15.546  -2.399  10.874  1.00  0.00     0.293 HD
ENDBRANCH  17  20
BRANCH  15  22
ATOM     22  O   UNL     1      16.125   1.250  15.245  1.00  0.00    -0.508 OA
ATOM     23  H   UNL     1      16.507   2.180  15.367  1.00  0.00     0.293 HD
ENDBRANCH  15  22
TORSDOF 3
ENDMDL
MODEL 9
REMARK VINA RESULT:    -4.150      2.540      6.285
REMARK INTER + INTRA:          -4.514
REMARK INTER:                  -4.514
REMARK INTRA:                   0.000
REMARK UNBOUND:                 0.000
REMARK SMILES Cc1cc(O)c2c(c1)C(=O)c1cc(O)cc(O)c1C2=O
REMARK SMILES IDX 1 1 2 2 8 3 7 4 6 5 4 6 3 7 19 8 20 9 18 10 11 11 9 12 10 13
REMARK SMILES IDX 12 14 13 15 15 16 16 17 5 18 17 20 14 22
REMARK H PARENT 5 19 17 21 14 23
REMARK Flexibility Score: inf
ROOT
ATOM      1  C   UNL     1      14.814   3.493  12.333  1.00  0.00     0.044 C 
ATOM      2  C   UNL     1      14.473   2.079  11.966  1.00  0.00    -0.047 A 
ATOM      3  C   UNL     1      13.633   1.818  10.878  1.00  0.00     0.016 A 
ATOM      4  C   UNL     1      13.285   0.499  10.543  1.00  0.00     0.038 A 
ATOM      5  C   UNL     1      13.786  -0.577  11.309  1.00  0.00     0.076 A 
ATOM      6  C   UNL     1      14.567  -0.301  12.460  1.00  0.00     0.127 A 
ATOM      7  C   UNL     1      14.917   1.018  12.762  1.00  0.00     0.050 A 
ATOM      8  C   UNL     1      13.519  -1.960  10.837  1.00  0.00     0.201 C 
ATOM      9  O   UNL     1      14.345  -2.878  11.087  1.00  0.00    -0.288 OA
ATOM     10  C   UNL     1      12.380  -2.219   9.917  1.00  0.00     0.076 A 
ATOM     11  C   UNL     1      11.880  -1.140   9.155  1.00  0.00     0.041 A 
ATOM     12  C   UNL     1      12.390   0.231   9.392  1.00  0.00     0.194 C 
ATOM     13  O   UNL     1      12.040   1.175   8.631  1.00  0.00    -0.289 OA
ATOM     14  C   UNL     1      10.898  -1.372   8.175  1.00  0.00     0.059 A 
ATOM     15  C   UNL     1      10.402  -2.660   7.961  1.00  0.00     0.120 A 
ATOM     16  C   UNL     1      10.863  -3.720   8.740  1.00  0.00     0.093 A 
ATOM     17  C   UNL     1      11.824  -3.513   9.734  1.00  0.00     0.131 A 
ENDROOT
BRANCH   6  18
ATOM     18  O   UNL     1      14.983  -1.297  13.346  1.00  0.00    -0.507 OA
ATOM     19  H   UNL     1      15.779  -1.202  13.961  1.00  0.00     0.293 HD
ENDBRANCH   6  18
BRANCH  17  20
ATOM     20  O   UNL     1      12.171  -4.604  10.535  1.00  0.00    -0.507 OA
ATOM     21  H   UNL     1      11.706  -4.831  11.403  1.00  0.00     0.293 HD
ENDBRANCH  17  20
BRANCH  15  22
ATOM     22  O   UNL     1       9.438  -2.896   6.984  1.00  0.00    -0.508 OA
ATOM     23  H   UNL     1       8.641  -2.280   6.865  1.00  0.00     0.293 HD
ENDBRANCH  15  22
TORSDOF 3
ENDMDL
