MODEL 1
REMARK VINA RESULT:    -3.254      0.000      0.000
REMARK INTER + INTRA:          -3.790
REMARK INTER:                  -3.730
REMARK INTRA:                  -0.060
REMARK UNBOUND:                -0.060
REMARK SMILES CC(C)[C@@H]([NH3+])C(=O)[O-]
REMARK SMILES IDX 4 1 5 2 6 6 7 7 8 8 2 9 1 10 3 11
REMARK H PARENT 5 3 5 4 5 5
REMARK Flexibility Score: inf
ROOT
ATOM      1  C   UNL     1      28.982   3.851 144.118  1.00  0.00     0.230 C 
ENDROOT
BRANCH   1   2
ATOM      2  N   UNL     1      30.226   3.225 144.592  1.00  0.00    -0.350 N 
ATOM      3  H   UNL     1      30.896   3.949 144.939  1.00  0.00     0.345 HD
ATOM      4  H   UNL     1      30.670   2.675 143.822  1.00  0.00     0.345 HD
ATOM      5  H   UNL     1      30.017   2.554 145.368  1.00  0.00     0.345 HD
ENDBRANCH   1   2
BRANCH   1   6
ATOM      6  C   UNL     1      29.259   5.277 143.714  1.00  0.00     0.099 C 
ATOM      7  O   UNL     1      29.711   6.102 144.553  1.00  0.00    -0.544 OA
ATOM      8  O   UNL     1      29.027   5.688 142.407  1.00  0.00    -0.544 OA
ENDBRANCH   1   6
BRANCH   1   9
ATOM      9  C   UNL     1      28.342   3.053 142.939  1.00  0.00     0.047 C 
ATOM     10  C   UNL     1      27.010   2.409 143.362  1.00  0.00     0.014 C 
ATOM     11  C   UNL     1      29.284   1.960 142.409  1.00  0.00     0.014 C 
ENDBRANCH   1   9
TORSDOF 3
ENDMDL
MODEL 2
REMARK VINA RESULT:    -3.106     13.704     14.433
REMARK INTER + INTRA:          -3.620
REMARK INTER:                  -3.586
REMARK INTRA:                  -0.035
REMARK UNBOUND:                -0.060
REMARK SMILES CC(C)[C@@H]([NH3+])C(=O)[O-]
REMARK SMILES IDX 4 1 5 2 6 6 7 7 8 8 2 9 1 10 3 11
REMARK H PARENT 5 3 5 4 5 5
REMARK Flexibility Score: inf
ROOT
ATOM      1  C   UNL     1      34.637  16.240 139.226  1.00  0.00     0.230 C 
ENDROOT
BRANCH   1   2
ATOM      2  N   UNL     1      33.649  15.899 140.261  1.00  0.00    -0.350 N 
ATOM      3  H   UNL     1      33.179  16.761 140.623  1.00  0.00     0.345 HD
ATOM      4  H   UNL     1      34.112  15.394 141.050  1.00  0.00     0.345 HD
ATOM      5  H   UNL     1      32.924  15.255 139.867  1.00  0.00     0.345 HD
ENDBRANCH   1   2
BRANCH   1   6
ATOM      6  C   UNL     1      35.785  15.265 139.285  1.00  0.00     0.099 C 
ATOM      7  O   UNL     1      35.577  14.048 139.543  1.00  0.00    -0.544 OA
ATOM      8  O   UNL     1      37.082  15.701 139.045  1.00  0.00    -0.544 OA
ENDBRANCH   1   6
BRANCH   1   9
ATOM      9  C   UNL     1      34.000  16.264 137.801  1.00  0.00     0.047 C 
ATOM     10  C   UNL     1      34.829  17.129 136.835  1.00  0.00     0.014 C 
ATOM     11  C   UNL     1      32.554  16.786 137.829  1.00  0.00     0.014 C 
ENDBRANCH   1   9
TORSDOF 3
ENDMDL
MODEL 3
REMARK VINA RESULT:    -3.102     13.404     14.633
REMARK INTER + INTRA:          -3.615
REMARK INTER:                  -3.555
REMARK INTRA:                  -0.061
REMARK UNBOUND:                -0.060
REMARK SMILES CC(C)[C@@H]([NH3+])C(=O)[O-]
REMARK SMILES IDX 4 1 5 2 6 6 7 7 8 8 2 9 1 10 3 11
REMARK H PARENT 5 3 5 4 5 5
REMARK Flexibility Score: inf
ROOT
ATOM      1  C   UNL     1      36.267  15.079 138.303  1.00  0.00     0.230 C 
ENDROOT
BRANCH   1   2
ATOM      2  N   UNL     1      36.973  16.092 139.103  1.00  0.00    -0.350 N 
ATOM      3  H   UNL     1      36.340  16.494 139.832  1.00  0.00     0.345 HD
ATOM      4  H   UNL     1      37.330  16.856 138.486  1.00  0.00     0.345 HD
ATOM      5  H   UNL     1      37.804  15.663 139.574  1.00  0.00     0.345 HD
ENDBRANCH   1   2
BRANCH   1   6
ATOM      6  C   UNL     1      35.046  14.608 139.051  1.00  0.00     0.099 C 
ATOM      7  O   UNL     1      34.506  13.505 138.762  1.00  0.00    -0.544 OA
ATOM      8  O   UNL     1      34.513  15.385 140.071  1.00  0.00    -0.544 OA
ENDBRANCH   1   6
BRANCH   1   9
ATOM      9  C   UNL     1      35.881  15.620 136.891  1.00  0.00     0.047 C 
ATOM     10  C   UNL     1      37.125  15.796 136.002  1.00  0.00     0.014 C 
ATOM     11  C   UNL     1      35.129  16.958 136.976  1.00  0.00     0.014 C 
ENDBRANCH   1   9
TORSDOF 3
ENDMDL
MODEL 4
REMARK VINA RESULT:    -3.095     14.739     15.676
REMARK INTER + INTRA:          -3.607
REMARK INTER:                  -3.547
REMARK INTRA:                  -0.060
REMARK UNBOUND:                -0.060
REMARK SMILES CC(C)[C@@H]([NH3+])C(=O)[O-]
REMARK SMILES IDX 4 1 5 2 6 6 7 7 8 8 2 9 1 10 3 11
REMARK H PARENT 5 3 5 4 5 5
REMARK Flexibility Score: inf
ROOT
ATOM      1  C   UNL     1      26.219  17.096 135.513  1.00  0.00     0.230 C 
ENDROOT
BRANCH   1   2
ATOM      2  N   UNL     1      25.374  17.778 136.506  1.00  0.00    -0.350 N 
ATOM      3  H   UNL     1      24.401  17.394 136.490  1.00  0.00     0.345 HD
ATOM      4  H   UNL     1      25.351  18.805 136.317  1.00  0.00     0.345 HD
ATOM      5  H   UNL     1      25.774  17.650 137.465  1.00  0.00     0.345 HD
ENDBRANCH   1   2
BRANCH   1   6
ATOM      6  C   UNL     1      26.949  18.123 134.685  1.00  0.00     0.099 C 
ATOM      7  O   UNL     1      28.144  18.424 134.950  1.00  0.00    -0.544 OA
ATOM      8  O   UNL     1      26.309  18.737 133.616  1.00  0.00    -0.544 OA
ENDBRANCH   1   6
BRANCH   1   9
ATOM      9  C   UNL     1      27.222  16.107 136.184  1.00  0.00     0.047 C 
ATOM     10  C   UNL     1      27.425  14.849 135.322  1.00  0.00     0.014 C 
ATOM     11  C   UNL     1      26.758  15.685 137.588  1.00  0.00     0.014 C 
ENDBRANCH   1   9
TORSDOF 3
ENDMDL
MODEL 5
REMARK VINA RESULT:    -3.070      2.021      3.035
REMARK INTER + INTRA:          -3.579
REMARK INTER:                  -3.521
REMARK INTRA:                  -0.058
REMARK UNBOUND:                -0.060
REMARK SMILES CC(C)[C@@H]([NH3+])C(=O)[O-]
REMARK SMILES IDX 4 1 5 2 6 6 7 7 8 8 2 9 1 10 3 11
REMARK H PARENT 5 3 5 4 5 5
REMARK Flexibility Score: inf
ROOT
ATOM      1  C   UNL     1      29.642   4.127 143.605  1.00  0.00     0.230 C 
ENDROOT
BRANCH   1   2
ATOM      2  N   UNL     1      30.237   3.315 144.678  1.00  0.00    -0.350 N 
ATOM      3  H   UNL     1      31.093   2.819 144.335  1.00  0.00     0.345 HD
ATOM      4  H   UNL     1      29.544   2.617 145.030  1.00  0.00     0.345 HD
ATOM      5  H   UNL     1      30.499   3.925 145.487  1.00  0.00     0.345 HD
ENDBRANCH   1   2
BRANCH   1   6
ATOM      6  C   UNL     1      29.215   3.229 142.472  1.00  0.00     0.099 C 
ATOM      7  O   UNL     1      29.233   1.976 142.609  1.00  0.00    -0.544 OA
ATOM      8  O   UNL     1      28.790   3.780 141.270  1.00  0.00    -0.544 OA
ENDBRANCH   1   6
BRANCH   1   9
ATOM      9  C   UNL     1      28.443   4.981 144.120  1.00  0.00     0.047 C 
ATOM     10  C   UNL     1      28.929   6.284 144.780  1.00  0.00     0.014 C 
ATOM     11  C   UNL     1      27.574   4.204 145.123  1.00  0.00     0.014 C 
ENDBRANCH   1   9
TORSDOF 3
ENDMDL
MODEL 6
REMARK VINA RESULT:    -3.044     12.834     13.912
REMARK INTER + INTRA:          -3.549
REMARK INTER:                  -3.647
REMARK INTRA:                   0.098
REMARK UNBOUND:                -0.060
REMARK SMILES CC(C)[C@@H]([NH3+])C(=O)[O-]
REMARK SMILES IDX 4 1 5 2 6 6 7 7 8 8 2 9 1 10 3 11
REMARK H PARENT 5 3 5 4 5 5
REMARK Flexibility Score: inf
ROOT
ATOM      1  C   UNL     1      34.573  15.230 139.555  1.00  0.00     0.230 C 
ENDROOT
BRANCH   1   2
ATOM      2  N   UNL     1      33.521  15.977 140.263  1.00  0.00    -0.350 N 
ATOM      3  H   UNL     1      32.578  15.752 139.868  1.00  0.00     0.345 HD
ATOM      4  H   UNL     1      33.697  17.004 140.192  1.00  0.00     0.345 HD
ATOM      5  H   UNL     1      33.531  15.732 141.281  1.00  0.00     0.345 HD
ENDBRANCH   1   2
BRANCH   1   6
ATOM      6  C   UNL     1      33.954  14.425 138.441  1.00  0.00     0.099 C 
ATOM      7  O   UNL     1      34.575  13.449 137.938  1.00  0.00    -0.544 OA
ATOM      8  O   UNL     1      32.690  14.749 137.966  1.00  0.00    -0.544 OA
ENDBRANCH   1   6
BRANCH   1   9
ATOM      9  C   UNL     1      35.687  16.175 139.006  1.00  0.00     0.047 C 
ATOM     10  C   UNL     1      35.247  16.852 137.696  1.00  0.00     0.014 C 
ATOM     11  C   UNL     1      37.008  15.426 138.767  1.00  0.00     0.014 C 
ENDBRANCH   1   9
TORSDOF 3
ENDMDL
MODEL 7
REMARK VINA RESULT:    -3.041     14.156     14.972
REMARK INTER + INTRA:          -3.546
REMARK INTER:                  -3.501
REMARK INTRA:                  -0.045
REMARK UNBOUND:                -0.060
REMARK SMILES CC(C)[C@@H]([NH3+])C(=O)[O-]
REMARK SMILES IDX 4 1 5 2 6 6 7 7 8 8 2 9 1 10 3 11
REMARK H PARENT 5 3 5 4 5 5
REMARK Flexibility Score: inf
ROOT
ATOM      1  C   UNL     1      35.791  16.443 137.971  1.00  0.00     0.230 C 
ENDROOT
BRANCH   1   2
ATOM      2  N   UNL     1      37.125  16.456 138.593  1.00  0.00    -0.350 N 
ATOM      3  H   UNL     1      37.612  15.543 138.444  1.00  0.00     0.345 HD
ATOM      4  H   UNL     1      37.044  16.649 139.617  1.00  0.00     0.345 HD
ATOM      5  H   UNL     1      37.705  17.223 138.180  1.00  0.00     0.345 HD
ENDBRANCH   1   2
BRANCH   1   6
ATOM      6  C   UNL     1      35.929  16.181 136.492  1.00  0.00     0.099 C 
ATOM      7  O   UNL     1      37.046  15.863 136.002  1.00  0.00    -0.544 OA
ATOM      8  O   UNL     1      34.820  16.282 135.662  1.00  0.00    -0.544 OA
ENDBRANCH   1   6
BRANCH   1   9
ATOM      9  C   UNL     1      34.850  15.391 138.637  1.00  0.00     0.047 C 
ATOM     10  C   UNL     1      33.847  16.065 139.589  1.00  0.00     0.014 C 
ATOM     11  C   UNL     1      35.640  14.324 139.412  1.00  0.00     0.014 C 
ENDBRANCH   1   9
TORSDOF 3
ENDMDL
MODEL 8
REMARK VINA RESULT:    -3.031     13.341     14.010
REMARK INTER + INTRA:          -3.534
REMARK INTER:                  -3.482
REMARK INTRA:                  -0.052
REMARK UNBOUND:                -0.060
REMARK SMILES CC(C)[C@@H]([NH3+])C(=O)[O-]
REMARK SMILES IDX 4 1 5 2 6 6 7 7 8 8 2 9 1 10 3 11
REMARK H PARENT 5 3 5 4 5 5
REMARK Flexibility Score: inf
ROOT
ATOM      1  C   UNL     1      33.376  15.653 138.442  1.00  0.00     0.230 C 
ENDROOT
BRANCH   1   2
ATOM      2  N   UNL     1      32.942  14.307 138.848  1.00  0.00    -0.350 N 
ATOM      3  H   UNL     1      31.901  14.264 138.934  1.00  0.00     0.345 HD
ATOM      4  H   UNL     1      33.382  14.045 139.758  1.00  0.00     0.345 HD
ATOM      5  H   UNL     1      33.255  13.601 138.141  1.00  0.00     0.345 HD
ENDBRANCH   1   2
BRANCH   1   6
ATOM      6  C   UNL     1      32.343  16.664 138.869  1.00  0.00     0.099 C 
ATOM      7  O   UNL     1      31.974  16.730 140.073  1.00  0.00    -0.544 OA
ATOM      8  O   UNL     1      31.797  17.538 137.937  1.00  0.00    -0.544 OA
ENDBRANCH   1   6
BRANCH   1   9
ATOM      9  C   UNL     1      34.779  16.011 139.023  1.00  0.00     0.047 C 
ATOM     10  C   UNL     1      35.606  16.830 138.016  1.00  0.00     0.014 C 
ATOM     11  C   UNL     1      35.572  14.756 139.421  1.00  0.00     0.014 C 
ENDBRANCH   1   9
TORSDOF 3
ENDMDL
MODEL 9
REMARK VINA RESULT:    -3.023      2.127      3.605
REMARK INTER + INTRA:          -3.525
REMARK INTER:                  -3.468
REMARK INTRA:                  -0.057
REMARK UNBOUND:                -0.060
REMARK SMILES CC(C)[C@@H]([NH3+])C(=O)[O-]
REMARK SMILES IDX 4 1 5 2 6 6 7 7 8 8 2 9 1 10 3 11
REMARK H PARENT 5 3 5 4 5 5
REMARK Flexibility Score: inf
ROOT
ATOM      1  C   UNL     1      29.606   5.192 143.617  1.00  0.00     0.230 C 
ENDROOT
BRANCH   1   2
ATOM      2  N   UNL     1      30.860   5.246 144.384  1.00  0.00    -0.350 N 
ATOM      3  H   UNL     1      31.637   5.628 143.796  1.00  0.00     0.345 HD
ATOM      4  H   UNL     1      31.114   4.294 144.729  1.00  0.00     0.345 HD
ATOM      5  H   UNL     1      30.739   5.857 145.226  1.00  0.00     0.345 HD
ENDBRANCH   1   2
BRANCH   1   6
ATOM      6  C   UNL     1      28.968   3.837 143.792  1.00  0.00     0.099 C 
ATOM      7  O   UNL     1      29.419   2.834 143.175  1.00  0.00    -0.544 OA
ATOM      8  O   UNL     1      27.882   3.684 144.644  1.00  0.00    -0.544 OA
ENDBRANCH   1   6
BRANCH   1   9
ATOM      9  C   UNL     1      28.620   6.328 144.032  1.00  0.00     0.047 C 
ATOM     10  C   UNL     1      28.228   7.195 142.822  1.00  0.00     0.014 C 
ATOM     11  C   UNL     1      29.215   7.232 145.125  1.00  0.00     0.014 C 
ENDBRANCH   1   9
TORSDOF 3
ENDMDL
