MODEL 1
REMARK VINA RESULT:    -2.285      0.000      0.000
REMARK INTER + INTRA:          -2.651
REMARK INTER:                  -2.686
REMARK INTRA:                   0.035
REMARK UNBOUND:                 0.035
REMARK SMILES C=C(C)[C@H]1CC[C@]2(CO)CC[C@]3(C)[C@H](CC[C@H]4[C@@]5(C)CC[C@H](O)C(C)(C)[C@@H]5CC[C@]43C)[C@@H]12
REMARK SMILES IDX 4 1 5 2 6 3 7 4 32 5 14 6 15 7 16 8 17 9 18 10 20 11 21 12
REMARK SMILES IDX 22 13 24 14 27 15 28 16 29 17 30 18 12 19 11 20 10 21 13 22
REMARK SMILES IDX 31 23 25 24 26 25 19 26 2 27 3 28 1 29 8 30 9 31 23 33
REMARK H PARENT 9 32 23 34
REMARK Flexibility Score: inf
ROOT
ATOM      1  C   UNL     1      -7.107  -3.121  11.926  1.00  0.00     0.018 C 
ATOM      2  C   UNL     1      -7.395  -4.060  13.119  1.00  0.00     0.009 C 
ATOM      3  C   UNL     1      -6.387  -3.703  14.234  1.00  0.00     0.010 C 
ATOM      4  C   UNL     1      -5.189  -3.062  13.510  1.00  0.00    -0.003 C 
ATOM      5  C   UNL     1      -5.899  -2.275  12.395  1.00  0.00     0.008 C 
ATOM      6  C   UNL     1      -4.942  -1.505  11.441  1.00  0.00    -0.000 C 
ATOM      7  C   UNL     1      -5.727  -0.746  10.353  1.00  0.00     0.005 C 
ATOM      8  C   UNL     1      -4.873   0.267   9.564  1.00  0.00     0.005 C 
ATOM      9  C   UNL     1      -3.343  -0.006   9.635  1.00  0.00     0.002 C 
ATOM     10  C   UNL     1      -2.461   0.848   8.575  1.00  0.00    -0.026 C 
ATOM     11  C   UNL     1      -3.279   1.175   7.278  1.00  0.00     0.010 C 
ATOM     12  C   UNL     1      -2.559   2.099   6.284  1.00  0.00     0.033 C 
ATOM     13  C   UNL     1      -2.184   3.434   6.937  1.00  0.00     0.120 C 
ATOM     14  C   UNL     1      -1.324   3.261   8.234  1.00  0.00    -0.006 C 
ATOM     15  C   UNL     1      -2.040   2.228   9.206  1.00  0.00     0.003 C 
ATOM     16  C   UNL     1      -1.328   2.027  10.564  1.00  0.00     0.005 C 
ATOM     17  C   UNL     1      -2.290   1.395  11.566  1.00  0.00     0.008 C 
ATOM     18  C   UNL     1      -2.819  -0.021  11.162  1.00  0.00    -0.024 C 
ATOM     19  C   UNL     1      -3.974  -0.524  12.219  1.00  0.00    -0.024 C 
ATOM     20  C   UNL     1      -3.382  -1.264  13.496  1.00  0.00     0.008 C 
ATOM     21  C   UNL     1      -4.418  -2.023  14.366  1.00  0.00     0.010 C 
ATOM     22  C   UNL     1      -4.789   0.688  12.813  1.00  0.00     0.012 C 
ATOM     23  C   UNL     1      -1.601  -0.996  11.229  1.00  0.00     0.012 C 
ATOM     24  C   UNL     1       0.132   2.862   7.878  1.00  0.00     0.014 C 
ATOM     25  C   UNL     1      -1.257   4.658   8.917  1.00  0.00     0.014 C 
ATOM     26  C   UNL     1      -1.228  -0.021   8.130  1.00  0.00     0.012 C 
ENDROOT
BRANCH   1  27
ATOM     27  C   UNL     1      -7.069  -3.855  10.583  1.00  0.00    -0.077 C 
ATOM     28  C   UNL     1      -5.732  -4.043   9.909  1.00  0.00     0.039 C 
ATOM     29  C   UNL     1      -8.153  -4.320   9.943  1.00  0.00     0.008 C 
ENDBRANCH   1  27
BRANCH   4  30
ATOM     30  C   UNL     1      -4.185  -4.184  13.052  1.00  0.00     0.163 C 
BRANCH  30  31
ATOM     31  O   UNL     1      -4.039  -5.207  13.999  1.00  0.00    -0.396 OA
ATOM     32  H   UNL     1      -3.251  -4.966  14.554  1.00  0.00     0.210 HD
ENDBRANCH  30  31
ENDBRANCH   4  30
BRANCH  13  33
ATOM     33  O   UNL     1      -1.504   4.218   5.984  1.00  0.00    -0.393 OA
ATOM     34  H   UNL     1      -1.135   5.009   6.454  1.00  0.00     0.210 HD
ENDBRANCH  13  33
TORSDOF 4
ENDMDL
MODEL 2
REMARK VINA RESULT:    -1.722      1.567      3.423
REMARK INTER + INTRA:          -1.989
REMARK INTER:                  -1.935
REMARK INTRA:                  -0.055
REMARK UNBOUND:                 0.035
REMARK SMILES C=C(C)[C@H]1CC[C@]2(CO)CC[C@]3(C)[C@H](CC[C@H]4[C@@]5(C)CC[C@H](O)C(C)(C)[C@@H]5CC[C@]43C)[C@@H]12
REMARK SMILES IDX 4 1 5 2 6 3 7 4 32 5 14 6 15 7 16 8 17 9 18 10 20 11 21 12
REMARK SMILES IDX 22 13 24 14 27 15 28 16 29 17 30 18 12 19 11 20 10 21 13 22
REMARK SMILES IDX 31 23 25 24 26 25 19 26 2 27 3 28 1 29 8 30 9 31 23 33
REMARK H PARENT 9 32 23 34
REMARK Flexibility Score: inf
ROOT
ATOM      1  C   UNL     1      -3.263  -4.521  12.995  1.00  0.00     0.018 C 
ATOM      2  C   UNL     1      -4.141  -5.209  14.065  1.00  0.00     0.009 C 
ATOM      3  C   UNL     1      -5.536  -4.547  14.005  1.00  0.00     0.010 C 
ATOM      4  C   UNL     1      -5.297  -3.148  13.407  1.00  0.00    -0.003 C 
ATOM      5  C   UNL     1      -4.192  -3.446  12.380  1.00  0.00     0.008 C 
ATOM      6  C   UNL     1      -3.694  -2.201  11.591  1.00  0.00    -0.000 C 
ATOM      7  C   UNL     1      -2.588  -2.581  10.587  1.00  0.00     0.005 C 
ATOM      8  C   UNL     1      -2.261  -1.465   9.573  1.00  0.00     0.005 C 
ATOM      9  C   UNL     1      -2.699  -0.045  10.033  1.00  0.00     0.002 C 
ATOM     10  C   UNL     1      -2.095   1.164   9.137  1.00  0.00    -0.026 C 
ATOM     11  C   UNL     1      -0.705   0.784   8.520  1.00  0.00     0.010 C 
ATOM     12  C   UNL     1      -0.132   1.825   7.546  1.00  0.00     0.033 C 
ATOM     13  C   UNL     1      -1.093   2.086   6.382  1.00  0.00     0.120 C 
ATOM     14  C   UNL     1      -2.523   2.517   6.852  1.00  0.00    -0.006 C 
ATOM     15  C   UNL     1      -3.057   1.478   7.930  1.00  0.00     0.003 C 
ATOM     16  C   UNL     1      -4.498   1.748   8.420  1.00  0.00     0.005 C 
ATOM     17  C   UNL     1      -5.066   0.494   9.080  1.00  0.00     0.008 C 
ATOM     18  C   UNL     1      -4.282   0.009  10.344  1.00  0.00    -0.024 C 
ATOM     19  C   UNL     1      -4.872  -1.437  10.863  1.00  0.00    -0.024 C 
ATOM     20  C   UNL     1      -6.107  -1.294  11.855  1.00  0.00     0.008 C 
ATOM     21  C   UNL     1      -6.506  -2.590  12.610  1.00  0.00     0.010 C 
ATOM     22  C   UNL     1      -5.428  -2.302   9.669  1.00  0.00     0.012 C 
ATOM     23  C   UNL     1      -4.504   1.083  11.455  1.00  0.00     0.012 C 
ATOM     24  C   UNL     1      -2.515   3.981   7.362  1.00  0.00     0.014 C 
ATOM     25  C   UNL     1      -3.439   2.479   5.594  1.00  0.00     0.014 C 
ATOM     26  C   UNL     1      -1.857   2.409  10.067  1.00  0.00     0.012 C 
ENDROOT
BRANCH   1  27
ATOM     27  C   UNL     1      -1.873  -4.145  13.513  1.00  0.00    -0.077 C 
ATOM     28  C   UNL     1      -1.605  -2.700  13.856  1.00  0.00     0.039 C 
ATOM     29  C   UNL     1      -0.858  -5.011  13.657  1.00  0.00     0.008 C 
ENDBRANCH   1  27
BRANCH   4  30
ATOM     30  C   UNL     1      -4.938  -2.135  14.556  1.00  0.00     0.163 C 
BRANCH  30  31
ATOM     31  O   UNL     1      -5.709  -2.324  15.712  1.00  0.00    -0.396 OA
ATOM     32  H   UNL     1      -5.288  -3.073  16.211  1.00  0.00     0.210 HD
ENDBRANCH  30  31
ENDBRANCH   4  30
BRANCH  13  33
ATOM     33  O   UNL     1      -0.522   3.066   5.546  1.00  0.00    -0.393 OA
ATOM     34  H   UNL     1      -1.203   3.319   4.871  1.00  0.00     0.210 HD
ENDBRANCH  13  33
TORSDOF 4
ENDMDL
MODEL 3
REMARK VINA RESULT:    -1.460      1.614      3.442
REMARK INTER + INTRA:          -1.682
REMARK INTER:                  -2.414
REMARK INTRA:                   0.733
REMARK UNBOUND:                 0.035
REMARK SMILES C=C(C)[C@H]1CC[C@]2(CO)CC[C@]3(C)[C@H](CC[C@H]4[C@@]5(C)CC[C@H](O)C(C)(C)[C@@H]5CC[C@]43C)[C@@H]12
REMARK SMILES IDX 4 1 5 2 6 3 7 4 32 5 14 6 15 7 16 8 17 9 18 10 20 11 21 12
REMARK SMILES IDX 22 13 24 14 27 15 28 16 29 17 30 18 12 19 11 20 10 21 13 22
REMARK SMILES IDX 31 23 25 24 26 25 19 26 2 27 3 28 1 29 8 30 9 31 23 33
REMARK H PARENT 9 32 23 34
REMARK Flexibility Score: inf
ROOT
ATOM      1  C   UNL     1      -4.963  -1.410  14.958  1.00  0.00     0.018 C 
ATOM      2  C   UNL     1      -5.687  -2.586  15.652  1.00  0.00     0.009 C 
ATOM      3  C   UNL     1      -5.544  -3.816  14.728  1.00  0.00     0.010 C 
ATOM      4  C   UNL     1      -5.327  -3.243  13.316  1.00  0.00    -0.003 C 
ATOM      5  C   UNL     1      -4.459  -2.011  13.624  1.00  0.00     0.008 C 
ATOM      6  C   UNL     1      -4.067  -1.172  12.374  1.00  0.00    -0.000 C 
ATOM      7  C   UNL     1      -3.203   0.044  12.765  1.00  0.00     0.005 C 
ATOM      8  C   UNL     1      -2.537   0.744  11.562  1.00  0.00     0.005 C 
ATOM      9  C   UNL     1      -3.226   0.449  10.199  1.00  0.00     0.002 C 
ATOM     10  C   UNL     1      -2.740   1.407   8.984  1.00  0.00    -0.026 C 
ATOM     11  C   UNL     1      -2.296   2.817   9.505  1.00  0.00     0.010 C 
ATOM     12  C   UNL     1      -1.692   3.734   8.431  1.00  0.00     0.033 C 
ATOM     13  C   UNL     1      -0.472   3.087   7.767  1.00  0.00     0.120 C 
ATOM     14  C   UNL     1      -0.781   1.677   7.161  1.00  0.00    -0.006 C 
ATOM     15  C   UNL     1      -1.491   0.776   8.261  1.00  0.00     0.003 C 
ATOM     16  C   UNL     1      -1.780  -0.675   7.811  1.00  0.00     0.005 C 
ATOM     17  C   UNL     1      -2.035  -1.556   9.031  1.00  0.00     0.008 C 
ATOM     18  C   UNL     1      -3.270  -1.136   9.894  1.00  0.00    -0.024 C 
ATOM     19  C   UNL     1      -3.343  -2.039  11.267  1.00  0.00    -0.024 C 
ATOM     20  C   UNL     1      -4.119  -3.414  11.077  1.00  0.00     0.008 C 
ATOM     21  C   UNL     1      -4.485  -4.159  12.388  1.00  0.00     0.010 C 
ATOM     22  C   UNL     1      -1.909  -2.466  11.761  1.00  0.00     0.012 C 
ATOM     23  C   UNL     1      -4.542  -1.410   9.030  1.00  0.00     0.012 C 
ATOM     24  C   UNL     1      -1.602   1.809   5.852  1.00  0.00     0.014 C 
ATOM     25  C   UNL     1       0.588   1.045   6.776  1.00  0.00     0.014 C 
ATOM     26  C   UNL     1      -3.954   1.640   8.012  1.00  0.00     0.012 C 
ENDROOT
BRANCH   1  27
ATOM     27  C   UNL     1      -5.779  -0.114  14.970  1.00  0.00    -0.077 C 
ATOM     28  C   UNL     1      -6.344   0.386  13.664  1.00  0.00     0.039 C 
ATOM     29  C   UNL     1      -6.003   0.630  16.064  1.00  0.00     0.008 C 
ENDBRANCH   1  27
BRANCH   4  30
ATOM     30  C   UNL     1      -6.718  -2.974  12.633  1.00  0.00     0.163 C 
BRANCH  30  31
ATOM     31  O   UNL     1      -6.797  -3.487  11.331  1.00  0.00    -0.396 OA
ATOM     32  H   UNL     1      -6.229  -2.901  10.764  1.00  0.00     0.210 HD
ENDBRANCH  30  31
ENDBRANCH   4  30
BRANCH  13  33
ATOM     33  O   UNL     1       0.012   3.965   6.777  1.00  0.00    -0.393 OA
ATOM     34  H   UNL     1      -0.692   4.052   6.083  1.00  0.00     0.210 HD
ENDBRANCH  13  33
TORSDOF 4
ENDMDL
MODEL 4
REMARK VINA RESULT:    -1.219      2.330      8.353
REMARK INTER + INTRA:          -1.399
REMARK INTER:                  -1.106
REMARK INTRA:                  -0.293
REMARK UNBOUND:                 0.035
REMARK SMILES C=C(C)[C@H]1CC[C@]2(CO)CC[C@]3(C)[C@H](CC[C@H]4[C@@]5(C)CC[C@H](O)C(C)(C)[C@@H]5CC[C@]43C)[C@@H]12
REMARK SMILES IDX 4 1 5 2 6 3 7 4 32 5 14 6 15 7 16 8 17 9 18 10 20 11 21 12
REMARK SMILES IDX 22 13 24 14 27 15 28 16 29 17 30 18 12 19 11 20 10 21 13 22
REMARK SMILES IDX 31 23 25 24 26 25 19 26 2 27 3 28 1 29 8 30 9 31 23 33
REMARK H PARENT 9 32 23 34
REMARK Flexibility Score: inf
ROOT
ATOM      1  C   UNL     1      -4.767   0.051   8.967  1.00  0.00     0.018 C 
ATOM      2  C   UNL     1      -3.735   0.935   8.230  1.00  0.00     0.009 C 
ATOM      3  C   UNL     1      -2.332   0.459   8.669  1.00  0.00     0.010 C 
ATOM      4  C   UNL     1      -2.538  -0.206  10.042  1.00  0.00    -0.003 C 
ATOM      5  C   UNL     1      -3.902  -0.887   9.843  1.00  0.00     0.008 C 
ATOM      6  C   UNL     1      -4.426  -1.654  11.091  1.00  0.00    -0.000 C 
ATOM      7  C   UNL     1      -5.796  -2.304  10.813  1.00  0.00     0.005 C 
ATOM      8  C   UNL     1      -6.232  -3.317  11.892  1.00  0.00     0.005 C 
ATOM      9  C   UNL     1      -5.511  -3.135  13.258  1.00  0.00     0.002 C 
ATOM     10  C   UNL     1      -6.169  -3.975  14.479  1.00  0.00    -0.026 C 
ATOM     11  C   UNL     1      -7.709  -4.182  14.272  1.00  0.00     0.010 C 
ATOM     12  C   UNL     1      -8.379  -5.087  15.316  1.00  0.00     0.033 C 
ATOM     13  C   UNL     1      -7.732  -6.475  15.347  1.00  0.00     0.120 C 
ATOM     14  C   UNL     1      -6.186  -6.426  15.589  1.00  0.00    -0.006 C 
ATOM     15  C   UNL     1      -5.525  -5.411  14.559  1.00  0.00     0.003 C 
ATOM     16  C   UNL     1      -3.983  -5.328  14.642  1.00  0.00     0.005 C 
ATOM     17  C   UNL     1      -3.428  -4.701  13.366  1.00  0.00     0.008 C 
ATOM     18  C   UNL     1      -3.908  -3.237  13.094  1.00  0.00    -0.024 C 
ATOM     19  C   UNL     1      -3.393  -2.730  11.616  1.00  0.00    -0.024 C 
ATOM     20  C   UNL     1      -1.934  -2.099  11.639  1.00  0.00     0.008 C 
ATOM     21  C   UNL     1      -1.519  -1.334  10.354  1.00  0.00     0.010 C 
ATOM     22  C   UNL     1      -3.285  -3.926  10.595  1.00  0.00     0.012 C 
ATOM     23  C   UNL     1      -3.267  -2.337  14.198  1.00  0.00     0.012 C 
ATOM     24  C   UNL     1      -5.872  -6.089  17.070  1.00  0.00     0.014 C 
ATOM     25  C   UNL     1      -5.644  -7.860  15.325  1.00  0.00     0.014 C 
ATOM     26  C   UNL     1      -5.993  -3.153  15.808  1.00  0.00     0.012 C 
ENDROOT
BRANCH   1  27
ATOM     27  C   UNL     1      -5.913   0.857   9.584  1.00  0.00    -0.077 C 
ATOM     28  C   UNL     1      -5.707   1.459  10.952  1.00  0.00     0.039 C 
ATOM     29  C   UNL     1      -7.108   1.043   9.003  1.00  0.00     0.008 C 
ENDBRANCH   1  27
BRANCH   4  30
ATOM     30  C   UNL     1      -2.450   0.882  11.175  1.00  0.00     0.163 C 
BRANCH  30  31
ATOM     31  O   UNL     1      -1.137   1.301  11.431  1.00  0.00    -0.396 OA
ATOM     32  H   UNL     1      -0.998   1.205  12.410  1.00  0.00     0.210 HD
ENDBRANCH  30  31
ENDBRANCH   4  30
BRANCH  13  33
ATOM     33  O   UNL     1      -8.371  -7.241  16.342  1.00  0.00    -0.393 OA
ATOM     34  H   UNL     1      -9.263  -7.501  15.994  1.00  0.00     0.210 HD
ENDBRANCH  13  33
TORSDOF 4
ENDMDL
MODEL 5
REMARK VINA RESULT:    -0.803      2.250      8.365
REMARK INTER + INTRA:          -0.909
REMARK INTER:                  -0.522
REMARK INTRA:                  -0.387
REMARK UNBOUND:                 0.035
REMARK SMILES C=C(C)[C@H]1CC[C@]2(CO)CC[C@]3(C)[C@H](CC[C@H]4[C@@]5(C)CC[C@H](O)C(C)(C)[C@@H]5CC[C@]43C)[C@@H]12
REMARK SMILES IDX 4 1 5 2 6 3 7 4 32 5 14 6 15 7 16 8 17 9 18 10 20 11 21 12
REMARK SMILES IDX 22 13 24 14 27 15 28 16 29 17 30 18 12 19 11 20 10 21 13 22
REMARK SMILES IDX 31 23 25 24 26 25 19 26 2 27 3 28 1 29 8 30 9 31 23 33
REMARK H PARENT 9 32 23 34
REMARK Flexibility Score: inf
ROOT
ATOM      1  C   UNL     1      -1.511  -0.974   9.768  1.00  0.00     0.018 C 
ATOM      2  C   UNL     1      -1.217   0.296   8.937  1.00  0.00     0.009 C 
ATOM      3  C   UNL     1      -1.930   1.474   9.637  1.00  0.00     0.010 C 
ATOM      4  C   UNL     1      -3.082   0.836  10.436  1.00  0.00    -0.003 C 
ATOM      5  C   UNL     1      -2.428  -0.473  10.910  1.00  0.00     0.008 C 
ATOM      6  C   UNL     1      -3.360  -1.389  11.754  1.00  0.00    -0.000 C 
ATOM      7  C   UNL     1      -2.635  -2.678  12.187  1.00  0.00     0.005 C 
ATOM      8  C   UNL     1      -3.392  -3.484  13.263  1.00  0.00     0.005 C 
ATOM      9  C   UNL     1      -4.911  -3.159  13.344  1.00  0.00     0.002 C 
ATOM     10  C   UNL     1      -5.771  -4.201  14.240  1.00  0.00    -0.026 C 
ATOM     11  C   UNL     1      -5.136  -5.635  14.224  1.00  0.00     0.010 C 
ATOM     12  C   UNL     1      -5.815  -6.646  15.160  1.00  0.00     0.033 C 
ATOM     13  C   UNL     1      -5.801  -6.157  16.611  1.00  0.00     0.120 C 
ATOM     14  C   UNL     1      -6.446  -4.741  16.788  1.00  0.00    -0.006 C 
ATOM     15  C   UNL     1      -5.795  -3.734  15.744  1.00  0.00     0.003 C 
ATOM     16  C   UNL     1      -6.293  -2.275  15.867  1.00  0.00     0.005 C 
ATOM     17  C   UNL     1      -5.320  -1.334  15.161  1.00  0.00     0.008 C 
ATOM     18  C   UNL     1      -5.160  -1.589  13.626  1.00  0.00    -0.024 C 
ATOM     19  C   UNL     1      -3.966  -0.640  13.009  1.00  0.00    -0.024 C 
ATOM     20  C   UNL     1      -4.470   0.804  12.575  1.00  0.00     0.008 C 
ATOM     21  C   UNL     1      -3.473   1.625  11.714  1.00  0.00     0.010 C 
ATOM     22  C   UNL     1      -2.838  -0.358  14.072  1.00  0.00     0.012 C 
ATOM     23  C   UNL     1      -6.519  -1.204  12.959  1.00  0.00     0.012 C 
ATOM     24  C   UNL     1      -7.990  -4.824  16.680  1.00  0.00     0.014 C 
ATOM     25  C   UNL     1      -6.116  -4.274  18.235  1.00  0.00     0.014 C 
ATOM     26  C   UNL     1      -7.209  -4.331  13.618  1.00  0.00     0.012 C 
ENDROOT
BRANCH   1  27
ATOM     27  C   UNL     1      -1.921  -2.171   8.907  1.00  0.00    -0.077 C 
ATOM     28  C   UNL     1      -3.313  -2.190   8.327  1.00  0.00     0.039 C 
ATOM     29  C   UNL     1      -1.134  -3.228   8.655  1.00  0.00     0.008 C 
ENDBRANCH   1  27
BRANCH   4  30
ATOM     30  C   UNL     1      -4.351   0.699   9.518  1.00  0.00     0.163 C 
BRANCH  30  31
ATOM     31  O   UNL     1      -4.398   1.665   8.502  1.00  0.00    -0.396 OA
ATOM     32  H   UNL     1      -3.722   2.353   8.738  1.00  0.00     0.210 HD
ENDBRANCH  30  31
ENDBRANCH   4  30
BRANCH  13  33
ATOM     33  O   UNL     1      -6.462  -7.112  17.408  1.00  0.00    -0.393 OA
ATOM     34  H   UNL     1      -7.338  -7.302  16.984  1.00  0.00     0.210 HD
ENDBRANCH  13  33
TORSDOF 4
ENDMDL
MODEL 6
REMARK VINA RESULT:    -0.653      2.027      8.557
REMARK INTER + INTRA:          -0.732
REMARK INTER:                  -0.229
REMARK INTRA:                  -0.504
REMARK UNBOUND:                 0.035
REMARK SMILES C=C(C)[C@H]1CC[C@]2(CO)CC[C@]3(C)[C@H](CC[C@H]4[C@@]5(C)CC[C@H](O)C(C)(C)[C@@H]5CC[C@]43C)[C@@H]12
REMARK SMILES IDX 4 1 5 2 6 3 7 4 32 5 14 6 15 7 16 8 17 9 18 10 20 11 21 12
REMARK SMILES IDX 22 13 24 14 27 15 28 16 29 17 30 18 12 19 11 20 10 21 13 22
REMARK SMILES IDX 31 23 25 24 26 25 19 26 2 27 3 28 1 29 8 30 9 31 23 33
REMARK H PARENT 9 32 23 34
REMARK Flexibility Score: inf
ROOT
ATOM      1  C   UNL     1      -3.157   1.753  10.996  1.00  0.00     0.018 C 
ATOM      2  C   UNL     1      -2.663   2.347   9.658  1.00  0.00     0.009 C 
ATOM      3  C   UNL     1      -3.310   1.518   8.526  1.00  0.00     0.010 C 
ATOM      4  C   UNL     1      -3.629   0.149   9.154  1.00  0.00    -0.003 C 
ATOM      5  C   UNL     1      -4.051   0.563  10.574  1.00  0.00     0.008 C 
ATOM      6  C   UNL     1      -4.431  -0.625  11.504  1.00  0.00    -0.000 C 
ATOM      7  C   UNL     1      -4.839  -0.130  12.905  1.00  0.00     0.005 C 
ATOM      8  C   UNL     1      -5.506  -1.214  13.777  1.00  0.00     0.005 C 
ATOM      9  C   UNL     1      -5.198  -2.669  13.320  1.00  0.00     0.002 C 
ATOM     10  C   UNL     1      -5.626  -3.810  14.389  1.00  0.00    -0.026 C 
ATOM     11  C   UNL     1      -5.561  -3.274  15.861  1.00  0.00     0.010 C 
ATOM     12  C   UNL     1      -6.084  -4.253  16.922  1.00  0.00     0.033 C 
ATOM     13  C   UNL     1      -7.538  -4.650  16.645  1.00  0.00     0.120 C 
ATOM     14  C   UNL     1      -7.748  -5.244  15.212  1.00  0.00    -0.006 C 
ATOM     15  C   UNL     1      -7.115  -4.260  14.137  1.00  0.00     0.003 C 
ATOM     16  C   UNL     1      -7.324  -4.696  12.668  1.00  0.00     0.005 C 
ATOM     17  C   UNL     1      -7.091  -3.510  11.736  1.00  0.00     0.008 C 
ATOM     18  C   UNL     1      -5.647  -2.911  11.788  1.00  0.00    -0.024 C 
ATOM     19  C   UNL     1      -5.562  -1.540  10.883  1.00  0.00    -0.024 C 
ATOM     20  C   UNL     1      -5.242  -1.815   9.350  1.00  0.00     0.008 C 
ATOM     21  C   UNL     1      -4.850  -0.566   8.517  1.00  0.00     0.010 C 
ATOM     22  C   UNL     1      -6.937  -0.769  10.863  1.00  0.00     0.012 C 
ATOM     23  C   UNL     1      -4.688  -3.986  11.184  1.00  0.00     0.012 C 
ATOM     24  C   UNL     1      -7.189  -6.688  15.129  1.00  0.00     0.014 C 
ATOM     25  C   UNL     1      -9.286  -5.340  14.987  1.00  0.00     0.014 C 
ATOM     26  C   UNL     1      -4.604  -5.001  14.291  1.00  0.00     0.012 C 
ENDROOT
BRANCH   1  27
ATOM     27  C   UNL     1      -2.032   1.559  12.016  1.00  0.00    -0.077 C 
ATOM     28  C   UNL     1      -1.906   2.558  13.139  1.00  0.00     0.039 C 
ATOM     29  C   UNL     1      -1.124   0.573  11.963  1.00  0.00     0.008 C 
ENDBRANCH   1  27
BRANCH   4  30
ATOM     30  C   UNL     1      -2.374  -0.792   9.037  1.00  0.00     0.163 C 
BRANCH  30  31
ATOM     31  O   UNL     1      -1.592  -0.522   7.906  1.00  0.00    -0.396 OA
ATOM     32  H   UNL     1      -1.030  -1.327   7.754  1.00  0.00     0.210 HD
ENDBRANCH  30  31
ENDBRANCH   4  30
BRANCH  13  33
ATOM     33  O   UNL     1      -7.944  -5.567  17.634  1.00  0.00    -0.393 OA
ATOM     34  H   UNL     1      -8.646  -5.128  18.181  1.00  0.00     0.210 HD
ENDBRANCH  13  33
TORSDOF 4
ENDMDL
