MODEL 1
REMARK VINA RESULT:    -2.690      0.000      0.000
REMARK INTER + INTRA:          -3.061
REMARK INTER:                  -3.004
REMARK INTRA:                  -0.057
REMARK UNBOUND:                -0.057
REMARK SMILES CCCC(=O)[O-]
REMARK SMILES IDX 3 1 4 2 5 3 6 4 2 5 1 6
REMARK H PARENT
REMARK Flexibility Score: inf
ROOT
ATOM      1  C   UNL     1      21.235   1.262  24.376  1.00  0.00     0.052 C 
ENDROOT
BRANCH   1   2
ATOM      2  C   UNL     1      21.189   1.461  25.861  1.00  0.00     0.041 C 
ATOM      3  O   UNL     1      22.247   1.689  26.504  1.00  0.00    -0.550 OA
ATOM      4  O   UNL     1      19.971   1.427  26.528  1.00  0.00    -0.550 OA
ENDBRANCH   1   2
BRANCH   1   5
ATOM      5  C   UNL     1      21.698   2.531  23.649  1.00  0.00     0.003 C 
ATOM      6  C   UNL     1      20.878   3.760  24.042  1.00  0.00     0.004 C 
ENDBRANCH   1   5
TORSDOF 2
ENDMDL
MODEL 2
REMARK VINA RESULT:    -2.576      1.402      2.091
REMARK INTER + INTRA:          -2.934
REMARK INTER:                  -2.864
REMARK INTRA:                  -0.070
REMARK UNBOUND:                -0.057
REMARK SMILES CCCC(=O)[O-]
REMARK SMILES IDX 3 1 4 2 5 3 6 4 2 5 1 6
REMARK H PARENT
REMARK Flexibility Score: inf
ROOT
ATOM      1  C   UNL     1      21.514   3.029  23.640  1.00  0.00     0.052 C 
ENDROOT
BRANCH   1   2
ATOM      2  C   UNL     1      21.428   1.783  24.468  1.00  0.00     0.041 C 
ATOM      3  O   UNL     1      20.872   0.751  24.007  1.00  0.00    -0.550 OA
ATOM      4  O   UNL     1      21.993   1.752  25.736  1.00  0.00    -0.550 OA
ENDBRANCH   1   2
BRANCH   1   5
ATOM      5  C   UNL     1      20.985   4.252  24.399  1.00  0.00     0.003 C 
ATOM      6  C   UNL     1      19.501   4.126  24.743  1.00  0.00     0.004 C 
ENDBRANCH   1   5
TORSDOF 2
ENDMDL
MODEL 3
REMARK VINA RESULT:    -2.572      2.501      3.202
REMARK INTER + INTRA:          -2.929
REMARK INTER:                  -2.892
REMARK INTRA:                  -0.037
REMARK UNBOUND:                -0.057
REMARK SMILES CCCC(=O)[O-]
REMARK SMILES IDX 3 1 4 2 5 3 6 4 2 5 1 6
REMARK H PARENT
REMARK Flexibility Score: inf
ROOT
ATOM      1  C   UNL     1      21.649   3.683  24.488  1.00  0.00     0.052 C 
ENDROOT
BRANCH   1   2
ATOM      2  C   UNL     1      20.420   4.535  24.391  1.00  0.00     0.041 C 
ATOM      3  O   UNL     1      20.503   5.726  23.990  1.00  0.00    -0.550 OA
ATOM      4  O   UNL     1      19.178   4.002  24.713  1.00  0.00    -0.550 OA
ENDBRANCH   1   2
BRANCH   1   5
ATOM      5  C   UNL     1      21.551   2.444  23.588  1.00  0.00     0.003 C 
ATOM      6  C   UNL     1      21.306   1.163  24.385  1.00  0.00     0.004 C 
ENDBRANCH   1   5
TORSDOF 2
ENDMDL
MODEL 4
REMARK VINA RESULT:    -2.560      1.664      2.330
REMARK INTER + INTRA:          -2.916
REMARK INTER:                  -2.849
REMARK INTRA:                  -0.067
REMARK UNBOUND:                -0.057
REMARK SMILES CCCC(=O)[O-]
REMARK SMILES IDX 3 1 4 2 5 3 6 4 2 5 1 6
REMARK H PARENT
REMARK Flexibility Score: inf
ROOT
ATOM      1  C   UNL     1      21.607   3.620  24.296  1.00  0.00     0.052 C 
ENDROOT
BRANCH   1   2
ATOM      2  C   UNL     1      22.377   3.533  25.579  1.00  0.00     0.041 C 
ATOM      3  O   UNL     1      23.607   3.263  25.565  1.00  0.00    -0.550 OA
ATOM      4  O   UNL     1      21.742   3.785  26.789  1.00  0.00    -0.550 OA
ENDBRANCH   1   2
BRANCH   1   5
ATOM      5  C   UNL     1      21.626   2.290  23.533  1.00  0.00     0.003 C 
ATOM      6  C   UNL     1      21.060   1.135  24.359  1.00  0.00     0.004 C 
ENDBRANCH   1   5
TORSDOF 2
ENDMDL
MODEL 5
REMARK VINA RESULT:    -2.556      1.813      2.699
REMARK INTER + INTRA:          -2.912
REMARK INTER:                  -2.850
REMARK INTRA:                  -0.063
REMARK UNBOUND:                -0.057
REMARK SMILES CCCC(=O)[O-]
REMARK SMILES IDX 3 1 4 2 5 3 6 4 2 5 1 6
REMARK H PARENT
REMARK Flexibility Score: inf
ROOT
ATOM      1  C   UNL     1      21.475   3.669  24.239  1.00  0.00     0.052 C 
ENDROOT
BRANCH   1   2
ATOM      2  C   UNL     1      22.310   3.747  25.482  1.00  0.00     0.041 C 
ATOM      3  O   UNL     1      21.821   4.205  26.548  1.00  0.00    -0.550 OA
ATOM      4  O   UNL     1      23.619   3.281  25.469  1.00  0.00    -0.550 OA
ENDBRANCH   1   2
BRANCH   1   5
ATOM      5  C   UNL     1      21.642   2.320  23.529  1.00  0.00     0.003 C 
ATOM      6  C   UNL     1      20.988   1.172  24.297  1.00  0.00     0.004 C 
ENDBRANCH   1   5
TORSDOF 2
ENDMDL
MODEL 6
REMARK VINA RESULT:    -2.461      2.068      2.995
REMARK INTER + INTRA:          -2.806
REMARK INTER:                  -2.737
REMARK INTRA:                  -0.069
REMARK UNBOUND:                -0.057
REMARK SMILES CCCC(=O)[O-]
REMARK SMILES IDX 3 1 4 2 5 3 6 4 2 5 1 6
REMARK H PARENT
REMARK Flexibility Score: inf
ROOT
ATOM      1  C   UNL     1      21.233   1.429  24.244  1.00  0.00     0.052 C 
ENDROOT
BRANCH   1   2
ATOM      2  C   UNL     1      21.912   2.754  24.073  1.00  0.00     0.041 C 
ATOM      3  O   UNL     1      21.281   3.735  23.600  1.00  0.00    -0.550 OA
ATOM      4  O   UNL     1      23.234   2.913  24.470  1.00  0.00    -0.550 OA
ENDBRANCH   1   2
BRANCH   1   5
ATOM      5  C   UNL     1      20.141   1.486  25.319  1.00  0.00     0.003 C 
ATOM      6  C   UNL     1      20.713   1.703  26.720  1.00  0.00     0.004 C 
ENDBRANCH   1   5
TORSDOF 2
ENDMDL
MODEL 7
REMARK VINA RESULT:    -2.449      1.308      2.127
REMARK INTER + INTRA:          -2.792
REMARK INTER:                  -2.738
REMARK INTRA:                  -0.054
REMARK UNBOUND:                -0.057
REMARK SMILES CCCC(=O)[O-]
REMARK SMILES IDX 3 1 4 2 5 3 6 4 2 5 1 6
REMARK H PARENT
REMARK Flexibility Score: inf
ROOT
ATOM      1  C   UNL     1      21.456   2.778  23.859  1.00  0.00     0.052 C 
ENDROOT
BRANCH   1   2
ATOM      2  C   UNL     1      22.197   2.379  25.099  1.00  0.00     0.041 C 
ATOM      3  O   UNL     1      21.819   1.385  25.773  1.00  0.00    -0.550 OA
ATOM      4  O   UNL     1      23.327   3.087  25.491  1.00  0.00    -0.550 OA
ENDBRANCH   1   2
BRANCH   1   5
ATOM      5  C   UNL     1      20.799   4.155  24.010  1.00  0.00     0.003 C 
ATOM      6  C   UNL     1      19.497   4.095  24.810  1.00  0.00     0.004 C 
ENDBRANCH   1   5
TORSDOF 2
ENDMDL
MODEL 8
REMARK VINA RESULT:    -2.413      1.760      2.214
REMARK INTER + INTRA:          -2.752
REMARK INTER:                  -2.731
REMARK INTRA:                  -0.021
REMARK UNBOUND:                -0.057
REMARK SMILES CCCC(=O)[O-]
REMARK SMILES IDX 3 1 4 2 5 3 6 4 2 5 1 6
REMARK H PARENT
REMARK Flexibility Score: inf
ROOT
ATOM      1  C   UNL     1      20.866   1.521  25.820  1.00  0.00     0.052 C 
ENDROOT
BRANCH   1   2
ATOM      2  C   UNL     1      19.410   1.852  25.942  1.00  0.00     0.041 C 
ATOM      3  O   UNL     1      18.608   1.019  26.442  1.00  0.00    -0.550 OA
ATOM      4  O   UNL     1      18.944   3.096  25.535  1.00  0.00    -0.550 OA
ENDBRANCH   1   2
BRANCH   1   5
ATOM      5  C   UNL     1      21.251   1.186  24.373  1.00  0.00     0.003 C 
ATOM      6  C   UNL     1      21.731   2.413  23.599  1.00  0.00     0.004 C 
ENDBRANCH   1   5
TORSDOF 2
ENDMDL
MODEL 9
REMARK VINA RESULT:    -2.303      2.058      3.064
REMARK INTER + INTRA:          -2.629
REMARK INTER:                  -2.578
REMARK INTRA:                  -0.051
REMARK UNBOUND:                -0.057
REMARK SMILES CCCC(=O)[O-]
REMARK SMILES IDX 3 1 4 2 5 3 6 4 2 5 1 6
REMARK H PARENT
REMARK Flexibility Score: inf
ROOT
ATOM      1  C   UNL     1      19.828   2.361  25.577  1.00  0.00     0.052 C 
ENDROOT
BRANCH   1   2
ATOM      2  C   UNL     1      21.040   1.527  25.295  1.00  0.00     0.041 C 
ATOM      3  O   UNL     1      21.141   0.900  24.207  1.00  0.00    -0.550 OA
ATOM      4  O   UNL     1      22.075   1.470  26.220  1.00  0.00    -0.550 OA
ENDBRANCH   1   2
BRANCH   1   5
ATOM      5  C   UNL     1      18.642   1.501  26.032  1.00  0.00     0.003 C 
ATOM      6  C   UNL     1      18.779   1.040  27.483  1.00  0.00     0.004 C 
ENDBRANCH   1   5
TORSDOF 2
ENDMDL
