MODEL 1
REMARK VINA RESULT:    -7.109      0.000      0.000
REMARK INTER + INTRA:         -11.648
REMARK INTER:                 -10.433
REMARK INTRA:                  -1.214
REMARK UNBOUND:                -1.214
REMARK SMILES Cc1cc2c(C(C)C)c(O)c(O)c(C=O)c2c(O)c1-c1c(C)cc2c(C(C)C)c(O)c(O)c(C=O)c2c1O
REMARK SMILES IDX 1 1 2 2 3 3 4 4 16 5 13 6 11 7 9 8 5 9 17 10 19 11 20 12
REMARK SMILES IDX 37 13 21 14 36 15 23 16 22 17 24 18 33 19 25 20 31 21 29 22
REMARK SMILES IDX 38 23 34 25 35 26 26 27 27 28 28 29 32 30 30 32 18 34 6 36
REMARK SMILES IDX 7 37 8 38 14 39 15 40 10 41 12 43
REMARK H PARENT 38 24 32 31 30 33 18 35 10 42 12 44
REMARK Flexibility Score: inf
ROOT
ATOM      1  C   UNL     1     -36.235  -8.435  29.833  1.00  0.00     0.045 C 
ATOM      2  C   UNL     1     -35.187  -8.627  30.903  1.00  0.00    -0.039 A 
ATOM      3  C   UNL     1     -35.152  -7.756  31.993  1.00  0.00     0.013 A 
ATOM      4  C   UNL     1     -34.197  -7.894  33.024  1.00  0.00    -0.006 A 
ATOM      5  C   UNL     1     -33.167  -8.867  32.876  1.00  0.00     0.039 A 
ATOM      6  C   UNL     1     -32.072  -8.856  33.787  1.00  0.00     0.072 A 
ATOM      7  C   UNL     1     -32.042  -7.928  34.844  1.00  0.00     0.169 A 
ATOM      8  C   UNL     1     -33.097  -7.010  35.019  1.00  0.00     0.162 A 
ATOM      9  C   UNL     1     -34.233  -7.059  34.182  1.00  0.00     0.008 A 
ATOM     10  C   UNL     1     -33.288  -9.838  31.838  1.00  0.00     0.132 A 
ATOM     11  C   UNL     1     -34.282  -9.700  30.846  1.00  0.00     0.031 A 
ENDROOT
BRANCH  11  12
ATOM     12  C   UNL     1     -34.380 -10.689  29.740  1.00  0.00     0.031 A 
ATOM     13  C   UNL     1     -35.163 -11.852  29.898  1.00  0.00     0.132 A 
ATOM     14  C   UNL     1     -33.666 -10.479  28.549  1.00  0.00    -0.039 A 
ATOM     15  C   UNL     1     -35.323 -12.770  28.816  1.00  0.00     0.039 A 
ATOM     16  C   UNL     1     -33.747 -11.421  27.523  1.00  0.00     0.013 A 
ATOM     17  C   UNL     1     -32.790  -9.262  28.375  1.00  0.00     0.045 C 
ATOM     18  C   UNL     1     -34.592 -12.550  27.610  1.00  0.00    -0.006 A 
ATOM     19  C   UNL     1     -36.160 -13.921  28.916  1.00  0.00     0.072 A 
ATOM     20  C   UNL     1     -34.686 -13.487  26.534  1.00  0.00     0.008 A 
ATOM     21  C   UNL     1     -36.116 -14.908  27.916  1.00  0.00     0.169 A 
ATOM     22  C   UNL     1     -35.316 -14.728  26.773  1.00  0.00     0.162 A 
BRANCH  13  23
ATOM     23  O   UNL     1     -35.741 -12.121  31.146  1.00  0.00    -0.507 OA
ATOM     24  H   UNL     1     -35.649 -13.003  31.632  1.00  0.00     0.293 HD
ENDBRANCH  13  23
BRANCH  19  25
ATOM     25  C   UNL     1     -37.160 -14.076  30.002  1.00  0.00     0.264 C 
ATOM     26  O   UNL     1     -38.237 -13.424  29.997  1.00  0.00    -0.298 OA
ENDBRANCH  19  25
BRANCH  20  27
ATOM     27  C   UNL     1     -34.081 -13.196  25.148  1.00  0.00     0.017 C 
ATOM     28  C   UNL     1     -34.724 -11.955  24.520  1.00  0.00     0.012 C 
ATOM     29  C   UNL     1     -32.544 -13.091  25.148  1.00  0.00     0.012 C 
ENDBRANCH  20  27
BRANCH  21  30
ATOM     30  O   UNL     1     -36.920 -16.046  28.054  1.00  0.00    -0.504 OA
ATOM     31  H   UNL     1     -36.626 -16.981  27.809  1.00  0.00     0.293 HD
ENDBRANCH  21  30
BRANCH  22  32
ATOM     32  O   UNL     1     -35.126 -15.772  25.865  1.00  0.00    -0.504 OA
ATOM     33  H   UNL     1     -35.839 -16.113  25.233  1.00  0.00     0.293 HD
ENDBRANCH  22  32
ENDBRANCH  11  12
BRANCH  10  34
ATOM     34  O   UNL     1     -32.451 -10.960  31.821  1.00  0.00    -0.507 OA
ATOM     35  H   UNL     1     -31.445 -10.913  31.918  1.00  0.00     0.293 HD
ENDBRANCH  10  34
BRANCH   9  36
ATOM     36  C   UNL     1     -35.471  -6.211  34.521  1.00  0.00     0.017 C 
ATOM     37  C   UNL     1     -36.746  -7.060  34.497  1.00  0.00     0.012 C 
ATOM     38  C   UNL     1     -35.617  -4.952  33.647  1.00  0.00     0.012 C 
ENDBRANCH   9  36
BRANCH   6  39
ATOM     39  C   UNL     1     -30.876  -9.711  33.590  1.00  0.00     0.264 C 
ATOM     40  O   UNL     1     -30.694 -10.743  34.289  1.00  0.00    -0.298 OA
ENDBRANCH   6  39
BRANCH   8  41
ATOM     41  O   UNL     1     -33.021  -6.011  35.993  1.00  0.00    -0.504 OA
ATOM     42  H   UNL     1     -33.708  -5.861  36.716  1.00  0.00     0.293 HD
ENDBRANCH   8  41
BRANCH   7  43
ATOM     43  O   UNL     1     -30.941  -7.940  35.710  1.00  0.00    -0.504 OA
ATOM     44  H   UNL     1     -30.058  -8.386  35.508  1.00  0.00     0.293 HD
ENDBRANCH   7  43
TORSDOF 11
ENDMDL
MODEL 2
REMARK VINA RESULT:    -6.832      0.528      8.995
REMARK INTER + INTRA:         -11.241
REMARK INTER:                  -9.950
REMARK INTRA:                  -1.291
REMARK UNBOUND:                -1.214
REMARK SMILES Cc1cc2c(C(C)C)c(O)c(O)c(C=O)c2c(O)c1-c1c(C)cc2c(C(C)C)c(O)c(O)c(C=O)c2c1O
REMARK SMILES IDX 1 1 2 2 3 3 4 4 16 5 13 6 11 7 9 8 5 9 17 10 19 11 20 12
REMARK SMILES IDX 37 13 21 14 36 15 23 16 22 17 24 18 33 19 25 20 31 21 29 22
REMARK SMILES IDX 38 23 34 25 35 26 26 27 27 28 28 29 32 30 30 32 18 34 6 36
REMARK SMILES IDX 7 37 8 38 14 39 15 40 10 41 12 43
REMARK H PARENT 38 24 32 31 30 33 18 35 10 42 12 44
REMARK Flexibility Score: inf
ROOT
ATOM      1  C   UNL     1     -32.950  -9.149  28.238  1.00  0.00     0.045 C 
ATOM      2  C   UNL     1     -33.718 -10.422  28.498  1.00  0.00    -0.039 A 
ATOM      3  C   UNL     1     -33.747 -11.418  27.521  1.00  0.00     0.013 A 
ATOM      4  C   UNL     1     -34.445 -12.631  27.715  1.00  0.00    -0.006 A 
ATOM      5  C   UNL     1     -35.243 -12.780  28.886  1.00  0.00     0.039 A 
ATOM      6  C   UNL     1     -36.130 -13.890  28.979  1.00  0.00     0.072 A 
ATOM      7  C   UNL     1     -36.172 -14.848  27.948  1.00  0.00     0.169 A 
ATOM      8  C   UNL     1     -35.334 -14.725  26.823  1.00  0.00     0.162 A 
ATOM      9  C   UNL     1     -34.386 -13.680  26.749  1.00  0.00     0.008 A 
ATOM     10  C   UNL     1     -35.100 -11.826  29.937  1.00  0.00     0.132 A 
ATOM     11  C   UNL     1     -34.358 -10.644  29.730  1.00  0.00     0.031 A 
ENDROOT
BRANCH  11  12
ATOM     12  C   UNL     1     -34.245  -9.630  30.812  1.00  0.00     0.031 A 
ATOM     13  C   UNL     1     -33.225  -9.740  31.780  1.00  0.00     0.132 A 
ATOM     14  C   UNL     1     -35.176  -8.582  30.887  1.00  0.00    -0.039 A 
ATOM     15  C   UNL     1     -33.063  -8.731  32.778  1.00  0.00     0.039 A 
ATOM     16  C   UNL     1     -35.076  -7.646  31.917  1.00  0.00     0.013 A 
ATOM     17  C   UNL     1     -36.300  -8.470  29.886  1.00  0.00     0.045 C 
ATOM     18  C   UNL     1     -34.015  -7.670  32.849  1.00  0.00    -0.006 A 
ATOM     19  C   UNL     1     -32.002  -8.772  33.731  1.00  0.00     0.072 A 
ATOM     20  C   UNL     1     -33.911  -6.682  33.877  1.00  0.00     0.008 A 
ATOM     21  C   UNL     1     -32.009  -7.889  34.825  1.00  0.00     0.169 A 
ATOM     22  C   UNL     1     -33.008  -6.906  34.939  1.00  0.00     0.162 A 
BRANCH  13  23
ATOM     23  O   UNL     1     -32.403 -10.874  31.780  1.00  0.00    -0.507 OA
ATOM     24  H   UNL     1     -32.716 -11.798  32.048  1.00  0.00     0.293 HD
ENDBRANCH  13  23
BRANCH  19  25
ATOM     25  C   UNL     1     -30.824  -9.659  33.562  1.00  0.00     0.264 C 
ATOM     26  O   UNL     1     -30.657 -10.671  34.291  1.00  0.00    -0.298 OA
ENDBRANCH  19  25
BRANCH  20  27
ATOM     27  C   UNL     1     -34.786  -5.414  33.877  1.00  0.00     0.017 C 
ATOM     28  C   UNL     1     -35.912  -5.526  34.911  1.00  0.00     0.012 C 
ATOM     29  C   UNL     1     -33.990  -4.107  34.055  1.00  0.00     0.012 C 
ENDBRANCH  20  27
BRANCH  21  30
ATOM     30  O   UNL     1     -30.976  -7.972  35.767  1.00  0.00    -0.504 OA
ATOM     31  H   UNL     1     -31.109  -8.242  36.731  1.00  0.00     0.293 HD
ENDBRANCH  21  30
BRANCH  22  32
ATOM     32  O   UNL     1     -33.128  -6.144  36.105  1.00  0.00    -0.504 OA
ATOM     33  H   UNL     1     -32.379  -5.596  36.506  1.00  0.00     0.293 HD
ENDBRANCH  22  32
ENDBRANCH  11  12
BRANCH  10  34
ATOM     34  O   UNL     1     -35.657 -12.077  31.197  1.00  0.00    -0.507 OA
ATOM     35  H   UNL     1     -36.073 -11.362  31.780  1.00  0.00     0.293 HD
ENDBRANCH  10  34
BRANCH   9  36
ATOM     36  C   UNL     1     -33.326 -13.686  25.634  1.00  0.00     0.017 C 
ATOM     37  C   UNL     1     -31.911 -13.742  26.217  1.00  0.00     0.012 C 
ATOM     38  C   UNL     1     -33.476 -12.526  24.632  1.00  0.00     0.012 C 
ENDBRANCH   9  36
BRANCH   6  39
ATOM     39  C   UNL     1     -37.122 -14.016  30.074  1.00  0.00     0.264 C 
ATOM     40  O   UNL     1     -38.256 -13.475  29.986  1.00  0.00    -0.298 OA
ENDBRANCH   6  39
BRANCH   8  41
ATOM     41  O   UNL     1     -35.452 -15.603  25.743  1.00  0.00    -0.504 OA
ATOM     42  H   UNL     1     -34.918 -15.538  24.889  1.00  0.00     0.293 HD
ENDBRANCH   8  41
BRANCH   7  43
ATOM     43  O   UNL     1     -37.068 -15.918  28.071  1.00  0.00    -0.504 OA
ATOM     44  H   UNL     1     -36.844 -16.880  27.864  1.00  0.00     0.293 HD
ENDBRANCH   7  43
TORSDOF 11
ENDMDL
MODEL 3
REMARK VINA RESULT:    -6.725     11.450     14.767
REMARK INTER + INTRA:         -11.085
REMARK INTER:                 -10.163
REMARK INTRA:                  -0.922
REMARK UNBOUND:                -1.214
REMARK SMILES Cc1cc2c(C(C)C)c(O)c(O)c(C=O)c2c(O)c1-c1c(C)cc2c(C(C)C)c(O)c(O)c(C=O)c2c1O
REMARK SMILES IDX 1 1 2 2 3 3 4 4 16 5 13 6 11 7 9 8 5 9 17 10 19 11 20 12
REMARK SMILES IDX 37 13 21 14 36 15 23 16 22 17 24 18 33 19 25 20 31 21 29 22
REMARK SMILES IDX 38 23 34 25 35 26 26 27 27 28 28 29 32 30 30 32 18 34 6 36
REMARK SMILES IDX 7 37 8 38 14 39 15 40 10 41 12 43
REMARK H PARENT 38 24 32 31 30 33 18 35 10 42 12 44
REMARK Flexibility Score: inf
ROOT
ATOM      1  C   UNL     1     -27.368  -1.199  29.559  1.00  0.00     0.045 C 
ATOM      2  C   UNL     1     -28.662  -0.422  29.574  1.00  0.00    -0.039 A 
ATOM      3  C   UNL     1     -29.570  -0.622  30.616  1.00  0.00     0.013 A 
ATOM      4  C   UNL     1     -30.792   0.083  30.682  1.00  0.00    -0.006 A 
ATOM      5  C   UNL     1     -31.159   0.921  29.590  1.00  0.00     0.039 A 
ATOM      6  C   UNL     1     -32.481   1.447  29.537  1.00  0.00     0.072 A 
ATOM      7  C   UNL     1     -33.388   1.180  30.579  1.00  0.00     0.169 A 
ATOM      8  C   UNL     1     -32.997   0.402  31.686  1.00  0.00     0.162 A 
ATOM      9  C   UNL     1     -31.666  -0.058  31.802  1.00  0.00     0.008 A 
ATOM     10  C   UNL     1     -30.174   1.228  28.603  1.00  0.00     0.132 A 
ATOM     11  C   UNL     1     -28.942   0.539  28.589  1.00  0.00     0.031 A 
ENDROOT
BRANCH  11  12
ATOM     12  C   UNL     1     -27.933   0.830  27.535  1.00  0.00     0.031 A 
ATOM     13  C   UNL     1     -26.900   1.758  27.781  1.00  0.00     0.132 A 
ATOM     14  C   UNL     1     -28.032   0.202  26.283  1.00  0.00    -0.039 A 
ATOM     15  C   UNL     1     -25.886   1.987  26.803  1.00  0.00     0.039 A 
ATOM     16  C   UNL     1     -27.094   0.494  25.292  1.00  0.00     0.013 A 
ATOM     17  C   UNL     1     -29.153  -0.763  25.984  1.00  0.00     0.045 C 
ATOM     18  C   UNL     1     -25.993   1.347  25.531  1.00  0.00    -0.006 A 
ATOM     19  C   UNL     1     -24.788   2.866  27.042  1.00  0.00     0.072 A 
ATOM     20  C   UNL     1     -25.025   1.607  24.513  1.00  0.00     0.008 A 
ATOM     21  C   UNL     1     -23.940   3.233  25.981  1.00  0.00     0.169 A 
ATOM     22  C   UNL     1     -24.113   2.669  24.705  1.00  0.00     0.162 A 
BRANCH  13  23
ATOM     23  O   UNL     1     -26.909   2.488  28.976  1.00  0.00    -0.507 OA
ATOM     24  H   UNL     1     -27.708   3.009  29.314  1.00  0.00     0.293 HD
ENDBRANCH  13  23
BRANCH  19  25
ATOM     25  C   UNL     1     -24.442   3.344  28.404  1.00  0.00     0.264 C 
ATOM     26  O   UNL     1     -23.985   2.559  29.276  1.00  0.00    -0.298 OA
ENDBRANCH  19  25
BRANCH  20  27
ATOM     27  C   UNL     1     -24.982   0.795  23.205  1.00  0.00     0.017 C 
ATOM     28  C   UNL     1     -24.720  -0.688  23.489  1.00  0.00     0.012 C 
ATOM     29  C   UNL     1     -26.225   0.983  22.314  1.00  0.00     0.012 C 
ENDBRANCH  20  27
BRANCH  21  30
ATOM     30  O   UNL     1     -22.891   4.125  26.233  1.00  0.00    -0.504 OA
ATOM     31  H   UNL     1     -22.988   5.130  26.225  1.00  0.00     0.293 HD
ENDBRANCH  21  30
BRANCH  22  32
ATOM     32  O   UNL     1     -23.396   3.155  23.608  1.00  0.00    -0.504 OA
ATOM     33  H   UNL     1     -22.387   3.208  23.567  1.00  0.00     0.293 HD
ENDBRANCH  22  32
ENDBRANCH  11  12
BRANCH  10  34
ATOM     34  O   UNL     1     -30.404   2.246  27.670  1.00  0.00    -0.507 OA
ATOM     35  H   UNL     1     -30.174   3.219  27.831  1.00  0.00     0.293 HD
ENDBRANCH  10  34
BRANCH   9  36
ATOM     36  C   UNL     1     -31.193  -0.707  33.114  1.00  0.00     0.017 C 
ATOM     37  C   UNL     1     -29.843  -0.135  33.557  1.00  0.00     0.012 C 
ATOM     38  C   UNL     1     -31.163  -2.246  33.067  1.00  0.00     0.012 C 
ENDBRANCH   9  36
BRANCH   6  39
ATOM     39  C   UNL     1     -32.993   2.170  28.348  1.00  0.00     0.264 C 
ATOM     40  O   UNL     1     -34.107   1.875  27.840  1.00  0.00    -0.298 OA
ENDBRANCH   6  39
BRANCH   8  41
ATOM     41  O   UNL     1     -33.924   0.034  32.665  1.00  0.00    -0.504 OA
ATOM     42  H   UNL     1     -34.553  -0.751  32.593  1.00  0.00     0.293 HD
ENDBRANCH   8  41
BRANCH   7  43
ATOM     43  O   UNL     1     -34.684   1.705  30.483  1.00  0.00    -0.504 OA
ATOM     44  H   UNL     1     -35.528   1.185  30.674  1.00  0.00     0.293 HD
ENDBRANCH   7  43
TORSDOF 11
ENDMDL
MODEL 4
REMARK VINA RESULT:    -6.629     11.810     15.197
REMARK INTER + INTRA:         -10.944
REMARK INTER:                  -9.680
REMARK INTRA:                  -1.264
REMARK UNBOUND:                -1.214
REMARK SMILES Cc1cc2c(C(C)C)c(O)c(O)c(C=O)c2c(O)c1-c1c(C)cc2c(C(C)C)c(O)c(O)c(C=O)c2c1O
REMARK SMILES IDX 1 1 2 2 3 3 4 4 16 5 13 6 11 7 9 8 5 9 17 10 19 11 20 12
REMARK SMILES IDX 37 13 21 14 36 15 23 16 22 17 24 18 33 19 25 20 31 21 29 22
REMARK SMILES IDX 38 23 34 25 35 26 26 27 27 28 28 29 32 30 30 32 18 34 6 36
REMARK SMILES IDX 7 37 8 38 14 39 15 40 10 41 12 43
REMARK H PARENT 38 24 32 31 30 33 18 35 10 42 12 44
REMARK Flexibility Score: inf
ROOT
ATOM      1  C   UNL     1     -29.011  -0.887  25.462  1.00  0.00     0.045 C 
ATOM      2  C   UNL     1     -28.073   0.227  25.858  1.00  0.00    -0.039 A 
ATOM      3  C   UNL     1     -26.922   0.455  25.103  1.00  0.00     0.013 A 
ATOM      4  C   UNL     1     -26.013   1.488  25.426  1.00  0.00    -0.006 A 
ATOM      5  C   UNL     1     -26.216   2.226  26.628  1.00  0.00     0.039 A 
ATOM      6  C   UNL     1     -25.189   3.101  27.083  1.00  0.00     0.072 A 
ATOM      7  C   UNL     1     -24.016   3.266  26.322  1.00  0.00     0.169 A 
ATOM      8  C   UNL     1     -23.851   2.579  25.103  1.00  0.00     0.162 A 
ATOM      9  C   UNL     1     -24.892   1.774  24.591  1.00  0.00     0.008 A 
ATOM     10  C   UNL     1     -27.459   2.084  27.316  1.00  0.00     0.132 A 
ATOM     11  C   UNL     1     -28.369   1.072  26.941  1.00  0.00     0.031 A 
ENDROOT
BRANCH  11  12
ATOM     12  C   UNL     1     -29.644   0.898  27.686  1.00  0.00     0.031 A 
ATOM     13  C   UNL     1     -30.810   1.565  27.258  1.00  0.00     0.132 A 
ATOM     14  C   UNL     1     -29.677   0.093  28.836  1.00  0.00    -0.039 A 
ATOM     15  C   UNL     1     -32.055   1.345  27.921  1.00  0.00     0.039 A 
ATOM     16  C   UNL     1     -30.872  -0.051  29.541  1.00  0.00     0.013 A 
ATOM     17  C   UNL     1     -28.431  -0.598  29.335  1.00  0.00     0.045 C 
ATOM     18  C   UNL     1     -32.080   0.527  29.091  1.00  0.00    -0.006 A 
ATOM     19  C   UNL     1     -33.269   1.949  27.476  1.00  0.00     0.072 A 
ATOM     20  C   UNL     1     -33.302   0.341  29.810  1.00  0.00     0.008 A 
ATOM     21  C   UNL     1     -34.420   1.886  28.281  1.00  0.00     0.169 A 
ATOM     22  C   UNL     1     -34.407   1.156  29.483  1.00  0.00     0.162 A 
BRANCH  13  23
ATOM     23  O   UNL     1     -30.723   2.484  26.204  1.00  0.00    -0.507 OA
ATOM     24  H   UNL     1     -31.150   3.400  26.217  1.00  0.00     0.293 HD
ENDBRANCH  13  23
BRANCH  19  25
ATOM     25  C   UNL     1     -33.394   2.570  26.133  1.00  0.00     0.264 C 
ATOM     26  O   UNL     1     -33.388   3.821  25.988  1.00  0.00    -0.298 OA
ENDBRANCH  19  25
BRANCH  20  27
ATOM     27  C   UNL     1     -33.424  -0.685  30.952  1.00  0.00     0.017 C 
ATOM     28  C   UNL     1     -33.330   0.003  32.318  1.00  0.00     0.012 C 
ATOM     29  C   UNL     1     -34.678  -1.575  30.859  1.00  0.00     0.012 C 
ENDBRANCH  20  27
BRANCH  21  30
ATOM     30  O   UNL     1     -35.589   2.517  27.839  1.00  0.00    -0.504 OA
ATOM     31  H   UNL     1     -35.610   3.423  27.392  1.00  0.00     0.293 HD
ENDBRANCH  21  30
BRANCH  22  32
ATOM     32  O   UNL     1     -35.481   1.233  30.374  1.00  0.00    -0.504 OA
ATOM     33  H   UNL     1     -36.416   0.906  30.167  1.00  0.00     0.293 HD
ENDBRANCH  22  32
ENDBRANCH  11  12
BRANCH  10  34
ATOM     34  O   UNL     1     -27.805   2.976  28.338  1.00  0.00    -0.507 OA
ATOM     35  H   UNL     1     -27.806   3.982  28.230  1.00  0.00     0.293 HD
ENDBRANCH  10  34
BRANCH   9  36
ATOM     36  C   UNL     1     -24.794   1.216  23.160  1.00  0.00     0.017 C 
ATOM     37  C   UNL     1     -26.065   1.517  22.361  1.00  0.00     0.012 C 
ATOM     38  C   UNL     1     -24.437  -0.281  23.104  1.00  0.00     0.012 C 
ENDBRANCH   9  36
BRANCH   6  39
ATOM     39  C   UNL     1     -25.246   3.759  28.410  1.00  0.00     0.264 C 
ATOM     40  O   UNL     1     -24.359   3.543  29.279  1.00  0.00    -0.298 OA
ENDBRANCH   6  39
BRANCH   8  41
ATOM     41  O   UNL     1     -22.644   2.646  24.402  1.00  0.00    -0.504 OA
ATOM     42  H   UNL     1     -21.748   2.848  24.821  1.00  0.00     0.293 HD
ENDBRANCH   8  41
BRANCH   7  43
ATOM     43  O   UNL     1     -23.023   4.125  26.810  1.00  0.00    -0.504 OA
ATOM     44  H   UNL     1     -22.042   4.059  26.578  1.00  0.00     0.293 HD
ENDBRANCH   7  43
TORSDOF 11
ENDMDL
MODEL 5
REMARK VINA RESULT:    -6.526     11.164     14.841
REMARK INTER + INTRA:         -10.792
REMARK INTER:                  -9.474
REMARK INTRA:                  -1.318
REMARK UNBOUND:                -1.214
REMARK SMILES Cc1cc2c(C(C)C)c(O)c(O)c(C=O)c2c(O)c1-c1c(C)cc2c(C(C)C)c(O)c(O)c(C=O)c2c1O
REMARK SMILES IDX 1 1 2 2 3 3 4 4 16 5 13 6 11 7 9 8 5 9 17 10 19 11 20 12
REMARK SMILES IDX 37 13 21 14 36 15 23 16 22 17 24 18 33 19 25 20 31 21 29 22
REMARK SMILES IDX 38 23 34 25 35 26 26 27 27 28 28 29 32 30 30 32 18 34 6 36
REMARK SMILES IDX 7 37 8 38 14 39 15 40 10 41 12 43
REMARK H PARENT 38 24 32 31 30 33 18 35 10 42 12 44
REMARK Flexibility Score: inf
ROOT
ATOM      1  C   UNL     1     -28.401  -1.747  27.123  1.00  0.00     0.045 C 
ATOM      2  C   UNL     1     -27.580  -0.481  27.164  1.00  0.00    -0.039 A 
ATOM      3  C   UNL     1     -26.694  -0.204  26.122  1.00  0.00     0.013 A 
ATOM      4  C   UNL     1     -25.907   0.969  26.108  1.00  0.00    -0.006 A 
ATOM      5  C   UNL     1     -25.927   1.820  27.251  1.00  0.00     0.039 A 
ATOM      6  C   UNL     1     -24.969   2.869  27.347  1.00  0.00     0.072 A 
ATOM      7  C   UNL     1     -24.054   3.087  26.300  1.00  0.00     0.169 A 
ATOM      8  C   UNL     1     -24.083   2.279  25.145  1.00  0.00     0.162 A 
ATOM      9  C   UNL     1     -25.079   1.290  24.991  1.00  0.00     0.008 A 
ATOM     10  C   UNL     1     -26.930   1.607  28.244  1.00  0.00     0.132 A 
ATOM     11  C   UNL     1     -27.734   0.448  28.207  1.00  0.00     0.031 A 
ENDROOT
BRANCH  11  12
ATOM     12  C   UNL     1     -28.750   0.206  29.266  1.00  0.00     0.031 A 
ATOM     13  C   UNL     1     -30.079   0.641  29.084  1.00  0.00     0.132 A 
ATOM     14  C   UNL     1     -28.374  -0.427  30.462  1.00  0.00    -0.039 A 
ATOM     15  C   UNL     1     -31.077   0.347  30.062  1.00  0.00     0.039 A 
ATOM     16  C   UNL     1     -29.327  -0.632  31.460  1.00  0.00     0.013 A 
ATOM     17  C   UNL     1     -26.948  -0.862  30.695  1.00  0.00     0.045 C 
ATOM     18  C   UNL     1     -30.687  -0.295  31.276  1.00  0.00    -0.006 A 
ATOM     19  C   UNL     1     -32.445   0.710  29.882  1.00  0.00     0.072 A 
ATOM     20  C   UNL     1     -31.655  -0.544  32.298  1.00  0.00     0.008 A 
ATOM     21  C   UNL     1     -33.346   0.603  30.956  1.00  0.00     0.169 A 
ATOM     22  C   UNL     1     -32.927   0.058  32.183  1.00  0.00     0.162 A 
BRANCH  13  23
ATOM     23  O   UNL     1     -30.398   1.406  27.955  1.00  0.00    -0.507 OA
ATOM     24  H   UNL     1     -30.258   2.406  27.892  1.00  0.00     0.293 HD
ENDBRANCH  13  23
BRANCH  19  25
ATOM     25  C   UNL     1     -32.986   1.114  28.560  1.00  0.00     0.264 C 
ATOM     26  O   UNL     1     -33.320   2.304  28.325  1.00  0.00    -0.298 OA
ENDBRANCH  19  25
BRANCH  20  27
ATOM     27  C   UNL     1     -31.330  -1.406  33.532  1.00  0.00     0.017 C 
ATOM     28  C   UNL     1     -30.938  -2.828  33.118  1.00  0.00     0.012 C 
ATOM     29  C   UNL     1     -30.275  -0.784  34.468  1.00  0.00     0.012 C 
ENDBRANCH  20  27
BRANCH  21  30
ATOM     30  O   UNL     1     -34.675   0.999  30.765  1.00  0.00    -0.504 OA
ATOM     31  H   UNL     1     -35.292   0.598  30.073  1.00  0.00     0.293 HD
ENDBRANCH  21  30
BRANCH  22  32
ATOM     32  O   UNL     1     -33.758   0.110  33.306  1.00  0.00    -0.504 OA
ATOM     33  H   UNL     1     -34.050  -0.700  33.835  1.00  0.00     0.293 HD
ENDBRANCH  22  32
ENDBRANCH  11  12
BRANCH  10  34
ATOM     34  O   UNL     1     -27.154   2.569  29.236  1.00  0.00    -0.507 OA
ATOM     35  H   UNL     1     -26.672   3.458  29.278  1.00  0.00     0.293 HD
ENDBRANCH  10  34
BRANCH   9  36
ATOM     36  C   UNL     1     -25.242   0.573  23.639  1.00  0.00     0.017 C 
ATOM     37  C   UNL     1     -24.090  -0.404  23.389  1.00  0.00     0.012 C 
ATOM     38  C   UNL     1     -25.431   1.533  22.449  1.00  0.00     0.012 C 
ENDBRANCH   9  36
BRANCH   6  39
ATOM     39  C   UNL     1     -24.806   3.676  28.580  1.00  0.00     0.264 C 
ATOM     40  O   UNL     1     -23.975   3.344  29.467  1.00  0.00    -0.298 OA
ENDBRANCH   6  39
BRANCH   8  41
ATOM     41  O   UNL     1     -23.106   2.412  24.155  1.00  0.00    -0.504 OA
ATOM     42  H   UNL     1     -22.121   2.541  24.335  1.00  0.00     0.293 HD
ENDBRANCH   8  41
BRANCH   7  43
ATOM     43  O   UNL     1     -23.119   4.121  26.438  1.00  0.00    -0.504 OA
ATOM     44  H   UNL     1     -23.307   5.094  26.246  1.00  0.00     0.293 HD
ENDBRANCH   7  43
TORSDOF 11
ENDMDL
MODEL 6
REMARK VINA RESULT:    -6.462     10.117     15.080
REMARK INTER + INTRA:         -10.698
REMARK INTER:                  -9.219
REMARK INTRA:                  -1.480
REMARK UNBOUND:                -1.214
REMARK SMILES Cc1cc2c(C(C)C)c(O)c(O)c(C=O)c2c(O)c1-c1c(C)cc2c(C(C)C)c(O)c(O)c(C=O)c2c1O
REMARK SMILES IDX 1 1 2 2 3 3 4 4 16 5 13 6 11 7 9 8 5 9 17 10 19 11 20 12
REMARK SMILES IDX 37 13 21 14 36 15 23 16 22 17 24 18 33 19 25 20 31 21 29 22
REMARK SMILES IDX 38 23 34 25 35 26 26 27 27 28 28 29 32 30 30 32 18 34 6 36
REMARK SMILES IDX 7 37 8 38 14 39 15 40 10 41 12 43
REMARK H PARENT 38 24 32 31 30 33 18 35 10 42 12 44
REMARK Flexibility Score: inf
ROOT
ATOM      1  C   UNL     1     -25.291  -5.373  22.294  1.00  0.00     0.045 C 
ATOM      2  C   UNL     1     -25.381  -6.850  21.994  1.00  0.00    -0.039 A 
ATOM      3  C   UNL     1     -25.542  -7.272  20.673  1.00  0.00     0.013 A 
ATOM      4  C   UNL     1     -25.626  -8.641  20.335  1.00  0.00    -0.006 A 
ATOM      5  C   UNL     1     -25.677  -9.603  21.386  1.00  0.00     0.039 A 
ATOM      6  C   UNL     1     -25.996 -10.954  21.069  1.00  0.00     0.072 A 
ATOM      7  C   UNL     1     -26.206 -11.334  19.731  1.00  0.00     0.169 A 
ATOM      8  C   UNL     1     -26.092 -10.389  18.692  1.00  0.00     0.162 A 
ATOM      9  C   UNL     1     -25.691  -9.064  18.974  1.00  0.00     0.008 A 
ATOM     10  C   UNL     1     -25.374  -9.180  22.715  1.00  0.00     0.132 A 
ATOM     11  C   UNL     1     -25.250  -7.806  23.014  1.00  0.00     0.031 A 
ENDROOT
BRANCH  11  12
ATOM     12  C   UNL     1     -24.977  -7.365  24.408  1.00  0.00     0.031 A 
ATOM     13  C   UNL     1     -23.648  -7.264  24.870  1.00  0.00     0.132 A 
ATOM     14  C   UNL     1     -26.045  -7.080  25.272  1.00  0.00    -0.039 A 
ATOM     15  C   UNL     1     -23.373  -6.770  26.181  1.00  0.00     0.039 A 
ATOM     16  C   UNL     1     -25.782  -6.685  26.585  1.00  0.00     0.013 A 
ATOM     17  C   UNL     1     -27.476  -7.221  24.811  1.00  0.00     0.045 C 
ATOM     18  C   UNL     1     -24.465  -6.485  27.056  1.00  0.00    -0.006 A 
ATOM     19  C   UNL     1     -22.041  -6.591  26.660  1.00  0.00     0.072 A 
ATOM     20  C   UNL     1     -24.217  -6.048  28.394  1.00  0.00     0.008 A 
ATOM     21  C   UNL     1     -21.817  -6.317  28.021  1.00  0.00     0.169 A 
ATOM     22  C   UNL     1     -22.900  -6.132  28.897  1.00  0.00     0.162 A 
BRANCH  13  23
ATOM     23  O   UNL     1     -22.604  -7.701  24.045  1.00  0.00    -0.507 OA
ATOM     24  H   UNL     1     -21.668  -7.317  24.067  1.00  0.00     0.293 HD
ENDBRANCH  13  23
BRANCH  19  25
ATOM     25  C   UNL     1     -20.870  -6.587  25.748  1.00  0.00     0.264 C 
ATOM     26  O   UNL     1     -20.025  -7.520  25.766  1.00  0.00    -0.298 OA
ENDBRANCH  19  25
BRANCH  20  27
ATOM     27  C   UNL     1     -25.349  -5.538  29.305  1.00  0.00     0.017 C 
ATOM     28  C   UNL     1     -25.725  -6.590  30.353  1.00  0.00     0.012 C 
ATOM     29  C   UNL     1     -25.055  -4.175  29.961  1.00  0.00     0.012 C 
ENDBRANCH  20  27
BRANCH  21  30
ATOM     30  O   UNL     1     -20.499  -6.180  28.473  1.00  0.00    -0.504 OA
ATOM     31  H   UNL     1     -19.778  -5.679  27.974  1.00  0.00     0.293 HD
ENDBRANCH  21  30
BRANCH  22  32
ATOM     32  O   UNL     1     -22.694  -6.037  30.276  1.00  0.00    -0.504 OA
ATOM     33  H   UNL     1     -22.769  -5.178  30.804  1.00  0.00     0.293 HD
ENDBRANCH  22  32
ENDBRANCH  11  12
BRANCH  10  34
ATOM     34  O   UNL     1     -25.152 -10.127  23.722  1.00  0.00    -0.507 OA
ATOM     35  H   UNL     1     -25.668 -10.993  23.804  1.00  0.00     0.293 HD
ENDBRANCH  10  34
BRANCH   9  36
ATOM     36  C   UNL     1     -25.349  -8.106  17.819  1.00  0.00     0.017 C 
ATOM     37  C   UNL     1     -26.607  -7.704  17.044  1.00  0.00     0.012 C 
ATOM     38  C   UNL     1     -24.255  -8.640  16.875  1.00  0.00     0.012 C 
ENDBRANCH   9  36
BRANCH   6  39
ATOM     39  C   UNL     1     -26.249 -11.969  22.120  1.00  0.00     0.264 C 
ATOM     40  O   UNL     1     -25.413 -12.882  22.354  1.00  0.00    -0.298 OA
ENDBRANCH   6  39
BRANCH   8  41
ATOM     41  O   UNL     1     -26.412 -10.730  17.376  1.00  0.00    -0.504 OA
ATOM     42  H   UNL     1     -27.351 -10.777  17.008  1.00  0.00     0.293 HD
ENDBRANCH   8  41
BRANCH   7  43
ATOM     43  O   UNL     1     -26.531 -12.670  19.462  1.00  0.00    -0.504 OA
ATOM     44  H   UNL     1     -26.531 -13.086  18.542  1.00  0.00     0.293 HD
ENDBRANCH   7  43
TORSDOF 11
ENDMDL
MODEL 7
REMARK VINA RESULT:    -6.426     10.599     14.077
REMARK INTER + INTRA:         -10.645
REMARK INTER:                  -9.365
REMARK INTRA:                  -1.280
REMARK UNBOUND:                -1.214
REMARK SMILES Cc1cc2c(C(C)C)c(O)c(O)c(C=O)c2c(O)c1-c1c(C)cc2c(C(C)C)c(O)c(O)c(C=O)c2c1O
REMARK SMILES IDX 1 1 2 2 3 3 4 4 16 5 13 6 11 7 9 8 5 9 17 10 19 11 20 12
REMARK SMILES IDX 37 13 21 14 36 15 23 16 22 17 24 18 33 19 25 20 31 21 29 22
REMARK SMILES IDX 38 23 34 25 35 26 26 27 27 28 28 29 32 30 30 32 18 34 6 36
REMARK SMILES IDX 7 37 8 38 14 39 15 40 10 41 12 43
REMARK H PARENT 38 24 32 31 30 33 18 35 10 42 12 44
REMARK Flexibility Score: inf
ROOT
ATOM      1  C   UNL     1     -26.570  -1.934  30.898  1.00  0.00     0.045 C 
ATOM      2  C   UNL     1     -27.939  -1.342  31.130  1.00  0.00    -0.039 A 
ATOM      3  C   UNL     1     -28.648  -1.685  32.282  1.00  0.00     0.013 A 
ATOM      4  C   UNL     1     -29.930  -1.156  32.551  1.00  0.00    -0.006 A 
ATOM      5  C   UNL     1     -30.562  -0.356  31.555  1.00  0.00     0.039 A 
ATOM      6  C   UNL     1     -31.936  -0.016  31.714  1.00  0.00     0.072 A 
ATOM      7  C   UNL     1     -32.636  -0.424  32.865  1.00  0.00     0.169 A 
ATOM      8  C   UNL     1     -31.985  -1.161  33.873  1.00  0.00     0.162 A 
ATOM      9  C   UNL     1     -30.602  -1.435  33.778  1.00  0.00     0.008 A 
ATOM     10  C   UNL     1     -29.784   0.101  30.450  1.00  0.00     0.132 A 
ATOM     11  C   UNL     1     -28.487  -0.411  30.232  1.00  0.00     0.031 A 
ENDROOT
BRANCH  11  12
ATOM     12  C   UNL     1     -27.693   0.035  29.056  1.00  0.00     0.031 A 
ATOM     13  C   UNL     1     -26.809   1.128  29.172  1.00  0.00     0.132 A 
ATOM     14  C   UNL     1     -27.850  -0.615  27.821  1.00  0.00    -0.039 A 
ATOM     15  C   UNL     1     -25.989   1.515  28.069  1.00  0.00     0.039 A 
ATOM     16  C   UNL     1     -27.117  -0.179  26.716  1.00  0.00     0.013 A 
ATOM     17  C   UNL     1     -28.821  -1.760  27.664  1.00  0.00     0.045 C 
ATOM     18  C   UNL     1     -26.156   0.851  26.816  1.00  0.00    -0.006 A 
ATOM     19  C   UNL     1     -25.035   2.571  28.169  1.00  0.00     0.072 A 
ATOM     20  C   UNL     1     -25.391   1.261  25.680  1.00  0.00     0.008 A 
ATOM     21  C   UNL     1     -24.411   3.064  27.009  1.00  0.00     0.169 A 
ATOM     22  C   UNL     1     -24.656   2.464  25.760  1.00  0.00     0.162 A 
BRANCH  13  23
ATOM     23  O   UNL     1     -26.782   1.859  30.366  1.00  0.00    -0.507 OA
ATOM     24  H   UNL     1     -25.945   2.275  30.754  1.00  0.00     0.293 HD
ENDBRANCH  13  23
BRANCH  19  25
ATOM     25  C   UNL     1     -24.596   3.116  29.478  1.00  0.00     0.264 C 
ATOM     26  O   UNL     1     -23.883   2.437  30.263  1.00  0.00    -0.298 OA
ENDBRANCH  19  25
BRANCH  20  27
ATOM     27  C   UNL     1     -25.387   0.453  24.369  1.00  0.00     0.017 C 
ATOM     28  C   UNL     1     -26.160   1.189  23.270  1.00  0.00     0.012 C 
ATOM     29  C   UNL     1     -23.979   0.050  23.889  1.00  0.00     0.012 C 
ENDBRANCH  20  27
BRANCH  21  30
ATOM     30  O   UNL     1     -23.505   4.124  27.127  1.00  0.00    -0.504 OA
ATOM     31  H   UNL     1     -23.490   4.772  27.902  1.00  0.00     0.293 HD
ENDBRANCH  21  30
BRANCH  22  32
ATOM     32  O   UNL     1     -24.186   3.052  24.583  1.00  0.00    -0.504 OA
ATOM     33  H   UNL     1     -24.658   3.801  24.094  1.00  0.00     0.293 HD
ENDBRANCH  22  32
ENDBRANCH  11  12
BRANCH  10  34
ATOM     34  O   UNL     1     -30.283   1.095  29.600  1.00  0.00    -0.507 OA
ATOM     35  H   UNL     1     -31.227   1.457  29.650  1.00  0.00     0.293 HD
ENDBRANCH  10  34
BRANCH   9  36
ATOM     36  C   UNL     1     -29.857  -2.037  34.983  1.00  0.00     0.017 C 
ATOM     37  C   UNL     1     -30.336  -3.462  35.273  1.00  0.00     0.012 C 
ATOM     38  C   UNL     1     -29.912  -1.158  36.246  1.00  0.00     0.012 C 
ENDBRANCH   9  36
BRANCH   6  39
ATOM     39  C   UNL     1     -32.710   0.652  30.639  1.00  0.00     0.264 C 
ATOM     40  O   UNL     1     -32.979   1.881  30.702  1.00  0.00    -0.298 OA
ENDBRANCH   6  39
BRANCH   8  41
ATOM     41  O   UNL     1     -32.699  -1.670  34.961  1.00  0.00    -0.504 OA
ATOM     42  H   UNL     1     -32.509  -2.555  35.408  1.00  0.00     0.293 HD
ENDBRANCH   8  41
BRANCH   7  43
ATOM     43  O   UNL     1     -33.989  -0.081  32.977  1.00  0.00    -0.504 OA
ATOM     44  H   UNL     1     -34.606   0.083  32.194  1.00  0.00     0.293 HD
ENDBRANCH   7  43
TORSDOF 11
ENDMDL
