MODEL 1
REMARK VINA RESULT:    -4.419      0.000      0.000
REMARK INTER + INTRA:          -4.766
REMARK INTER:                  -4.678
REMARK INTRA:                  -0.089
REMARK UNBOUND:                -0.089
REMARK SMILES C=C(C)[C@H]1CC=C(C)C(=O)C1
REMARK SMILES IDX 8 1 7 2 6 3 5 4 4 5 11 6 9 7 10 8 2 9 1 10 3 11
REMARK H PARENT
REMARK Flexibility Score: inf
ROOT
ATOM      1  C   UNL     1      -5.974   5.059  57.278  1.00  0.00     0.048 C 
ATOM      2  C   UNL     1      -6.310   4.886  55.822  1.00  0.00    -0.012 C 
ATOM      3  C   UNL     1      -5.696   3.930  55.103  1.00  0.00    -0.019 C 
ATOM      4  C   UNL     1      -5.982   3.724  53.639  1.00  0.00     0.036 C 
ATOM      5  C   UNL     1      -7.447   4.067  53.306  1.00  0.00     0.025 C 
ATOM      6  C   UNL     1      -7.780   5.497  53.771  1.00  0.00     0.089 C 
ATOM      7  C   UNL     1      -7.404   5.684  55.216  1.00  0.00     0.158 C 
ATOM      8  O   UNL     1      -8.005   6.557  55.899  1.00  0.00    -0.295 OA
ENDROOT
BRANCH   5   9
ATOM      9  C   UNL     1      -7.747   3.874  51.826  1.00  0.00    -0.077 C 
ATOM     10  C   UNL     1      -8.605   2.930  51.403  1.00  0.00     0.008 C 
ATOM     11  C   UNL     1      -7.076   4.749  50.798  1.00  0.00     0.039 C 
ENDBRANCH   5   9
TORSDOF 1
ENDMDL
MODEL 2
REMARK VINA RESULT:    -4.353      1.419      4.265
REMARK INTER + INTRA:          -4.696
REMARK INTER:                  -4.600
REMARK INTRA:                  -0.096
REMARK UNBOUND:                -0.089
REMARK SMILES C=C(C)[C@H]1CC=C(C)C(=O)C1
REMARK SMILES IDX 8 1 7 2 6 3 5 4 4 5 11 6 9 7 10 8 2 9 1 10 3 11
REMARK H PARENT
REMARK Flexibility Score: inf
ROOT
ATOM      1  C   UNL     1      -7.232   4.513  50.844  1.00  0.00     0.048 C 
ATOM      2  C   UNL     1      -7.115   4.483  52.344  1.00  0.00    -0.012 C 
ATOM      3  C   UNL     1      -6.133   3.771  52.924  1.00  0.00    -0.019 C 
ATOM      4  C   UNL     1      -5.979   3.693  54.419  1.00  0.00     0.036 C 
ATOM      5  C   UNL     1      -6.432   5.003  55.093  1.00  0.00     0.025 C 
ATOM      6  C   UNL     1      -7.872   5.351  54.671  1.00  0.00     0.089 C 
ATOM      7  C   UNL     1      -8.001   5.338  53.172  1.00  0.00     0.158 C 
ATOM      8  O   UNL     1      -8.899   6.035  52.627  1.00  0.00    -0.295 OA
ENDROOT
BRANCH   5   9
ATOM      9  C   UNL     1      -6.292   4.934  56.608  1.00  0.00    -0.077 C 
ATOM     10  C   UNL     1      -5.583   3.959  57.200  1.00  0.00     0.008 C 
ATOM     11  C   UNL     1      -6.956   5.972  57.476  1.00  0.00     0.039 C 
ENDBRANCH   5   9
TORSDOF 1
ENDMDL
MODEL 3
REMARK VINA RESULT:    -4.333      1.423      2.303
REMARK INTER + INTRA:          -4.675
REMARK INTER:                  -4.586
REMARK INTRA:                  -0.089
REMARK UNBOUND:                -0.089
REMARK SMILES C=C(C)[C@H]1CC=C(C)C(=O)C1
REMARK SMILES IDX 8 1 7 2 6 3 5 4 4 5 11 6 9 7 10 8 2 9 1 10 3 11
REMARK H PARENT
REMARK Flexibility Score: inf
ROOT
ATOM      1  C   UNL     1      -6.069   5.553  57.292  1.00  0.00     0.048 C 
ATOM      2  C   UNL     1      -6.528   5.047  55.951  1.00  0.00    -0.012 C 
ATOM      3  C   UNL     1      -7.402   5.768  55.228  1.00  0.00    -0.019 C 
ATOM      4  C   UNL     1      -7.908   5.301  53.889  1.00  0.00     0.036 C 
ATOM      5  C   UNL     1      -6.832   4.489  53.143  1.00  0.00     0.025 C 
ATOM      6  C   UNL     1      -6.339   3.322  54.020  1.00  0.00     0.089 C 
ATOM      7  C   UNL     1      -5.921   3.821  55.376  1.00  0.00     0.158 C 
ATOM      8  O   UNL     1      -5.073   3.163  56.038  1.00  0.00    -0.295 OA
ENDROOT
BRANCH   5   9
ATOM      9  C   UNL     1      -7.334   4.001  51.790  1.00  0.00    -0.077 C 
ATOM     10  C   UNL     1      -7.081   4.686  50.662  1.00  0.00     0.008 C 
ATOM     11  C   UNL     1      -8.133   2.726  51.695  1.00  0.00     0.039 C 
ENDBRANCH   5   9
TORSDOF 1
ENDMDL
MODEL 4
REMARK VINA RESULT:    -4.284      1.665      2.518
REMARK INTER + INTRA:          -4.624
REMARK INTER:                  -4.528
REMARK INTRA:                  -0.096
REMARK UNBOUND:                -0.089
REMARK SMILES C=C(C)[C@H]1CC=C(C)C(=O)C1
REMARK SMILES IDX 8 1 7 2 6 3 5 4 4 5 11 6 9 7 10 8 2 9 1 10 3 11
REMARK H PARENT
REMARK Flexibility Score: inf
ROOT
ATOM      1  C   UNL     1      -5.659   3.820  54.817  1.00  0.00     0.048 C 
ATOM      2  C   UNL     1      -6.679   4.158  53.764  1.00  0.00    -0.012 C 
ATOM      3  C   UNL     1      -6.742   3.430  52.636  1.00  0.00    -0.019 C 
ATOM      4  C   UNL     1      -7.731   3.736  51.543  1.00  0.00     0.036 C 
ATOM      5  C   UNL     1      -9.040   4.308  52.122  1.00  0.00     0.025 C 
ATOM      6  C   UNL     1      -8.742   5.537  53.001  1.00  0.00     0.089 C 
ATOM      7  C   UNL     1      -7.691   5.212  54.027  1.00  0.00     0.158 C 
ATOM      8  O   UNL     1      -7.655   5.871  55.101  1.00  0.00    -0.295 OA
ENDROOT
BRANCH   5   9
ATOM      9  C   UNL     1     -10.046   4.632  51.026  1.00  0.00    -0.077 C 
ATOM     10  C   UNL     1     -10.384   5.900  50.740  1.00  0.00     0.008 C 
ATOM     11  C   UNL     1     -10.685   3.519  50.235  1.00  0.00     0.039 C 
ENDBRANCH   5   9
TORSDOF 1
ENDMDL
MODEL 5
REMARK VINA RESULT:    -4.149     12.375     13.626
REMARK INTER + INTRA:          -4.481
REMARK INTER:                  -4.387
REMARK INTRA:                  -0.094
REMARK UNBOUND:                -0.089
REMARK SMILES C=C(C)[C@H]1CC=C(C)C(=O)C1
REMARK SMILES IDX 8 1 7 2 6 3 5 4 4 5 11 6 9 7 10 8 2 9 1 10 3 11
REMARK H PARENT
REMARK Flexibility Score: inf
ROOT
ATOM      1  C   UNL     1       5.797  -5.102  56.984  1.00  0.00     0.048 C 
ATOM      2  C   UNL     1       4.807  -4.224  56.268  1.00  0.00    -0.012 C 
ATOM      3  C   UNL     1       4.955  -2.888  56.298  1.00  0.00    -0.019 C 
ATOM      4  C   UNL     1       3.985  -1.962  55.614  1.00  0.00     0.036 C 
ATOM      5  C   UNL     1       3.404  -2.609  54.341  1.00  0.00     0.025 C 
ATOM      6  C   UNL     1       2.772  -3.973  54.676  1.00  0.00     0.089 C 
ATOM      7  C   UNL     1       3.747  -4.836  55.430  1.00  0.00     0.158 C 
ATOM      8  O   UNL     1       3.629  -6.090  55.373  1.00  0.00    -0.295 OA
ENDROOT
BRANCH   5   9
ATOM      9  C   UNL     1       2.412  -1.686  53.645  1.00  0.00    -0.077 C 
ATOM     10  C   UNL     1       2.733  -0.418  53.340  1.00  0.00     0.008 C 
ATOM     11  C   UNL     1       1.038  -2.190  53.283  1.00  0.00     0.039 C 
ENDBRANCH   5   9
TORSDOF 1
ENDMDL
MODEL 6
REMARK VINA RESULT:    -4.134      2.287      4.410
REMARK INTER + INTRA:          -4.464
REMARK INTER:                  -4.370
REMARK INTRA:                  -0.094
REMARK UNBOUND:                -0.089
REMARK SMILES C=C(C)[C@H]1CC=C(C)C(=O)C1
REMARK SMILES IDX 8 1 7 2 6 3 5 4 4 5 11 6 9 7 10 8 2 9 1 10 3 11
REMARK H PARENT
REMARK Flexibility Score: inf
ROOT
ATOM      1  C   UNL     1     -10.700   6.086  50.587  1.00  0.00     0.048 C 
ATOM      2  C   UNL     1      -9.681   5.448  51.491  1.00  0.00    -0.012 C 
ATOM      3  C   UNL     1      -8.382   5.459  51.146  1.00  0.00    -0.019 C 
ATOM      4  C   UNL     1      -7.323   4.820  52.004  1.00  0.00     0.036 C 
ATOM      5  C   UNL     1      -7.686   4.917  53.499  1.00  0.00     0.025 C 
ATOM      6  C   UNL     1      -9.082   4.315  53.749  1.00  0.00     0.089 C 
ATOM      7  C   UNL     1     -10.094   4.922  52.815  1.00  0.00     0.158 C 
ATOM      8  O   UNL     1     -11.308   4.944  53.156  1.00  0.00    -0.295 OA
ENDROOT
BRANCH   5   9
ATOM      9  C   UNL     1      -6.628   4.265  54.378  1.00  0.00    -0.077 C 
ATOM     10  C   UNL     1      -6.046   3.105  54.029  1.00  0.00     0.008 C 
ATOM     11  C   UNL     1      -6.211   4.920  55.670  1.00  0.00     0.039 C 
ENDBRANCH   5   9
TORSDOF 1
ENDMDL
MODEL 7
REMARK VINA RESULT:    -4.133      2.187      4.502
REMARK INTER + INTRA:          -4.463
REMARK INTER:                  -4.367
REMARK INTRA:                  -0.096
REMARK UNBOUND:                -0.089
REMARK SMILES C=C(C)[C@H]1CC=C(C)C(=O)C1
REMARK SMILES IDX 8 1 7 2 6 3 5 4 4 5 11 6 9 7 10 8 2 9 1 10 3 11
REMARK H PARENT
REMARK Flexibility Score: inf
ROOT
ATOM      1  C   UNL     1      -9.568   5.762  50.974  1.00  0.00     0.048 C 
ATOM      2  C   UNL     1      -8.606   5.373  52.064  1.00  0.00    -0.012 C 
ATOM      3  C   UNL     1      -8.816   5.796  53.323  1.00  0.00    -0.019 C 
ATOM      4  C   UNL     1      -7.877   5.452  54.448  1.00  0.00     0.036 C 
ATOM      5  C   UNL     1      -7.243   4.063  54.236  1.00  0.00     0.025 C 
ATOM      6  C   UNL     1      -6.555   3.995  52.859  1.00  0.00     0.089 C 
ATOM      7  C   UNL     1      -7.503   4.425  51.773  1.00  0.00     0.158 C 
ATOM      8  O   UNL     1      -7.326   3.999  50.600  1.00  0.00    -0.295 OA
ENDROOT
BRANCH   5   9
ATOM      9  C   UNL     1      -6.282   3.706  55.362  1.00  0.00    -0.077 C 
ATOM     10  C   UNL     1      -5.691   2.501  55.422  1.00  0.00     0.008 C 
ATOM     11  C   UNL     1      -5.975   4.714  56.441  1.00  0.00     0.039 C 
ENDBRANCH   5   9
TORSDOF 1
ENDMDL
MODEL 8
REMARK VINA RESULT:    -4.078      2.827      4.801
REMARK INTER + INTRA:          -4.404
REMARK INTER:                  -4.309
REMARK INTRA:                  -0.095
REMARK UNBOUND:                -0.089
REMARK SMILES C=C(C)[C@H]1CC=C(C)C(=O)C1
REMARK SMILES IDX 8 1 7 2 6 3 5 4 4 5 11 6 9 7 10 8 2 9 1 10 3 11
REMARK H PARENT
REMARK Flexibility Score: inf
ROOT
ATOM      1  C   UNL     1     -10.632   6.133  50.619  1.00  0.00     0.048 C 
ATOM      2  C   UNL     1      -9.561   5.232  51.171  1.00  0.00    -0.012 C 
ATOM      3  C   UNL     1      -8.578   5.749  51.927  1.00  0.00    -0.019 C 
ATOM      4  C   UNL     1      -7.472   4.896  52.491  1.00  0.00     0.036 C 
ATOM      5  C   UNL     1      -7.975   3.475  52.810  1.00  0.00     0.025 C 
ATOM      6  C   UNL     1      -8.621   2.844  51.563  1.00  0.00     0.089 C 
ATOM      7  C   UNL     1      -9.663   3.763  50.984  1.00  0.00     0.158 C 
ATOM      8  O   UNL     1     -10.605   3.274  50.305  1.00  0.00    -0.295 OA
ENDROOT
BRANCH   5   9
ATOM      9  C   UNL     1      -6.863   2.598  53.371  1.00  0.00    -0.077 C 
ATOM     10  C   UNL     1      -5.844   3.124  54.071  1.00  0.00     0.008 C 
ATOM     11  C   UNL     1      -6.890   1.108  53.146  1.00  0.00     0.039 C 
ENDBRANCH   5   9
TORSDOF 1
ENDMDL
MODEL 9
REMARK VINA RESULT:    -4.032     10.370     11.875
REMARK INTER + INTRA:          -4.356
REMARK INTER:                  -4.260
REMARK INTRA:                  -0.096
REMARK UNBOUND:                -0.089
REMARK SMILES C=C(C)[C@H]1CC=C(C)C(=O)C1
REMARK SMILES IDX 8 1 7 2 6 3 5 4 4 5 11 6 9 7 10 8 2 9 1 10 3 11
REMARK H PARENT
REMARK Flexibility Score: inf
ROOT
ATOM      1  C   UNL     1      -1.030  -5.178  52.148  1.00  0.00     0.048 C 
ATOM      2  C   UNL     1      -0.090  -4.235  52.849  1.00  0.00    -0.012 C 
ATOM      3  C   UNL     1       0.881  -4.723  53.640  1.00  0.00    -0.019 C 
ATOM      4  C   UNL     1       1.837  -3.825  54.378  1.00  0.00     0.036 C 
ATOM      5  C   UNL     1       2.120  -2.538  53.578  1.00  0.00     0.025 C 
ATOM      6  C   UNL     1       0.799  -1.825  53.230  1.00  0.00     0.089 C 
ATOM      7  C   UNL     1      -0.158  -2.779  52.567  1.00  0.00     0.158 C 
ATOM      8  O   UNL     1      -1.045  -2.323  51.797  1.00  0.00    -0.295 OA
ENDROOT
BRANCH   5   9
ATOM      9  C   UNL     1       3.078  -1.615  54.319  1.00  0.00    -0.077 C 
ATOM     10  C   UNL     1       3.880  -2.076  55.293  1.00  0.00     0.008 C 
ATOM     11  C   UNL     1       3.142  -0.151  53.965  1.00  0.00     0.039 C 
ENDBRANCH   5   9
TORSDOF 1
ENDMDL
