MODEL 1
REMARK VINA RESULT:    -4.249      0.000      0.000
REMARK INTER + INTRA:          -6.601
REMARK INTER:                  -5.740
REMARK INTRA:                  -0.861
REMARK UNBOUND:                -0.861
REMARK SMILES CC(=O)CCC=C(C)CCC=C(C)C
REMARK SMILES IDX 7 1 6 2 8 3 9 4 10 5 11 6 13 7 12 8 14 9 5 10 4 11 2 12 3 13
REMARK SMILES IDX 1 14
REMARK H PARENT
REMARK Flexibility Score: inf
ROOT
ATOM      1  C   UNL     1      58.624 -19.905   1.088  1.00  0.00    -0.077 C 
ATOM      2  C   UNL     1      59.555 -19.685   0.133  1.00  0.00    -0.028 C 
ATOM      3  C   UNL     1      58.950 -19.749   2.555  1.00  0.00     0.039 C 
ENDROOT
BRANCH   1   4
ATOM      4  C   UNL     1      57.228 -20.322   0.679  1.00  0.00     0.034 C 
BRANCH   4   5
ATOM      5  C   UNL     1      56.324 -19.099   0.503  1.00  0.00     0.032 C 
BRANCH   5   6
ATOM      6  C   UNL     1      55.603 -19.152  -0.821  1.00  0.00    -0.028 C 
ATOM      7  C   UNL     1      55.161 -18.618  -3.178  1.00  0.00     0.039 C 
ATOM      8  C   UNL     1      56.007 -18.504  -1.936  1.00  0.00    -0.080 C 
ATOM      9  C   UNL     1      57.279 -17.690  -1.973  1.00  0.00     0.039 C 
ENDBRANCH   5   6
ENDBRANCH   4   5
ENDBRANCH   1   4
BRANCH   2  10
ATOM     10  C   UNL     1      60.972 -19.264   0.444  1.00  0.00     0.035 C 
BRANCH  10  11
ATOM     11  C   UNL     1      61.813 -19.077  -0.826  1.00  0.00     0.079 C 
BRANCH  11  12
ATOM     12  C   UNL     1      61.295 -17.955  -1.688  1.00  0.00     0.130 C 
ATOM     13  O   UNL     1      60.765 -18.207  -2.759  1.00  0.00    -0.300 OA
ATOM     14  C   UNL     1      61.458 -16.528  -1.257  1.00  0.00     0.087 C 
ENDBRANCH  11  12
ENDBRANCH  10  11
ENDBRANCH   2  10
TORSDOF 6
ENDMDL
MODEL 2
REMARK VINA RESULT:    -4.066      3.995      7.479
REMARK INTER + INTRA:          -6.353
REMARK INTER:                  -5.775
REMARK INTRA:                  -0.579
REMARK UNBOUND:                -0.861
REMARK SMILES CC(=O)CCC=C(C)CCC=C(C)C
REMARK SMILES IDX 7 1 6 2 8 3 9 4 10 5 11 6 13 7 12 8 14 9 5 10 4 11 2 12 3 13
REMARK SMILES IDX 1 14
REMARK H PARENT
REMARK Flexibility Score: inf
ROOT
ATOM      1  C   UNL     1      60.560 -19.765   1.949  1.00  0.00    -0.077 C 
ATOM      2  C   UNL     1      59.263 -19.740   2.329  1.00  0.00    -0.028 C 
ATOM      3  C   UNL     1      60.968 -19.491   0.521  1.00  0.00     0.039 C 
ENDROOT
BRANCH   1   4
ATOM      4  C   UNL     1      61.626 -20.080   2.977  1.00  0.00     0.034 C 
BRANCH   4   5
ATOM      5  C   UNL     1      61.040 -20.060   4.392  1.00  0.00     0.032 C 
BRANCH   5   6
ATOM      6  C   UNL     1      61.747 -21.055   5.278  1.00  0.00    -0.028 C 
ATOM      7  C   UNL     1      63.438 -21.869   6.864  1.00  0.00     0.039 C 
ATOM      8  C   UNL     1      62.807 -20.760   6.062  1.00  0.00    -0.080 C 
ATOM      9  C   UNL     1      63.360 -19.358   6.167  1.00  0.00     0.039 C 
ENDBRANCH   5   6
ENDBRANCH   4   5
ENDBRANCH   1   4
BRANCH   2  10
ATOM     10  C   UNL     1      58.132 -19.434   1.376  1.00  0.00     0.035 C 
BRANCH  10  11
ATOM     11  C   UNL     1      56.999 -20.466   1.469  1.00  0.00     0.079 C 
BRANCH  11  12
ATOM     12  C   UNL     1      56.391 -20.514   2.847  1.00  0.00     0.130 C 
ATOM     13  O   UNL     1      56.493 -21.529   3.521  1.00  0.00    -0.300 OA
ATOM     14  C   UNL     1      55.628 -19.339   3.383  1.00  0.00     0.087 C 
ENDBRANCH  11  12
ENDBRANCH  10  11
ENDBRANCH   2  10
TORSDOF 6
ENDMDL
MODEL 3
REMARK VINA RESULT:    -4.054      1.488      3.835
REMARK INTER + INTRA:          -6.338
REMARK INTER:                  -5.267
REMARK INTRA:                  -1.071
REMARK UNBOUND:                -0.861
REMARK SMILES CC(=O)CCC=C(C)CCC=C(C)C
REMARK SMILES IDX 7 1 6 2 8 3 9 4 10 5 11 6 13 7 12 8 14 9 5 10 4 11 2 12 3 13
REMARK SMILES IDX 1 14
REMARK H PARENT
REMARK Flexibility Score: inf
ROOT
ATOM      1  C   UNL     1      57.350 -18.249  -0.513  1.00  0.00    -0.077 C 
ATOM      2  C   UNL     1      57.846 -18.367  -1.764  1.00  0.00    -0.028 C 
ATOM      3  C   UNL     1      57.725 -17.087   0.377  1.00  0.00     0.039 C 
ENDROOT
BRANCH   1   4
ATOM      4  C   UNL     1      56.401 -19.306   0.010  1.00  0.00     0.034 C 
BRANCH   4   5
ATOM      5  C   UNL     1      57.175 -20.472   0.633  1.00  0.00     0.032 C 
BRANCH   5   6
ATOM      6  C   UNL     1      57.166 -20.378   2.138  1.00  0.00    -0.028 C 
ATOM      7  C   UNL     1      58.092 -20.033   4.388  1.00  0.00     0.039 C 
ATOM      8  C   UNL     1      58.241 -20.048   2.888  1.00  0.00    -0.080 C 
ATOM      9  C   UNL     1      59.569 -19.682   2.268  1.00  0.00     0.039 C 
ENDBRANCH   5   6
ENDBRANCH   4   5
ENDBRANCH   1   4
BRANCH   2  10
ATOM     10  C   UNL     1      58.796 -17.362  -2.372  1.00  0.00     0.035 C 
BRANCH  10  11
ATOM     11  C   UNL     1      60.131 -17.999  -2.781  1.00  0.00     0.079 C 
BRANCH  11  12
ATOM     12  C   UNL     1      61.206 -17.768  -1.751  1.00  0.00     0.130 C 
ATOM     13  O   UNL     1      61.804 -16.703  -1.724  1.00  0.00    -0.300 OA
ATOM     14  C   UNL     1      61.574 -18.851  -0.780  1.00  0.00     0.087 C 
ENDBRANCH  11  12
ENDBRANCH  10  11
ENDBRANCH   2  10
TORSDOF 6
ENDMDL
MODEL 4
REMARK VINA RESULT:    -4.022      3.758      5.518
REMARK INTER + INTRA:          -6.294
REMARK INTER:                  -5.060
REMARK INTRA:                  -1.234
REMARK UNBOUND:                -0.861
REMARK SMILES CC(=O)CCC=C(C)CCC=C(C)C
REMARK SMILES IDX 7 1 6 2 8 3 9 4 10 5 11 6 13 7 12 8 14 9 5 10 4 11 2 12 3 13
REMARK SMILES IDX 1 14
REMARK H PARENT
REMARK Flexibility Score: inf
ROOT
ATOM      1  C   UNL     1      60.539 -19.219   2.047  1.00  0.00    -0.077 C 
ATOM      2  C   UNL     1      61.296 -20.131   2.696  1.00  0.00    -0.028 C 
ATOM      3  C   UNL     1      60.213 -17.882   2.669  1.00  0.00     0.039 C 
ENDROOT
BRANCH   1   4
ATOM      4  C   UNL     1      60.003 -19.548   0.671  1.00  0.00     0.034 C 
BRANCH   4   5
ATOM      5  C   UNL     1      58.488 -19.328   0.610  1.00  0.00     0.032 C 
BRANCH   5   6
ATOM      6  C   UNL     1      57.762 -20.376   1.414  1.00  0.00    -0.028 C 
ATOM      7  C   UNL     1      56.317 -21.264   3.193  1.00  0.00     0.039 C 
ATOM      8  C   UNL     1      56.944 -20.108   2.456  1.00  0.00    -0.080 C 
ATOM      9  C   UNL     1      56.632 -18.694   2.887  1.00  0.00     0.039 C 
ENDBRANCH   5   6
ENDBRANCH   4   5
ENDBRANCH   1   4
BRANCH   2  10
ATOM     10  C   UNL     1      61.878 -19.892   4.070  1.00  0.00     0.035 C 
BRANCH  10  11
ATOM     11  C   UNL     1      61.335 -20.881   5.110  1.00  0.00     0.079 C 
BRANCH  11  12
ATOM     12  C   UNL     1      60.277 -20.258   5.984  1.00  0.00     0.130 C 
ATOM     13  O   UNL     1      60.605 -19.590   6.953  1.00  0.00    -0.300 OA
ATOM     14  C   UNL     1      58.822 -20.484   5.695  1.00  0.00     0.087 C 
ENDBRANCH  11  12
ENDBRANCH  10  11
ENDBRANCH   2  10
TORSDOF 6
ENDMDL
MODEL 5
REMARK VINA RESULT:    -3.972      4.209      7.048
REMARK INTER + INTRA:          -6.226
REMARK INTER:                  -5.797
REMARK INTRA:                  -0.430
REMARK UNBOUND:                -0.861
REMARK SMILES CC(=O)CCC=C(C)CCC=C(C)C
REMARK SMILES IDX 7 1 6 2 8 3 9 4 10 5 11 6 13 7 12 8 14 9 5 10 4 11 2 12 3 13
REMARK SMILES IDX 1 14
REMARK H PARENT
REMARK Flexibility Score: inf
ROOT
ATOM      1  C   UNL     1      56.544 -16.686  -3.449  1.00  0.00    -0.077 C 
ATOM      2  C   UNL     1      56.891 -15.716  -4.324  1.00  0.00    -0.028 C 
ATOM      3  C   UNL     1      55.175 -17.323  -3.483  1.00  0.00     0.039 C 
ENDROOT
BRANCH   1   4
ATOM      4  C   UNL     1      57.547 -17.137  -2.409  1.00  0.00     0.034 C 
BRANCH   4   5
ATOM      5  C   UNL     1      58.980 -16.914  -2.901  1.00  0.00     0.032 C 
BRANCH   5   6
ATOM      6  C   UNL     1      59.910 -17.957  -2.334  1.00  0.00    -0.028 C 
ATOM      7  C   UNL     1      61.928 -18.833  -1.239  1.00  0.00     0.039 C 
ATOM      8  C   UNL     1      61.083 -17.682  -1.722  1.00  0.00    -0.080 C 
ATOM      9  C   UNL     1      61.556 -16.265  -1.497  1.00  0.00     0.039 C 
ENDBRANCH   5   6
ENDBRANCH   4   5
ENDBRANCH   1   4
BRANCH   2  10
ATOM     10  C   UNL     1      55.960 -15.202  -5.397  1.00  0.00     0.035 C 
BRANCH  10  11
ATOM     11  C   UNL     1      56.703 -14.868  -6.698  1.00  0.00     0.079 C 
BRANCH  11  12
ATOM     12  C   UNL     1      56.068 -13.714  -7.430  1.00  0.00     0.130 C 
ATOM     13  O   UNL     1      55.159 -13.087  -6.905  1.00  0.00    -0.300 OA
ATOM     14  C   UNL     1      56.518 -13.351  -8.814  1.00  0.00     0.087 C 
ENDBRANCH  11  12
ENDBRANCH  10  11
ENDBRANCH   2  10
TORSDOF 6
ENDMDL
MODEL 6
REMARK VINA RESULT:    -3.969      2.708      4.330
REMARK INTER + INTRA:          -6.222
REMARK INTER:                  -5.206
REMARK INTRA:                  -1.016
REMARK UNBOUND:                -0.861
REMARK SMILES CC(=O)CCC=C(C)CCC=C(C)C
REMARK SMILES IDX 7 1 6 2 8 3 9 4 10 5 11 6 13 7 12 8 14 9 5 10 4 11 2 12 3 13
REMARK SMILES IDX 1 14
REMARK H PARENT
REMARK Flexibility Score: inf
ROOT
ATOM      1  C   UNL     1      56.669 -16.814  -2.116  1.00  0.00    -0.077 C 
ATOM      2  C   UNL     1      57.414 -17.942  -2.127  1.00  0.00    -0.028 C 
ATOM      3  C   UNL     1      57.147 -15.563  -1.418  1.00  0.00     0.039 C 
ENDROOT
BRANCH   1   4
ATOM      4  C   UNL     1      55.326 -16.808  -2.813  1.00  0.00     0.034 C 
BRANCH   4   5
ATOM      5  C   UNL     1      55.498 -16.962  -4.328  1.00  0.00     0.032 C 
BRANCH   5   6
ATOM      6  C   UNL     1      55.685 -15.617  -4.984  1.00  0.00    -0.028 C 
ATOM      7  C   UNL     1      56.905 -13.779  -6.067  1.00  0.00     0.039 C 
ATOM      8  C   UNL     1      56.860 -15.164  -5.474  1.00  0.00    -0.080 C 
ATOM      9  C   UNL     1      58.113 -16.007  -5.457  1.00  0.00     0.039 C 
ENDBRANCH   5   6
ENDBRANCH   4   5
ENDBRANCH   1   4
BRANCH   2  10
ATOM     10  C   UNL     1      58.767 -18.043  -1.462  1.00  0.00     0.035 C 
BRANCH  10  11
ATOM     11  C   UNL     1      59.919 -17.902  -2.466  1.00  0.00     0.079 C 
BRANCH  11  12
ATOM     12  C   UNL     1      61.250 -17.739  -1.779  1.00  0.00     0.130 C 
ATOM     13  O   UNL     1      61.803 -16.649  -1.776  1.00  0.00    -0.300 OA
ATOM     14  C   UNL     1      61.920 -18.914  -1.130  1.00  0.00     0.087 C 
ENDBRANCH  11  12
ENDBRANCH  10  11
ENDBRANCH   2  10
TORSDOF 6
ENDMDL
MODEL 7
REMARK VINA RESULT:    -3.927      4.612      7.252
REMARK INTER + INTRA:          -6.165
REMARK INTER:                  -5.078
REMARK INTRA:                  -1.087
REMARK UNBOUND:                -0.861
REMARK SMILES CC(=O)CCC=C(C)CCC=C(C)C
REMARK SMILES IDX 7 1 6 2 8 3 9 4 10 5 11 6 13 7 12 8 14 9 5 10 4 11 2 12 3 13
REMARK SMILES IDX 1 14
REMARK H PARENT
REMARK Flexibility Score: inf
ROOT
ATOM      1  C   UNL     1      56.467 -16.305  -3.747  1.00  0.00    -0.077 C 
ATOM      2  C   UNL     1      55.356 -16.666  -4.426  1.00  0.00    -0.028 C 
ATOM      3  C   UNL     1      56.400 -15.864  -2.304  1.00  0.00     0.039 C 
ENDROOT
BRANCH   1   4
ATOM      4  C   UNL     1      57.807 -16.338  -4.450  1.00  0.00     0.034 C 
BRANCH   4   5
ATOM      5  C   UNL     1      58.107 -14.991  -5.115  1.00  0.00     0.032 C 
BRANCH   5   6
ATOM      6  C   UNL     1      57.794 -15.040  -6.589  1.00  0.00    -0.028 C 
ATOM      7  C   UNL     1      56.539 -14.579  -8.651  1.00  0.00     0.039 C 
ATOM      8  C   UNL     1      56.751 -14.405  -7.169  1.00  0.00    -0.080 C 
ATOM      9  C   UNL     1      55.812 -13.522  -6.381  1.00  0.00     0.039 C 
ENDBRANCH   5   6
ENDBRANCH   4   5
ENDBRANCH   1   4
BRANCH   2  10
ATOM     10  C   UNL     1      53.977 -16.667  -3.808  1.00  0.00     0.035 C 
BRANCH  10  11
ATOM     11  C   UNL     1      53.484 -18.086  -3.493  1.00  0.00     0.079 C 
BRANCH  11  12
ATOM     12  C   UNL     1      53.770 -18.479  -2.067  1.00  0.00     0.130 C 
ATOM     13  O   UNL     1      53.139 -17.964  -1.156  1.00  0.00    -0.300 OA
ATOM     14  C   UNL     1      54.850 -19.472  -1.754  1.00  0.00     0.087 C 
ENDBRANCH  11  12
ENDBRANCH  10  11
ENDBRANCH   2  10
TORSDOF 6
ENDMDL
MODEL 8
REMARK VINA RESULT:    -3.912      2.783      5.840
REMARK INTER + INTRA:          -6.146
REMARK INTER:                  -5.430
REMARK INTRA:                  -0.717
REMARK UNBOUND:                -0.861
REMARK SMILES CC(=O)CCC=C(C)CCC=C(C)C
REMARK SMILES IDX 7 1 6 2 8 3 9 4 10 5 11 6 13 7 12 8 14 9 5 10 4 11 2 12 3 13
REMARK SMILES IDX 1 14
REMARK H PARENT
REMARK Flexibility Score: inf
ROOT
ATOM      1  C   UNL     1      57.821 -20.068   3.075  1.00  0.00    -0.077 C 
ATOM      2  C   UNL     1      58.933 -19.736   2.382  1.00  0.00    -0.028 C 
ATOM      3  C   UNL     1      56.661 -20.770   2.410  1.00  0.00     0.039 C 
ENDROOT
BRANCH   1   4
ATOM      4  C   UNL     1      57.735 -19.722   4.546  1.00  0.00     0.034 C 
BRANCH   4   5
ATOM      5  C   UNL     1      58.503 -20.744   5.391  1.00  0.00     0.032 C 
BRANCH   5   6
ATOM      6  C   UNL     1      59.470 -20.052   6.318  1.00  0.00    -0.028 C 
ATOM      7  C   UNL     1      61.658 -19.385   7.218  1.00  0.00     0.039 C 
ATOM      8  C   UNL     1      60.815 -20.094   6.189  1.00  0.00    -0.080 C 
ATOM      9  C   UNL     1      61.487 -20.811   5.042  1.00  0.00     0.039 C 
ENDBRANCH   5   6
ENDBRANCH   4   5
ENDBRANCH   1   4
BRANCH   2  10
ATOM     10  C   UNL     1      59.112 -20.041   0.914  1.00  0.00     0.035 C 
BRANCH  10  11
ATOM     11  C   UNL     1      59.616 -18.825   0.125  1.00  0.00     0.079 C 
BRANCH  11  12
ATOM     12  C   UNL     1      61.032 -19.010  -0.355  1.00  0.00     0.130 C 
ATOM     13  O   UNL     1      61.763 -19.815   0.204  1.00  0.00    -0.300 OA
ATOM     14  C   UNL     1      61.564 -18.186  -1.490  1.00  0.00     0.087 C 
ENDBRANCH  11  12
ENDBRANCH  10  11
ENDBRANCH   2  10
TORSDOF 6
ENDMDL
MODEL 9
REMARK VINA RESULT:    -3.887      1.716      5.028
REMARK INTER + INTRA:          -6.112
REMARK INTER:                  -4.993
REMARK INTRA:                  -1.119
REMARK UNBOUND:                -0.861
REMARK SMILES CC(=O)CCC=C(C)CCC=C(C)C
REMARK SMILES IDX 7 1 6 2 8 3 9 4 10 5 11 6 13 7 12 8 14 9 5 10 4 11 2 12 3 13
REMARK SMILES IDX 1 14
REMARK H PARENT
REMARK Flexibility Score: inf
ROOT
ATOM      1  C   UNL     1      60.869 -17.604  -1.382  1.00  0.00    -0.077 C 
ATOM      2  C   UNL     1      59.814 -17.941  -2.157  1.00  0.00    -0.028 C 
ATOM      3  C   UNL     1      61.065 -16.189  -0.891  1.00  0.00     0.039 C 
ENDROOT
BRANCH   1   4
ATOM      4  C   UNL     1      61.878 -18.667  -1.004  1.00  0.00     0.034 C 
BRANCH   4   5
ATOM      5  C   UNL     1      61.208 -19.800  -0.220  1.00  0.00     0.032 C 
BRANCH   5   6
ATOM      6  C   UNL     1      60.687 -19.299   1.104  1.00  0.00    -0.028 C 
ATOM      7  C   UNL     1      59.018 -18.814   2.841  1.00  0.00     0.039 C 
ATOM      8  C   UNL     1      59.400 -19.397   1.504  1.00  0.00    -0.080 C 
ATOM      9  C   UNL     1      58.350 -20.083   0.663  1.00  0.00     0.039 C 
ENDBRANCH   5   6
ENDBRANCH   4   5
ENDBRANCH   1   4
BRANCH   2  10
ATOM     10  C   UNL     1      58.755 -16.951  -2.583  1.00  0.00     0.035 C 
BRANCH  10  11
ATOM     11  C   UNL     1      57.476 -17.072  -1.744  1.00  0.00     0.079 C 
BRANCH  11  12
ATOM     12  C   UNL     1      56.409 -17.866  -2.451  1.00  0.00     0.130 C 
ATOM     13  O   UNL     1      56.223 -19.037  -2.152  1.00  0.00    -0.300 OA
ATOM     14  C   UNL     1      55.598 -17.242  -3.548  1.00  0.00     0.087 C 
ENDBRANCH  11  12
ENDBRANCH  10  11
ENDBRANCH   2  10
TORSDOF 6
ENDMDL
