MODEL 1
REMARK VINA RESULT:    -0.767      0.000      0.000
REMARK INTER + INTRA:          -1.215
REMARK INTER:                  -0.946
REMARK INTRA:                  -0.269
REMARK UNBOUND:                -0.269
REMARK SMILES Oc1cc(O)c2cc(O)c(-c3cc(O)c(O)c(O)c3)[o+]c2c1
REMARK SMILES IDX 10 1 20 2 21 3 22 4 2 5 3 6 4 7 6 8 7 9 8 10 11 11 12 12
REMARK SMILES IDX 13 13 19 14 15 15 17 16 14 17 16 19 18 21 9 23 1 25 5 27
REMARK H PARENT 14 18 16 20 18 22 9 24 1 26 5 28
REMARK Flexibility Score: inf
ROOT
ATOM      1  C   UNL     1      24.045  35.157  13.241  1.00  0.00     0.402 A 
ATOM      2  O   UNL     1      24.868  36.172  13.490  1.00  0.00    -0.202 OA
ATOM      3  C   UNL     1      24.520  37.233  14.212  1.00  0.00     0.368 A 
ATOM      4  C   UNL     1      25.457  38.247  14.422  1.00  0.00     0.162 A 
ATOM      5  C   UNL     1      25.122  39.371  15.179  1.00  0.00     0.128 A 
ATOM      6  C   UNL     1      23.841  39.482  15.732  1.00  0.00     0.093 A 
ATOM      7  C   UNL     1      22.885  38.477  15.537  1.00  0.00     0.136 A 
ATOM      8  C   UNL     1      23.221  37.335  14.765  1.00  0.00     0.125 A 
ATOM      9  C   UNL     1      22.324  36.286  14.506  1.00  0.00     0.078 A 
ATOM     10  C   UNL     1      22.727  35.193  13.733  1.00  0.00     0.223 A 
ENDROOT
BRANCH   1  11
ATOM     11  C   UNL     1      24.552  34.027  12.429  1.00  0.00     0.091 A 
ATOM     12  C   UNL     1      24.087  33.856  11.117  1.00  0.00     0.068 A 
ATOM     13  C   UNL     1      24.566  32.807  10.321  1.00  0.00     0.162 A 
ATOM     14  C   UNL     1      25.534  33.153  12.926  1.00  0.00     0.068 A 
ATOM     15  C   UNL     1      25.530  31.926  10.829  1.00  0.00     0.200 A 
ATOM     16  C   UNL     1      26.020  32.102  12.134  1.00  0.00     0.162 A 
BRANCH  13  17
ATOM     17  O   UNL     1      24.090  32.633   9.022  1.00  0.00    -0.504 OA
ATOM     18  H   UNL     1      23.125  32.830   8.781  1.00  0.00     0.293 HD
ENDBRANCH  13  17
BRANCH  15  19
ATOM     19  O   UNL     1      25.995  30.886  10.023  1.00  0.00    -0.502 OA
ATOM     20  H   UNL     1      26.580  30.143  10.386  1.00  0.00     0.293 HD
ENDBRANCH  15  19
BRANCH  16  21
ATOM     21  O   UNL     1      26.990  31.237  12.638  1.00  0.00    -0.504 OA
ATOM     22  H   UNL     1      27.100  31.084  13.633  1.00  0.00     0.293 HD
ENDBRANCH  16  21
ENDBRANCH   1  11
BRANCH  10  23
ATOM     23  O   UNL     1      21.820  34.176  13.433  1.00  0.00    -0.500 OA
ATOM     24  H   UNL     1      22.072  33.198  13.511  1.00  0.00     0.294 HD
ENDBRANCH  10  23
BRANCH   5  25
ATOM     25  O   UNL     1      26.070  40.373  15.377  1.00  0.00    -0.507 OA
ATOM     26  H   UNL     1      25.861  41.346  15.180  1.00  0.00     0.293 HD
ENDBRANCH   5  25
BRANCH   7  27
ATOM     27  O   UNL     1      21.630  38.661  16.125  1.00  0.00    -0.507 OA
ATOM     28  H   UNL     1      21.068  39.492  16.020  1.00  0.00     0.293 HD
ENDBRANCH   7  27
TORSDOF 7
ENDMDL
MODEL 2
REMARK VINA RESULT:    -0.766      1.320      7.275
REMARK INTER + INTRA:          -1.214
REMARK INTER:                  -0.867
REMARK INTRA:                  -0.347
REMARK UNBOUND:                -0.269
REMARK SMILES Oc1cc(O)c2cc(O)c(-c3cc(O)c(O)c(O)c3)[o+]c2c1
REMARK SMILES IDX 10 1 20 2 21 3 22 4 2 5 3 6 4 7 6 8 7 9 8 10 11 11 12 12
REMARK SMILES IDX 13 13 19 14 15 15 17 16 14 17 16 19 18 21 9 23 1 25 5 27
REMARK H PARENT 14 18 16 20 18 22 9 24 1 26 5 28
REMARK Flexibility Score: inf
ROOT
ATOM      1  C   UNL     1      24.867  34.986  13.739  1.00  0.00     0.402 A 
ATOM      2  O   UNL     1      24.422  34.466  12.599  1.00  0.00    -0.202 OA
ATOM      3  C   UNL     1      24.961  33.393  12.027  1.00  0.00     0.368 A 
ATOM      4  C   UNL     1      24.421  32.919  10.829  1.00  0.00     0.162 A 
ATOM      5  C   UNL     1      24.963  31.793  10.207  1.00  0.00     0.128 A 
ATOM      6  C   UNL     1      26.053  31.135  10.788  1.00  0.00     0.093 A 
ATOM      7  C   UNL     1      26.611  31.590  11.989  1.00  0.00     0.136 A 
ATOM      8  C   UNL     1      26.064  32.736  12.622  1.00  0.00     0.125 A 
ATOM      9  C   UNL     1      26.567  33.271  13.819  1.00  0.00     0.078 A 
ATOM     10  C   UNL     1      25.977  34.407  14.381  1.00  0.00     0.223 A 
ENDROOT
BRANCH   1  11
ATOM     11  C   UNL     1      24.177  36.179  14.281  1.00  0.00     0.091 A 
ATOM     12  C   UNL     1      24.725  37.452  14.063  1.00  0.00     0.068 A 
ATOM     13  C   UNL     1      24.081  38.599  14.548  1.00  0.00     0.162 A 
ATOM     14  C   UNL     1      22.952  36.069  14.961  1.00  0.00     0.068 A 
ATOM     15  C   UNL     1      22.870  38.481  15.243  1.00  0.00     0.200 A 
ATOM     16  C   UNL     1      22.301  37.212  15.447  1.00  0.00     0.162 A 
BRANCH  13  17
ATOM     17  O   UNL     1      24.637  39.860  14.341  1.00  0.00    -0.504 OA
ATOM     18  H   UNL     1      25.527  39.976  13.869  1.00  0.00     0.293 HD
ENDBRANCH  13  17
BRANCH  15  19
ATOM     19  O   UNL     1      22.244  39.633  15.720  1.00  0.00    -0.502 OA
ATOM     20  H   UNL     1      22.043  39.770  16.703  1.00  0.00     0.293 HD
ENDBRANCH  15  19
BRANCH  16  21
ATOM     21  O   UNL     1      21.089  37.093  16.125  1.00  0.00    -0.504 OA
ATOM     22  H   UNL     1      20.219  37.419  15.721  1.00  0.00     0.293 HD
ENDBRANCH  16  21
ENDBRANCH   1  11
BRANCH  10  23
ATOM     23  O   UNL     1      26.507  34.968  15.543  1.00  0.00    -0.500 OA
ATOM     24  H   UNL     1      25.925  35.455  16.214  1.00  0.00     0.294 HD
ENDBRANCH  10  23
BRANCH   5  25
ATOM     25  O   UNL     1      24.412  31.336   9.012  1.00  0.00    -0.507 OA
ATOM     26  H   UNL     1      24.922  30.713   8.397  1.00  0.00     0.293 HD
ENDBRANCH   5  25
BRANCH   7  27
ATOM     27  O   UNL     1      27.696  30.875  12.506  1.00  0.00    -0.507 OA
ATOM     28  H   UNL     1      28.511  31.300  12.923  1.00  0.00     0.293 HD
ENDBRANCH   7  27
TORSDOF 7
ENDMDL
MODEL 3
REMARK VINA RESULT:    -0.594      0.094      1.790
REMARK INTER + INTRA:          -1.002
REMARK INTER:                  -0.758
REMARK INTRA:                  -0.244
REMARK UNBOUND:                -0.269
REMARK SMILES Oc1cc(O)c2cc(O)c(-c3cc(O)c(O)c(O)c3)[o+]c2c1
REMARK SMILES IDX 10 1 20 2 21 3 22 4 2 5 3 6 4 7 6 8 7 9 8 10 11 11 12 12
REMARK SMILES IDX 13 13 19 14 15 15 17 16 14 17 16 19 18 21 9 23 1 25 5 27
REMARK H PARENT 14 18 16 20 18 22 9 24 1 26 5 28
REMARK Flexibility Score: inf
ROOT
ATOM      1  C   UNL     1      24.077  35.194  13.165  1.00  0.00     0.402 A 
ATOM      2  O   UNL     1      24.875  36.228  13.419  1.00  0.00    -0.202 OA
ATOM      3  C   UNL     1      24.508  37.269  14.159  1.00  0.00     0.368 A 
ATOM      4  C   UNL     1      25.420  38.306  14.372  1.00  0.00     0.162 A 
ATOM      5  C   UNL     1      25.064  39.410  15.148  1.00  0.00     0.128 A 
ATOM      6  C   UNL     1      23.788  39.479  15.717  1.00  0.00     0.093 A 
ATOM      7  C   UNL     1      22.856  38.451  15.520  1.00  0.00     0.136 A 
ATOM      8  C   UNL     1      23.214  37.329  14.729  1.00  0.00     0.125 A 
ATOM      9  C   UNL     1      22.342  36.260  14.466  1.00  0.00     0.078 A 
ATOM     10  C   UNL     1      22.764  35.189  13.673  1.00  0.00     0.223 A 
ENDROOT
BRANCH   1  11
ATOM     11  C   UNL     1      24.604  34.089  12.333  1.00  0.00     0.091 A 
ATOM     12  C   UNL     1      25.600  33.248  12.852  1.00  0.00     0.068 A 
ATOM     13  C   UNL     1      26.101  32.183  12.091  1.00  0.00     0.162 A 
ATOM     14  C   UNL     1      24.088  33.828  11.052  1.00  0.00     0.068 A 
ATOM     15  C   UNL     1      25.597  31.940  10.807  1.00  0.00     0.200 A 
ATOM     16  C   UNL     1      24.583  32.763  10.287  1.00  0.00     0.162 A 
BRANCH  13  17
ATOM     17  O   UNL     1      27.101  31.359  12.606  1.00  0.00    -0.504 OA
ATOM     18  H   UNL     1      27.405  31.434  13.571  1.00  0.00     0.293 HD
ENDBRANCH  13  17
BRANCH  15  19
ATOM     19  O   UNL     1      26.109  30.877  10.063  1.00  0.00    -0.502 OA
ATOM     20  H   UNL     1      27.103  30.757   9.907  1.00  0.00     0.293 HD
ENDBRANCH  15  19
BRANCH  16  21
ATOM     21  O   UNL     1      24.069  32.516   9.015  1.00  0.00    -0.504 OA
ATOM     22  H   UNL     1      24.487  32.918   8.185  1.00  0.00     0.293 HD
ENDBRANCH  16  21
ENDBRANCH   1  11
BRANCH  10  23
ATOM     23  O   UNL     1      21.882  34.152  13.371  1.00  0.00    -0.500 OA
ATOM     24  H   UNL     1      21.746  33.827  12.421  1.00  0.00     0.294 HD
ENDBRANCH  10  23
BRANCH   5  25
ATOM     25  O   UNL     1      25.987  40.435  15.348  1.00  0.00    -0.507 OA
ATOM     26  H   UNL     1      26.247  41.067  14.600  1.00  0.00     0.293 HD
ENDBRANCH   5  25
BRANCH   7  27
ATOM     27  O   UNL     1      21.604  38.593  16.125  1.00  0.00    -0.507 OA
ATOM     28  H   UNL     1      21.434  38.485  17.114  1.00  0.00     0.293 HD
ENDBRANCH   7  27
TORSDOF 7
ENDMDL
MODEL 4
REMARK VINA RESULT:     0.297      1.920      7.046
REMARK INTER + INTRA:           0.098
REMARK INTER:                  -0.270
REMARK INTRA:                   0.368
REMARK UNBOUND:                -0.269
REMARK SMILES Oc1cc(O)c2cc(O)c(-c3cc(O)c(O)c(O)c3)[o+]c2c1
REMARK SMILES IDX 10 1 20 2 21 3 22 4 2 5 3 6 4 7 6 8 7 9 8 10 11 11 12 12
REMARK SMILES IDX 13 13 19 14 15 15 17 16 14 17 16 19 18 21 9 23 1 25 5 27
REMARK H PARENT 14 18 16 20 18 22 9 24 1 26 5 28
REMARK Flexibility Score: inf
ROOT
ATOM      1  C   UNL     1      24.572  35.734  13.842  1.00  0.00     0.402 A 
ATOM      2  O   UNL     1      25.386  34.969  14.566  1.00  0.00    -0.202 OA
ATOM      3  C   UNL     1      25.534  33.664  14.361  1.00  0.00     0.368 A 
ATOM      4  C   UNL     1      26.416  32.946  15.173  1.00  0.00     0.162 A 
ATOM      5  C   UNL     1      26.595  31.575  14.979  1.00  0.00     0.128 A 
ATOM      6  C   UNL     1      25.889  30.917  13.966  1.00  0.00     0.093 A 
ATOM      7  C   UNL     1      25.001  31.615  13.138  1.00  0.00     0.136 A 
ATOM      8  C   UNL     1      24.814  33.008  13.335  1.00  0.00     0.125 A 
ATOM      9  C   UNL     1      23.935  33.785  12.563  1.00  0.00     0.078 A 
ATOM     10  C   UNL     1      23.800  35.154  12.819  1.00  0.00     0.223 A 
ENDROOT
BRANCH   1  11
ATOM     11  C   UNL     1      24.499  37.178  14.162  1.00  0.00     0.091 A 
ATOM     12  C   UNL     1      25.479  37.753  14.986  1.00  0.00     0.068 A 
ATOM     13  C   UNL     1      25.444  39.121  15.288  1.00  0.00     0.162 A 
ATOM     14  C   UNL     1      23.501  37.999  13.611  1.00  0.00     0.068 A 
ATOM     15  C   UNL     1      24.434  39.931  14.752  1.00  0.00     0.200 A 
ATOM     16  C   UNL     1      23.461  39.369  13.906  1.00  0.00     0.162 A 
BRANCH  13  17
ATOM     17  O   UNL     1      26.411  39.685  16.118  1.00  0.00    -0.504 OA
ATOM     18  H   UNL     1      26.869  39.142  16.842  1.00  0.00     0.293 HD
ENDBRANCH  13  17
BRANCH  15  19
ATOM     19  O   UNL     1      24.413  41.291  15.064  1.00  0.00    -0.502 OA
ATOM     20  H   UNL     1      25.177  41.910  14.825  1.00  0.00     0.293 HD
ENDBRANCH  15  19
BRANCH  16  21
ATOM     21  O   UNL     1      22.464  40.175  13.359  1.00  0.00    -0.504 OA
ATOM     22  H   UNL     1      22.647  40.788  12.575  1.00  0.00     0.293 HD
ENDBRANCH  16  21
ENDBRANCH   1  11
BRANCH  10  23
ATOM     23  O   UNL     1      22.890  35.916  12.086  1.00  0.00    -0.500 OA
ATOM     24  H   UNL     1      22.945  36.927  12.054  1.00  0.00     0.294 HD
ENDBRANCH  10  23
BRANCH   5  25
ATOM     25  O   UNL     1      27.478  30.875  15.799  1.00  0.00    -0.507 OA
ATOM     26  H   UNL     1      27.565  29.867  15.746  1.00  0.00     0.293 HD
ENDBRANCH   5  25
BRANCH   7  27
ATOM     27  O   UNL     1      24.336  30.886  12.147  1.00  0.00    -0.507 OA
ATOM     28  H   UNL     1      24.146  29.897  12.200  1.00  0.00     0.293 HD
ENDBRANCH   7  27
TORSDOF 7
ENDMDL
MODEL 5
REMARK VINA RESULT:     0.320      3.334      6.742
REMARK INTER + INTRA:           0.126
REMARK INTER:                  -0.009
REMARK INTRA:                   0.134
REMARK UNBOUND:                -0.269
REMARK SMILES Oc1cc(O)c2cc(O)c(-c3cc(O)c(O)c(O)c3)[o+]c2c1
REMARK SMILES IDX 10 1 20 2 21 3 22 4 2 5 3 6 4 7 6 8 7 9 8 10 11 11 12 12
REMARK SMILES IDX 13 13 19 14 15 15 17 16 14 17 16 19 18 21 9 23 1 25 5 27
REMARK H PARENT 14 18 16 20 18 22 9 24 1 26 5 28
REMARK Flexibility Score: inf
ROOT
ATOM      1  C   UNL     1      24.080  35.760  15.308  1.00  0.00     0.402 A 
ATOM      2  O   UNL     1      25.163  34.995  15.421  1.00  0.00    -0.202 OA
ATOM      3  C   UNL     1      25.112  33.683  15.625  1.00  0.00     0.368 A 
ATOM      4  C   UNL     1      26.306  32.964  15.727  1.00  0.00     0.162 A 
ATOM      5  C   UNL     1      26.283  31.585  15.939  1.00  0.00     0.128 A 
ATOM      6  C   UNL     1      25.058  30.917  16.047  1.00  0.00     0.093 A 
ATOM      7  C   UNL     1      23.848  31.615  15.947  1.00  0.00     0.136 A 
ATOM      8  C   UNL     1      23.867  33.018  15.736  1.00  0.00     0.125 A 
ATOM      9  C   UNL     1      22.705  33.800  15.636  1.00  0.00     0.078 A 
ATOM     10  C   UNL     1      22.804  35.180  15.432  1.00  0.00     0.223 A 
ENDROOT
BRANCH   1  11
ATOM     11  C   UNL     1      24.268  37.209  15.073  1.00  0.00     0.091 A 
ATOM     12  C   UNL     1      23.369  37.896  14.243  1.00  0.00     0.068 A 
ATOM     13  C   UNL     1      23.513  39.273  14.020  1.00  0.00     0.162 A 
ATOM     14  C   UNL     1      25.295  37.927  15.709  1.00  0.00     0.068 A 
ATOM     15  C   UNL     1      24.551  39.978  14.641  1.00  0.00     0.200 A 
ATOM     16  C   UNL     1      25.443  39.304  15.493  1.00  0.00     0.162 A 
BRANCH  13  17
ATOM     17  O   UNL     1      22.625  39.947  13.183  1.00  0.00    -0.504 OA
ATOM     18  H   UNL     1      22.558  39.728  12.195  1.00  0.00     0.293 HD
ENDBRANCH  13  17
BRANCH  15  19
ATOM     19  O   UNL     1      24.680  41.348  14.407  1.00  0.00    -0.502 OA
ATOM     20  H   UNL     1      24.837  41.724  13.480  1.00  0.00     0.293 HD
ENDBRANCH  15  19
BRANCH  16  21
ATOM     21  O   UNL     1      26.469  40.006  16.125  1.00  0.00    -0.504 OA
ATOM     22  H   UNL     1      26.433  41.011  16.239  1.00  0.00     0.293 HD
ENDBRANCH  16  21
ENDBRANCH   1  11
BRANCH  10  23
ATOM     23  O   UNL     1      21.652  35.964  15.384  1.00  0.00    -0.500 OA
ATOM     24  H   UNL     1      21.635  36.911  15.744  1.00  0.00     0.294 HD
ENDBRANCH  10  23
BRANCH   5  25
ATOM     25  O   UNL     1      27.484  30.885  16.038  1.00  0.00    -0.507 OA
ATOM     26  H   UNL     1      28.272  31.258  16.555  1.00  0.00     0.293 HD
ENDBRANCH   5  25
BRANCH   7  27
ATOM     27  O   UNL     1      22.667  30.875  16.063  1.00  0.00    -0.507 OA
ATOM     28  H   UNL     1      22.487  30.010  15.576  1.00  0.00     0.293 HD
ENDBRANCH   7  27
TORSDOF 7
ENDMDL
MODEL 6
REMARK VINA RESULT:     0.439      2.511      6.960
REMARK INTER + INTRA:           0.272
REMARK INTER:                   0.460
REMARK INTRA:                  -0.187
REMARK UNBOUND:                -0.269
REMARK SMILES Oc1cc(O)c2cc(O)c(-c3cc(O)c(O)c(O)c3)[o+]c2c1
REMARK SMILES IDX 10 1 20 2 21 3 22 4 2 5 3 6 4 7 6 8 7 9 8 10 11 11 12 12
REMARK SMILES IDX 13 13 19 14 15 15 17 16 14 17 16 19 18 21 9 23 1 25 5 27
REMARK H PARENT 14 18 16 20 18 22 9 24 1 26 5 28
REMARK Flexibility Score: inf
ROOT
ATOM      1  C   UNL     1      23.897  35.814  14.876  1.00  0.00     0.402 A 
ATOM      2  O   UNL     1      24.923  35.038  14.538  1.00  0.00    -0.202 OA
ATOM      3  C   UNL     1      24.873  33.710  14.560  1.00  0.00     0.368 A 
ATOM      4  C   UNL     1      26.004  32.982  14.185  1.00  0.00     0.162 A 
ATOM      5  C   UNL     1      25.980  31.586  14.195  1.00  0.00     0.128 A 
ATOM      6  C   UNL     1      24.815  30.913  14.581  1.00  0.00     0.093 A 
ATOM      7  C   UNL     1      23.668  31.621  14.961  1.00  0.00     0.136 A 
ATOM      8  C   UNL     1      23.691  33.040  14.955  1.00  0.00     0.125 A 
ATOM      9  C   UNL     1      22.594  33.831  15.332  1.00  0.00     0.078 A 
ATOM     10  C   UNL     1      22.692  35.226  15.305  1.00  0.00     0.223 A 
ENDROOT
BRANCH   1  11
ATOM     11  C   UNL     1      24.074  37.282  14.802  1.00  0.00     0.091 A 
ATOM     12  C   UNL     1      25.135  37.885  15.494  1.00  0.00     0.068 A 
ATOM     13  C   UNL     1      25.337  39.270  15.424  1.00  0.00     0.162 A 
ATOM     14  C   UNL     1      23.235  38.081  14.007  1.00  0.00     0.068 A 
ATOM     15  C   UNL     1      24.484  40.064  14.647  1.00  0.00     0.200 A 
ATOM     16  C   UNL     1      23.432  39.467  13.931  1.00  0.00     0.162 A 
BRANCH  13  17
ATOM     17  O   UNL     1      26.384  39.866  16.125  1.00  0.00    -0.504 OA
ATOM     18  H   UNL     1      27.348  39.766  15.824  1.00  0.00     0.293 HD
ENDBRANCH  13  17
BRANCH  15  19
ATOM     19  O   UNL     1      24.698  41.442  14.590  1.00  0.00    -0.502 OA
ATOM     20  H   UNL     1      25.289  41.867  13.887  1.00  0.00     0.293 HD
ENDBRANCH  15  19
BRANCH  16  21
ATOM     21  O   UNL     1      22.590  40.252  13.144  1.00  0.00    -0.504 OA
ATOM     22  H   UNL     1      21.583  40.222  13.249  1.00  0.00     0.293 HD
ENDBRANCH  16  21
ENDBRANCH   1  11
BRANCH  10  23
ATOM     23  O   UNL     1      21.620  36.011  15.728  1.00  0.00    -0.500 OA
ATOM     24  H   UNL     1      21.448  36.931  15.340  1.00  0.00     0.294 HD
ENDBRANCH  10  23
BRANCH   5  25
ATOM     25  O   UNL     1      27.118  30.876  13.817  1.00  0.00    -0.507 OA
ATOM     26  H   UNL     1      27.810  31.278  13.196  1.00  0.00     0.293 HD
ENDBRANCH   5  25
BRANCH   7  27
ATOM     27  O   UNL     1      22.545  30.875  15.331  1.00  0.00    -0.507 OA
ATOM     28  H   UNL     1      22.583  29.976  15.787  1.00  0.00     0.293 HD
ENDBRANCH   7  27
TORSDOF 7
ENDMDL
MODEL 7
REMARK VINA RESULT:     1.063      3.497      6.997
REMARK INTER + INTRA:           1.043
REMARK INTER:                   0.903
REMARK INTRA:                   0.139
REMARK UNBOUND:                -0.269
REMARK SMILES Oc1cc(O)c2cc(O)c(-c3cc(O)c(O)c(O)c3)[o+]c2c1
REMARK SMILES IDX 10 1 20 2 21 3 22 4 2 5 3 6 4 7 6 8 7 9 8 10 11 11 12 12
REMARK SMILES IDX 13 13 19 14 15 15 17 16 14 17 16 19 18 21 9 23 1 25 5 27
REMARK H PARENT 14 18 16 20 18 22 9 24 1 26 5 28
REMARK Flexibility Score: inf
ROOT
ATOM      1  C   UNL     1      23.906  35.954  15.247  1.00  0.00     0.402 A 
ATOM      2  O   UNL     1      22.641  35.540  15.220  1.00  0.00    -0.202 OA
ATOM      3  C   UNL     1      22.284  34.272  15.395  1.00  0.00     0.368 A 
ATOM      4  C   UNL     1      20.929  33.936  15.352  1.00  0.00     0.162 A 
ATOM      5  C   UNL     1      20.524  32.613  15.535  1.00  0.00     0.128 A 
ATOM      6  C   UNL     1      21.480  31.617  15.765  1.00  0.00     0.093 A 
ATOM      7  C   UNL     1      22.845  31.929  15.813  1.00  0.00     0.136 A 
ATOM      8  C   UNL     1      23.260  33.273  15.624  1.00  0.00     0.125 A 
ATOM      9  C   UNL     1      24.606  33.675  15.643  1.00  0.00     0.078 A 
ATOM     10  C   UNL     1      24.939  35.019  15.444  1.00  0.00     0.223 A 
ENDROOT
BRANCH   1  11
ATOM     11  C   UNL     1      24.176  37.396  15.047  1.00  0.00     0.091 A 
ATOM     12  C   UNL     1      23.298  38.160  14.264  1.00  0.00     0.068 A 
ATOM     13  C   UNL     1      23.521  39.532  14.076  1.00  0.00     0.162 A 
ATOM     14  C   UNL     1      25.263  38.030  15.673  1.00  0.00     0.068 A 
ATOM     15  C   UNL     1      24.618  40.154  14.686  1.00  0.00     0.200 A 
ATOM     16  C   UNL     1      25.490  39.402  15.491  1.00  0.00     0.162 A 
BRANCH  13  17
ATOM     17  O   UNL     1      22.654  40.284  13.285  1.00  0.00    -0.504 OA
ATOM     18  H   UNL     1      22.611  40.160  12.279  1.00  0.00     0.293 HD
ENDBRANCH  13  17
BRANCH  15  19
ATOM     19  O   UNL     1      24.825  41.519  14.486  1.00  0.00    -0.502 OA
ATOM     20  H   UNL     1      25.714  41.963  14.678  1.00  0.00     0.293 HD
ENDBRANCH  15  19
BRANCH  16  21
ATOM     21  O   UNL     1      26.574  40.020  16.112  1.00  0.00    -0.504 OA
ATOM     22  H   UNL     1      27.415  40.257  15.600  1.00  0.00     0.293 HD
ENDBRANCH  16  21
ENDBRANCH   1  11
BRANCH  10  23
ATOM     23  O   UNL     1      26.277  35.410  15.412  1.00  0.00    -0.500 OA
ATOM     24  H   UNL     1      26.796  35.466  14.544  1.00  0.00     0.294 HD
ENDBRANCH  10  23
BRANCH   5  25
ATOM     25  O   UNL     1      19.168  32.297  15.489  1.00  0.00    -0.507 OA
ATOM     26  H   UNL     1      18.801  31.633  14.817  1.00  0.00     0.293 HD
ENDBRANCH   5  25
BRANCH   7  27
ATOM     27  O   UNL     1      23.737  30.879  16.050  1.00  0.00    -0.507 OA
ATOM     28  H   UNL     1      23.956  30.156  15.381  1.00  0.00     0.293 HD
ENDBRANCH   7  27
TORSDOF 7
ENDMDL
