MODEL 1
REMARK VINA RESULT:    -4.642      0.000      0.000
REMARK INTER + INTRA:         -14.448
REMARK INTER:                 -11.698
REMARK INTRA:                  -2.750
REMARK UNBOUND:                -2.750
REMARK SMILES CCCCCCCCCCCCCCCCCCCCCCCCCCCC(=O)[O-]
REMARK SMILES IDX 15 1 16 2 17 3 18 4 19 5 20 6 21 7 22 8 23 9 24 10 25 11
REMARK SMILES IDX 26 12 27 13 28 14 29 15 30 16 14 17 13 18 12 19 11 20 10 21
REMARK SMILES IDX 9 22 8 23 7 24 6 25 5 26 4 27 3 28 2 29 1 30
REMARK H PARENT
REMARK Flexibility Score: inf
ROOT
ATOM      1  C   UNL     1      13.180  22.469 -22.229  1.00  0.00     0.000 C 
ENDROOT
BRANCH   1   2
ATOM      2  C   UNL     1      12.619  23.250 -23.427  1.00  0.00     0.000 C 
BRANCH   2   3
ATOM      3  C   UNL     1      13.299  22.890 -24.762  1.00  0.00     0.000 C 
BRANCH   3   4
ATOM      4  C   UNL     1      12.347  22.649 -25.952  1.00  0.00     0.000 C 
BRANCH   4   5
ATOM      5  C   UNL     1      13.045  22.258 -27.273  1.00  0.00     0.000 C 
BRANCH   5   6
ATOM      6  C   UNL     1      12.682  20.850 -27.784  1.00  0.00     0.000 C 
BRANCH   6   7
ATOM      7  C   UNL     1      12.058  19.912 -26.736  1.00  0.00     0.000 C 
BRANCH   7   8
ATOM      8  C   UNL     1      12.752  18.543 -26.582  1.00  0.00     0.000 C 
BRANCH   8   9
ATOM      9  C   UNL     1      12.983  18.116 -25.116  1.00  0.00     0.000 C 
BRANCH   9  10
ATOM     10  C   UNL     1      12.979  19.312 -24.146  1.00  0.00     0.000 C 
BRANCH  10  11
ATOM     11  C   UNL     1      12.856  18.892 -22.671  1.00  0.00     0.000 C 
BRANCH  11  12
ATOM     12  C   UNL     1      13.991  17.983 -22.155  1.00  0.00     0.006 C 
BRANCH  12  13
ATOM     13  C   UNL     1      13.766  17.423 -20.742  1.00  0.00     0.053 C 
BRANCH  13  14
ATOM     14  C   UNL     1      15.005  17.497 -19.902  1.00  0.00     0.041 C 
ATOM     15  O   UNL     1      15.010  17.021 -18.736  1.00  0.00    -0.550 OA
ATOM     16  O   UNL     1      16.147  18.114 -20.399  1.00  0.00    -0.550 OA
ENDBRANCH  13  14
ENDBRANCH  12  13
ENDBRANCH  11  12
ENDBRANCH  10  11
ENDBRANCH   9  10
ENDBRANCH   8   9
ENDBRANCH   7   8
ENDBRANCH   6   7
ENDBRANCH   5   6
ENDBRANCH   4   5
ENDBRANCH   3   4
ENDBRANCH   2   3
ENDBRANCH   1   2
BRANCH   1  17
ATOM     17  C   UNL     1      12.603  23.007 -20.910  1.00  0.00     0.000 C 
BRANCH  17  18
ATOM     18  C   UNL     1      12.026  21.899 -20.014  1.00  0.00     0.000 C 
BRANCH  18  19
ATOM     19  C   UNL     1      12.897  21.623 -18.777  1.00  0.00     0.000 C 
BRANCH  19  20
ATOM     20  C   UNL     1      14.245  20.965 -19.122  1.00  0.00     0.000 C 
BRANCH  20  21
ATOM     21  C   UNL     1      15.167  20.692 -17.918  1.00  0.00     0.000 C 
BRANCH  21  22
ATOM     22  C   UNL     1      16.471  21.508 -17.967  1.00  0.00    -0.000 C 
BRANCH  22  23
ATOM     23  C   UNL     1      17.702  20.692 -17.546  1.00  0.00    -0.000 C 
BRANCH  23  24
ATOM     24  C   UNL     1      17.333  19.276 -17.069  1.00  0.00    -0.000 C 
BRANCH  24  25
ATOM     25  C   UNL     1      18.318  18.717 -16.026  1.00  0.00    -0.000 C 
BRANCH  25  26
ATOM     26  C   UNL     1      19.699  18.309 -16.576  1.00  0.00    -0.000 C 
BRANCH  26  27
ATOM     27  C   UNL     1      20.864  18.772 -15.683  1.00  0.00    -0.000 C 
BRANCH  27  28
ATOM     28  C   UNL     1      20.680  18.371 -14.208  1.00  0.00    -0.000 C 
BRANCH  28  29
ATOM     29  C   UNL     1      20.393  19.548 -13.258  1.00  0.00    -0.003 C 
ATOM     30  C   UNL     1      21.020  20.860 -13.731  1.00  0.00     0.004 C 
ENDBRANCH  28  29
ENDBRANCH  27  28
ENDBRANCH  26  27
ENDBRANCH  25  26
ENDBRANCH  24  25
ENDBRANCH  23  24
ENDBRANCH  22  23
ENDBRANCH  21  22
ENDBRANCH  20  21
ENDBRANCH  19  20
ENDBRANCH  18  19
ENDBRANCH  17  18
ENDBRANCH   1  17
TORSDOF 26
ENDMDL
MODEL 2
REMARK VINA RESULT:    -4.621      1.120      1.643
REMARK INTER + INTRA:         -14.396
REMARK INTER:                 -10.931
REMARK INTRA:                  -3.464
REMARK UNBOUND:                -2.750
REMARK SMILES CCCCCCCCCCCCCCCCCCCCCCCCCCCC(=O)[O-]
REMARK SMILES IDX 15 1 16 2 17 3 18 4 19 5 20 6 21 7 22 8 23 9 24 10 25 11
REMARK SMILES IDX 26 12 27 13 28 14 29 15 30 16 14 17 13 18 12 19 11 20 10 21
REMARK SMILES IDX 9 22 8 23 7 24 6 25 5 26 4 27 3 28 2 29 1 30
REMARK H PARENT
REMARK Flexibility Score: inf
ROOT
ATOM      1  C   UNL     1      13.750  22.264 -23.449  1.00  0.00     0.000 C 
ENDROOT
BRANCH   1   2
ATOM      2  C   UNL     1      13.747  22.666 -24.932  1.00  0.00     0.000 C 
BRANCH   2   3
ATOM      3  C   UNL     1      12.368  23.137 -25.433  1.00  0.00     0.000 C 
BRANCH   3   4
ATOM      4  C   UNL     1      11.943  22.602 -26.816  1.00  0.00     0.000 C 
BRANCH   4   5
ATOM      5  C   UNL     1      12.867  21.512 -27.402  1.00  0.00     0.000 C 
BRANCH   5   6
ATOM      6  C   UNL     1      12.285  20.086 -27.325  1.00  0.00     0.000 C 
BRANCH   6   7
ATOM      7  C   UNL     1      12.263  19.461 -25.919  1.00  0.00     0.000 C 
BRANCH   7   8
ATOM      8  C   UNL     1      13.029  18.129 -25.780  1.00  0.00     0.000 C 
BRANCH   8   9
ATOM      9  C   UNL     1      13.029  17.550 -24.348  1.00  0.00     0.000 C 
BRANCH   9  10
ATOM     10  C   UNL     1      12.850  18.638 -23.272  1.00  0.00     0.000 C 
BRANCH  10  11
ATOM     11  C   UNL     1      14.152  18.960 -22.519  1.00  0.00     0.000 C 
BRANCH  11  12
ATOM     12  C   UNL     1      14.119  18.670 -21.005  1.00  0.00     0.006 C 
BRANCH  12  13
ATOM     13  C   UNL     1      13.349  17.398 -20.615  1.00  0.00     0.053 C 
BRANCH  13  14
ATOM     14  C   UNL     1      14.214  16.416 -19.885  1.00  0.00     0.041 C 
ATOM     15  O   UNL     1      13.696  15.565 -19.116  1.00  0.00    -0.550 OA
ATOM     16  O   UNL     1      15.595  16.457 -20.037  1.00  0.00    -0.550 OA
ENDBRANCH  13  14
ENDBRANCH  12  13
ENDBRANCH  11  12
ENDBRANCH  10  11
ENDBRANCH   9  10
ENDBRANCH   8   9
ENDBRANCH   7   8
ENDBRANCH   6   7
ENDBRANCH   5   6
ENDBRANCH   4   5
ENDBRANCH   3   4
ENDBRANCH   2   3
ENDBRANCH   1   2
BRANCH   1  17
ATOM     17  C   UNL     1      12.336  22.366 -22.855  1.00  0.00     0.000 C 
BRANCH  17  18
ATOM     18  C   UNL     1      12.333  22.871 -21.403  1.00  0.00     0.000 C 
BRANCH  18  19
ATOM     19  C   UNL     1      12.016  21.758 -20.389  1.00  0.00     0.000 C 
BRANCH  19  20
ATOM     20  C   UNL     1      13.093  21.611 -19.299  1.00  0.00     0.000 C 
BRANCH  20  21
ATOM     21  C   UNL     1      14.455  22.249 -19.633  1.00  0.00     0.000 C 
BRANCH  21  22
ATOM     22  C   UNL     1      15.584  21.768 -18.705  1.00  0.00    -0.000 C 
BRANCH  22  23
ATOM     23  C   UNL     1      15.235  20.469 -17.964  1.00  0.00    -0.000 C 
BRANCH  23  24
ATOM     24  C   UNL     1      16.307  19.381 -18.149  1.00  0.00    -0.000 C 
BRANCH  24  25
ATOM     25  C   UNL     1      17.445  19.476 -17.116  1.00  0.00    -0.000 C 
BRANCH  25  26
ATOM     26  C   UNL     1      17.188  18.742 -15.785  1.00  0.00    -0.000 C 
BRANCH  26  27
ATOM     27  C   UNL     1      18.444  18.639 -14.902  1.00  0.00    -0.000 C 
BRANCH  27  28
ATOM     28  C   UNL     1      19.474  19.744 -15.199  1.00  0.00    -0.000 C 
BRANCH  28  29
ATOM     29  C   UNL     1      20.000  20.477 -13.951  1.00  0.00    -0.003 C 
ATOM     30  C   UNL     1      19.396  19.946 -12.651  1.00  0.00     0.004 C 
ENDBRANCH  28  29
ENDBRANCH  27  28
ENDBRANCH  26  27
ENDBRANCH  25  26
ENDBRANCH  24  25
ENDBRANCH  23  24
ENDBRANCH  22  23
ENDBRANCH  21  22
ENDBRANCH  20  21
ENDBRANCH  19  20
ENDBRANCH  18  19
ENDBRANCH  17  18
ENDBRANCH   1  17
TORSDOF 26
ENDMDL
MODEL 3
REMARK VINA RESULT:    -4.514      2.175      4.214
REMARK INTER + INTRA:         -14.125
REMARK INTER:                  -9.805
REMARK INTRA:                  -4.320
REMARK UNBOUND:                -2.750
REMARK SMILES CCCCCCCCCCCCCCCCCCCCCCCCCCCC(=O)[O-]
REMARK SMILES IDX 15 1 16 2 17 3 18 4 19 5 20 6 21 7 22 8 23 9 24 10 25 11
REMARK SMILES IDX 26 12 27 13 28 14 29 15 30 16 14 17 13 18 12 19 11 20 10 21
REMARK SMILES IDX 9 22 8 23 7 24 6 25 5 26 4 27 3 28 2 29 1 30
REMARK H PARENT
REMARK Flexibility Score: inf
ROOT
ATOM      1  C   UNL     1      14.898  20.146 -18.987  1.00  0.00     0.000 C 
ENDROOT
BRANCH   1   2
ATOM      2  C   UNL     1      14.290  21.476 -19.457  1.00  0.00     0.000 C 
BRANCH   2   3
ATOM      3  C   UNL     1      12.750  21.460 -19.500  1.00  0.00     0.000 C 
BRANCH   3   4
ATOM      4  C   UNL     1      12.082  22.772 -19.964  1.00  0.00     0.000 C 
BRANCH   4   5
ATOM      5  C   UNL     1      12.705  23.405 -21.227  1.00  0.00     0.000 C 
BRANCH   5   6
ATOM      6  C   UNL     1      12.399  22.642 -22.530  1.00  0.00     0.000 C 
BRANCH   6   7
ATOM      7  C   UNL     1      13.612  21.971 -23.199  1.00  0.00     0.000 C 
BRANCH   7   8
ATOM      8  C   UNL     1      13.552  20.432 -23.276  1.00  0.00     0.000 C 
BRANCH   8   9
ATOM      9  C   UNL     1      12.125  19.851 -23.168  1.00  0.00     0.000 C 
BRANCH   9  10
ATOM     10  C   UNL     1      12.117  18.400 -22.652  1.00  0.00     0.000 C 
BRANCH  10  11
ATOM     11  C   UNL     1      12.814  18.241 -21.290  1.00  0.00     0.000 C 
BRANCH  11  12
ATOM     12  C   UNL     1      13.374  16.832 -21.004  1.00  0.00     0.006 C 
BRANCH  12  13
ATOM     13  C   UNL     1      14.866  16.800 -20.640  1.00  0.00     0.053 C 
BRANCH  13  14
ATOM     14  C   UNL     1      15.744  16.909 -21.849  1.00  0.00     0.041 C 
ATOM     15  O   UNL     1      15.536  16.176 -22.852  1.00  0.00    -0.550 OA
ATOM     16  O   UNL     1      16.808  17.804 -21.860  1.00  0.00    -0.550 OA
ENDBRANCH  13  14
ENDBRANCH  12  13
ENDBRANCH  11  12
ENDBRANCH  10  11
ENDBRANCH   9  10
ENDBRANCH   8   9
ENDBRANCH   7   8
ENDBRANCH   6   7
ENDBRANCH   5   6
ENDBRANCH   4   5
ENDBRANCH   3   4
ENDBRANCH   2   3
ENDBRANCH   1   2
BRANCH   1  17
ATOM     17  C   UNL     1      15.814  20.364 -17.772  1.00  0.00     0.000 C 
BRANCH  17  18
ATOM     18  C   UNL     1      16.754  21.569 -17.942  1.00  0.00     0.000 C 
BRANCH  18  19
ATOM     19  C   UNL     1      18.200  21.257 -17.517  1.00  0.00     0.000 C 
BRANCH  19  20
ATOM     20  C   UNL     1      18.361  19.851 -16.911  1.00  0.00     0.000 C 
BRANCH  20  21
ATOM     21  C   UNL     1      19.170  19.791 -15.602  1.00  0.00     0.000 C 
BRANCH  21  22
ATOM     22  C   UNL     1      18.568  18.819 -14.572  1.00  0.00    -0.000 C 
BRANCH  22  23
ATOM     23  C   UNL     1      17.131  18.399 -14.915  1.00  0.00    -0.000 C 
BRANCH  23  24
ATOM     24  C   UNL     1      17.029  16.910 -15.289  1.00  0.00    -0.000 C 
BRANCH  24  25
ATOM     25  C   UNL     1      16.405  16.679 -16.677  1.00  0.00    -0.000 C 
BRANCH  25  26
ATOM     26  C   UNL     1      17.407  16.596 -17.845  1.00  0.00    -0.000 C 
BRANCH  26  27
ATOM     27  C   UNL     1      18.695  15.836 -17.480  1.00  0.00    -0.000 C 
BRANCH  27  28
ATOM     28  C   UNL     1      19.956  16.713 -17.591  1.00  0.00    -0.000 C 
BRANCH  28  29
ATOM     29  C   UNL     1      20.905  16.620 -16.382  1.00  0.00    -0.003 C 
ATOM     30  C   UNL     1      21.741  15.340 -16.378  1.00  0.00     0.004 C 
ENDBRANCH  28  29
ENDBRANCH  27  28
ENDBRANCH  26  27
ENDBRANCH  25  26
ENDBRANCH  24  25
ENDBRANCH  23  24
ENDBRANCH  22  23
ENDBRANCH  21  22
ENDBRANCH  20  21
ENDBRANCH  19  20
ENDBRANCH  18  19
ENDBRANCH  17  18
ENDBRANCH   1  17
TORSDOF 26
ENDMDL
MODEL 4
REMARK VINA RESULT:    -4.449      2.126      4.266
REMARK INTER + INTRA:         -13.961
REMARK INTER:                 -10.091
REMARK INTRA:                  -3.870
REMARK UNBOUND:                -2.750
REMARK SMILES CCCCCCCCCCCCCCCCCCCCCCCCCCCC(=O)[O-]
REMARK SMILES IDX 15 1 16 2 17 3 18 4 19 5 20 6 21 7 22 8 23 9 24 10 25 11
REMARK SMILES IDX 26 12 27 13 28 14 29 15 30 16 14 17 13 18 12 19 11 20 10 21
REMARK SMILES IDX 9 22 8 23 7 24 6 25 5 26 4 27 3 28 2 29 1 30
REMARK H PARENT
REMARK Flexibility Score: inf
ROOT
ATOM      1  C   UNL     1      15.252  20.862 -18.049  1.00  0.00     0.000 C 
ENDROOT
BRANCH   1   2
ATOM      2  C   UNL     1      14.451  21.673 -19.079  1.00  0.00     0.000 C 
BRANCH   2   3
ATOM      3  C   UNL     1      12.930  21.640 -18.831  1.00  0.00     0.000 C 
BRANCH   3   4
ATOM      4  C   UNL     1      12.077  22.465 -19.817  1.00  0.00     0.000 C 
BRANCH   4   5
ATOM      5  C   UNL     1      12.885  23.325 -20.813  1.00  0.00     0.000 C 
BRANCH   5   6
ATOM      6  C   UNL     1      12.650  22.961 -22.293  1.00  0.00     0.000 C 
BRANCH   6   7
ATOM      7  C   UNL     1      12.304  21.485 -22.559  1.00  0.00     0.000 C 
BRANCH   7   8
ATOM      8  C   UNL     1      13.423  20.656 -23.222  1.00  0.00     0.000 C 
BRANCH   8   9
ATOM      9  C   UNL     1      13.396  19.156 -22.857  1.00  0.00     0.000 C 
BRANCH   9  10
ATOM     10  C   UNL     1      13.506  18.916 -21.340  1.00  0.00     0.000 C 
BRANCH  10  11
ATOM     11  C   UNL     1      14.935  18.572 -20.887  1.00  0.00     0.000 C 
BRANCH  11  12
ATOM     12  C   UNL     1      15.041  17.384 -19.908  1.00  0.00     0.006 C 
BRANCH  12  13
ATOM     13  C   UNL     1      15.931  16.231 -20.399  1.00  0.00     0.053 C 
BRANCH  13  14
ATOM     14  C   UNL     1      15.224  15.355 -21.388  1.00  0.00     0.041 C 
ATOM     15  O   UNL     1      14.133  14.806 -21.084  1.00  0.00    -0.550 OA
ATOM     16  O   UNL     1      15.784  15.126 -22.640  1.00  0.00    -0.550 OA
ENDBRANCH  13  14
ENDBRANCH  12  13
ENDBRANCH  11  12
ENDBRANCH  10  11
ENDBRANCH   9  10
ENDBRANCH   8   9
ENDBRANCH   7   8
ENDBRANCH   6   7
ENDBRANCH   5   6
ENDBRANCH   4   5
ENDBRANCH   3   4
ENDBRANCH   2   3
ENDBRANCH   1   2
BRANCH   1  17
ATOM     17  C   UNL     1      16.691  21.391 -17.938  1.00  0.00     0.000 C 
BRANCH  17  18
ATOM     18  C   UNL     1      17.636  20.408 -17.229  1.00  0.00     0.000 C 
BRANCH  18  19
ATOM     19  C   UNL     1      17.185  18.944 -17.372  1.00  0.00     0.000 C 
BRANCH  19  20
ATOM     20  C   UNL     1      17.112  18.200 -16.027  1.00  0.00     0.000 C 
BRANCH  20  21
ATOM     21  C   UNL     1      17.180  16.664 -16.124  1.00  0.00     0.000 C 
BRANCH  21  22
ATOM     22  C   UNL     1      17.869  16.177 -17.411  1.00  0.00    -0.000 C 
BRANCH  22  23
ATOM     23  C   UNL     1      19.257  15.572 -17.153  1.00  0.00    -0.000 C 
BRANCH  23  24
ATOM     24  C   UNL     1      20.394  16.571 -17.432  1.00  0.00    -0.000 C 
BRANCH  24  25
ATOM     25  C   UNL     1      21.059  17.098 -16.147  1.00  0.00    -0.000 C 
BRANCH  25  26
ATOM     26  C   UNL     1      20.685  18.541 -15.757  1.00  0.00    -0.000 C 
BRANCH  26  27
ATOM     27  C   UNL     1      20.866  18.825 -14.255  1.00  0.00    -0.000 C 
BRANCH  27  28
ATOM     28  C   UNL     1      19.595  19.392 -13.598  1.00  0.00    -0.000 C 
BRANCH  28  29
ATOM     29  C   UNL     1      19.781  20.768 -12.932  1.00  0.00    -0.003 C 
ATOM     30  C   UNL     1      21.028  21.503 -13.424  1.00  0.00     0.004 C 
ENDBRANCH  28  29
ENDBRANCH  27  28
ENDBRANCH  26  27
ENDBRANCH  25  26
ENDBRANCH  24  25
ENDBRANCH  23  24
ENDBRANCH  22  23
ENDBRANCH  21  22
ENDBRANCH  20  21
ENDBRANCH  19  20
ENDBRANCH  18  19
ENDBRANCH  17  18
ENDBRANCH   1  17
TORSDOF 26
ENDMDL
MODEL 5
REMARK VINA RESULT:    -4.446      1.939      3.078
REMARK INTER + INTRA:         -13.955
REMARK INTER:                 -10.218
REMARK INTRA:                  -3.737
REMARK UNBOUND:                -2.750
REMARK SMILES CCCCCCCCCCCCCCCCCCCCCCCCCCCC(=O)[O-]
REMARK SMILES IDX 15 1 16 2 17 3 18 4 19 5 20 6 21 7 22 8 23 9 24 10 25 11
REMARK SMILES IDX 26 12 27 13 28 14 29 15 30 16 14 17 13 18 12 19 11 20 10 21
REMARK SMILES IDX 9 22 8 23 7 24 6 25 5 26 4 27 3 28 2 29 1 30
REMARK H PARENT
REMARK Flexibility Score: inf
ROOT
ATOM      1  C   UNL     1      11.875  22.298 -20.704  1.00  0.00     0.000 C 
ENDROOT
BRANCH   1   2
ATOM      2  C   UNL     1      12.707  23.111 -21.707  1.00  0.00     0.000 C 
BRANCH   2   3
ATOM      3  C   UNL     1      12.419  22.745 -23.176  1.00  0.00     0.000 C 
BRANCH   3   4
ATOM      4  C   UNL     1      13.549  21.995 -23.911  1.00  0.00     0.000 C 
BRANCH   4   5
ATOM      5  C   UNL     1      13.086  20.783 -24.748  1.00  0.00     0.000 C 
BRANCH   5   6
ATOM      6  C   UNL     1      13.017  19.461 -23.958  1.00  0.00     0.000 C 
BRANCH   6   7
ATOM      7  C   UNL     1      13.815  19.441 -22.642  1.00  0.00     0.000 C 
BRANCH   7   8
ATOM      8  C   UNL     1      13.063  18.860 -21.426  1.00  0.00     0.000 C 
BRANCH   8   9
ATOM      9  C   UNL     1      13.980  18.182 -20.385  1.00  0.00     0.000 C 
BRANCH   9  10
ATOM     10  C   UNL     1      15.464  18.542 -20.583  1.00  0.00     0.000 C 
BRANCH  10  11
ATOM     11  C   UNL     1      16.349  17.316 -20.866  1.00  0.00     0.000 C 
BRANCH  11  12
ATOM     12  C   UNL     1      15.594  16.069 -21.372  1.00  0.00     0.006 C 
BRANCH  12  13
ATOM     13  C   UNL     1      15.690  15.836 -22.887  1.00  0.00     0.053 C 
BRANCH  13  14
ATOM     14  C   UNL     1      14.445  15.211 -23.442  1.00  0.00     0.041 C 
ATOM     15  O   UNL     1      14.440  13.998 -23.777  1.00  0.00    -0.550 OA
ATOM     16  O   UNL     1      13.298  15.977 -23.610  1.00  0.00    -0.550 OA
ENDBRANCH  13  14
ENDBRANCH  12  13
ENDBRANCH  11  12
ENDBRANCH  10  11
ENDBRANCH   9  10
ENDBRANCH   8   9
ENDBRANCH   7   8
ENDBRANCH   6   7
ENDBRANCH   5   6
ENDBRANCH   4   5
ENDBRANCH   3   4
ENDBRANCH   2   3
ENDBRANCH   1   2
BRANCH   1  17
ATOM     17  C   UNL     1      12.364  22.541 -19.267  1.00  0.00     0.000 C 
BRANCH  17  18
ATOM     18  C   UNL     1      13.229  21.390 -18.728  1.00  0.00     0.000 C 
BRANCH  18  19
ATOM     19  C   UNL     1      14.733  21.619 -18.961  1.00  0.00     0.000 C 
BRANCH  19  20
ATOM     20  C   UNL     1      15.606  21.145 -17.786  1.00  0.00     0.000 C 
BRANCH  20  21
ATOM     21  C   UNL     1      17.116  21.072 -18.079  1.00  0.00     0.000 C 
BRANCH  21  22
ATOM     22  C   UNL     1      17.851  20.063 -17.180  1.00  0.00    -0.000 C 
BRANCH  22  23
ATOM     23  C   UNL     1      17.289  18.639 -17.296  1.00  0.00    -0.000 C 
BRANCH  23  24
ATOM     24  C   UNL     1      18.388  17.566 -17.207  1.00  0.00    -0.000 C 
BRANCH  24  25
ATOM     25  C   UNL     1      18.530  16.965 -15.796  1.00  0.00    -0.000 C 
BRANCH  25  26
ATOM     26  C   UNL     1      19.977  16.736 -15.320  1.00  0.00    -0.000 C 
BRANCH  26  27
ATOM     27  C   UNL     1      20.879  17.967 -15.519  1.00  0.00    -0.000 C 
BRANCH  27  28
ATOM     28  C   UNL     1      20.953  18.860 -14.267  1.00  0.00    -0.000 C 
BRANCH  28  29
ATOM     29  C   UNL     1      19.842  19.923 -14.177  1.00  0.00    -0.003 C 
ATOM     30  C   UNL     1      20.086  20.945 -13.067  1.00  0.00     0.004 C 
ENDBRANCH  28  29
ENDBRANCH  27  28
ENDBRANCH  26  27
ENDBRANCH  25  26
ENDBRANCH  24  25
ENDBRANCH  23  24
ENDBRANCH  22  23
ENDBRANCH  21  22
ENDBRANCH  20  21
ENDBRANCH  19  20
ENDBRANCH  18  19
ENDBRANCH  17  18
ENDBRANCH   1  17
TORSDOF 26
ENDMDL
MODEL 6
REMARK VINA RESULT:    -4.423      1.531      2.299
REMARK INTER + INTRA:         -13.895
REMARK INTER:                 -10.209
REMARK INTRA:                  -3.687
REMARK UNBOUND:                -2.750
REMARK SMILES CCCCCCCCCCCCCCCCCCCCCCCCCCCC(=O)[O-]
REMARK SMILES IDX 15 1 16 2 17 3 18 4 19 5 20 6 21 7 22 8 23 9 24 10 25 11
REMARK SMILES IDX 26 12 27 13 28 14 29 15 30 16 14 17 13 18 12 19 11 20 10 21
REMARK SMILES IDX 9 22 8 23 7 24 6 25 5 26 4 27 3 28 2 29 1 30
REMARK H PARENT
REMARK Flexibility Score: inf
ROOT
ATOM      1  C   UNL     1      13.083  22.571 -22.146  1.00  0.00     0.000 C 
ENDROOT
BRANCH   1   2
ATOM      2  C   UNL     1      12.631  23.263 -23.441  1.00  0.00     0.000 C 
BRANCH   2   3
ATOM      3  C   UNL     1      13.296  22.684 -24.705  1.00  0.00     0.000 C 
BRANCH   3   4
ATOM      4  C   UNL     1      12.532  22.914 -26.025  1.00  0.00     0.000 C 
BRANCH   4   5
ATOM      5  C   UNL     1      12.858  21.906 -27.148  1.00  0.00     0.000 C 
BRANCH   5   6
ATOM      6  C   UNL     1      11.964  20.651 -27.146  1.00  0.00     0.000 C 
BRANCH   6   7
ATOM      7  C   UNL     1      12.681  19.333 -26.803  1.00  0.00     0.000 C 
BRANCH   7   8
ATOM      8  C   UNL     1      12.108  18.568 -25.593  1.00  0.00     0.000 C 
BRANCH   8   9
ATOM      9  C   UNL     1      12.018  19.411 -24.301  1.00  0.00     0.000 C 
BRANCH   9  10
ATOM     10  C   UNL     1      13.121  19.054 -23.287  1.00  0.00     0.000 C 
BRANCH  10  11
ATOM     11  C   UNL     1      12.564  18.543 -21.947  1.00  0.00     0.000 C 
BRANCH  11  12
ATOM     12  C   UNL     1      13.604  18.413 -20.816  1.00  0.00     0.006 C 
BRANCH  12  13
ATOM     13  C   UNL     1      15.066  18.507 -21.278  1.00  0.00     0.053 C 
BRANCH  13  14
ATOM     14  C   UNL     1      15.759  17.179 -21.233  1.00  0.00     0.041 C 
ATOM     15  O   UNL     1      15.586  16.342 -22.158  1.00  0.00    -0.550 OA
ATOM     16  O   UNL     1      16.578  16.857 -20.158  1.00  0.00    -0.550 OA
ENDBRANCH  13  14
ENDBRANCH  12  13
ENDBRANCH  11  12
ENDBRANCH  10  11
ENDBRANCH   9  10
ENDBRANCH   8   9
ENDBRANCH   7   8
ENDBRANCH   6   7
ENDBRANCH   5   6
ENDBRANCH   4   5
ENDBRANCH   3   4
ENDBRANCH   2   3
ENDBRANCH   1   2
BRANCH   1  17
ATOM     17  C   UNL     1      11.875  22.237 -21.256  1.00  0.00     0.000 C 
BRANCH  17  18
ATOM     18  C   UNL     1      12.279  21.803 -19.838  1.00  0.00     0.000 C 
BRANCH  18  19
ATOM     19  C   UNL     1      13.798  21.876 -19.606  1.00  0.00     0.000 C 
BRANCH  19  20
ATOM     20  C   UNL     1      14.249  21.153 -18.324  1.00  0.00     0.000 C 
BRANCH  20  21
ATOM     21  C   UNL     1      15.768  21.163 -18.067  1.00  0.00     0.000 C 
BRANCH  21  22
ATOM     22  C   UNL     1      16.392  19.758 -18.124  1.00  0.00    -0.000 C 
BRANCH  22  23
ATOM     23  C   UNL     1      17.003  19.320 -16.784  1.00  0.00    -0.000 C 
BRANCH  23  24
ATOM     24  C   UNL     1      18.501  19.659 -16.684  1.00  0.00    -0.000 C 
BRANCH  24  25
ATOM     25  C   UNL     1      19.157  19.112 -15.403  1.00  0.00    -0.000 C 
BRANCH  25  26
ATOM     26  C   UNL     1      18.200  18.895 -14.215  1.00  0.00    -0.000 C 
BRANCH  26  27
ATOM     27  C   UNL     1      18.338  17.501 -13.577  1.00  0.00    -0.000 C 
BRANCH  27  28
ATOM     28  C   UNL     1      18.079  16.360 -14.577  1.00  0.00    -0.000 C 
BRANCH  28  29
ATOM     29  C   UNL     1      16.594  15.989 -14.749  1.00  0.00    -0.003 C 
ATOM     30  C   UNL     1      16.166  15.914 -16.215  1.00  0.00     0.004 C 
ENDBRANCH  28  29
ENDBRANCH  27  28
ENDBRANCH  26  27
ENDBRANCH  25  26
ENDBRANCH  24  25
ENDBRANCH  23  24
ENDBRANCH  22  23
ENDBRANCH  21  22
ENDBRANCH  20  21
ENDBRANCH  19  20
ENDBRANCH  18  19
ENDBRANCH  17  18
ENDBRANCH   1  17
TORSDOF 26
ENDMDL
MODEL 7
REMARK VINA RESULT:    -4.414      1.665      2.878
REMARK INTER + INTRA:         -13.875
REMARK INTER:                  -9.637
REMARK INTRA:                  -4.237
REMARK UNBOUND:                -2.750
REMARK SMILES CCCCCCCCCCCCCCCCCCCCCCCCCCCC(=O)[O-]
REMARK SMILES IDX 15 1 16 2 17 3 18 4 19 5 20 6 21 7 22 8 23 9 24 10 25 11
REMARK SMILES IDX 26 12 27 13 28 14 29 15 30 16 14 17 13 18 12 19 11 20 10 21
REMARK SMILES IDX 9 22 8 23 7 24 6 25 5 26 4 27 3 28 2 29 1 30
REMARK H PARENT
REMARK Flexibility Score: inf
ROOT
ATOM      1  C   UNL     1      12.036  22.391 -20.636  1.00  0.00     0.000 C 
ENDROOT
BRANCH   1   2
ATOM      2  C   UNL     1      12.958  23.241 -21.524  1.00  0.00     0.000 C 
BRANCH   2   3
ATOM      3  C   UNL     1      12.629  23.131 -23.025  1.00  0.00     0.000 C 
BRANCH   3   4
ATOM      4  C   UNL     1      13.670  22.380 -23.882  1.00  0.00     0.000 C 
BRANCH   4   5
ATOM      5  C   UNL     1      13.072  21.417 -24.932  1.00  0.00     0.000 C 
BRANCH   5   6
ATOM      6  C   UNL     1      12.727  20.020 -24.380  1.00  0.00     0.000 C 
BRANCH   6   7
ATOM      7  C   UNL     1      13.560  19.569 -23.167  1.00  0.00     0.000 C 
BRANCH   7   8
ATOM      8  C   UNL     1      12.745  19.048 -21.966  1.00  0.00     0.000 C 
BRANCH   8   9
ATOM      9  C   UNL     1      13.525  18.084 -21.046  1.00  0.00     0.000 C 
BRANCH   9  10
ATOM     10  C   UNL     1      15.011  17.971 -21.435  1.00  0.00     0.000 C 
BRANCH  10  11
ATOM     11  C   UNL     1      15.949  17.903 -20.217  1.00  0.00     0.000 C 
BRANCH  11  12
ATOM     12  C   UNL     1      15.273  17.484 -18.896  1.00  0.00     0.006 C 
BRANCH  12  13
ATOM     13  C   UNL     1      15.611  16.059 -18.431  1.00  0.00     0.053 C 
BRANCH  13  14
ATOM     14  C   UNL     1      14.381  15.238 -18.186  1.00  0.00     0.041 C 
ATOM     15  O   UNL     1      14.279  14.546 -17.140  1.00  0.00    -0.550 OA
ATOM     16  O   UNL     1      13.358  15.221 -19.126  1.00  0.00    -0.550 OA
ENDBRANCH  13  14
ENDBRANCH  12  13
ENDBRANCH  11  12
ENDBRANCH  10  11
ENDBRANCH   9  10
ENDBRANCH   8   9
ENDBRANCH   7   8
ENDBRANCH   6   7
ENDBRANCH   5   6
ENDBRANCH   4   5
ENDBRANCH   3   4
ENDBRANCH   2   3
ENDBRANCH   1   2
BRANCH   1  17
ATOM     17  C   UNL     1      12.565  22.337 -19.194  1.00  0.00     0.000 C 
BRANCH  17  18
ATOM     18  C   UNL     1      13.352  21.051 -18.893  1.00  0.00     0.000 C 
BRANCH  18  19
ATOM     19  C   UNL     1      14.870  21.233 -19.057  1.00  0.00     0.000 C 
BRANCH  19  20
ATOM     20  C   UNL     1      15.640  21.120 -17.729  1.00  0.00     0.000 C 
BRANCH  20  21
ATOM     21  C   UNL     1      17.070  20.561 -17.847  1.00  0.00     0.000 C 
BRANCH  21  22
ATOM     22  C   UNL     1      17.469  19.684 -16.647  1.00  0.00    -0.000 C 
BRANCH  22  23
ATOM     23  C   UNL     1      18.273  18.440 -17.057  1.00  0.00    -0.000 C 
BRANCH  23  24
ATOM     24  C   UNL     1      18.126  17.289 -16.047  1.00  0.00    -0.000 C 
BRANCH  24  25
ATOM     25  C   UNL     1      17.050  17.559 -14.979  1.00  0.00    -0.000 C 
BRANCH  25  26
ATOM     26  C   UNL     1      17.510  17.375 -13.520  1.00  0.00    -0.000 C 
BRANCH  26  27
ATOM     27  C   UNL     1      19.014  17.636 -13.326  1.00  0.00    -0.000 C 
BRANCH  27  28
ATOM     28  C   UNL     1      19.318  19.084 -12.900  1.00  0.00    -0.000 C 
BRANCH  28  29
ATOM     29  C   UNL     1      19.950  19.953 -14.004  1.00  0.00    -0.003 C 
ATOM     30  C   UNL     1      20.535  21.260 -13.469  1.00  0.00     0.004 C 
ENDBRANCH  28  29
ENDBRANCH  27  28
ENDBRANCH  26  27
ENDBRANCH  25  26
ENDBRANCH  24  25
ENDBRANCH  23  24
ENDBRANCH  22  23
ENDBRANCH  21  22
ENDBRANCH  20  21
ENDBRANCH  19  20
ENDBRANCH  18  19
ENDBRANCH  17  18
ENDBRANCH   1  17
TORSDOF 26
ENDMDL
MODEL 8
REMARK VINA RESULT:    -4.411      2.157      4.769
REMARK INTER + INTRA:         -13.865
REMARK INTER:                  -9.717
REMARK INTRA:                  -4.147
REMARK UNBOUND:                -2.750
REMARK SMILES CCCCCCCCCCCCCCCCCCCCCCCCCCCC(=O)[O-]
REMARK SMILES IDX 15 1 16 2 17 3 18 4 19 5 20 6 21 7 22 8 23 9 24 10 25 11
REMARK SMILES IDX 26 12 27 13 28 14 29 15 30 16 14 17 13 18 12 19 11 20 10 21
REMARK SMILES IDX 9 22 8 23 7 24 6 25 5 26 4 27 3 28 2 29 1 30
REMARK H PARENT
REMARK Flexibility Score: inf
ROOT
ATOM      1  C   UNL     1      15.872  21.613 -18.611  1.00  0.00     0.000 C 
ENDROOT
BRANCH   1   2
ATOM      2  C   UNL     1      14.453  21.141 -18.260  1.00  0.00     0.000 C 
BRANCH   2   3
ATOM      3  C   UNL     1      13.350  21.925 -18.998  1.00  0.00     0.000 C 
BRANCH   3   4
ATOM      4  C   UNL     1      13.824  22.773 -20.197  1.00  0.00     0.000 C 
BRANCH   4   5
ATOM      5  C   UNL     1      12.693  23.291 -21.112  1.00  0.00     0.000 C 
BRANCH   5   6
ATOM      6  C   UNL     1      12.309  22.323 -22.248  1.00  0.00     0.000 C 
BRANCH   6   7
ATOM      7  C   UNL     1      13.494  21.661 -22.974  1.00  0.00     0.000 C 
BRANCH   7   8
ATOM      8  C   UNL     1      13.503  20.119 -22.945  1.00  0.00     0.000 C 
BRANCH   8   9
ATOM      9  C   UNL     1      12.674  19.506 -21.795  1.00  0.00     0.000 C 
BRANCH   9  10
ATOM     10  C   UNL     1      13.530  18.650 -20.843  1.00  0.00     0.000 C 
BRANCH  10  11
ATOM     11  C   UNL     1      15.041  18.820 -21.074  1.00  0.00     0.000 C 
BRANCH  11  12
ATOM     12  C   UNL     1      15.809  17.513 -21.360  1.00  0.00     0.006 C 
BRANCH  12  13
ATOM     13  C   UNL     1      16.611  16.970 -20.168  1.00  0.00     0.053 C 
BRANCH  13  14
ATOM     14  C   UNL     1      15.889  15.866 -19.457  1.00  0.00     0.041 C 
ATOM     15  O   UNL     1      14.998  16.134 -18.609  1.00  0.00    -0.550 OA
ATOM     16  O   UNL     1      16.216  14.540 -19.716  1.00  0.00    -0.550 OA
ENDBRANCH  13  14
ENDBRANCH  12  13
ENDBRANCH  11  12
ENDBRANCH  10  11
ENDBRANCH   9  10
ENDBRANCH   8   9
ENDBRANCH   7   8
ENDBRANCH   6   7
ENDBRANCH   5   6
ENDBRANCH   4   5
ENDBRANCH   3   4
ENDBRANCH   2   3
ENDBRANCH   1   2
BRANCH   1  17
ATOM     17  C   UNL     1      16.925  20.660 -18.022  1.00  0.00     0.000 C 
BRANCH  17  18
ATOM     18  C   UNL     1      16.338  19.298 -17.618  1.00  0.00     0.000 C 
BRANCH  18  19
ATOM     19  C   UNL     1      17.130  18.625 -16.483  1.00  0.00     0.000 C 
BRANCH  19  20
ATOM     20  C   UNL     1      18.507  18.106 -16.934  1.00  0.00     0.000 C 
BRANCH  20  21
ATOM     21  C   UNL     1      19.706  18.653 -16.136  1.00  0.00     0.000 C 
BRANCH  21  22
ATOM     22  C   UNL     1      19.349  19.892 -15.298  1.00  0.00    -0.000 C 
BRANCH  22  23
ATOM     23  C   UNL     1      20.206  20.023 -14.030  1.00  0.00    -0.000 C 
BRANCH  23  24
ATOM     24  C   UNL     1      19.431  19.640 -12.756  1.00  0.00    -0.000 C 
BRANCH  24  25
ATOM     25  C   UNL     1      19.732  18.208 -12.277  1.00  0.00    -0.000 C 
BRANCH  25  26
ATOM     26  C   UNL     1      18.498  17.304 -12.091  1.00  0.00    -0.000 C 
BRANCH  26  27
ATOM     27  C   UNL     1      17.541  17.335 -13.296  1.00  0.00    -0.000 C 
BRANCH  27  28
ATOM     28  C   UNL     1      17.187  15.928 -13.812  1.00  0.00    -0.000 C 
BRANCH  28  29
ATOM     29  C   UNL     1      15.684  15.595 -13.775  1.00  0.00    -0.003 C 
ATOM     30  C   UNL     1      14.921  16.404 -12.726  1.00  0.00     0.004 C 
ENDBRANCH  28  29
ENDBRANCH  27  28
ENDBRANCH  26  27
ENDBRANCH  25  26
ENDBRANCH  24  25
ENDBRANCH  23  24
ENDBRANCH  22  23
ENDBRANCH  21  22
ENDBRANCH  20  21
ENDBRANCH  19  20
ENDBRANCH  18  19
ENDBRANCH  17  18
ENDBRANCH   1  17
TORSDOF 26
ENDMDL
MODEL 9
REMARK VINA RESULT:    -4.351      2.228      4.820
REMARK INTER + INTRA:         -13.714
REMARK INTER:                  -9.476
REMARK INTRA:                  -4.238
REMARK UNBOUND:                -2.750
REMARK SMILES CCCCCCCCCCCCCCCCCCCCCCCCCCCC(=O)[O-]
REMARK SMILES IDX 15 1 16 2 17 3 18 4 19 5 20 6 21 7 22 8 23 9 24 10 25 11
REMARK SMILES IDX 26 12 27 13 28 14 29 15 30 16 14 17 13 18 12 19 11 20 10 21
REMARK SMILES IDX 9 22 8 23 7 24 6 25 5 26 4 27 3 28 2 29 1 30
REMARK H PARENT
REMARK Flexibility Score: inf
ROOT
ATOM      1  C   UNL     1      15.993  21.486 -18.606  1.00  0.00     0.000 C 
ENDROOT
BRANCH   1   2
ATOM      2  C   UNL     1      14.594  20.950 -18.261  1.00  0.00     0.000 C 
BRANCH   2   3
ATOM      3  C   UNL     1      13.457  21.731 -18.948  1.00  0.00     0.000 C 
BRANCH   3   4
ATOM      4  C   UNL     1      13.885  22.645 -20.115  1.00  0.00     0.000 C 
BRANCH   4   5
ATOM      5  C   UNL     1      12.719  23.274 -20.907  1.00  0.00     0.000 C 
BRANCH   5   6
ATOM      6  C   UNL     1      12.323  22.490 -22.173  1.00  0.00     0.000 C 
BRANCH   6   7
ATOM      7  C   UNL     1      13.492  21.849 -22.941  1.00  0.00     0.000 C 
BRANCH   7   8
ATOM      8  C   UNL     1      13.433  20.313 -23.068  1.00  0.00     0.000 C 
BRANCH   8   9
ATOM      9  C   UNL     1      12.595  19.623 -21.969  1.00  0.00     0.000 C 
BRANCH   9  10
ATOM     10  C   UNL     1      13.444  18.706 -21.069  1.00  0.00     0.000 C 
BRANCH  10  11
ATOM     11  C   UNL     1      14.907  18.597 -21.530  1.00  0.00     0.000 C 
BRANCH  11  12
ATOM     12  C   UNL     1      15.897  18.106 -20.453  1.00  0.00     0.006 C 
BRANCH  12  13
ATOM     13  C   UNL     1      15.378  16.945 -19.591  1.00  0.00     0.053 C 
BRANCH  13  14
ATOM     14  C   UNL     1      15.752  15.610 -20.159  1.00  0.00     0.041 C 
ATOM     15  O   UNL     1      16.660  14.924 -19.620  1.00  0.00    -0.550 OA
ATOM     16  O   UNL     1      15.114  15.133 -21.298  1.00  0.00    -0.550 OA
ENDBRANCH  13  14
ENDBRANCH  12  13
ENDBRANCH  11  12
ENDBRANCH  10  11
ENDBRANCH   9  10
ENDBRANCH   8   9
ENDBRANCH   7   8
ENDBRANCH   6   7
ENDBRANCH   5   6
ENDBRANCH   4   5
ENDBRANCH   3   4
ENDBRANCH   2   3
ENDBRANCH   1   2
BRANCH   1  17
ATOM     17  C   UNL     1      17.050  20.899 -17.656  1.00  0.00     0.000 C 
BRANCH  17  18
ATOM     18  C   UNL     1      16.706  19.477 -17.184  1.00  0.00     0.000 C 
BRANCH  18  19
ATOM     19  C   UNL     1      17.597  19.009 -16.020  1.00  0.00     0.000 C 
BRANCH  19  20
ATOM     20  C   UNL     1      19.033  19.558 -16.100  1.00  0.00     0.000 C 
BRANCH  20  21
ATOM     21  C   UNL     1      19.702  19.841 -14.742  1.00  0.00     0.000 C 
BRANCH  21  22
ATOM     22  C   UNL     1      18.973  19.167 -13.566  1.00  0.00    -0.000 C 
BRANCH  22  23
ATOM     23  C   UNL     1      19.918  18.790 -12.414  1.00  0.00    -0.000 C 
BRANCH  23  24
ATOM     24  C   UNL     1      20.490  17.370 -12.567  1.00  0.00    -0.000 C 
BRANCH  24  25
ATOM     25  C   UNL     1      22.022  17.352 -12.724  1.00  0.00    -0.000 C 
BRANCH  25  26
ATOM     26  C   UNL     1      22.551  16.545 -13.926  1.00  0.00    -0.000 C 
BRANCH  26  27
ATOM     27  C   UNL     1      21.923  16.975 -15.263  1.00  0.00    -0.000 C 
BRANCH  27  28
ATOM     28  C   UNL     1      21.229  15.814 -15.997  1.00  0.00    -0.000 C 
BRANCH  28  29
ATOM     29  C   UNL     1      19.691  15.841 -15.923  1.00  0.00    -0.003 C 
ATOM     30  C   UNL     1      19.032  15.959 -17.297  1.00  0.00     0.004 C 
ENDBRANCH  28  29
ENDBRANCH  27  28
ENDBRANCH  26  27
ENDBRANCH  25  26
ENDBRANCH  24  25
ENDBRANCH  23  24
ENDBRANCH  22  23
ENDBRANCH  21  22
ENDBRANCH  20  21
ENDBRANCH  19  20
ENDBRANCH  18  19
ENDBRANCH  17  18
ENDBRANCH   1  17
TORSDOF 26
ENDMDL
