MODEL 1
REMARK VINA RESULT:    -5.809      0.000      0.000
REMARK INTER + INTRA:          -7.336
REMARK INTER:                  -6.998
REMARK INTRA:                  -0.338
REMARK UNBOUND:                -0.338
REMARK SMILES O=c1c(O)c(-c2ccc(O)cc2O)oc2cc(O)cc(O)c12
REMARK SMILES IDX 5 1 3 2 2 3 1 4 22 5 20 6 19 7 17 8 16 9 15 10 14 11 6 12
REMARK SMILES IDX 8 13 7 14 9 15 11 16 12 17 10 18 13 20 4 22 21 24 18 26
REMARK H PARENT 10 19 13 21 4 23 21 25 18 27
REMARK Flexibility Score: inf
ROOT
ATOM      1  C   UNL     1      16.163  -6.796 -31.514  1.00  0.00     0.184 A 
ATOM      2  C   UNL     1      15.581  -5.739 -32.230  1.00  0.00     0.208 A 
ATOM      3  C   UNL     1      16.370  -5.018 -33.141  1.00  0.00     0.238 A 
ATOM      4  O   UNL     1      15.829  -4.106 -33.820  1.00  0.00    -0.285 OA
ATOM      5  C   UNL     1      17.735  -5.355 -33.310  1.00  0.00     0.111 A 
ATOM      6  C   UNL     1      18.638  -4.668 -34.175  1.00  0.00     0.134 A 
ATOM      7  C   UNL     1      19.933  -5.169 -34.360  1.00  0.00     0.093 A 
ATOM      8  C   UNL     1      20.377  -6.292 -33.665  1.00  0.00     0.123 A 
ATOM      9  C   UNL     1      19.522  -6.937 -32.771  1.00  0.00     0.094 A 
ATOM     10  C   UNL     1      18.212  -6.484 -32.592  1.00  0.00     0.146 A 
ATOM     11  O   UNL     1      17.426  -7.132 -31.741  1.00  0.00    -0.451 OA
ENDROOT
BRANCH   1  12
ATOM     12  C   UNL     1      15.393  -7.584 -30.529  1.00  0.00     0.063 A 
ATOM     13  C   UNL     1      14.903  -8.093 -28.202  1.00  0.00     0.047 A 
ATOM     14  C   UNL     1      15.618  -7.369 -29.160  1.00  0.00     0.020 A 
ATOM     15  C   UNL     1      13.944  -9.032 -28.602  1.00  0.00     0.119 A 
ATOM     16  C   UNL     1      13.695  -9.234 -29.963  1.00  0.00     0.093 A 
ATOM     17  C   UNL     1      14.405  -8.507 -30.930  1.00  0.00     0.130 A 
BRANCH  15  18
ATOM     18  O   UNL     1      13.227  -9.762 -27.656  1.00  0.00    -0.508 OA
ATOM     19  H   UNL     1      13.487  -9.757 -26.677  1.00  0.00     0.293 HD
ENDBRANCH  15  18
BRANCH  17  20
ATOM     20  O   UNL     1      14.113  -8.684 -32.284  1.00  0.00    -0.507 OA
ATOM     21  H   UNL     1      13.893  -9.597 -32.664  1.00  0.00     0.293 HD
ENDBRANCH  17  20
ENDBRANCH   1  12
BRANCH   2  22
ATOM     22  O   UNL     1      14.227  -5.439 -32.058  1.00  0.00    -0.502 OA
ATOM     23  H   UNL     1      13.808  -5.325 -31.143  1.00  0.00     0.293 HD
ENDBRANCH   2  22
BRANCH   6  24
ATOM     24  O   UNL     1      18.325  -3.483 -34.849  1.00  0.00    -0.507 OA
ATOM     25  H   UNL     1      18.843  -2.620 -34.765  1.00  0.00     0.293 HD
ENDBRANCH   6  24
BRANCH   8  26
ATOM     26  O   UNL     1      21.677  -6.753 -33.863  1.00  0.00    -0.508 OA
ATOM     27  H   UNL     1      22.290  -6.959 -33.084  1.00  0.00     0.293 HD
ENDBRANCH   8  26
TORSDOF 6
ENDMDL
MODEL 2
REMARK VINA RESULT:    -5.469      1.851      2.658
REMARK INTER + INTRA:          -6.926
REMARK INTER:                  -6.653
REMARK INTRA:                  -0.273
REMARK UNBOUND:                -0.338
REMARK SMILES O=c1c(O)c(-c2ccc(O)cc2O)oc2cc(O)cc(O)c12
REMARK SMILES IDX 5 1 3 2 2 3 1 4 22 5 20 6 19 7 17 8 16 9 15 10 14 11 6 12
REMARK SMILES IDX 8 13 7 14 9 15 11 16 12 17 10 18 13 20 4 22 21 24 18 26
REMARK H PARENT 10 19 13 21 4 23 21 25 18 27
REMARK Flexibility Score: inf
ROOT
ATOM      1  C   UNL     1      15.535  -7.267 -29.758  1.00  0.00     0.184 A 
ATOM      2  C   UNL     1      14.873  -6.032 -29.687  1.00  0.00     0.208 A 
ATOM      3  C   UNL     1      15.089  -5.084 -30.700  1.00  0.00     0.238 A 
ATOM      4  O   UNL     1      14.451  -4.000 -30.659  1.00  0.00    -0.285 OA
ATOM      5  C   UNL     1      15.977  -5.381 -31.763  1.00  0.00     0.111 A 
ATOM      6  C   UNL     1      16.301  -4.482 -32.823  1.00  0.00     0.134 A 
ATOM      7  C   UNL     1      17.091  -4.928 -33.890  1.00  0.00     0.093 A 
ATOM      8  C   UNL     1      17.620  -6.217 -33.904  1.00  0.00     0.123 A 
ATOM      9  C   UNL     1      17.358  -7.086 -32.844  1.00  0.00     0.094 A 
ATOM     10  C   UNL     1      16.544  -6.683 -31.783  1.00  0.00     0.146 A 
ATOM     11  O   UNL     1      16.310  -7.543 -30.799  1.00  0.00    -0.451 OA
ENDROOT
BRANCH   1  12
ATOM     12  C   UNL     1      15.365  -8.301 -28.716  1.00  0.00     0.063 A 
ATOM     13  C   UNL     1      16.325  -9.590 -26.892  1.00  0.00     0.047 A 
ATOM     14  C   UNL     1      16.454  -8.621 -27.890  1.00  0.00     0.020 A 
ATOM     15  C   UNL     1      15.101 -10.241 -26.698  1.00  0.00     0.119 A 
ATOM     16  C   UNL     1      14.004  -9.911 -27.499  1.00  0.00     0.093 A 
ATOM     17  C   UNL     1      14.124  -8.936 -28.500  1.00  0.00     0.130 A 
BRANCH  15  18
ATOM     18  O   UNL     1      14.962 -11.212 -25.707  1.00  0.00    -0.508 OA
ATOM     19  H   UNL     1      15.769 -11.662 -25.291  1.00  0.00     0.293 HD
ENDBRANCH  15  18
BRANCH  17  20
ATOM     20  O   UNL     1      13.008  -8.581 -29.260  1.00  0.00    -0.507 OA
ATOM     21  H   UNL     1      12.750  -9.094 -30.095  1.00  0.00     0.293 HD
ENDBRANCH  17  20
ENDBRANCH   1  12
BRANCH   2  22
ATOM     22  O   UNL     1      13.988  -5.772 -28.637  1.00  0.00    -0.502 OA
ATOM     23  H   UNL     1      12.983  -5.822 -28.748  1.00  0.00     0.293 HD
ENDBRANCH   2  22
BRANCH   6  24
ATOM     24  O   UNL     1      15.900  -3.143 -32.861  1.00  0.00    -0.507 OA
ATOM     25  H   UNL     1      14.954  -2.830 -33.026  1.00  0.00     0.293 HD
ENDBRANCH   6  24
BRANCH   8  26
ATOM     26  O   UNL     1      18.414  -6.622 -34.975  1.00  0.00    -0.508 OA
ATOM     27  H   UNL     1      19.370  -6.929 -34.839  1.00  0.00     0.293 HD
ENDBRANCH   8  26
TORSDOF 6
ENDMDL
MODEL 3
REMARK VINA RESULT:    -5.326      1.456      6.605
REMARK INTER + INTRA:          -6.755
REMARK INTER:                  -6.369
REMARK INTRA:                  -0.386
REMARK UNBOUND:                -0.338
REMARK SMILES O=c1c(O)c(-c2ccc(O)cc2O)oc2cc(O)cc(O)c12
REMARK SMILES IDX 5 1 3 2 2 3 1 4 22 5 20 6 19 7 17 8 16 9 15 10 14 11 6 12
REMARK SMILES IDX 8 13 7 14 9 15 11 16 12 17 10 18 13 20 4 22 21 24 18 26
REMARK H PARENT 10 19 13 21 4 23 21 25 18 27
REMARK Flexibility Score: inf
ROOT
ATOM      1  C   UNL     1      16.632  -7.029 -32.090  1.00  0.00     0.184 A 
ATOM      2  C   UNL     1      15.498  -7.233 -32.890  1.00  0.00     0.208 A 
ATOM      3  C   UNL     1      14.400  -7.923 -32.352  1.00  0.00     0.238 A 
ATOM      4  O   UNL     1      13.366  -8.056 -33.057  1.00  0.00    -0.285 OA
ATOM      5  C   UNL     1      14.460  -8.414 -31.025  1.00  0.00     0.111 A 
ATOM      6  C   UNL     1      13.423  -9.161 -30.390  1.00  0.00     0.134 A 
ATOM      7  C   UNL     1      13.536  -9.485 -29.033  1.00  0.00     0.093 A 
ATOM      8  C   UNL     1      14.675  -9.145 -28.304  1.00  0.00     0.123 A 
ATOM      9  C   UNL     1      15.721  -8.466 -28.929  1.00  0.00     0.094 A 
ATOM     10  C   UNL     1      15.622  -8.097 -30.273  1.00  0.00     0.146 A 
ATOM     11  O   UNL     1      16.635  -7.443 -30.829  1.00  0.00    -0.451 OA
ENDROOT
BRANCH   1  12
ATOM     12  C   UNL     1      17.827  -6.325 -32.600  1.00  0.00     0.063 A 
ATOM     13  C   UNL     1      20.025  -6.443 -33.635  1.00  0.00     0.047 A 
ATOM     14  C   UNL     1      18.883  -7.078 -33.139  1.00  0.00     0.020 A 
ATOM     15  C   UNL     1      20.119  -5.047 -33.611  1.00  0.00     0.119 A 
ATOM     16  C   UNL     1      19.063  -4.288 -33.099  1.00  0.00     0.093 A 
ATOM     17  C   UNL     1      17.911  -4.917 -32.604  1.00  0.00     0.130 A 
BRANCH  15  18
ATOM     18  O   UNL     1      21.254  -4.403 -34.100  1.00  0.00    -0.508 OA
ATOM     19  H   UNL     1      21.186  -3.552 -34.646  1.00  0.00     0.293 HD
ENDBRANCH  15  18
BRANCH  17  20
ATOM     20  O   UNL     1      16.844  -4.146 -32.140  1.00  0.00    -0.507 OA
ATOM     21  H   UNL     1      15.978  -4.070 -32.660  1.00  0.00     0.293 HD
ENDBRANCH  17  20
ENDBRANCH   1  12
BRANCH   2  22
ATOM     22  O   UNL     1      15.459  -6.722 -34.190  1.00  0.00    -0.502 OA
ATOM     23  H   UNL     1      15.201  -5.763 -34.390  1.00  0.00     0.293 HD
ENDBRANCH   2  22
BRANCH   6  24
ATOM     24  O   UNL     1      12.283  -9.631 -31.050  1.00  0.00    -0.507 OA
ATOM     25  H   UNL     1      12.258  -9.927 -32.015  1.00  0.00     0.293 HD
ENDBRANCH   6  24
BRANCH   8  26
ATOM     26  O   UNL     1      14.760  -9.496 -26.958  1.00  0.00    -0.508 OA
ATOM     27  H   UNL     1      15.520  -9.172 -26.373  1.00  0.00     0.293 HD
ENDBRANCH   8  26
TORSDOF 6
ENDMDL
MODEL 4
REMARK VINA RESULT:    -5.284      4.364      5.032
REMARK INTER + INTRA:          -6.703
REMARK INTER:                  -6.276
REMARK INTRA:                  -0.427
REMARK UNBOUND:                -0.338
REMARK SMILES O=c1c(O)c(-c2ccc(O)cc2O)oc2cc(O)cc(O)c12
REMARK SMILES IDX 5 1 3 2 2 3 1 4 22 5 20 6 19 7 17 8 16 9 15 10 14 11 6 12
REMARK SMILES IDX 8 13 7 14 9 15 11 16 12 17 10 18 13 20 4 22 21 24 18 26
REMARK H PARENT 10 19 13 21 4 23 21 25 18 27
REMARK Flexibility Score: inf
ROOT
ATOM      1  C   UNL     1      14.101  -7.881 -30.001  1.00  0.00     0.184 A 
ATOM      2  C   UNL     1      13.532  -6.601 -29.926  1.00  0.00     0.208 A 
ATOM      3  C   UNL     1      12.918  -6.061 -31.067  1.00  0.00     0.238 A 
ATOM      4  O   UNL     1      12.363  -4.935 -30.979  1.00  0.00    -0.285 OA
ATOM      5  C   UNL     1      12.895  -6.805 -32.272  1.00  0.00     0.111 A 
ATOM      6  C   UNL     1      12.335  -6.341 -33.500  1.00  0.00     0.134 A 
ATOM      7  C   UNL     1      12.253  -7.211 -34.594  1.00  0.00     0.093 A 
ATOM      8  C   UNL     1      12.767  -8.505 -34.525  1.00  0.00     0.123 A 
ATOM      9  C   UNL     1      13.370  -8.950 -33.349  1.00  0.00     0.094 A 
ATOM     10  C   UNL     1      13.435  -8.118 -32.228  1.00  0.00     0.146 A 
ATOM     11  O   UNL     1      14.007  -8.582 -31.124  1.00  0.00    -0.451 OA
ENDROOT
BRANCH   1  12
ATOM     12  C   UNL     1      14.777  -8.500 -28.842  1.00  0.00     0.063 A 
ATOM     13  C   UNL     1      16.740  -8.642 -27.413  1.00  0.00     0.047 A 
ATOM     14  C   UNL     1      16.074  -8.081 -28.506  1.00  0.00     0.020 A 
ATOM     15  C   UNL     1      16.110  -9.620 -26.633  1.00  0.00     0.119 A 
ATOM     16  C   UNL     1      14.810 -10.026 -26.945  1.00  0.00     0.093 A 
ATOM     17  C   UNL     1      14.133  -9.463 -28.037  1.00  0.00     0.130 A 
BRANCH  15  18
ATOM     18  O   UNL     1      16.766 -10.188 -25.543  1.00  0.00    -0.508 OA
ATOM     19  H   UNL     1      17.380  -9.641 -24.951  1.00  0.00     0.293 HD
ENDBRANCH  15  18
BRANCH  17  20
ATOM     20  O   UNL     1      12.817  -9.843 -28.309  1.00  0.00    -0.507 OA
ATOM     21  H   UNL     1      12.223 -10.247 -27.595  1.00  0.00     0.293 HD
ENDBRANCH  17  20
ENDBRANCH   1  12
BRANCH   2  22
ATOM     22  O   UNL     1      13.552  -5.896 -28.719  1.00  0.00    -0.502 OA
ATOM     23  H   UNL     1      12.998  -6.173 -27.919  1.00  0.00     0.293 HD
ENDBRANCH   2  22
BRANCH   6  24
ATOM     24  O   UNL     1      11.875  -5.036 -33.705  1.00  0.00    -0.507 OA
ATOM     25  H   UNL     1      11.256  -4.541 -33.081  1.00  0.00     0.293 HD
ENDBRANCH   6  24
BRANCH   8  26
ATOM     26  O   UNL     1      12.681  -9.339 -35.639  1.00  0.00    -0.508 OA
ATOM     27  H   UNL     1      12.583 -10.342 -35.543  1.00  0.00     0.293 HD
ENDBRANCH   8  26
TORSDOF 6
ENDMDL
MODEL 5
REMARK VINA RESULT:    -5.238      1.549      1.564
REMARK INTER + INTRA:          -6.648
REMARK INTER:                  -6.245
REMARK INTRA:                  -0.403
REMARK UNBOUND:                -0.338
REMARK SMILES O=c1c(O)c(-c2ccc(O)cc2O)oc2cc(O)cc(O)c12
REMARK SMILES IDX 5 1 3 2 2 3 1 4 22 5 20 6 19 7 17 8 16 9 15 10 14 11 6 12
REMARK SMILES IDX 8 13 7 14 9 15 11 16 12 17 10 18 13 20 4 22 21 24 18 26
REMARK H PARENT 10 19 13 21 4 23 21 25 18 27
REMARK Flexibility Score: inf
ROOT
ATOM      1  C   UNL     1      15.737  -7.089 -31.864  1.00  0.00     0.184 A 
ATOM      2  C   UNL     1      15.080  -6.863 -33.082  1.00  0.00     0.208 A 
ATOM      3  C   UNL     1      15.844  -6.586 -34.227  1.00  0.00     0.238 A 
ATOM      4  O   UNL     1      15.251  -6.438 -35.328  1.00  0.00    -0.285 OA
ATOM      5  C   UNL     1      17.255  -6.524 -34.133  1.00  0.00     0.111 A 
ATOM      6  C   UNL     1      18.127  -6.213 -35.218  1.00  0.00     0.134 A 
ATOM      7  C   UNL     1      19.513  -6.307 -35.041  1.00  0.00     0.093 A 
ATOM      8  C   UNL     1      20.060  -6.638 -33.802  1.00  0.00     0.123 A 
ATOM      9  C   UNL     1      19.218  -6.886 -32.717  1.00  0.00     0.094 A 
ATOM     10  C   UNL     1      17.830  -6.836 -32.872  1.00  0.00     0.146 A 
ATOM     11  O   UNL     1      17.064  -7.090 -31.818  1.00  0.00    -0.451 OA
ENDROOT
BRANCH   1  12
ATOM     12  C   UNL     1      14.992  -7.369 -30.619  1.00  0.00     0.063 A 
ATOM     13  C   UNL     1      13.759  -6.525 -28.701  1.00  0.00     0.047 A 
ATOM     14  C   UNL     1      14.473  -6.295 -29.880  1.00  0.00     0.020 A 
ATOM     15  C   UNL     1      13.543  -7.834 -28.254  1.00  0.00     0.119 A 
ATOM     16  C   UNL     1      14.035  -8.911 -28.996  1.00  0.00     0.093 A 
ATOM     17  C   UNL     1      14.749  -8.689 -30.183  1.00  0.00     0.130 A 
BRANCH  15  18
ATOM     18  O   UNL     1      12.835  -8.075 -27.078  1.00  0.00    -0.508 OA
ATOM     19  H   UNL     1      11.823  -8.035 -27.052  1.00  0.00     0.293 HD
ENDBRANCH  15  18
BRANCH  17  20
ATOM     20  O   UNL     1      15.193  -9.774 -30.940  1.00  0.00    -0.507 OA
ATOM     21  H   UNL     1      14.637 -10.157 -31.696  1.00  0.00     0.293 HD
ENDBRANCH  17  20
ENDBRANCH   1  12
BRANCH   2  22
ATOM     22  O   UNL     1      13.687  -6.949 -33.151  1.00  0.00    -0.502 OA
ATOM     23  H   UNL     1      13.166  -6.675 -33.976  1.00  0.00     0.293 HD
ENDBRANCH   2  22
BRANCH   6  24
ATOM     24  O   UNL     1      17.688  -5.782 -36.474  1.00  0.00    -0.507 OA
ATOM     25  H   UNL     1      18.092  -6.067 -37.354  1.00  0.00     0.293 HD
ENDBRANCH   6  24
BRANCH   8  26
ATOM     26  O   UNL     1      21.444  -6.707 -33.657  1.00  0.00    -0.508 OA
ATOM     27  H   UNL     1      21.956  -7.555 -33.866  1.00  0.00     0.293 HD
ENDBRANCH   8  26
TORSDOF 6
ENDMDL
MODEL 6
REMARK VINA RESULT:    -5.013      1.766      6.405
REMARK INTER + INTRA:          -6.377
REMARK INTER:                  -6.075
REMARK INTRA:                  -0.302
REMARK UNBOUND:                -0.338
REMARK SMILES O=c1c(O)c(-c2ccc(O)cc2O)oc2cc(O)cc(O)c12
REMARK SMILES IDX 5 1 3 2 2 3 1 4 22 5 20 6 19 7 17 8 16 9 15 10 14 11 6 12
REMARK SMILES IDX 8 13 7 14 9 15 11 16 12 17 10 18 13 20 4 22 21 24 18 26
REMARK H PARENT 10 19 13 21 4 23 21 25 18 27
REMARK Flexibility Score: inf
ROOT
ATOM      1  C   UNL     1      15.939  -6.633 -31.721  1.00  0.00     0.184 A 
ATOM      2  C   UNL     1      14.771  -5.868 -31.586  1.00  0.00     0.208 A 
ATOM      3  C   UNL     1      13.891  -6.150 -30.529  1.00  0.00     0.238 A 
ATOM      4  O   UNL     1      12.871  -5.426 -30.382  1.00  0.00    -0.285 OA
ATOM      5  C   UNL     1      14.186  -7.203 -29.630  1.00  0.00     0.111 A 
ATOM      6  C   UNL     1      13.348  -7.602 -28.546  1.00  0.00     0.134 A 
ATOM      7  C   UNL     1      13.801  -8.572 -27.643  1.00  0.00     0.093 A 
ATOM      8  C   UNL     1      15.032  -9.201 -27.820  1.00  0.00     0.123 A 
ATOM      9  C   UNL     1      15.834  -8.862 -28.909  1.00  0.00     0.094 A 
ATOM     10  C   UNL     1      15.426  -7.872 -29.807  1.00  0.00     0.146 A 
ATOM     11  O   UNL     1      16.223  -7.570 -30.825  1.00  0.00    -0.451 OA
ENDROOT
BRANCH   1  12
ATOM     12  C   UNL     1      16.898  -6.399 -32.821  1.00  0.00     0.063 A 
ATOM     13  C   UNL     1      19.118  -5.705 -33.530  1.00  0.00     0.047 A 
ATOM     14  C   UNL     1      18.185  -5.931 -32.514  1.00  0.00     0.020 A 
ATOM     15  C   UNL     1      18.779  -5.958 -34.864  1.00  0.00     0.119 A 
ATOM     16  C   UNL     1      17.508  -6.448 -35.177  1.00  0.00     0.093 A 
ATOM     17  C   UNL     1      16.568  -6.682 -34.162  1.00  0.00     0.130 A 
BRANCH  15  18
ATOM     18  O   UNL     1      19.700  -5.734 -35.886  1.00  0.00    -0.508 OA
ATOM     19  H   UNL     1      19.547  -5.020 -36.588  1.00  0.00     0.293 HD
ENDBRANCH  15  18
BRANCH  17  20
ATOM     20  O   UNL     1      15.319  -7.217 -34.483  1.00  0.00    -0.507 OA
ATOM     21  H   UNL     1      14.999  -7.281 -35.442  1.00  0.00     0.293 HD
ENDBRANCH  17  20
ENDBRANCH   1  12
BRANCH   2  22
ATOM     22  O   UNL     1      14.512  -4.823 -32.477  1.00  0.00    -0.502 OA
ATOM     23  H   UNL     1      13.687  -4.800 -33.063  1.00  0.00     0.293 HD
ENDBRANCH   2  22
BRANCH   6  24
ATOM     24  O   UNL     1      12.060  -7.102 -28.329  1.00  0.00    -0.507 OA
ATOM     25  H   UNL     1      11.789  -6.533 -27.541  1.00  0.00     0.293 HD
ENDBRANCH   6  24
BRANCH   8  26
ATOM     26  O   UNL     1      15.444 -10.173 -26.910  1.00  0.00    -0.508 OA
ATOM     27  H   UNL     1      16.426 -10.353 -26.735  1.00  0.00     0.293 HD
ENDBRANCH   8  26
TORSDOF 6
ENDMDL
MODEL 7
REMARK VINA RESULT:    -4.917      1.538      6.518
REMARK INTER + INTRA:          -6.261
REMARK INTER:                  -5.852
REMARK INTRA:                  -0.409
REMARK UNBOUND:                -0.338
REMARK SMILES O=c1c(O)c(-c2ccc(O)cc2O)oc2cc(O)cc(O)c12
REMARK SMILES IDX 5 1 3 2 2 3 1 4 22 5 20 6 19 7 17 8 16 9 15 10 14 11 6 12
REMARK SMILES IDX 8 13 7 14 9 15 11 16 12 17 10 18 13 20 4 22 21 24 18 26
REMARK H PARENT 10 19 13 21 4 23 21 25 18 27
REMARK Flexibility Score: inf
ROOT
ATOM      1  C   UNL     1      16.716  -6.650 -32.338  1.00  0.00     0.184 A 
ATOM      2  C   UNL     1      15.570  -6.916 -33.101  1.00  0.00     0.208 A 
ATOM      3  C   UNL     1      14.528  -7.663 -32.528  1.00  0.00     0.238 A 
ATOM      4  O   UNL     1      13.480  -7.852 -33.200  1.00  0.00    -0.285 OA
ATOM      5  C   UNL     1      14.656  -8.147 -31.204  1.00  0.00     0.111 A 
ATOM      6  C   UNL     1      13.681  -8.946 -30.535  1.00  0.00     0.134 A 
ATOM      7  C   UNL     1      13.855  -9.260 -29.182  1.00  0.00     0.093 A 
ATOM      8  C   UNL     1      14.996  -8.857 -28.490  1.00  0.00     0.123 A 
ATOM      9  C   UNL     1      15.984  -8.125 -29.149  1.00  0.00     0.094 A 
ATOM     10  C   UNL     1      15.823  -7.766 -30.489  1.00  0.00     0.146 A 
ATOM     11  O   UNL     1      16.781  -7.059 -31.077  1.00  0.00    -0.451 OA
ENDROOT
BRANCH   1  12
ATOM     12  C   UNL     1      17.855  -5.884 -32.886  1.00  0.00     0.063 A 
ATOM     13  C   UNL     1      19.015  -3.759 -33.110  1.00  0.00     0.047 A 
ATOM     14  C   UNL     1      17.948  -4.511 -32.611  1.00  0.00     0.020 A 
ATOM     15  C   UNL     1      20.010  -4.375 -33.879  1.00  0.00     0.119 A 
ATOM     16  C   UNL     1      19.939  -5.746 -34.138  1.00  0.00     0.093 A 
ATOM     17  C   UNL     1      18.873  -6.509 -33.636  1.00  0.00     0.130 A 
BRANCH  15  18
ATOM     18  O   UNL     1      21.077  -3.634 -34.384  1.00  0.00    -0.508 OA
ATOM     19  H   UNL     1      21.010  -2.631 -34.515  1.00  0.00     0.293 HD
ENDBRANCH  15  18
BRANCH  17  20
ATOM     20  O   UNL     1      18.839  -7.886 -33.862  1.00  0.00    -0.507 OA
ATOM     21  H   UNL     1      19.319  -8.307 -34.648  1.00  0.00     0.293 HD
ENDBRANCH  17  20
ENDBRANCH   1  12
BRANCH   2  22
ATOM     22  O   UNL     1      15.462  -6.411 -34.400  1.00  0.00    -0.502 OA
ATOM     23  H   UNL     1      16.079  -5.692 -34.757  1.00  0.00     0.293 HD
ENDBRANCH   2  22
BRANCH   6  24
ATOM     24  O   UNL     1      12.548  -9.479 -31.158  1.00  0.00    -0.507 OA
ATOM     25  H   UNL     1      11.630  -9.524 -30.740  1.00  0.00     0.293 HD
ENDBRANCH   6  24
BRANCH   8  26
ATOM     26  O   UNL     1      15.142  -9.201 -27.147  1.00  0.00    -0.508 OA
ATOM     27  H   UNL     1      15.679  -8.626 -26.509  1.00  0.00     0.293 HD
ENDBRANCH   8  26
TORSDOF 6
ENDMDL
MODEL 8
REMARK VINA RESULT:    -4.742      4.415      5.374
REMARK INTER + INTRA:          -6.051
REMARK INTER:                  -5.751
REMARK INTRA:                  -0.300
REMARK UNBOUND:                -0.338
REMARK SMILES O=c1c(O)c(-c2ccc(O)cc2O)oc2cc(O)cc(O)c12
REMARK SMILES IDX 5 1 3 2 2 3 1 4 22 5 20 6 19 7 17 8 16 9 15 10 14 11 6 12
REMARK SMILES IDX 8 13 7 14 9 15 11 16 12 17 10 18 13 20 4 22 21 24 18 26
REMARK H PARENT 10 19 13 21 4 23 21 25 18 27
REMARK Flexibility Score: inf
ROOT
ATOM      1  C   UNL     1      14.236  -7.995 -29.995  1.00  0.00     0.184 A 
ATOM      2  C   UNL     1      14.071  -8.711 -31.189  1.00  0.00     0.208 A 
ATOM      3  C   UNL     1      13.448  -8.084 -32.280  1.00  0.00     0.238 A 
ATOM      4  O   UNL     1      13.351  -8.713 -33.365  1.00  0.00    -0.285 OA
ATOM      5  C   UNL     1      12.984  -6.751 -32.153  1.00  0.00     0.111 A 
ATOM      6  C   UNL     1      12.304  -6.029 -33.179  1.00  0.00     0.134 A 
ATOM      7  C   UNL     1      12.005  -4.674 -32.988  1.00  0.00     0.093 A 
ATOM      8  C   UNL     1      12.305  -4.033 -31.788  1.00  0.00     0.123 A 
ATOM      9  C   UNL     1      12.917  -4.744 -30.755  1.00  0.00     0.094 A 
ATOM     10  C   UNL     1      13.260  -6.088 -30.928  1.00  0.00     0.146 A 
ATOM     11  O   UNL     1      13.851  -6.726 -29.926  1.00  0.00    -0.451 OA
ENDROOT
BRANCH   1  12
ATOM     12  C   UNL     1      14.869  -8.602 -28.805  1.00  0.00     0.063 A 
ATOM     13  C   UNL     1      16.766  -8.711 -27.288  1.00  0.00     0.047 A 
ATOM     14  C   UNL     1      16.142  -8.161 -28.411  1.00  0.00     0.020 A 
ATOM     15  C   UNL     1      16.118  -9.698 -26.537  1.00  0.00     0.119 A 
ATOM     16  C   UNL     1      14.839 -10.125 -26.907  1.00  0.00     0.093 A 
ATOM     17  C   UNL     1      14.204  -9.575 -28.030  1.00  0.00     0.130 A 
BRANCH  15  18
ATOM     18  O   UNL     1      16.731 -10.255 -25.416  1.00  0.00    -0.508 OA
ATOM     19  H   UNL     1      16.370 -11.094 -24.977  1.00  0.00     0.293 HD
ENDBRANCH  15  18
BRANCH  17  20
ATOM     20  O   UNL     1      12.909  -9.976 -28.360  1.00  0.00    -0.507 OA
ATOM     21  H   UNL     1      12.251  -9.340 -28.795  1.00  0.00     0.293 HD
ENDBRANCH  17  20
ENDBRANCH   1  12
BRANCH   2  22
ATOM     22  O   UNL     1      14.554 -10.018 -31.293  1.00  0.00    -0.502 OA
ATOM     23  H   UNL     1      14.880 -10.410 -32.168  1.00  0.00     0.293 HD
ENDBRANCH   2  22
BRANCH   6  24
ATOM     24  O   UNL     1      11.876  -6.599 -34.382  1.00  0.00    -0.507 OA
ATOM     25  H   UNL     1      11.028  -7.135 -34.495  1.00  0.00     0.293 HD
ENDBRANCH   6  24
BRANCH   8  26
ATOM     26  O   UNL     1      11.980  -2.688 -31.628  1.00  0.00    -0.508 OA
ATOM     27  H   UNL     1      11.550  -2.154 -32.375  1.00  0.00     0.293 HD
ENDBRANCH   8  26
TORSDOF 6
ENDMDL
MODEL 9
REMARK VINA RESULT:    -3.809      4.747      8.180
REMARK INTER + INTRA:          -4.927
REMARK INTER:                  -4.500
REMARK INTRA:                  -0.427
REMARK UNBOUND:                -0.338
REMARK SMILES O=c1c(O)c(-c2ccc(O)cc2O)oc2cc(O)cc(O)c12
REMARK SMILES IDX 5 1 3 2 2 3 1 4 22 5 20 6 19 7 17 8 16 9 15 10 14 11 6 12
REMARK SMILES IDX 8 13 7 14 9 15 11 16 12 17 10 18 13 20 4 22 21 24 18 26
REMARK H PARENT 10 19 13 21 4 23 21 25 18 27
REMARK Flexibility Score: inf
ROOT
ATOM      1  C   UNL     1      22.630  -4.294 -35.139  1.00  0.00     0.184 A 
ATOM      2  C   UNL     1      22.952  -4.441 -36.496  1.00  0.00     0.208 A 
ATOM      3  C   UNL     1      24.267  -4.185 -36.916  1.00  0.00     0.238 A 
ATOM      4  O   UNL     1      24.563  -4.369 -38.125  1.00  0.00    -0.285 OA
ATOM      5  C   UNL     1      25.238  -3.770 -35.971  1.00  0.00     0.111 A 
ATOM      6  C   UNL     1      26.591  -3.446 -36.290  1.00  0.00     0.134 A 
ATOM      7  C   UNL     1      27.497  -3.173 -35.258  1.00  0.00     0.093 A 
ATOM      8  C   UNL     1      27.087  -3.150 -33.926  1.00  0.00     0.123 A 
ATOM      9  C   UNL     1      25.753  -3.408 -33.607  1.00  0.00     0.094 A 
ATOM     10  C   UNL     1      24.833  -3.719 -34.611  1.00  0.00     0.146 A 
ATOM     11  O   UNL     1      23.575  -3.969 -34.266  1.00  0.00    -0.451 OA
ENDROOT
BRANCH   1  12
ATOM     12  C   UNL     1      21.261  -4.532 -34.634  1.00  0.00     0.063 A 
ATOM     13  C   UNL     1      18.975  -3.745 -34.381  1.00  0.00     0.047 A 
ATOM     14  C   UNL     1      20.280  -3.550 -34.840  1.00  0.00     0.020 A 
ATOM     15  C   UNL     1      18.632  -4.932 -33.722  1.00  0.00     0.119 A 
ATOM     16  C   UNL     1      19.596  -5.926 -33.534  1.00  0.00     0.093 A 
ATOM     17  C   UNL     1      20.907  -5.739 -33.997  1.00  0.00     0.130 A 
BRANCH  15  18
ATOM     18  O   UNL     1      17.334  -5.136 -33.257  1.00  0.00    -0.508 OA
ATOM     19  H   UNL     1      16.541  -4.666 -33.678  1.00  0.00     0.293 HD
ENDBRANCH  15  18
BRANCH  17  20
ATOM     20  O   UNL     1      21.848  -6.759 -33.845  1.00  0.00    -0.507 OA
ATOM     21  H   UNL     1      22.243  -7.241 -34.644  1.00  0.00     0.293 HD
ENDBRANCH  17  20
ENDBRANCH   1  12
BRANCH   2  22
ATOM     22  O   UNL     1      21.979  -4.868 -37.403  1.00  0.00    -0.502 OA
ATOM     23  H   UNL     1      21.852  -5.844 -37.644  1.00  0.00     0.293 HD
ENDBRANCH   2  22
BRANCH   6  24
ATOM     24  O   UNL     1      27.085  -3.350 -37.595  1.00  0.00    -0.507 OA
ATOM     25  H   UNL     1      26.536  -3.085 -38.399  1.00  0.00     0.293 HD
ENDBRANCH   6  24
BRANCH   8  26
ATOM     26  O   UNL     1      28.013  -2.859 -32.926  1.00  0.00    -0.508 OA
ATOM     27  H   UNL     1      28.365  -3.578 -32.305  1.00  0.00     0.293 HD
ENDBRANCH   8  26
TORSDOF 6
ENDMDL
