MODEL 1
REMARK VINA RESULT:    -4.144      0.000      0.000
REMARK INTER + INTRA:          -6.349
REMARK INTER:                  -6.325
REMARK INTRA:                  -0.024
REMARK UNBOUND:                -0.024
REMARK SMILES CC1=CCC[C@@H](C)C(=O)C[C@@H](C(C)C)C(=O)C1
REMARK SMILES IDX 8 1 9 2 6 3 7 4 5 5 4 6 3 7 2 8 1 9 10 11 11 12 15 13 16 14
REMARK SMILES IDX 17 15 12 17 13 18 14 19
REMARK H PARENT
REMARK Flexibility Score: 70.00
ROOT
ATOM      1  C   UNL     1       1.645 -24.438  22.748  1.00  0.00     0.136 C 
ATOM      2  O   UNL     1       1.203 -24.525  21.612  1.00  0.00    -0.299 OA
ENDROOT
BRANCH   1   3
ATOM      3  C   UNL     1       0.747 -23.937  23.866  1.00  0.00     0.053 C 
ATOM      4  C   UNL     1      -0.640 -23.574  23.320  1.00  0.00     0.016 C 
BRANCH   3   5
ATOM      5  C   UNL     1       1.397 -22.727  24.572  1.00  0.00     0.015 C 
BRANCH   5   6
ATOM      6  C   UNL     1       1.665 -23.001  26.066  1.00  0.00     0.028 C 
BRANCH   6   7
ATOM      7  C   UNL     1       2.948 -22.346  26.510  1.00  0.00    -0.028 C 
ATOM      8  C   UNL     1       4.116 -23.001  26.714  1.00  0.00    -0.070 CG0
ATOM      9  C   UNL     1       5.331 -22.184  27.076  1.00  0.00     0.039 C 
ATOM     10  G   UNL     1       4.242 -24.513  26.617  1.00  0.00     0.000 G0
ENDBRANCH   6   7
ENDBRANCH   5   6
ENDBRANCH   3   5
ENDBRANCH   1   3
BRANCH   1  11
ATOM     11  C   UNL     1       3.082 -24.831  23.017  1.00  0.00     0.087 C 
BRANCH  11  12
ATOM     12  C   UNL     1       3.329 -25.570  24.371  1.00  0.00     0.066 C 
BRANCH  12  13
ATOM     13  C   UNL     1       4.469 -24.980  25.195  1.00  0.00     0.140 C 
ATOM     14  O   UNL     1       5.603 -24.947  24.739  1.00  0.00    -0.299 OA
BRANCH  13  15
ATOM     15  C   UNL     1       4.235 -24.515  26.614  1.00  0.00     0.106 CG0
ATOM     16  G   UNL     1       4.112 -23.003  26.715  1.00  0.00     0.000 G0
ENDBRANCH  13  15
ENDBRANCH  12  13
BRANCH  12  17
ATOM     17  C   UNL     1       3.435 -27.126  24.264  1.00  0.00    -0.006 C 
ATOM     18  C   UNL     1       2.298 -27.826  25.029  1.00  0.00     0.008 C 
ATOM     19  C   UNL     1       3.499 -27.662  22.824  1.00  0.00     0.008 C 
ENDBRANCH  12  17
ENDBRANCH  11  12
ENDBRANCH   1  11
TORSDOF 1
ENDMDL
MODEL 2
REMARK VINA RESULT:    -4.126     10.266     11.442
REMARK INTER + INTRA:          -6.321
REMARK INTER:                  -6.071
REMARK INTRA:                  -0.250
REMARK UNBOUND:                -0.024
REMARK SMILES CC1=CCC[C@@H](C)C(=O)C[C@@H](C(C)C)C(=O)C1
REMARK SMILES IDX 8 1 9 2 6 3 7 4 5 5 4 6 3 7 2 8 1 9 10 11 11 12 15 13 16 14
REMARK SMILES IDX 17 15 12 17 13 18 14 19
REMARK H PARENT
REMARK Flexibility Score: 70.00
ROOT
ATOM      1  C   UNL     1       8.743 -19.140  19.059  1.00  0.00     0.136 C 
ATOM      2  O   UNL     1       7.625 -19.634  19.061  1.00  0.00    -0.299 OA
ENDROOT
BRANCH   1   3
ATOM      3  C   UNL     1       8.948 -17.755  18.469  1.00  0.00     0.053 C 
ATOM      4  C   UNL     1       7.758 -17.365  17.584  1.00  0.00     0.016 C 
BRANCH   3   5
ATOM      5  C   UNL     1      10.270 -17.705  17.672  1.00  0.00     0.015 C 
BRANCH   5   6
ATOM      6  C   UNL     1      11.263 -16.680  18.256  1.00  0.00     0.028 C 
BRANCH   6   7
ATOM      7  C   UNL     1      12.679 -17.187  18.154  1.00  0.00    -0.028 C 
ATOM      8  C   UNL     1      13.360 -17.777  19.166  1.00  0.00    -0.070 CG0
ATOM      9  C   UNL     1      14.742 -18.305  18.874  1.00  0.00     0.039 C 
ATOM     10  G   UNL     1      12.800 -17.905  20.573  1.00  0.00     0.000 G0
ENDBRANCH   6   7
ENDBRANCH   5   6
ENDBRANCH   3   5
ENDBRANCH   1   3
BRANCH   1  11
ATOM     11  C   UNL     1       9.900 -19.919  19.645  1.00  0.00     0.087 C 
BRANCH  11  12
ATOM     12  C   UNL     1      10.570 -19.276  20.900  1.00  0.00     0.066 C 
BRANCH  12  13
ATOM     13  C   UNL     1      12.094 -19.227  20.829  1.00  0.00     0.140 C 
ATOM     14  O   UNL     1      12.750 -20.236  21.040  1.00  0.00    -0.299 OA
BRANCH  13  15
ATOM     15  C   UNL     1      12.813 -17.920  20.587  1.00  0.00     0.106 CG0
ATOM     16  G   UNL     1      13.340 -17.803  19.165  1.00  0.00     0.000 G0
ENDBRANCH  13  15
ENDBRANCH  12  13
BRANCH  12  17
ATOM     17  C   UNL     1      10.072 -19.833  22.274  1.00  0.00    -0.006 C 
ATOM     18  C   UNL     1       9.251 -18.786  23.046  1.00  0.00     0.008 C 
ATOM     19  C   UNL     1       9.279 -21.147  22.177  1.00  0.00     0.008 C 
ENDBRANCH  12  17
ENDBRANCH  11  12
ENDBRANCH   1  11
TORSDOF 1
ENDMDL
MODEL 3
REMARK VINA RESULT:    -4.114      2.008      4.091
REMARK INTER + INTRA:          -6.302
REMARK INTER:                  -5.989
REMARK INTRA:                  -0.313
REMARK UNBOUND:                -0.024
REMARK SMILES CC1=CCC[C@@H](C)C(=O)C[C@@H](C(C)C)C(=O)C1
REMARK SMILES IDX 8 1 9 2 6 3 7 4 5 5 4 6 3 7 2 8 1 9 10 11 11 12 15 13 16 14
REMARK SMILES IDX 17 15 12 17 13 18 14 19
REMARK H PARENT
REMARK Flexibility Score: 70.00
ROOT
ATOM      1  C   UNL     1       1.105 -22.791  25.093  1.00  0.00     0.136 C 
ATOM      2  O   UNL     1       1.638 -21.699  24.964  1.00  0.00    -0.299 OA
ENDROOT
BRANCH   1   3
ATOM      3  C   UNL     1       0.128 -23.277  24.035  1.00  0.00     0.053 C 
ATOM      4  C   UNL     1      -0.746 -24.409  24.590  1.00  0.00     0.016 C 
BRANCH   3   5
ATOM      5  C   UNL     1       0.892 -23.737  22.774  1.00  0.00     0.015 C 
BRANCH   5   6
ATOM      6  C   UNL     1       1.116 -25.262  22.754  1.00  0.00     0.028 C 
BRANCH   6   7
ATOM      7  C   UNL     1       2.588 -25.589  22.800  1.00  0.00    -0.028 C 
ATOM      8  C   UNL     1       3.222 -26.134  23.865  1.00  0.00    -0.070 CG0
ATOM      9  C   UNL     1       4.683 -26.477  23.718  1.00  0.00     0.039 C 
ATOM     10  G   UNL     1       2.532 -26.387  25.196  1.00  0.00     0.000 G0
ENDBRANCH   6   7
ENDBRANCH   5   6
ENDBRANCH   3   5
ENDBRANCH   1   3
BRANCH   1  11
ATOM     11  C   UNL     1       1.428 -23.637  26.306  1.00  0.00     0.087 C 
BRANCH  11  12
ATOM     12  C   UNL     1       2.920 -24.081  26.430  1.00  0.00     0.066 C 
BRANCH  12  13
ATOM     13  C   UNL     1       3.123 -25.591  26.343  1.00  0.00     0.140 C 
ATOM     14  O   UNL     1       3.845 -26.160  27.149  1.00  0.00    -0.299 OA
BRANCH  13  15
ATOM     15  C   UNL     1       2.512 -26.387  25.213  1.00  0.00     0.106 CG0
ATOM     16  G   UNL     1       3.205 -26.131  23.884  1.00  0.00     0.000 G0
ENDBRANCH  13  15
ENDBRANCH  12  13
BRANCH  12  17
ATOM     17  C   UNL     1       3.695 -23.461  27.639  1.00  0.00    -0.006 C 
ATOM     18  C   UNL     1       4.983 -22.753  27.183  1.00  0.00     0.008 C 
ATOM     19  C   UNL     1       2.859 -22.508  28.509  1.00  0.00     0.008 C 
ENDBRANCH  12  17
ENDBRANCH  11  12
ENDBRANCH   1  11
TORSDOF 1
ENDMDL
MODEL 4
REMARK VINA RESULT:    -4.046     10.503     11.885
REMARK INTER + INTRA:          -6.199
REMARK INTER:                  -6.000
REMARK INTRA:                  -0.200
REMARK UNBOUND:                -0.024
REMARK SMILES CC1=CCC[C@@H](C)C(=O)C[C@@H](C(C)C)C(=O)C1
REMARK SMILES IDX 8 1 9 2 6 3 7 4 5 5 4 6 3 7 2 8 1 9 10 11 11 12 15 13 16 14
REMARK SMILES IDX 17 15 12 17 13 18 14 19
REMARK H PARENT
REMARK Flexibility Score: 70.00
ROOT
ATOM      1  C   UNL     1       8.287 -19.248  19.755  1.00  0.00     0.136 C 
ATOM      2  O   UNL     1       7.794 -20.095  19.025  1.00  0.00    -0.299 OA
ENDROOT
BRANCH   1   3
ATOM      3  C   UNL     1       9.265 -19.671  20.838  1.00  0.00     0.053 C 
ATOM      4  C   UNL     1       9.263 -18.658  21.990  1.00  0.00     0.016 C 
BRANCH   3   5
ATOM      5  C   UNL     1      10.683 -19.830  20.245  1.00  0.00     0.015 C 
BRANCH   5   6
ATOM      6  C   UNL     1      11.667 -18.783  20.806  1.00  0.00     0.028 C 
BRANCH   6   7
ATOM      7  C   UNL     1      12.236 -17.934  19.697  1.00  0.00    -0.028 C 
ATOM      8  C   UNL     1      11.871 -16.655  19.443  1.00  0.00    -0.070 CG0
ATOM      9  C   UNL     1      12.598 -15.916  18.348  1.00  0.00     0.039 C 
ATOM     10  G   UNL     1      10.754 -15.950  20.197  1.00  0.00     0.000 G0
ENDBRANCH   6   7
ENDBRANCH   5   6
ENDBRANCH   3   5
ENDBRANCH   1   3
BRANCH   1  11
ATOM     11  C   UNL     1       7.913 -17.794  19.564  1.00  0.00     0.087 C 
BRANCH  11  12
ATOM     12  C   UNL     1       8.879 -16.970  18.656  1.00  0.00     0.066 C 
BRANCH  12  13
ATOM     13  C   UNL     1       9.511 -15.771  19.357  1.00  0.00     0.140 C 
ATOM     14  O   UNL     1       9.049 -14.651  19.193  1.00  0.00    -0.299 OA
BRANCH  13  15
ATOM     15  C   UNL     1      10.764 -15.933  20.186  1.00  0.00     0.106 CG0
ATOM     16  G   UNL     1      11.871 -16.649  19.427  1.00  0.00     0.000 G0
ENDBRANCH  13  15
ENDBRANCH  12  13
BRANCH  12  17
ATOM     17  C   UNL     1       8.301 -16.584  17.255  1.00  0.00    -0.006 C 
ATOM     18  C   UNL     1       9.404 -16.522  16.184  1.00  0.00     0.008 C 
ATOM     19  C   UNL     1       7.155 -17.487  16.770  1.00  0.00     0.008 C 
ENDBRANCH  12  17
ENDBRANCH  11  12
ENDBRANCH   1  11
TORSDOF 1
ENDMDL
MODEL 5
REMARK VINA RESULT:    -4.005      1.872      3.510
REMARK INTER + INTRA:          -6.137
REMARK INTER:                  -6.122
REMARK INTRA:                  -0.015
REMARK UNBOUND:                -0.024
REMARK SMILES CC1=CCC[C@@H](C)C(=O)C[C@@H](C(C)C)C(=O)C1
REMARK SMILES IDX 8 1 9 2 6 3 7 4 5 5 4 6 3 7 2 8 1 9 10 11 11 12 15 13 16 14
REMARK SMILES IDX 17 15 12 17 13 18 14 19
REMARK H PARENT
REMARK Flexibility Score: 70.00
ROOT
ATOM      1  C   UNL     1       2.871 -25.243  22.943  1.00  0.00     0.136 C 
ATOM      2  O   UNL     1       2.378 -24.385  22.227  1.00  0.00    -0.299 OA
ENDROOT
BRANCH   1   3
ATOM      3  C   UNL     1       4.314 -25.665  22.722  1.00  0.00     0.053 C 
ATOM      4  C   UNL     1       4.502 -27.145  23.076  1.00  0.00     0.016 C 
BRANCH   3   5
ATOM      5  C   UNL     1       5.264 -24.773  23.552  1.00  0.00     0.015 C 
BRANCH   5   6
ATOM      6  C   UNL     1       5.303 -25.190  25.036  1.00  0.00     0.028 C 
BRANCH   6   7
ATOM      7  C   UNL     1       4.936 -24.031  25.929  1.00  0.00    -0.028 C 
ATOM      8  C   UNL     1       3.853 -23.998  26.740  1.00  0.00    -0.070 CG0
ATOM      9  C   UNL     1       3.675 -22.795  27.633  1.00  0.00     0.039 C 
ATOM     10  G   UNL     1       2.809 -25.103  26.769  1.00  0.00     0.000 G0
ENDBRANCH   6   7
ENDBRANCH   5   6
ENDBRANCH   3   5
ENDBRANCH   1   3
BRANCH   1  11
ATOM     11  C   UNL     1       2.034 -25.869  24.038  1.00  0.00     0.087 C 
BRANCH  11  12
ATOM     12  C   UNL     1       1.083 -24.888  24.794  1.00  0.00     0.066 C 
BRANCH  12  13
ATOM     13  C   UNL     1       1.457 -24.674  26.257  1.00  0.00     0.140 C 
ATOM     14  O   UNL     1       0.695 -24.076  27.004  1.00  0.00    -0.299 OA
BRANCH  13  15
ATOM     15  C   UNL     1       2.805 -25.112  26.782  1.00  0.00     0.106 CG0
ATOM     16  G   UNL     1       3.833 -23.992  26.743  1.00  0.00     0.000 G0
ENDBRANCH  13  15
ENDBRANCH  12  13
BRANCH  12  17
ATOM     17  C   UNL     1      -0.443 -25.184  24.623  1.00  0.00    -0.006 C 
ATOM     18  C   UNL     1      -1.217 -23.929  24.182  1.00  0.00     0.008 C 
ATOM     19  C   UNL     1      -0.762 -26.351  23.675  1.00  0.00     0.008 C 
ENDBRANCH  12  17
ENDBRANCH  11  12
ENDBRANCH   1  11
TORSDOF 1
ENDMDL
MODEL 6
REMARK VINA RESULT:    -4.003      1.897      2.689
REMARK INTER + INTRA:          -6.133
REMARK INTER:                  -5.976
REMARK INTRA:                  -0.157
REMARK UNBOUND:                -0.024
REMARK SMILES CC1=CCC[C@@H](C)C(=O)C[C@@H](C(C)C)C(=O)C1
REMARK SMILES IDX 8 1 9 2 6 3 7 4 5 5 4 6 3 7 2 8 1 9 10 11 11 12 15 13 16 14
REMARK SMILES IDX 17 15 12 17 13 18 14 19
REMARK H PARENT
REMARK Flexibility Score: 70.00
ROOT
ATOM      1  C   UNL     1       1.726 -24.519  23.094  1.00  0.00     0.136 C 
ATOM      2  O   UNL     1       1.711 -24.369  21.881  1.00  0.00    -0.299 OA
ENDROOT
BRANCH   1   3
ATOM      3  C   UNL     1       0.537 -25.167  23.783  1.00  0.00     0.053 C 
ATOM      4  C   UNL     1      -0.075 -26.254  22.891  1.00  0.00     0.016 C 
BRANCH   3   5
ATOM      5  C   UNL     1      -0.514 -24.098  24.152  1.00  0.00     0.015 C 
BRANCH   5   6
ATOM      6  C   UNL     1      -0.305 -23.544  25.576  1.00  0.00     0.028 C 
BRANCH   6   7
ATOM      7  C   UNL     1       0.021 -24.656  26.541  1.00  0.00    -0.028 C 
ATOM      8  C   UNL     1       1.208 -24.799  27.177  1.00  0.00    -0.070 CG0
ATOM      9  C   UNL     1       1.344 -25.920  28.177  1.00  0.00     0.039 C 
ATOM     10  G   UNL     1       2.403 -23.897  26.908  1.00  0.00     0.000 G0
ENDBRANCH   6   7
ENDBRANCH   5   6
ENDBRANCH   3   5
ENDBRANCH   1   3
BRANCH   1  11
ATOM     11  C   UNL     1       2.931 -24.056  23.885  1.00  0.00     0.087 C 
BRANCH  11  12
ATOM     12  C   UNL     1       3.533 -25.113  24.863  1.00  0.00     0.066 C 
BRANCH  12  13
ATOM     13  C   UNL     1       3.580 -24.652  26.316  1.00  0.00     0.140 C 
ATOM     14  O   UNL     1       4.527 -24.960  27.027  1.00  0.00    -0.299 OA
BRANCH  13  15
ATOM     15  C   UNL     1       2.423 -23.892  26.922  1.00  0.00     0.106 CG0
ATOM     16  G   UNL     1       1.219 -24.783  27.185  1.00  0.00     0.000 G0
ENDBRANCH  13  15
ENDBRANCH  12  13
BRANCH  12  17
ATOM     17  C   UNL     1       4.895 -25.734  24.407  1.00  0.00    -0.006 C 
ATOM     18  C   UNL     1       4.709 -26.705  23.228  1.00  0.00     0.008 C 
ATOM     19  C   UNL     1       5.981 -24.701  24.062  1.00  0.00     0.008 C 
ENDBRANCH  12  17
ENDBRANCH  11  12
ENDBRANCH   1  11
TORSDOF 1
ENDMDL
MODEL 7
REMARK VINA RESULT:    -3.952     10.573     12.461
REMARK INTER + INTRA:          -6.055
REMARK INTER:                  -5.823
REMARK INTRA:                  -0.232
REMARK UNBOUND:                -0.024
REMARK SMILES CC1=CCC[C@@H](C)C(=O)C[C@@H](C(C)C)C(=O)C1
REMARK SMILES IDX 8 1 9 2 6 3 7 4 5 5 4 6 3 7 2 8 1 9 10 11 11 12 15 13 16 14
REMARK SMILES IDX 17 15 12 17 13 18 14 19
REMARK H PARENT
REMARK Flexibility Score: 70.00
ROOT
ATOM      1  C   UNL     1      12.250 -18.054  21.809  1.00  0.00     0.136 C 
ATOM      2  O   UNL     1      12.497 -17.937  23.000  1.00  0.00    -0.299 OA
ENDROOT
BRANCH   1   3
ATOM      3  C   UNL     1      12.189 -19.439  21.189  1.00  0.00     0.053 C 
ATOM      4  C   UNL     1      13.133 -19.531  19.983  1.00  0.00     0.016 C 
BRANCH   3   5
ATOM      5  C   UNL     1      10.738 -19.779  20.781  1.00  0.00     0.015 C 
BRANCH   5   6
ATOM      6  C   UNL     1      10.555 -19.803  19.250  1.00  0.00     0.028 C 
BRANCH   6   7
ATOM      7  C   UNL     1       9.221 -19.217  18.860  1.00  0.00    -0.028 C 
ATOM      8  C   UNL     1       9.031 -17.939  18.455  1.00  0.00    -0.070 CG0
ATOM      9  C   UNL     1       7.646 -17.533  18.019  1.00  0.00     0.039 C 
ATOM     10  G   UNL     1      10.144 -16.902  18.443  1.00  0.00     0.000 G0
ENDBRANCH   6   7
ENDBRANCH   5   6
ENDBRANCH   3   5
ENDBRANCH   1   3
BRANCH   1  11
ATOM     11  C   UNL     1      12.008 -16.814  20.976  1.00  0.00     0.087 C 
BRANCH  11  12
ATOM     12  C   UNL     1      10.537 -16.290  20.970  1.00  0.00     0.066 C 
BRANCH  12  13
ATOM     13  C   UNL     1      10.024 -15.907  19.585  1.00  0.00     0.140 C 
ATOM     14  O   UNL     1       9.461 -14.836  19.413  1.00  0.00    -0.299 OA
BRANCH  13  15
ATOM     15  C   UNL     1      10.123 -16.878  18.430  1.00  0.00     0.106 CG0
ATOM     16  G   UNL     1       9.033 -17.938  18.471  1.00  0.00     0.000 G0
ENDBRANCH  13  15
ENDBRANCH  12  13
BRANCH  12  17
ATOM     17  C   UNL     1      10.226 -15.183  22.029  1.00  0.00    -0.006 C 
ATOM     18  C   UNL     1       9.799 -15.791  23.377  1.00  0.00     0.008 C 
ATOM     19  C   UNL     1      11.367 -14.177  22.252  1.00  0.00     0.008 C 
ENDBRANCH  12  17
ENDBRANCH  11  12
ENDBRANCH   1  11
TORSDOF 1
ENDMDL
MODEL 8
REMARK VINA RESULT:    -3.909      9.536     11.067
REMARK INTER + INTRA:          -5.989
REMARK INTER:                  -5.585
REMARK INTRA:                  -0.404
REMARK UNBOUND:                -0.024
REMARK SMILES CC1=CCC[C@@H](C)C(=O)C[C@@H](C(C)C)C(=O)C1
REMARK SMILES IDX 8 1 9 2 6 3 7 4 5 5 4 6 3 7 2 8 1 9 10 11 11 12 15 13 16 14
REMARK SMILES IDX 17 15 12 17 13 18 14 19
REMARK H PARENT
REMARK Flexibility Score: 70.00
ROOT
ATOM      1  C   UNL     1       9.735 -15.493  20.437  1.00  0.00     0.136 C 
ATOM      2  O   UNL     1      10.626 -14.674  20.273  1.00  0.00    -0.299 OA
ENDROOT
BRANCH   1   3
ATOM      3  C   UNL     1       8.997 -15.542  21.764  1.00  0.00     0.053 C 
ATOM      4  C   UNL     1       8.203 -14.248  21.986  1.00  0.00     0.016 C 
BRANCH   3   5
ATOM      5  C   UNL     1       9.992 -15.785  22.920  1.00  0.00     0.015 C 
BRANCH   5   6
ATOM      6  C   UNL     1      10.271 -17.285  23.141  1.00  0.00     0.028 C 
BRANCH   6   7
ATOM      7  C   UNL     1      11.570 -17.691  22.492  1.00  0.00    -0.028 C 
ATOM      8  C   UNL     1      11.684 -18.621  21.515  1.00  0.00    -0.070 CG0
ATOM      9  C   UNL     1      13.048 -18.850  20.912  1.00  0.00     0.039 C 
ATOM     10  G   UNL     1      10.508 -19.450  21.023  1.00  0.00     0.000 G0
ENDBRANCH   6   7
ENDBRANCH   5   6
ENDBRANCH   3   5
ENDBRANCH   1   3
BRANCH   1  11
ATOM     11  C   UNL     1       9.385 -16.445  19.313  1.00  0.00     0.087 C 
BRANCH  11  12
ATOM     12  C   UNL     1       8.857 -17.843  19.762  1.00  0.00     0.066 C 
BRANCH  12  13
ATOM     13  C   UNL     1       9.916 -18.941  19.733  1.00  0.00     0.140 C 
ATOM     14  O   UNL     1      10.238 -19.454  18.671  1.00  0.00    -0.299 OA
BRANCH  13  15
ATOM     15  C   UNL     1      10.515 -19.470  21.016  1.00  0.00     0.106 CG0
ATOM     16  G   UNL     1      11.682 -18.625  21.503  1.00  0.00     0.000 G0
ENDBRANCH  13  15
ENDBRANCH  12  13
BRANCH  12  17
ATOM     17  C   UNL     1       7.529 -18.301  19.074  1.00  0.00    -0.006 C 
ATOM     18  C   UNL     1       6.313 -18.091  19.992  1.00  0.00     0.008 C 
ATOM     19  C   UNL     1       7.266 -17.651  17.706  1.00  0.00     0.008 C 
ENDBRANCH  12  17
ENDBRANCH  11  12
ENDBRANCH   1  11
TORSDOF 1
ENDMDL
MODEL 9
REMARK VINA RESULT:    -3.869      9.335     11.659
REMARK INTER + INTRA:          -5.929
REMARK INTER:                  -5.542
REMARK INTRA:                  -0.386
REMARK UNBOUND:                -0.024
REMARK SMILES CC1=CCC[C@@H](C)C(=O)C[C@@H](C(C)C)C(=O)C1
REMARK SMILES IDX 8 1 9 2 6 3 7 4 5 5 4 6 3 7 2 8 1 9 10 11 11 12 15 13 16 14
REMARK SMILES IDX 17 15 12 17 13 18 14 19
REMARK H PARENT
REMARK Flexibility Score: 70.00
ROOT
ATOM      1  C   UNL     1       9.643 -13.679  24.417  1.00  0.00     0.136 C 
ATOM      2  O   UNL     1       9.815 -13.525  25.617  1.00  0.00    -0.299 OA
ENDROOT
BRANCH   1   3
ATOM      3  C   UNL     1       8.769 -12.698  23.654  1.00  0.00     0.053 C 
ATOM      4  C   UNL     1       9.509 -11.371  23.441  1.00  0.00     0.016 C 
BRANCH   3   5
ATOM      5  C   UNL     1       7.438 -12.474  24.403  1.00  0.00     0.015 C 
BRANCH   5   6
ATOM      6  C   UNL     1       6.322 -13.411  23.897  1.00  0.00     0.028 C 
BRANCH   6   7
ATOM      7  C   UNL     1       6.192 -14.620  24.789  1.00  0.00    -0.028 C 
ATOM      8  C   UNL     1       6.543 -15.879  24.435  1.00  0.00    -0.070 CG0
ATOM      9  C   UNL     1       6.428 -16.964  25.475  1.00  0.00     0.039 C 
ATOM     10  G   UNL     1       7.021 -16.240  23.037  1.00  0.00     0.000 G0
ENDBRANCH   6   7
ENDBRANCH   5   6
ENDBRANCH   3   5
ENDBRANCH   1   3
BRANCH   1  11
ATOM     11  C   UNL     1      10.306 -14.845  23.715  1.00  0.00     0.087 C 
BRANCH  11  12
ATOM     12  C   UNL     1       9.491 -15.463  22.535  1.00  0.00     0.066 C 
BRANCH  12  13
ATOM     13  C   UNL     1       8.502 -16.541  22.968  1.00  0.00     0.140 C 
ATOM     14  O   UNL     1       8.893 -17.675  23.202  1.00  0.00    -0.299 OA
BRANCH  13  15
ATOM     15  C   UNL     1       7.020 -16.249  23.024  1.00  0.00     0.106 CG0
ATOM     16  G   UNL     1       6.558 -15.865  24.422  1.00  0.00     0.000 G0
ENDBRANCH  13  15
ENDBRANCH  12  13
BRANCH  12  17
ATOM     17  C   UNL     1      10.348 -15.921  21.310  1.00  0.00    -0.006 C 
ATOM     18  C   UNL     1       9.498 -16.028  20.031  1.00  0.00     0.008 C 
ATOM     19  C   UNL     1      11.587 -15.052  21.039  1.00  0.00     0.008 C 
ENDBRANCH  12  17
ENDBRANCH  11  12
ENDBRANCH   1  11
TORSDOF 1
ENDMDL
