MODEL 1
REMARK VINA RESULT:    -3.713      0.000      0.000
REMARK INTER + INTRA:          -4.697
REMARK INTER:                  -5.015
REMARK INTRA:                   0.318
REMARK UNBOUND:                 0.318
REMARK SMILES C=C1C(=O)O[C@H]2[C@H]1CCC(C)=CCC[C@@]1(C)O[C@@H]21
REMARK SMILES IDX 6 1 7 2 2 3 1 4 3 5 4 6 5 7 8 8 9 9 10 10 11 11 12 12 18 14
REMARK SMILES IDX 15 15 17 16 16 17 14 18 13 19
REMARK H PARENT
REMARK Flexibility Score: 70.00
ROOT
ATOM      1  C   UNL     1      19.295  -2.462   5.719  1.00  0.00     0.216 C 
ATOM      2  C   UNL     1      20.576  -3.044   5.016  1.00  0.00     0.070 C 
ATOM      3  C   UNL     1      20.089  -3.312   3.623  1.00  0.00     0.037 C 
ATOM      4  C   UNL     1      20.849  -3.565   2.558  1.00  0.00     0.021 C 
ATOM      5  C   UNL     1      18.651  -3.283   3.653  1.00  0.00     0.334 C 
ATOM      6  O   UNL     1      17.886  -3.585   2.699  1.00  0.00    -0.247 OA
ATOM      7  O   UNL     1      18.208  -2.889   4.896  1.00  0.00    -0.455 OA
ENDROOT
BRANCH   2   8
ATOM      8  C   UNL     1      21.030  -4.391   5.635  1.00  0.00     0.017 C 
BRANCH   8   9
ATOM      9  C   UNL     1      21.479  -4.334   7.106  1.00  0.00     0.031 C 
BRANCH   9  10
ATOM     10  C   UNL     1      22.784  -3.584   7.303  1.00  0.00    -0.077 C 
ATOM     11  C   UNL     1      24.075  -4.312   7.028  1.00  0.00     0.039 C 
ATOM     12  C   UNL     1      22.857  -2.301   7.727  1.00  0.00    -0.028 CG0
ATOM     13  G   UNL     1      21.688  -1.368   7.922  1.00  0.00     0.000 G0
ENDBRANCH   9  10
ENDBRANCH   8   9
ENDBRANCH   2   8
BRANCH   1  14
ATOM     14  C   UNL     1      19.164  -0.919   5.844  1.00  0.00     0.192 C 
ATOM     15  C   UNL     1      20.202   0.035   6.363  1.00  0.00     0.096 C 
ATOM     16  O   UNL     1      20.025  -0.214   4.980  1.00  0.00    -0.362 OA
ATOM     17  C   UNL     1      19.715   1.442   6.728  1.00  0.00     0.045 C 
BRANCH  15  18
ATOM     18  C   UNL     1      21.638  -0.324   6.798  1.00  0.00     0.042 C 
BRANCH  18  19
ATOM     19  C   UNL     1      21.686  -1.358   7.932  1.00  0.00     0.030 CG0
ATOM     20  G   UNL     1      22.851  -2.294   7.726  1.00  0.00     0.000 G0
ENDBRANCH  18  19
ENDBRANCH  15  18
ENDBRANCH   1  14
TORSDOF 0
ENDMDL
MODEL 2
REMARK VINA RESULT:    -3.519      2.680      4.176
REMARK INTER + INTRA:          -4.435
REMARK INTER:                  -4.586
REMARK INTRA:                   0.151
REMARK UNBOUND:                 0.318
REMARK SMILES C=C1C(=O)O[C@H]2[C@H]1CCC(C)=CCC[C@@]1(C)O[C@@H]21
REMARK SMILES IDX 6 1 7 2 2 3 1 4 3 5 4 6 5 7 8 8 9 9 10 10 11 11 12 12 18 14
REMARK SMILES IDX 15 15 17 16 16 17 14 18 13 19
REMARK H PARENT
REMARK Flexibility Score: 70.00
ROOT
ATOM      1  C   UNL     1      20.277  -2.006   2.631  1.00  0.00     0.216 C 
ATOM      2  C   UNL     1      20.396  -0.682   3.473  1.00  0.00     0.070 C 
ATOM      3  C   UNL     1      20.334   0.381   2.416  1.00  0.00     0.037 C 
ATOM      4  C   UNL     1      20.131   1.682   2.619  1.00  0.00     0.021 C 
ATOM      5  C   UNL     1      20.570  -0.254   1.147  1.00  0.00     0.334 C 
ATOM      6  O   UNL     1      20.716   0.334   0.043  1.00  0.00    -0.247 OA
ATOM      7  O   UNL     1      20.635  -1.620   1.303  1.00  0.00    -0.455 OA
ENDROOT
BRANCH   2   8
ATOM      8  C   UNL     1      21.761  -0.562   4.197  1.00  0.00     0.017 C 
BRANCH   8   9
ATOM      9  C   UNL     1      22.262  -1.838   4.896  1.00  0.00     0.031 C 
BRANCH   9  10
ATOM     10  C   UNL     1      21.575  -2.100   6.224  1.00  0.00    -0.077 C 
ATOM     11  C   UNL     1      21.984  -1.271   7.415  1.00  0.00     0.039 C 
ATOM     12  C   UNL     1      20.627  -3.048   6.406  1.00  0.00    -0.028 CG0
ATOM     13  G   UNL     1      19.990  -3.879   5.320  1.00  0.00     0.000 G0
ENDBRANCH   9  10
ENDBRANCH   8   9
ENDBRANCH   2   8
BRANCH   1  14
ATOM     14  C   UNL     1      18.883  -2.685   2.525  1.00  0.00     0.192 C 
ATOM     15  C   UNL     1      18.119  -3.351   3.633  1.00  0.00     0.096 C 
ATOM     16  O   UNL     1      17.878  -2.011   3.246  1.00  0.00    -0.362 OA
ATOM     17  C   UNL     1      16.955  -4.256   3.212  1.00  0.00     0.045 C 
BRANCH  15  18
ATOM     18  C   UNL     1      18.532  -3.419   5.118  1.00  0.00     0.042 C 
BRANCH  18  19
ATOM     19  C   UNL     1      19.981  -3.885   5.322  1.00  0.00     0.030 CG0
ATOM     20  G   UNL     1      20.637  -3.065   6.405  1.00  0.00     0.000 G0
ENDBRANCH  18  19
ENDBRANCH  15  18
ENDBRANCH   1  14
TORSDOF 0
ENDMDL
MODEL 3
REMARK VINA RESULT:    -3.509      2.599      4.644
REMARK INTER + INTRA:          -4.422
REMARK INTER:                  -4.591
REMARK INTRA:                   0.169
REMARK UNBOUND:                 0.318
REMARK SMILES C=C1C(=O)O[C@H]2[C@H]1CCC(C)=CCC[C@@]1(C)O[C@@H]21
REMARK SMILES IDX 6 1 7 2 2 3 1 4 3 5 4 6 5 7 8 8 9 9 10 10 11 11 12 12 18 14
REMARK SMILES IDX 15 15 17 16 16 17 14 18 13 19
REMARK H PARENT
REMARK Flexibility Score: 70.00
ROOT
ATOM      1  C   UNL     1      21.238  -1.342   3.947  1.00  0.00     0.216 C 
ATOM      2  C   UNL     1      21.010  -2.318   2.734  1.00  0.00     0.070 C 
ATOM      3  C   UNL     1      21.998  -1.816   1.723  1.00  0.00     0.037 C 
ATOM      4  C   UNL     1      22.390  -2.455   0.622  1.00  0.00     0.021 C 
ATOM      5  C   UNL     1      22.416  -0.504   2.139  1.00  0.00     0.334 C 
ATOM      6  O   UNL     1      23.145   0.283   1.479  1.00  0.00    -0.247 OA
ATOM      7  O   UNL     1      21.890  -0.206   3.376  1.00  0.00    -0.455 OA
ENDROOT
BRANCH   2   8
ATOM      8  C   UNL     1      19.590  -2.186   2.128  1.00  0.00     0.017 C 
BRANCH   8   9
ATOM      9  C   UNL     1      18.445  -1.999   3.139  1.00  0.00     0.031 C 
BRANCH   9  10
ATOM     10  C   UNL     1      18.012  -3.296   3.797  1.00  0.00    -0.077 C 
ATOM     11  C   UNL     1      17.176  -4.259   2.994  1.00  0.00     0.039 C 
ATOM     12  C   UNL     1      18.319  -3.631   5.072  1.00  0.00    -0.028 CG0
ATOM     13  G   UNL     1      19.251  -2.873   5.984  1.00  0.00     0.000 G0
ENDBRANCH   9  10
ENDBRANCH   8   9
ENDBRANCH   2   8
BRANCH   1  14
ATOM     14  C   UNL     1      22.147  -1.820   5.113  1.00  0.00     0.192 C 
ATOM     15  C   UNL     1      21.813  -2.857   6.148  1.00  0.00     0.096 C 
ATOM     16  O   UNL     1      22.560  -3.161   4.985  1.00  0.00    -0.362 OA
ATOM     17  C   UNL     1      22.708  -2.892   7.393  1.00  0.00     0.045 C 
BRANCH  15  18
ATOM     18  C   UNL     1      20.530  -3.712   6.207  1.00  0.00     0.042 C 
BRANCH  18  19
ATOM     19  C   UNL     1      19.248  -2.894   5.995  1.00  0.00     0.030 CG0
ATOM     20  G   UNL     1      18.310  -3.637   5.077  1.00  0.00     0.000 G0
ENDBRANCH  18  19
ENDBRANCH  15  18
ENDBRANCH   1  14
TORSDOF 0
ENDMDL
MODEL 4
REMARK VINA RESULT:    -3.507      2.303      3.601
REMARK INTER + INTRA:          -4.418
REMARK INTER:                  -4.642
REMARK INTRA:                   0.224
REMARK UNBOUND:                 0.318
REMARK SMILES C=C1C(=O)O[C@H]2[C@H]1CCC(C)=CCC[C@@]1(C)O[C@@H]21
REMARK SMILES IDX 6 1 7 2 2 3 1 4 3 5 4 6 5 7 8 8 9 9 10 10 11 11 12 12 18 14
REMARK SMILES IDX 15 15 17 16 16 17 14 18 13 19
REMARK H PARENT
REMARK Flexibility Score: 70.00
ROOT
ATOM      1  C   UNL     1      20.295  -2.989   4.753  1.00  0.00     0.216 C 
ATOM      2  C   UNL     1      19.764  -2.116   3.557  1.00  0.00     0.070 C 
ATOM      3  C   UNL     1      18.306  -2.463   3.523  1.00  0.00     0.037 C 
ATOM      4  C   UNL     1      17.354  -1.804   2.863  1.00  0.00     0.021 C 
ATOM      5  C   UNL     1      18.127  -3.661   4.301  1.00  0.00     0.334 C 
ATOM      6  O   UNL     1      17.061  -4.324   4.401  1.00  0.00    -0.247 OA
ATOM      7  O   UNL     1      19.306  -4.006   4.922  1.00  0.00    -0.455 OA
ENDROOT
BRANCH   2   8
ATOM      8  C   UNL     1      20.390  -2.528   2.200  1.00  0.00     0.017 C 
BRANCH   8   9
ATOM      9  C   UNL     1      21.928  -2.547   2.151  1.00  0.00     0.031 C 
BRANCH   9  10
ATOM     10  C   UNL     1      22.542  -1.159   2.116  1.00  0.00    -0.077 C 
ATOM     11  C   UNL     1      22.540  -0.411   0.808  1.00  0.00     0.039 C 
ATOM     12  C   UNL     1      23.106  -0.560   3.190  1.00  0.00    -0.028 CG0
ATOM     13  G   UNL     1      23.085  -1.081   4.605  1.00  0.00     0.000 G0
ENDBRANCH   9  10
ENDBRANCH   8   9
ENDBRANCH   2   8
BRANCH   1  14
ATOM     14  C   UNL     1      20.459  -2.310   6.141  1.00  0.00     0.192 C 
ATOM     15  C   UNL     1      21.301  -1.108   6.462  1.00  0.00     0.096 C 
ATOM     16  O   UNL     1      19.914  -1.012   6.195  1.00  0.00    -0.362 OA
ATOM     17  C   UNL     1      21.587  -0.853   7.947  1.00  0.00     0.045 C 
BRANCH  15  18
ATOM     18  C   UNL     1      22.107  -0.260   5.457  1.00  0.00     0.042 C 
BRANCH  18  19
ATOM     19  C   UNL     1      23.078  -1.091   4.606  1.00  0.00     0.030 CG0
ATOM     20  G   UNL     1      23.101  -0.567   3.192  1.00  0.00     0.000 G0
ENDBRANCH  18  19
ENDBRANCH  15  18
ENDBRANCH   1  14
TORSDOF 0
ENDMDL
MODEL 5
REMARK VINA RESULT:    -3.503      2.734      4.684
REMARK INTER + INTRA:          -4.413
REMARK INTER:                  -4.551
REMARK INTRA:                   0.137
REMARK UNBOUND:                 0.318
REMARK SMILES C=C1C(=O)O[C@H]2[C@H]1CCC(C)=CCC[C@@]1(C)O[C@@H]21
REMARK SMILES IDX 6 1 7 2 2 3 1 4 3 5 4 6 5 7 8 8 9 9 10 10 11 11 12 12 18 14
REMARK SMILES IDX 15 15 17 16 16 17 14 18 13 19
REMARK H PARENT
REMARK Flexibility Score: 70.00
ROOT
ATOM      1  C   UNL     1      20.930  -2.303   2.744  1.00  0.00     0.216 C 
ATOM      2  C   UNL     1      20.865  -0.755   2.469  1.00  0.00     0.070 C 
ATOM      3  C   UNL     1      21.410  -0.649   1.075  1.00  0.00     0.037 C 
ATOM      4  C   UNL     1      21.326   0.413   0.276  1.00  0.00     0.021 C 
ATOM      5  C   UNL     1      22.072  -1.891   0.773  1.00  0.00     0.334 C 
ATOM      6  O   UNL     1      22.756  -2.131  -0.256  1.00  0.00    -0.247 OA
ATOM      7  O   UNL     1      21.870  -2.798   1.789  1.00  0.00    -0.455 OA
ENDROOT
BRANCH   2   8
ATOM      8  C   UNL     1      21.793   0.053   3.412  1.00  0.00     0.017 C 
BRANCH   8   9
ATOM      9  C   UNL     1      21.754  -0.351   4.896  1.00  0.00     0.031 C 
BRANCH   9  10
ATOM     10  C   UNL     1      20.533   0.178   5.627  1.00  0.00    -0.077 C 
ATOM     11  C   UNL     1      20.505   1.637   6.007  1.00  0.00     0.039 C 
ATOM     12  C   UNL     1      19.473  -0.588   5.972  1.00  0.00    -0.028 CG0
ATOM     13  G   UNL     1      19.251  -2.024   5.565  1.00  0.00     0.000 G0
ENDBRANCH   9  10
ENDBRANCH   8   9
ENDBRANCH   2   8
BRANCH   1  14
ATOM     14  C   UNL     1      19.634  -3.138   2.549  1.00  0.00     0.192 C 
ATOM     15  C   UNL     1      18.380  -3.061   3.373  1.00  0.00     0.096 C 
ATOM     16  O   UNL     1      18.527  -2.364   2.149  1.00  0.00    -0.362 OA
ATOM     17  C   UNL     1      17.392  -4.223   3.222  1.00  0.00     0.045 C 
BRANCH  15  18
ATOM     18  C   UNL     1      18.102  -2.075   4.527  1.00  0.00     0.042 C 
BRANCH  18  19
ATOM     19  C   UNL     1      19.233  -2.024   5.564  1.00  0.00     0.030 CG0
ATOM     20  G   UNL     1      19.491  -0.596   5.974  1.00  0.00     0.000 G0
ENDBRANCH  18  19
ENDBRANCH  15  18
ENDBRANCH   1  14
TORSDOF 0
ENDMDL
MODEL 6
REMARK VINA RESULT:    -3.464      1.628      4.220
REMARK INTER + INTRA:          -4.361
REMARK INTER:                  -4.536
REMARK INTRA:                   0.175
REMARK UNBOUND:                 0.318
REMARK SMILES C=C1C(=O)O[C@H]2[C@H]1CCC(C)=CCC[C@@]1(C)O[C@@H]21
REMARK SMILES IDX 6 1 7 2 2 3 1 4 3 5 4 6 5 7 8 8 9 9 10 10 11 11 12 12 18 14
REMARK SMILES IDX 15 15 17 16 16 17 14 18 13 19
REMARK H PARENT
REMARK Flexibility Score: 70.00
ROOT
ATOM      1  C   UNL     1      20.327  -0.737   4.965  1.00  0.00     0.216 C 
ATOM      2  C   UNL     1      20.000  -0.584   6.496  1.00  0.00     0.070 C 
ATOM      3  C   UNL     1      19.577   0.851   6.596  1.00  0.00     0.037 C 
ATOM      4  C   UNL     1      18.950   1.418   7.626  1.00  0.00     0.021 C 
ATOM      5  C   UNL     1      20.005   1.514   5.392  1.00  0.00     0.334 C 
ATOM      6  O   UNL     1      19.938   2.752   5.167  1.00  0.00    -0.247 OA
ATOM      7  O   UNL     1      20.526   0.601   4.504  1.00  0.00    -0.455 OA
ENDROOT
BRANCH   2   8
ATOM      8  C   UNL     1      21.250  -0.782   7.391  1.00  0.00     0.017 C 
BRANCH   8   9
ATOM      9  C   UNL     1      22.226  -1.885   6.943  1.00  0.00     0.031 C 
BRANCH   9  10
ATOM     10  C   UNL     1      21.775  -3.278   7.341  1.00  0.00    -0.077 C 
ATOM     11  C   UNL     1      21.921  -3.691   8.783  1.00  0.00     0.039 C 
ATOM     12  C   UNL     1      21.265  -4.180   6.471  1.00  0.00    -0.028 CG0
ATOM     13  G   UNL     1      20.915  -3.915   5.028  1.00  0.00     0.000 G0
ENDBRANCH   9  10
ENDBRANCH   8   9
ENDBRANCH   2   8
BRANCH   1  14
ATOM     14  C   UNL     1      19.242  -1.357   4.041  1.00  0.00     0.192 C 
ATOM     15  C   UNL     1      18.843  -2.803   3.964  1.00  0.00     0.096 C 
ATOM     16  O   UNL     1      18.131  -1.860   4.745  1.00  0.00    -0.362 OA
ATOM     17  C   UNL     1      18.024  -3.220   2.737  1.00  0.00     0.045 C 
BRANCH  15  18
ATOM     18  C   UNL     1      19.375  -3.948   4.850  1.00  0.00     0.042 C 
BRANCH  18  19
ATOM     19  C   UNL     1      20.901  -3.924   5.016  1.00  0.00     0.030 CG0
ATOM     20  G   UNL     1      21.265  -4.172   6.459  1.00  0.00     0.000 G0
ENDBRANCH  18  19
ENDBRANCH  15  18
ENDBRANCH   1  14
TORSDOF 0
ENDMDL
MODEL 7
REMARK VINA RESULT:    -3.356      2.788      3.722
REMARK INTER + INTRA:          -4.215
REMARK INTER:                  -4.407
REMARK INTRA:                   0.192
REMARK UNBOUND:                 0.318
REMARK SMILES C=C1C(=O)O[C@H]2[C@H]1CCC(C)=CCC[C@@]1(C)O[C@@H]21
REMARK SMILES IDX 6 1 7 2 2 3 1 4 3 5 4 6 5 7 8 8 9 9 10 10 11 11 12 12 18 14
REMARK SMILES IDX 15 15 17 16 16 17 14 18 13 19
REMARK H PARENT
REMARK Flexibility Score: 70.00
ROOT
ATOM      1  C   UNL     1      20.356  -0.725   2.128  1.00  0.00     0.216 C 
ATOM      2  C   UNL     1      21.497  -1.751   2.477  1.00  0.00     0.070 C 
ATOM      3  C   UNL     1      22.421  -1.622   1.302  1.00  0.00     0.037 C 
ATOM      4  C   UNL     1      23.669  -2.082   1.227  1.00  0.00     0.021 C 
ATOM      5  C   UNL     1      21.700  -0.944   0.256  1.00  0.00     0.334 C 
ATOM      6  O   UNL     1      22.105  -0.765  -0.923  1.00  0.00    -0.247 OA
ATOM      7  O   UNL     1      20.474  -0.523   0.719  1.00  0.00    -0.455 OA
ENDROOT
BRANCH   2   8
ATOM      8  C   UNL     1      20.984  -3.212   2.528  1.00  0.00     0.017 C 
BRANCH   8   9
ATOM      9  C   UNL     1      19.827  -3.481   3.507  1.00  0.00     0.031 C 
BRANCH   9  10
ATOM     10  C   UNL     1      20.257  -3.447   4.962  1.00  0.00    -0.077 C 
ATOM     11  C   UNL     1      20.963  -4.653   5.527  1.00  0.00     0.039 C 
ATOM     12  C   UNL     1      20.029  -2.401   5.789  1.00  0.00    -0.028 CG0
ATOM     13  G   UNL     1      19.466  -1.061   5.383  1.00  0.00     0.000 G0
ENDBRANCH   9  10
ENDBRANCH   8   9
ENDBRANCH   2   8
BRANCH   1  14
ATOM     14  C   UNL     1      20.416   0.686   2.775  1.00  0.00     0.192 C 
ATOM     15  C   UNL     1      20.488   1.003   4.242  1.00  0.00     0.096 C 
ATOM     16  O   UNL     1      21.640   0.953   3.421  1.00  0.00    -0.362 OA
ATOM     17  C   UNL     1      20.170   2.448   4.645  1.00  0.00     0.045 C 
BRANCH  15  18
ATOM     18  C   UNL     1      20.600  -0.017   5.394  1.00  0.00     0.042 C 
BRANCH  18  19
ATOM     19  C   UNL     1      19.465  -1.050   5.399  1.00  0.00     0.030 CG0
ATOM     20  G   UNL     1      20.004  -2.406   5.783  1.00  0.00     0.000 G0
ENDBRANCH  18  19
ENDBRANCH  15  18
ENDBRANCH   1  14
TORSDOF 0
ENDMDL
MODEL 8
REMARK VINA RESULT:    -3.311      2.736      5.130
REMARK INTER + INTRA:          -4.154
REMARK INTER:                  -4.372
REMARK INTRA:                   0.218
REMARK UNBOUND:                 0.318
REMARK SMILES C=C1C(=O)O[C@H]2[C@H]1CCC(C)=CCC[C@@]1(C)O[C@@H]21
REMARK SMILES IDX 6 1 7 2 2 3 1 4 3 5 4 6 5 7 8 8 9 9 10 10 11 11 12 12 18 14
REMARK SMILES IDX 15 15 17 16 16 17 14 18 13 19
REMARK H PARENT
REMARK Flexibility Score: 70.00
ROOT
ATOM      1  C   UNL     1      19.765  -0.777   5.244  1.00  0.00     0.216 C 
ATOM      2  C   UNL     1      21.289  -1.017   5.552  1.00  0.00     0.070 C 
ATOM      3  C   UNL     1      21.412  -0.550   6.971  1.00  0.00     0.037 C 
ATOM      4  C   UNL     1      22.436  -0.780   7.791  1.00  0.00     0.021 C 
ATOM      5  C   UNL     1      20.238   0.225   7.276  1.00  0.00     0.334 C 
ATOM      6  O   UNL     1      20.041   0.884   8.331  1.00  0.00    -0.247 OA
ATOM      7  O   UNL     1      19.343   0.166   6.231  1.00  0.00    -0.455 OA
ENDROOT
BRANCH   2   8
ATOM      8  C   UNL     1      22.215  -0.138   4.673  1.00  0.00     0.017 C 
BRANCH   8   9
ATOM      9  C   UNL     1      21.761   0.065   3.217  1.00  0.00     0.031 C 
BRANCH   9  10
ATOM     10  C   UNL     1      22.094  -1.112   2.318  1.00  0.00    -0.077 C 
ATOM     11  C   UNL     1      23.526  -1.298   1.886  1.00  0.00     0.039 C 
ATOM     12  C   UNL     1      21.175  -1.997   1.868  1.00  0.00    -0.028 CG0
ATOM     13  G   UNL     1      19.729  -2.063   2.293  1.00  0.00     0.000 G0
ENDBRANCH   9  10
ENDBRANCH   8   9
ENDBRANCH   2   8
BRANCH   1  14
ATOM     14  C   UNL     1      18.794  -1.986   5.358  1.00  0.00     0.192 C 
ATOM     15  C   UNL     1      18.650  -3.120   4.383  1.00  0.00     0.096 C 
ATOM     16  O   UNL     1      19.455  -3.216   5.545  1.00  0.00    -0.362 OA
ATOM     17  C   UNL     1      17.391  -3.983   4.523  1.00  0.00     0.045 C 
BRANCH  15  18
ATOM     18  C   UNL     1      19.499  -3.352   3.116  1.00  0.00     0.042 C 
BRANCH  18  19
ATOM     19  C   UNL     1      19.727  -2.072   2.299  1.00  0.00     0.030 CG0
ATOM     20  G   UNL     1      21.169  -1.989   1.865  1.00  0.00     0.000 G0
ENDBRANCH  18  19
ENDBRANCH  15  18
ENDBRANCH   1  14
TORSDOF 0
ENDMDL
MODEL 9
REMARK VINA RESULT:    -3.192      2.803      4.174
REMARK INTER + INTRA:          -3.993
REMARK INTER:                  -4.207
REMARK INTRA:                   0.214
REMARK UNBOUND:                 0.318
REMARK SMILES C=C1C(=O)O[C@H]2[C@H]1CCC(C)=CCC[C@@]1(C)O[C@@H]21
REMARK SMILES IDX 6 1 7 2 2 3 1 4 3 5 4 6 5 7 8 8 9 9 10 10 11 11 12 12 18 14
REMARK SMILES IDX 15 15 17 16 16 17 14 18 13 19
REMARK H PARENT
REMARK Flexibility Score: 70.00
ROOT
ATOM      1  C   UNL     1      19.070  -1.254   3.610  1.00  0.00     0.216 C 
ATOM      2  C   UNL     1      20.108  -1.913   4.592  1.00  0.00     0.070 C 
ATOM      3  C   UNL     1      19.640  -3.337   4.651  1.00  0.00     0.037 C 
ATOM      4  C   UNL     1      20.325  -4.372   5.136  1.00  0.00     0.021 C 
ATOM      5  C   UNL     1      18.301  -3.377   4.123  1.00  0.00     0.334 C 
ATOM      6  O   UNL     1      17.536  -4.376   4.125  1.00  0.00    -0.247 OA
ATOM      7  O   UNL     1      17.952  -2.144   3.619  1.00  0.00    -0.455 OA
ENDROOT
BRANCH   2   8
ATOM      8  C   UNL     1      20.029  -1.320   6.021  1.00  0.00     0.017 C 
BRANCH   8   9
ATOM      9  C   UNL     1      19.795   0.199   6.104  1.00  0.00     0.031 C 
BRANCH   9  10
ATOM     10  C   UNL     1      21.056   1.010   5.868  1.00  0.00    -0.077 C 
ATOM     11  C   UNL     1      22.078   1.080   6.973  1.00  0.00     0.039 C 
ATOM     12  C   UNL     1      21.309   1.690   4.726  1.00  0.00    -0.028 CG0
ATOM     13  G   UNL     1      20.484   1.636   3.464  1.00  0.00     0.000 G0
ENDBRANCH   9  10
ENDBRANCH   8   9
ENDBRANCH   2   8
BRANCH   1  14
ATOM     14  C   UNL     1      19.476  -1.082   2.120  1.00  0.00     0.192 C 
ATOM     15  C   UNL     1      20.442  -0.078   1.559  1.00  0.00     0.096 C 
ATOM     16  O   UNL     1      20.823  -1.407   1.868  1.00  0.00    -0.362 OA
ATOM     17  C   UNL     1      20.400   0.136   0.042  1.00  0.00     0.045 C 
BRANCH  15  18
ATOM     18  C   UNL     1      21.287   0.928   2.367  1.00  0.00     0.042 C 
BRANCH  18  19
ATOM     19  C   UNL     1      20.489   1.643   3.466  1.00  0.00     0.030 CG0
ATOM     20  G   UNL     1      21.300   1.700   4.737  1.00  0.00     0.000 G0
ENDBRANCH  18  19
ENDBRANCH  15  18
ENDBRANCH   1  14
TORSDOF 0
ENDMDL
