MODEL 1
REMARK VINA RESULT:    -4.408      0.000      0.000
REMARK INTER + INTRA:          -4.408
REMARK INTER:                  -4.408
REMARK INTRA:                   0.000
REMARK UNBOUND:                 0.000
REMARK SMILES CC1(C)[C@@H]2CC[C@@]1(C)C(=O)C2
REMARK SMILES IDX 1 1 2 2 4 3 5 4 6 5 7 6 9 7 10 8 11 9 8 10 3 11
REMARK H PARENT
REMARK Flexibility Score: inf
ROOT
ATOM      1  C   UNL     1     -48.701  32.688  14.214  1.00  0.00     0.012 C 
ATOM      2  C   UNL     1     -48.921  31.198  14.612  1.00  0.00    -0.020 C 
ATOM      3  C   UNL     1     -48.350  30.830  16.002  1.00  0.00     0.003 C 
ATOM      4  C   UNL     1     -46.821  31.033  15.808  1.00  0.00     0.005 C 
ATOM      5  C   UNL     1     -46.593  30.573  14.347  1.00  0.00     0.015 C 
ATOM      6  C   UNL     1     -48.016  30.176  13.889  1.00  0.00     0.032 C 
ATOM      7  C   UNL     1     -48.335  28.922  14.666  1.00  0.00     0.139 C 
ATOM      8  O   UNL     1     -48.315  27.783  14.229  1.00  0.00    -0.299 OA
ATOM      9  C   UNL     1     -48.579  29.295  16.096  1.00  0.00     0.080 C 
ATOM     10  C   UNL     1     -48.194  30.059  12.371  1.00  0.00     0.020 C 
ATOM     11  C   UNL     1     -50.451  30.925  14.473  1.00  0.00     0.012 C 
ENDROOT
TORSDOF 0
ENDMDL
MODEL 2
REMARK VINA RESULT:    -4.370      1.694      3.014
REMARK INTER + INTRA:          -4.370
REMARK INTER:                  -4.370
REMARK INTRA:                   0.000
REMARK UNBOUND:                 0.000
REMARK SMILES CC1(C)[C@@H]2CC[C@@]1(C)C(=O)C2
REMARK SMILES IDX 1 1 2 2 4 3 5 4 6 5 7 6 9 7 10 8 11 9 8 10 3 11
REMARK H PARENT
REMARK Flexibility Score: inf
ROOT
ATOM      1  C   UNL     1     -47.016  28.638  14.082  1.00  0.00     0.012 C 
ATOM      2  C   UNL     1     -47.930  29.880  13.854  1.00  0.00    -0.020 C 
ATOM      3  C   UNL     1     -47.287  31.218  14.290  1.00  0.00     0.003 C 
ATOM      4  C   UNL     1     -47.130  31.038  15.826  1.00  0.00     0.005 C 
ATOM      5  C   UNL     1     -48.391  30.225  16.211  1.00  0.00     0.015 C 
ATOM      6  C   UNL     1     -49.101  30.034  14.849  1.00  0.00     0.032 C 
ATOM      7  C   UNL     1     -49.601  31.409  14.480  1.00  0.00     0.139 C 
ATOM      8  O   UNL     1     -50.754  31.801  14.568  1.00  0.00    -0.299 OA
ATOM      9  C   UNL     1     -48.429  32.254  14.085  1.00  0.00     0.080 C 
ATOM     10  C   UNL     1     -50.166  28.932  14.829  1.00  0.00     0.020 C 
ATOM     11  C   UNL     1     -48.351  29.848  12.352  1.00  0.00     0.012 C 
ENDROOT
TORSDOF 0
ENDMDL
MODEL 3
REMARK VINA RESULT:    -4.338      1.551      2.782
REMARK INTER + INTRA:          -4.338
REMARK INTER:                  -4.338
REMARK INTRA:                   0.000
REMARK UNBOUND:                 0.000
REMARK SMILES CC1(C)[C@@H]2CC[C@@]1(C)C(=O)C2
REMARK SMILES IDX 1 1 2 2 4 3 5 4 6 5 7 6 9 7 10 8 11 9 8 10 3 11
REMARK H PARENT
REMARK Flexibility Score: inf
ROOT
ATOM      1  C   UNL     1     -46.107  30.526  14.998  1.00  0.00     0.012 C 
ATOM      2  C   UNL     1     -47.652  30.386  15.144  1.00  0.00    -0.020 C 
ATOM      3  C   UNL     1     -48.201  29.009  14.699  1.00  0.00     0.003 C 
ATOM      4  C   UNL     1     -47.879  28.989  13.178  1.00  0.00     0.005 C 
ATOM      5  C   UNL     1     -48.087  30.466  12.759  1.00  0.00     0.015 C 
ATOM      6  C   UNL     1     -48.491  31.143  14.091  1.00  0.00     0.032 C 
ATOM      7  C   UNL     1     -49.868  30.607  14.394  1.00  0.00     0.139 C 
ATOM      8  O   UNL     1     -50.921  31.206  14.240  1.00  0.00    -0.299 OA
ATOM      9  C   UNL     1     -49.742  29.176  14.817  1.00  0.00     0.080 C 
ATOM     10  C   UNL     1     -48.375  32.671  14.096  1.00  0.00     0.020 C 
ATOM     11  C   UNL     1     -47.989  30.743  16.625  1.00  0.00     0.012 C 
ENDROOT
TORSDOF 0
ENDMDL
MODEL 4
REMARK VINA RESULT:    -4.282      1.542      3.076
REMARK INTER + INTRA:          -4.282
REMARK INTER:                  -4.282
REMARK INTRA:                   0.000
REMARK UNBOUND:                 0.000
REMARK SMILES CC1(C)[C@@H]2CC[C@@]1(C)C(=O)C2
REMARK SMILES IDX 1 1 2 2 4 3 5 4 6 5 7 6 9 7 10 8 11 9 8 10 3 11
REMARK H PARENT
REMARK Flexibility Score: inf
ROOT
ATOM      1  C   UNL     1     -48.518  29.622  12.120  1.00  0.00     0.012 C 
ATOM      2  C   UNL     1     -48.043  29.750  13.598  1.00  0.00    -0.020 C 
ATOM      3  C   UNL     1     -48.718  28.745  14.562  1.00  0.00     0.003 C 
ATOM      4  C   UNL     1     -50.210  29.179  14.518  1.00  0.00     0.005 C 
ATOM      5  C   UNL     1     -50.119  30.721  14.392  1.00  0.00     0.015 C 
ATOM      6  C   UNL     1     -48.592  30.970  14.370  1.00  0.00     0.032 C 
ATOM      7  C   UNL     1     -48.128  30.648  15.769  1.00  0.00     0.139 C 
ATOM      8  O   UNL     1     -47.839  31.459  16.633  1.00  0.00    -0.299 OA
ATOM      9  C   UNL     1     -48.181  29.163  15.960  1.00  0.00     0.080 C 
ATOM     10  C   UNL     1     -48.174  32.351  13.851  1.00  0.00     0.020 C 
ATOM     11  C   UNL     1     -46.486  29.642  13.573  1.00  0.00     0.012 C 
ENDROOT
TORSDOF 0
ENDMDL
MODEL 5
REMARK VINA RESULT:    -4.277      1.024      2.295
REMARK INTER + INTRA:          -4.277
REMARK INTER:                  -4.277
REMARK INTRA:                   0.000
REMARK UNBOUND:                 0.000
REMARK SMILES CC1(C)[C@@H]2CC[C@@]1(C)C(=O)C2
REMARK SMILES IDX 1 1 2 2 4 3 5 4 6 5 7 6 9 7 10 8 11 9 8 10 3 11
REMARK H PARENT
REMARK Flexibility Score: inf
ROOT
ATOM      1  C   UNL     1     -47.994  32.331  13.687  1.00  0.00     0.012 C 
ATOM      2  C   UNL     1     -48.048  31.011  14.513  1.00  0.00    -0.020 C 
ATOM      3  C   UNL     1     -47.003  29.956  14.077  1.00  0.00     0.003 C 
ATOM      4  C   UNL     1     -47.450  29.611  12.629  1.00  0.00     0.005 C 
ATOM      5  C   UNL     1     -48.995  29.688  12.714  1.00  0.00     0.015 C 
ATOM      6  C   UNL     1     -49.234  30.075  14.194  1.00  0.00     0.032 C 
ATOM      7  C   UNL     1     -48.843  28.850  14.981  1.00  0.00     0.139 C 
ATOM      8  O   UNL     1     -49.610  28.048  15.490  1.00  0.00    -0.299 OA
ATOM      9  C   UNL     1     -47.351  28.717  14.949  1.00  0.00     0.080 C 
ATOM     10  C   UNL     1     -50.635  30.619  14.496  1.00  0.00     0.020 C 
ATOM     11  C   UNL     1     -47.930  31.424  16.013  1.00  0.00     0.012 C 
ENDROOT
TORSDOF 0
ENDMDL
MODEL 6
REMARK VINA RESULT:    -4.239      1.280      2.207
REMARK INTER + INTRA:          -4.239
REMARK INTER:                  -4.239
REMARK INTRA:                   0.000
REMARK UNBOUND:                 0.000
REMARK SMILES CC1(C)[C@@H]2CC[C@@]1(C)C(=O)C2
REMARK SMILES IDX 1 1 2 2 4 3 5 4 6 5 7 6 9 7 10 8 11 9 8 10 3 11
REMARK H PARENT
REMARK Flexibility Score: inf
ROOT
ATOM      1  C   UNL     1     -50.506  30.351  14.181  1.00  0.00     0.012 C 
ATOM      2  C   UNL     1     -49.040  30.181  14.681  1.00  0.00    -0.020 C 
ATOM      3  C   UNL     1     -48.567  31.307  15.630  1.00  0.00     0.003 C 
ATOM      4  C   UNL     1     -48.598  32.562  14.713  1.00  0.00     0.005 C 
ATOM      5  C   UNL     1     -48.158  31.998  13.339  1.00  0.00     0.015 C 
ATOM      6  C   UNL     1     -47.942  30.496  13.641  1.00  0.00     0.032 C 
ATOM      7  C   UNL     1     -46.711  30.451  14.512  1.00  0.00     0.139 C 
ATOM      8  O   UNL     1     -45.591  30.124  14.155  1.00  0.00    -0.299 OA
ATOM      9  C   UNL     1     -47.067  30.976  15.869  1.00  0.00     0.080 C 
ATOM     10  C   UNL     1     -47.893  29.593  12.404  1.00  0.00     0.020 C 
ATOM     11  C   UNL     1     -48.951  28.755  15.310  1.00  0.00     0.012 C 
ENDROOT
TORSDOF 0
ENDMDL
MODEL 7
REMARK VINA RESULT:    -4.196      5.211      6.599
REMARK INTER + INTRA:          -4.196
REMARK INTER:                  -4.196
REMARK INTRA:                   0.000
REMARK UNBOUND:                 0.000
REMARK SMILES CC1(C)[C@@H]2CC[C@@]1(C)C(=O)C2
REMARK SMILES IDX 1 1 2 2 4 3 5 4 6 5 7 6 9 7 10 8 11 9 8 10 3 11
REMARK H PARENT
REMARK Flexibility Score: inf
ROOT
ATOM      1  C   UNL     1     -45.423  28.801  19.775  1.00  0.00     0.012 C 
ATOM      2  C   UNL     1     -46.725  28.020  19.425  1.00  0.00    -0.020 C 
ATOM      3  C   UNL     1     -48.024  28.824  19.674  1.00  0.00     0.003 C 
ATOM      4  C   UNL     1     -48.009  29.028  21.215  1.00  0.00     0.005 C 
ATOM      5  C   UNL     1     -47.396  27.703  21.734  1.00  0.00     0.015 C 
ATOM      6  C   UNL     1     -47.129  26.917  20.428  1.00  0.00     0.032 C 
ATOM      7  C   UNL     1     -48.499  26.556  19.908  1.00  0.00     0.139 C 
ATOM      8  O   UNL     1     -49.028  25.459  19.983  1.00  0.00    -0.299 OA
ATOM      9  C   UNL     1     -49.151  27.796  19.379  1.00  0.00     0.080 C 
ATOM     10  C   UNL     1     -46.161  25.738  20.574  1.00  0.00     0.020 C 
ATOM     11  C   UNL     1     -46.565  27.533  17.951  1.00  0.00     0.012 C 
ENDROOT
TORSDOF 0
ENDMDL
MODEL 8
REMARK VINA RESULT:    -4.186      1.345      2.970
REMARK INTER + INTRA:          -4.186
REMARK INTER:                  -4.186
REMARK INTRA:                   0.000
REMARK UNBOUND:                 0.000
REMARK SMILES CC1(C)[C@@H]2CC[C@@]1(C)C(=O)C2
REMARK SMILES IDX 1 1 2 2 4 3 5 4 6 5 7 6 9 7 10 8 11 9 8 10 3 11
REMARK H PARENT
REMARK Flexibility Score: inf
ROOT
ATOM      1  C   UNL     1     -48.013  30.249  16.815  1.00  0.00     0.012 C 
ATOM      2  C   UNL     1     -47.682  30.583  15.329  1.00  0.00    -0.020 C 
ATOM      3  C   UNL     1     -48.351  31.880  14.815  1.00  0.00     0.003 C 
ATOM      4  C   UNL     1     -49.865  31.532  14.882  1.00  0.00     0.005 C 
ATOM      5  C   UNL     1     -49.894  30.031  14.502  1.00  0.00     0.015 C 
ATOM      6  C   UNL     1     -48.397  29.709  14.276  1.00  0.00     0.032 C 
ATOM      7  C   UNL     1     -48.032  30.443  13.010  1.00  0.00     0.139 C 
ATOM      8  O   UNL     1     -47.889  29.942  11.906  1.00  0.00    -0.299 OA
ATOM      9  C   UNL     1     -47.976  31.910  13.306  1.00  0.00     0.080 C 
ATOM     10  C   UNL     1     -48.054  28.215  14.280  1.00  0.00     0.020 C 
ATOM     11  C   UNL     1     -46.126  30.597  15.216  1.00  0.00     0.012 C 
ENDROOT
TORSDOF 0
ENDMDL
MODEL 9
REMARK VINA RESULT:    -4.176      1.326      2.853
REMARK INTER + INTRA:          -4.176
REMARK INTER:                  -4.176
REMARK INTRA:                   0.000
REMARK UNBOUND:                 0.000
REMARK SMILES CC1(C)[C@@H]2CC[C@@]1(C)C(=O)C2
REMARK SMILES IDX 1 1 2 2 4 3 5 4 6 5 7 6 9 7 10 8 11 9 8 10 3 11
REMARK H PARENT
REMARK Flexibility Score: inf
ROOT
ATOM      1  C   UNL     1     -50.250  31.739  14.793  1.00  0.00     0.012 C 
ATOM      2  C   UNL     1     -48.846  31.230  14.347  1.00  0.00    -0.020 C 
ATOM      3  C   UNL     1     -48.895  30.010  13.397  1.00  0.00     0.003 C 
ATOM      4  C   UNL     1     -49.523  28.904  14.293  1.00  0.00     0.005 C 
ATOM      5  C   UNL     1     -48.929  29.212  15.690  1.00  0.00     0.015 C 
ATOM      6  C   UNL     1     -48.048  30.455  15.419  1.00  0.00     0.032 C 
ATOM      7  C   UNL     1     -46.897  29.940  14.592  1.00  0.00     0.139 C 
ATOM      8  O   UNL     1     -45.764  29.727  14.993  1.00  0.00    -0.299 OA
ATOM      9  C   UNL     1     -47.399  29.629  13.216  1.00  0.00     0.080 C 
ATOM     10  C   UNL     1     -47.645  31.241  16.672  1.00  0.00     0.020 C 
ATOM     11  C   UNL     1     -48.101  32.461  13.744  1.00  0.00     0.012 C 
ENDROOT
TORSDOF 0
ENDMDL
