MODEL 1
REMARK VINA RESULT:    -3.597      0.000      0.000
REMARK INTER + INTRA:          -5.730
REMARK INTER:                  -5.490
REMARK INTRA:                  -0.240
REMARK UNBOUND:                -0.240
REMARK SMILES CC1=CCC[C@@H](C)C(=O)C[C@@H](C(C)C)C(=O)C1
REMARK SMILES IDX 8 1 9 2 6 3 7 4 5 5 4 6 3 7 2 8 1 9 10 11 11 12 15 13 16 14
REMARK SMILES IDX 17 15 12 17 13 18 14 19
REMARK H PARENT
REMARK Flexibility Score: 70.00
ROOT
ATOM      1  C   UNL     1      20.829  30.243  29.894  1.00  0.00     0.136 C 
ATOM      2  O   UNL     1      21.502  31.264  29.840  1.00  0.00    -0.299 OA
ENDROOT
BRANCH   1   3
ATOM      3  C   UNL     1      19.341  30.301  29.572  1.00  0.00     0.053 C 
ATOM      4  C   UNL     1      18.469  29.797  30.734  1.00  0.00     0.016 C 
BRANCH   3   5
ATOM      5  C   UNL     1      19.018  29.506  28.276  1.00  0.00     0.015 C 
BRANCH   5   6
ATOM      6  C   UNL     1      18.027  28.330  28.418  1.00  0.00     0.028 C 
BRANCH   6   7
ATOM      7  C   UNL     1      18.378  27.004  27.773  1.00  0.00    -0.028 C 
ATOM      8  C   UNL     1      19.214  26.050  28.251  1.00  0.00    -0.070 CG0
ATOM      9  C   UNL     1      19.221  24.717  27.542  1.00  0.00     0.039 C 
ATOM     10  G   UNL     1      20.195  26.256  29.397  1.00  0.00     0.000 G0
ENDBRANCH   6   7
ENDBRANCH   5   6
ENDBRANCH   3   5
ENDBRANCH   1   3
BRANCH   1  11
ATOM     11  C   UNL     1      21.530  28.941  30.250  1.00  0.00     0.087 C 
BRANCH  11  12
ATOM     12  C   UNL     1      22.072  28.165  29.023  1.00  0.00     0.066 C 
BRANCH  12  13
ATOM     13  C   UNL     1      21.564  26.733  28.891  1.00  0.00     0.140 C 
ATOM     14  O   UNL     1      22.341  25.907  28.430  1.00  0.00    -0.299 OA
BRANCH  13  15
ATOM     15  C   UNL     1      20.215  26.246  29.402  1.00  0.00     0.106 CG0
ATOM     16  G   UNL     1      19.238  26.031  28.254  1.00  0.00     0.000 G0
ENDBRANCH  13  15
ENDBRANCH  12  13
BRANCH  12  17
ATOM     17  C   UNL     1      23.628  28.196  28.900  1.00  0.00    -0.006 C 
ATOM     18  C   UNL     1      24.090  28.638  27.501  1.00  0.00     0.008 C 
ATOM     19  C   UNL     1      24.316  29.054  29.975  1.00  0.00     0.008 C 
ENDBRANCH  12  17
ENDBRANCH  11  12
ENDBRANCH   1  11
TORSDOF 1
ENDMDL
MODEL 2
REMARK VINA RESULT:    -3.450      1.746      4.496
REMARK INTER + INTRA:          -5.505
REMARK INTER:                  -5.369
REMARK INTRA:                  -0.136
REMARK UNBOUND:                -0.240
REMARK SMILES CC1=CCC[C@@H](C)C(=O)C[C@@H](C(C)C)C(=O)C1
REMARK SMILES IDX 8 1 9 2 6 3 7 4 5 5 4 6 3 7 2 8 1 9 10 11 11 12 15 13 16 14
REMARK SMILES IDX 17 15 12 17 13 18 14 19
REMARK H PARENT
REMARK Flexibility Score: 70.00
ROOT
ATOM      1  C   UNL     1      17.900  27.431  28.062  1.00  0.00     0.136 C 
ATOM      2  O   UNL     1      18.089  28.097  27.053  1.00  0.00    -0.299 OA
ENDROOT
BRANCH   1   3
ATOM      3  C   UNL     1      17.563  25.949  27.937  1.00  0.00     0.053 C 
ATOM      4  C   UNL     1      16.800  25.417  29.161  1.00  0.00     0.016 C 
BRANCH   3   5
ATOM      5  C   UNL     1      18.844  25.103  27.695  1.00  0.00     0.015 C 
BRANCH   5   6
ATOM      6  C   UNL     1      19.986  25.272  28.721  1.00  0.00     0.028 C 
BRANCH   6   7
ATOM      7  C   UNL     1      21.187  26.113  28.337  1.00  0.00    -0.028 C 
ATOM      8  C   UNL     1      21.705  27.168  29.012  1.00  0.00    -0.070 CG0
ATOM      9  C   UNL     1      23.043  27.695  28.552  1.00  0.00     0.039 C 
ATOM     10  G   UNL     1      20.998  27.901  30.144  1.00  0.00     0.000 G0
ENDBRANCH   6   7
ENDBRANCH   5   6
ENDBRANCH   3   5
ENDBRANCH   1   3
BRANCH   1  11
ATOM     11  C   UNL     1      18.046  28.117  29.412  1.00  0.00     0.087 C 
BRANCH  11  12
ATOM     12  C   UNL     1      18.904  29.406  29.369  1.00  0.00     0.066 C 
BRANCH  12  13
ATOM     13  C   UNL     1      20.386  29.204  29.667  1.00  0.00     0.140 C 
ATOM     14  O   UNL     1      21.105  30.192  29.613  1.00  0.00    -0.299 OA
BRANCH  13  15
ATOM     15  C   UNL     1      20.998  27.893  30.143  1.00  0.00     0.106 CG0
ATOM     16  G   UNL     1      21.703  27.171  29.003  1.00  0.00     0.000 G0
ENDBRANCH  13  15
ENDBRANCH  12  13
BRANCH  12  17
ATOM     17  C   UNL     1      18.334  30.567  30.244  1.00  0.00    -0.006 C 
ATOM     18  C   UNL     1      17.831  31.743  29.389  1.00  0.00     0.008 C 
ATOM     19  C   UNL     1      17.234  30.121  31.222  1.00  0.00     0.008 C 
ENDBRANCH  12  17
ENDBRANCH  11  12
ENDBRANCH   1  11
TORSDOF 1
ENDMDL
MODEL 3
REMARK VINA RESULT:    -3.442      4.010      7.168
REMARK INTER + INTRA:          -5.493
REMARK INTER:                  -5.341
REMARK INTRA:                  -0.152
REMARK UNBOUND:                -0.240
REMARK SMILES CC1=CCC[C@@H](C)C(=O)C[C@@H](C(C)C)C(=O)C1
REMARK SMILES IDX 8 1 9 2 6 3 7 4 5 5 4 6 3 7 2 8 1 9 10 11 11 12 15 13 16 14
REMARK SMILES IDX 17 15 12 17 13 18 14 19
REMARK H PARENT
REMARK Flexibility Score: 70.00
ROOT
ATOM      1  C   UNL     1      17.778  29.175  30.152  1.00  0.00     0.136 C 
ATOM      2  O   UNL     1      17.580  28.012  30.478  1.00  0.00    -0.299 OA
ENDROOT
BRANCH   1   3
ATOM      3  C   UNL     1      18.746  29.487  29.016  1.00  0.00     0.053 C 
ATOM      4  C   UNL     1      18.932  28.296  28.061  1.00  0.00     0.016 C 
BRANCH   3   5
ATOM      5  C   UNL     1      20.122  29.952  29.566  1.00  0.00     0.015 C 
BRANCH   5   6
ATOM      6  C   UNL     1      20.107  31.153  30.536  1.00  0.00     0.028 C 
BRANCH   6   7
ATOM      7  C   UNL     1      20.012  32.551  29.958  1.00  0.00    -0.028 C 
ATOM      8  C   UNL     1      19.066  33.488  30.214  1.00  0.00    -0.070 CG0
ATOM      9  C   UNL     1      19.316  34.884  29.698  1.00  0.00     0.039 C 
ATOM     10  G   UNL     1      17.743  33.210  30.915  1.00  0.00     0.000 G0
ENDBRANCH   6   7
ENDBRANCH   5   6
ENDBRANCH   3   5
ENDBRANCH   1   3
BRANCH   1  11
ATOM     11  C   UNL     1      17.010  30.265  30.884  1.00  0.00     0.087 C 
BRANCH  11  12
ATOM     12  C   UNL     1      16.227  31.217  29.945  1.00  0.00     0.066 C 
BRANCH  12  13
ATOM     13  C   UNL     1      16.701  32.667  29.958  1.00  0.00     0.140 C 
ATOM     14  O   UNL     1      16.126  33.447  29.211  1.00  0.00    -0.299 OA
BRANCH  13  15
ATOM     15  C   UNL     1      17.744  33.225  30.917  1.00  0.00     0.106 CG0
ATOM     16  G   UNL     1      19.066  33.475  30.204  1.00  0.00     0.000 G0
ENDBRANCH  13  15
ENDBRANCH  12  13
BRANCH  12  17
ATOM     17  C   UNL     1      14.680  31.156  30.142  1.00  0.00    -0.006 C 
ATOM     18  C   UNL     1      14.098  29.789  29.742  1.00  0.00     0.008 C 
ATOM     19  C   UNL     1      14.222  31.526  31.562  1.00  0.00     0.008 C 
ENDBRANCH  12  17
ENDBRANCH  11  12
ENDBRANCH   1  11
TORSDOF 1
ENDMDL
MODEL 4
REMARK VINA RESULT:    -3.400      3.205      5.597
REMARK INTER + INTRA:          -5.429
REMARK INTER:                  -4.968
REMARK INTRA:                  -0.460
REMARK UNBOUND:                -0.240
REMARK SMILES CC1=CCC[C@@H](C)C(=O)C[C@@H](C(C)C)C(=O)C1
REMARK SMILES IDX 8 1 9 2 6 3 7 4 5 5 4 6 3 7 2 8 1 9 10 11 11 12 15 13 16 14
REMARK SMILES IDX 17 15 12 17 13 18 14 19
REMARK H PARENT
REMARK Flexibility Score: 70.00
ROOT
ATOM      1  C   UNL     1      19.526  30.366  29.396  1.00  0.00     0.136 C 
ATOM      2  O   UNL     1      20.540  30.909  29.813  1.00  0.00    -0.299 OA
ENDROOT
BRANCH   1   3
ATOM      3  C   UNL     1      19.471  28.847  29.287  1.00  0.00     0.053 C 
ATOM      4  C   UNL     1      20.870  28.217  29.184  1.00  0.00     0.016 C 
BRANCH   3   5
ATOM      5  C   UNL     1      18.594  28.404  28.083  1.00  0.00     0.015 C 
BRANCH   5   6
ATOM      6  C   UNL     1      17.250  27.724  28.423  1.00  0.00     0.028 C 
BRANCH   6   7
ATOM      7  C   UNL     1      16.692  27.880  29.823  1.00  0.00    -0.028 C 
ATOM      8  C   UNL     1      15.840  28.835  30.270  1.00  0.00    -0.070 CG0
ATOM      9  C   UNL     1      15.244  28.644  31.644  1.00  0.00     0.039 C 
ATOM     10  G   UNL     1      15.505  30.115  29.516  1.00  0.00     0.000 G0
ENDBRANCH   6   7
ENDBRANCH   5   6
ENDBRANCH   3   5
ENDBRANCH   1   3
BRANCH   1  11
ATOM     11  C   UNL     1      18.339  31.247  29.035  1.00  0.00     0.087 C 
BRANCH  11  12
ATOM     12  C   UNL     1      17.529  31.740  30.260  1.00  0.00     0.066 C 
BRANCH  12  13
ATOM     13  C   UNL     1      16.056  31.344  30.261  1.00  0.00     0.140 C 
ATOM     14  O   UNL     1      15.273  32.111  30.803  1.00  0.00    -0.299 OA
BRANCH  13  15
ATOM     15  C   UNL     1      15.489  30.132  29.532  1.00  0.00     0.106 CG0
ATOM     16  G   UNL     1      15.830  28.842  30.266  1.00  0.00     0.000 G0
ENDBRANCH  13  15
ENDBRANCH  12  13
BRANCH  12  17
ATOM     17  C   UNL     1      17.673  33.271  30.531  1.00  0.00    -0.006 C 
ATOM     18  C   UNL     1      18.311  33.560  31.900  1.00  0.00     0.008 C 
ATOM     19  C   UNL     1      18.434  34.024  29.427  1.00  0.00     0.008 C 
ENDBRANCH  12  17
ENDBRANCH  11  12
ENDBRANCH   1  11
TORSDOF 1
ENDMDL
MODEL 5
REMARK VINA RESULT:    -3.392      2.502      5.681
REMARK INTER + INTRA:          -5.416
REMARK INTER:                  -5.059
REMARK INTRA:                  -0.357
REMARK UNBOUND:                -0.240
REMARK SMILES CC1=CCC[C@@H](C)C(=O)C[C@@H](C(C)C)C(=O)C1
REMARK SMILES IDX 8 1 9 2 6 3 7 4 5 5 4 6 3 7 2 8 1 9 10 11 11 12 15 13 16 14
REMARK SMILES IDX 17 15 12 17 13 18 14 19
REMARK H PARENT
REMARK Flexibility Score: 70.00
ROOT
ATOM      1  C   UNL     1      22.333  27.318  28.971  1.00  0.00     0.136 C 
ATOM      2  O   UNL     1      22.437  26.188  28.513  1.00  0.00    -0.299 OA
ENDROOT
BRANCH   1   3
ATOM      3  C   UNL     1      23.367  28.378  28.608  1.00  0.00     0.053 C 
ATOM      4  C   UNL     1      23.761  28.327  27.123  1.00  0.00     0.016 C 
BRANCH   3   5
ATOM      5  C   UNL     1      24.631  28.255  29.503  1.00  0.00     0.015 C 
BRANCH   5   6
ATOM      6  C   UNL     1      25.036  29.513  30.302  1.00  0.00     0.028 C 
BRANCH   6   7
ATOM      7  C   UNL     1      24.155  30.743  30.212  1.00  0.00    -0.028 C 
ATOM      8  C   UNL     1      23.123  31.080  31.025  1.00  0.00    -0.070 CG0
ATOM      9  C   UNL     1      22.549  32.468  30.876  1.00  0.00     0.039 C 
ATOM     10  G   UNL     1      22.460  30.133  32.016  1.00  0.00     0.000 G0
ENDBRANCH   6   7
ENDBRANCH   5   6
ENDBRANCH   3   5
ENDBRANCH   1   3
BRANCH   1  11
ATOM     11  C   UNL     1      21.140  27.623  29.865  1.00  0.00     0.087 C 
BRANCH  11  12
ATOM     12  C   UNL     1      20.877  29.137  30.062  1.00  0.00     0.066 C 
BRANCH  12  13
ATOM     13  C   UNL     1      21.104  29.651  31.480  1.00  0.00     0.140 C 
ATOM     14  O   UNL     1      20.166  29.567  32.260  1.00  0.00    -0.299 OA
BRANCH  13  15
ATOM     15  C   UNL     1      22.443  30.142  32.015  1.00  0.00     0.106 CG0
ATOM     16  G   UNL     1      23.130  31.061  31.014  1.00  0.00     0.000 G0
ENDBRANCH  13  15
ENDBRANCH  12  13
BRANCH  12  17
ATOM     17  C   UNL     1      19.481  29.602  29.540  1.00  0.00    -0.006 C 
ATOM     18  C   UNL     1      19.497  31.066  29.066  1.00  0.00     0.008 C 
ATOM     19  C   UNL     1      18.901  28.700  28.438  1.00  0.00     0.008 C 
ENDBRANCH  12  17
ENDBRANCH  11  12
ENDBRANCH   1  11
TORSDOF 1
ENDMDL
MODEL 6
REMARK VINA RESULT:    -3.369      3.037      5.946
REMARK INTER + INTRA:          -5.381
REMARK INTER:                  -5.161
REMARK INTRA:                  -0.221
REMARK UNBOUND:                -0.240
REMARK SMILES CC1=CCC[C@@H](C)C(=O)C[C@@H](C(C)C)C(=O)C1
REMARK SMILES IDX 8 1 9 2 6 3 7 4 5 5 4 6 3 7 2 8 1 9 10 11 11 12 15 13 16 14
REMARK SMILES IDX 17 15 12 17 13 18 14 19
REMARK H PARENT
REMARK Flexibility Score: 70.00
ROOT
ATOM      1  C   UNL     1      17.200  28.814  29.431  1.00  0.00     0.136 C 
ATOM      2  O   UNL     1      16.123  28.274  29.219  1.00  0.00    -0.299 OA
ENDROOT
BRANCH   1   3
ATOM      3  C   UNL     1      18.387  28.517  28.522  1.00  0.00     0.053 C 
ATOM      4  C   UNL     1      18.053  27.469  27.448  1.00  0.00     0.016 C 
BRANCH   3   5
ATOM      5  C   UNL     1      19.624  28.064  29.346  1.00  0.00     0.015 C 
BRANCH   5   6
ATOM      6  C   UNL     1      20.898  28.924  29.206  1.00  0.00     0.028 C 
BRANCH   6   7
ATOM      7  C   UNL     1      21.601  29.391  30.465  1.00  0.00    -0.028 C 
ATOM      8  C   UNL     1      21.359  30.521  31.174  1.00  0.00    -0.070 CG0
ATOM      9  C   UNL     1      22.028  30.650  32.521  1.00  0.00     0.039 C 
ATOM     10  G   UNL     1      20.525  31.693  30.674  1.00  0.00     0.000 G0
ENDBRANCH   6   7
ENDBRANCH   5   6
ENDBRANCH   3   5
ENDBRANCH   1   3
BRANCH   1  11
ATOM     11  C   UNL     1      17.293  29.797  30.589  1.00  0.00     0.087 C 
BRANCH  11  12
ATOM     12  C   UNL     1      17.928  31.157  30.206  1.00  0.00     0.066 C 
BRANCH  12  13
ATOM     13  C   UNL     1      19.071  31.612  31.107  1.00  0.00     0.140 C 
ATOM     14  O   UNL     1      18.804  31.821  32.282  1.00  0.00    -0.299 OA
BRANCH  13  15
ATOM     15  C   UNL     1      20.528  31.701  30.673  1.00  0.00     0.106 CG0
ATOM     16  G   UNL     1      21.326  30.508  31.181  1.00  0.00     0.000 G0
ENDBRANCH  13  15
ENDBRANCH  12  13
BRANCH  12  17
ATOM     17  C   UNL     1      16.886  32.308  30.038  1.00  0.00    -0.006 C 
ATOM     18  C   UNL     1      17.245  33.250  28.876  1.00  0.00     0.008 C 
ATOM     19  C   UNL     1      15.438  31.814  29.886  1.00  0.00     0.008 C 
ENDBRANCH  12  17
ENDBRANCH  11  12
ENDBRANCH   1  11
TORSDOF 1
ENDMDL
MODEL 7
REMARK VINA RESULT:    -3.327      2.190      4.124
REMARK INTER + INTRA:          -5.318
REMARK INTER:                  -4.823
REMARK INTRA:                  -0.495
REMARK UNBOUND:                -0.240
REMARK SMILES CC1=CCC[C@@H](C)C(=O)C[C@@H](C(C)C)C(=O)C1
REMARK SMILES IDX 8 1 9 2 6 3 7 4 5 5 4 6 3 7 2 8 1 9 10 11 11 12 15 13 16 14
REMARK SMILES IDX 17 15 12 17 13 18 14 19
REMARK H PARENT
REMARK Flexibility Score: 70.00
ROOT
ATOM      1  C   UNL     1      21.168  28.020  28.714  1.00  0.00     0.136 C 
ATOM      2  O   UNL     1      22.244  27.746  28.198  1.00  0.00    -0.299 OA
ENDROOT
BRANCH   1   3
ATOM      3  C   UNL     1      20.175  26.907  29.028  1.00  0.00     0.053 C 
ATOM      4  C   UNL     1      20.871  25.604  29.454  1.00  0.00     0.016 C 
BRANCH   3   5
ATOM      5  C   UNL     1      19.233  26.642  27.821  1.00  0.00     0.015 C 
BRANCH   5   6
ATOM      6  C   UNL     1      18.062  27.630  27.630  1.00  0.00     0.028 C 
BRANCH   6   7
ATOM      7  C   UNL     1      17.151  27.911  28.808  1.00  0.00    -0.028 C 
ATOM      8  C   UNL     1      16.994  29.085  29.468  1.00  0.00    -0.070 CG0
ATOM      9  C   UNL     1      15.857  29.177  30.456  1.00  0.00     0.039 C 
ATOM     10  G   UNL     1      17.927  30.281  29.336  1.00  0.00     0.000 G0
ENDBRANCH   6   7
ENDBRANCH   5   6
ENDBRANCH   3   5
ENDBRANCH   1   3
BRANCH   1  11
ATOM     11  C   UNL     1      20.887  29.476  29.053  1.00  0.00     0.087 C 
BRANCH  11  12
ATOM     12  C   UNL     1      20.292  29.686  30.469  1.00  0.00     0.066 C 
BRANCH  12  13
ATOM     13  C   UNL     1      18.915  30.340  30.498  1.00  0.00     0.140 C 
ATOM     14  O   UNL     1      18.645  31.024  31.476  1.00  0.00    -0.299 OA
BRANCH  13  15
ATOM     15  C   UNL     1      17.916  30.299  29.350  1.00  0.00     0.106 CG0
ATOM     16  G   UNL     1      16.995  29.093  29.467  1.00  0.00     0.000 G0
ENDBRANCH  13  15
ENDBRANCH  12  13
BRANCH  12  17
ATOM     17  C   UNL     1      21.258  30.423  31.450  1.00  0.00    -0.006 C 
ATOM     18  C   UNL     1      22.237  29.454  32.135  1.00  0.00     0.008 C 
ATOM     19  C   UNL     1      22.034  31.581  30.800  1.00  0.00     0.008 C 
ENDBRANCH  12  17
ENDBRANCH  11  12
ENDBRANCH   1  11
TORSDOF 1
ENDMDL
MODEL 8
REMARK VINA RESULT:    -3.246      2.773      4.953
REMARK INTER + INTRA:          -5.193
REMARK INTER:                  -4.862
REMARK INTRA:                  -0.331
REMARK UNBOUND:                -0.240
REMARK SMILES CC1=CCC[C@@H](C)C(=O)C[C@@H](C(C)C)C(=O)C1
REMARK SMILES IDX 8 1 9 2 6 3 7 4 5 5 4 6 3 7 2 8 1 9 10 11 11 12 15 13 16 14
REMARK SMILES IDX 17 15 12 17 13 18 14 19
REMARK H PARENT
REMARK Flexibility Score: 70.00
ROOT
ATOM      1  C   UNL     1      16.767  25.677  28.076  1.00  0.00     0.136 C 
ATOM      2  O   UNL     1      16.411  24.716  27.407  1.00  0.00    -0.299 OA
ENDROOT
BRANCH   1   3
ATOM      3  C   UNL     1      16.076  25.972  29.403  1.00  0.00     0.053 C 
ATOM      4  C   UNL     1      15.542  24.699  30.080  1.00  0.00     0.016 C 
BRANCH   3   5
ATOM      5  C   UNL     1      14.928  27.003  29.218  1.00  0.00     0.015 C 
BRANCH   5   6
ATOM      6  C   UNL     1      15.221  28.449  29.672  1.00  0.00     0.028 C 
BRANCH   6   7
ATOM      7  C   UNL     1      16.303  28.679  30.708  1.00  0.00    -0.028 C 
ATOM      8  C   UNL     1      17.563  29.134  30.498  1.00  0.00    -0.070 CG0
ATOM      9  C   UNL     1      18.379  29.501  31.714  1.00  0.00     0.039 C 
ATOM     10  G   UNL     1      18.231  29.226  29.133  1.00  0.00     0.000 G0
ENDBRANCH   6   7
ENDBRANCH   5   6
ENDBRANCH   3   5
ENDBRANCH   1   3
BRANCH   1  11
ATOM     11  C   UNL     1      17.922  26.522  27.560  1.00  0.00     0.087 C 
BRANCH  11  12
ATOM     12  C   UNL     1      19.061  26.724  28.591  1.00  0.00     0.066 C 
BRANCH  12  13
ATOM     13  C   UNL     1      19.321  28.173  28.989  1.00  0.00     0.140 C 
ATOM     14  O   UNL     1      20.488  28.518  29.102  1.00  0.00    -0.299 OA
BRANCH  13  15
ATOM     15  C   UNL     1      18.239  29.235  29.131  1.00  0.00     0.106 CG0
ATOM     16  G   UNL     1      17.564  29.152  30.494  1.00  0.00     0.000 G0
ENDBRANCH  13  15
ENDBRANCH  12  13
BRANCH  12  17
ATOM     17  C   UNL     1      20.400  26.029  28.188  1.00  0.00    -0.006 C 
ATOM     18  C   UNL     1      21.070  25.328  29.381  1.00  0.00     0.008 C 
ATOM     19  C   UNL     1      20.257  25.047  27.014  1.00  0.00     0.008 C 
ENDBRANCH  12  17
ENDBRANCH  11  12
ENDBRANCH   1  11
TORSDOF 1
ENDMDL
MODEL 9
REMARK VINA RESULT:    -3.221      9.028     12.431
REMARK INTER + INTRA:          -5.156
REMARK INTER:                  -4.879
REMARK INTRA:                  -0.278
REMARK UNBOUND:                -0.240
REMARK SMILES CC1=CCC[C@@H](C)C(=O)C[C@@H](C(C)C)C(=O)C1
REMARK SMILES IDX 8 1 9 2 6 3 7 4 5 5 4 6 3 7 2 8 1 9 10 11 11 12 15 13 16 14
REMARK SMILES IDX 17 15 12 17 13 18 14 19
REMARK H PARENT
REMARK Flexibility Score: 70.00
ROOT
ATOM      1  C   UNL     1      30.109  30.934  28.650  1.00  0.00     0.136 C 
ATOM      2  O   UNL     1      29.037  30.582  28.178  1.00  0.00    -0.299 OA
ENDROOT
BRANCH   1   3
ATOM      3  C   UNL     1      31.240  31.360  27.720  1.00  0.00     0.053 C 
ATOM      4  C   UNL     1      32.426  30.382  27.754  1.00  0.00     0.016 C 
BRANCH   3   5
ATOM      5  C   UNL     1      31.723  32.800  28.050  1.00  0.00     0.015 C 
BRANCH   5   6
ATOM      6  C   UNL     1      33.064  32.921  28.806  1.00  0.00     0.028 C 
BRANCH   6   7
ATOM      7  C   UNL     1      33.203  33.994  29.867  1.00  0.00    -0.028 C 
ATOM      8  C   UNL     1      32.914  33.891  31.188  1.00  0.00    -0.070 CG0
ATOM      9  C   UNL     1      33.357  35.022  32.084  1.00  0.00     0.039 C 
ATOM     10  G   UNL     1      32.111  32.757  31.810  1.00  0.00     0.000 G0
ENDBRANCH   6   7
ENDBRANCH   5   6
ENDBRANCH   3   5
ENDBRANCH   1   3
BRANCH   1  11
ATOM     11  C   UNL     1      30.252  30.964  30.164  1.00  0.00     0.087 C 
BRANCH  11  12
ATOM     12  C   UNL     1      29.651  32.231  30.824  1.00  0.00     0.066 C 
BRANCH  12  13
ATOM     13  C   UNL     1      30.610  33.007  31.720  1.00  0.00     0.140 C 
ATOM     14  O   UNL     1      30.118  33.824  32.487  1.00  0.00    -0.299 OA
BRANCH  13  15
ATOM     15  C   UNL     1      32.108  32.747  31.810  1.00  0.00     0.106 CG0
ATOM     16  G   UNL     1      32.901  33.896  31.201  1.00  0.00     0.000 G0
ENDBRANCH  13  15
ENDBRANCH  12  13
BRANCH  12  17
ATOM     17  C   UNL     1      28.308  31.967  31.577  1.00  0.00    -0.006 C 
ATOM     18  C   UNL     1      27.093  32.041  30.637  1.00  0.00     0.008 C 
ATOM     19  C   UNL     1      28.288  30.642  32.357  1.00  0.00     0.008 C 
ENDBRANCH  12  17
ENDBRANCH  11  12
ENDBRANCH   1  11
TORSDOF 1
ENDMDL
