MODEL 1
REMARK VINA RESULT:    -3.243      0.000      0.000
REMARK INTER + INTRA:          -5.357
REMARK INTER:                  -4.949
REMARK INTRA:                  -0.408
REMARK UNBOUND:                -0.408
REMARK SMILES O=C([O-])CCCCCCCCC(=O)[O-]
REMARK SMILES IDX 7 1 6 2 5 3 4 4 2 5 1 6 3 7 8 8 9 9 10 10 11 11 12 12 13 13
REMARK SMILES IDX 14 14
REMARK H PARENT
REMARK Flexibility Score: inf
ROOT
ATOM      1  C   UNL     1      10.706 -17.995  -1.506  1.00  0.00     0.000 C 
ENDROOT
BRANCH   1   2
ATOM      2  C   UNL     1      10.730 -17.088  -2.750  1.00  0.00     0.000 C 
BRANCH   2   3
ATOM      3  C   UNL     1      12.130 -16.527  -3.044  1.00  0.00     0.006 C 
BRANCH   3   4
ATOM      4  C   UNL     1      12.090 -15.078  -3.550  1.00  0.00     0.053 C 
BRANCH   4   5
ATOM      5  C   UNL     1      11.919 -14.130  -2.407  1.00  0.00     0.041 C 
ATOM      6  O   UNL     1      12.908 -13.498  -1.954  1.00  0.00    -0.550 OA
ATOM      7  O   UNL     1      10.656 -13.906  -1.873  1.00  0.00    -0.550 OA
ENDBRANCH   4   5
ENDBRANCH   3   4
ENDBRANCH   2   3
ENDBRANCH   1   2
BRANCH   1   8
ATOM      8  C   UNL     1      12.108 -18.461  -1.088  1.00  0.00     0.000 C 
BRANCH   8   9
ATOM      9  C   UNL     1      12.132 -19.076   0.320  1.00  0.00     0.000 C 
BRANCH   9  10
ATOM     10  C   UNL     1      10.712 -19.388   0.807  1.00  0.00     0.006 C 
BRANCH  10  11
ATOM     11  C   UNL     1      10.613 -19.260   2.329  1.00  0.00     0.053 C 
BRANCH  11  12
ATOM     12  C   UNL     1       9.324 -18.607   2.717  1.00  0.00     0.041 C 
ATOM     13  O   UNL     1       8.255 -19.274   2.729  1.00  0.00    -0.550 OA
ATOM     14  O   UNL     1       9.293 -17.251   3.018  1.00  0.00    -0.550 OA
ENDBRANCH  11  12
ENDBRANCH  10  11
ENDBRANCH   9  10
ENDBRANCH   8   9
ENDBRANCH   1   8
TORSDOF 9
ENDMDL
MODEL 2
REMARK VINA RESULT:    -3.172     17.423     20.182
REMARK INTER + INTRA:          -5.249
REMARK INTER:                  -4.971
REMARK INTRA:                  -0.278
REMARK UNBOUND:                -0.408
REMARK SMILES O=C([O-])CCCCCCCCC(=O)[O-]
REMARK SMILES IDX 7 1 6 2 5 3 4 4 2 5 1 6 3 7 8 8 9 9 10 10 11 11 12 12 13 13
REMARK SMILES IDX 14 14
REMARK H PARENT
REMARK Flexibility Score: inf
ROOT
ATOM      1  C   UNL     1      -4.038 -15.007  12.288  1.00  0.00     0.000 C 
ENDROOT
BRANCH   1   2
ATOM      2  C   UNL     1      -4.904 -15.949  11.431  1.00  0.00     0.000 C 
BRANCH   2   3
ATOM      3  C   UNL     1      -4.418 -16.036   9.976  1.00  0.00     0.006 C 
BRANCH   3   4
ATOM      4  C   UNL     1      -4.943 -14.883   9.109  1.00  0.00     0.053 C 
BRANCH   4   5
ATOM      5  C   UNL     1      -4.083 -14.708   7.898  1.00  0.00     0.041 C 
ATOM      6  O   UNL     1      -2.869 -15.036   7.931  1.00  0.00    -0.550 OA
ATOM      7  O   UNL     1      -4.635 -14.228   6.717  1.00  0.00    -0.550 OA
ENDBRANCH   4   5
ENDBRANCH   3   4
ENDBRANCH   2   3
ENDBRANCH   1   2
BRANCH   1   8
ATOM      8  C   UNL     1      -4.877 -14.003  13.092  1.00  0.00     0.000 C 
BRANCH   8   9
ATOM      9  C   UNL     1      -4.079 -13.338  14.224  1.00  0.00     0.000 C 
BRANCH   9  10
ATOM     10  C   UNL     1      -4.236 -11.813  14.185  1.00  0.00     0.006 C 
BRANCH  10  11
ATOM     11  C   UNL     1      -3.001 -11.118  14.764  1.00  0.00     0.053 C 
BRANCH  11  12
ATOM     12  C   UNL     1      -2.944  -9.691  14.318  1.00  0.00     0.041 C 
ATOM     13  O   UNL     1      -3.736  -8.844  14.807  1.00  0.00    -0.550 OA
ATOM     14  O   UNL     1      -2.050  -9.307  13.327  1.00  0.00    -0.550 OA
ENDBRANCH  11  12
ENDBRANCH  10  11
ENDBRANCH   9  10
ENDBRANCH   8   9
ENDBRANCH   1   8
TORSDOF 9
ENDMDL
MODEL 3
REMARK VINA RESULT:    -3.148      1.084      5.943
REMARK INTER + INTRA:          -5.212
REMARK INTER:                  -4.688
REMARK INTRA:                  -0.524
REMARK UNBOUND:                -0.408
REMARK SMILES O=C([O-])CCCCCCCCC(=O)[O-]
REMARK SMILES IDX 7 1 6 2 5 3 4 4 2 5 1 6 3 7 8 8 9 9 10 10 11 11 12 12 13 13
REMARK SMILES IDX 14 14
REMARK H PARENT
REMARK Flexibility Score: inf
ROOT
ATOM      1  C   UNL     1      11.055 -19.714  -0.847  1.00  0.00     0.000 C 
ENDROOT
BRANCH   1   2
ATOM      2  C   UNL     1      10.610 -20.035   0.592  1.00  0.00     0.000 C 
BRANCH   2   3
ATOM      3  C   UNL     1      11.268 -19.116   1.632  1.00  0.00     0.006 C 
BRANCH   3   4
ATOM      4  C   UNL     1      10.488 -19.066   2.953  1.00  0.00     0.053 C 
BRANCH   4   5
ATOM      5  C   UNL     1       9.090 -18.587   2.716  1.00  0.00     0.041 C 
ATOM      6  O   UNL     1       8.884 -17.419   2.295  1.00  0.00    -0.550 OA
ATOM      7  O   UNL     1       8.018 -19.448   2.913  1.00  0.00    -0.550 OA
ENDBRANCH   4   5
ENDBRANCH   3   4
ENDBRANCH   2   3
ENDBRANCH   1   2
BRANCH   1   8
ATOM      8  C   UNL     1      10.872 -18.232  -1.204  1.00  0.00     0.000 C 
BRANCH   8   9
ATOM      9  C   UNL     1      10.370 -18.027  -2.642  1.00  0.00     0.000 C 
BRANCH   9  10
ATOM     10  C   UNL     1      11.158 -16.917  -3.346  1.00  0.00     0.006 C 
BRANCH  10  11
ATOM     11  C   UNL     1      11.780 -15.955  -2.331  1.00  0.00     0.053 C 
BRANCH  11  12
ATOM     12  C   UNL     1      11.027 -14.663  -2.301  1.00  0.00     0.041 C 
ATOM     13  O   UNL     1      11.201 -13.807  -3.208  1.00  0.00    -0.550 OA
ATOM     14  O   UNL     1      10.168 -14.382  -1.246  1.00  0.00    -0.550 OA
ENDBRANCH  11  12
ENDBRANCH  10  11
ENDBRANCH   9  10
ENDBRANCH   8   9
ENDBRANCH   1   8
TORSDOF 9
ENDMDL
MODEL 4
REMARK VINA RESULT:    -3.089      5.286      7.528
REMARK INTER + INTRA:          -5.123
REMARK INTER:                  -4.288
REMARK INTRA:                  -0.835
REMARK UNBOUND:                -0.408
REMARK SMILES O=C([O-])CCCCCCCCC(=O)[O-]
REMARK SMILES IDX 7 1 6 2 5 3 4 4 2 5 1 6 3 7 8 8 9 9 10 10 11 11 12 12 13 13
REMARK SMILES IDX 14 14
REMARK H PARENT
REMARK Flexibility Score: inf
ROOT
ATOM      1  C   UNL     1      12.140 -16.358   5.968  1.00  0.00     0.000 C 
ENDROOT
BRANCH   1   2
ATOM      2  C   UNL     1      11.517 -17.180   4.826  1.00  0.00     0.000 C 
BRANCH   2   3
ATOM      3  C   UNL     1      10.115 -16.686   4.439  1.00  0.00     0.006 C 
BRANCH   3   4
ATOM      4  C   UNL     1       9.062 -17.801   4.488  1.00  0.00     0.053 C 
BRANCH   4   5
ATOM      5  C   UNL     1       8.595 -18.140   3.108  1.00  0.00     0.041 C 
ATOM      6  O   UNL     1       9.090 -17.554   2.111  1.00  0.00    -0.550 OA
ATOM      7  O   UNL     1       7.649 -19.140   2.920  1.00  0.00    -0.550 OA
ENDBRANCH   4   5
ENDBRANCH   3   4
ENDBRANCH   2   3
ENDBRANCH   1   2
BRANCH   1   8
ATOM      8  C   UNL     1      11.292 -15.134   6.345  1.00  0.00     0.000 C 
BRANCH   8   9
ATOM      9  C   UNL     1      11.278 -14.867   7.858  1.00  0.00     0.000 C 
BRANCH   9  10
ATOM     10  C   UNL     1       9.871 -14.491   8.336  1.00  0.00     0.006 C 
BRANCH  10  11
ATOM     11  C   UNL     1       8.812 -14.911   7.314  1.00  0.00     0.053 C 
BRANCH  11  12
ATOM     12  C   UNL     1       8.073 -16.122   7.791  1.00  0.00     0.041 C 
ATOM     13  O   UNL     1       8.685 -17.209   7.962  1.00  0.00    -0.550 OA
ATOM     14  O   UNL     1       6.701 -16.063   7.999  1.00  0.00    -0.550 OA
ENDBRANCH  11  12
ENDBRANCH  10  11
ENDBRANCH   9  10
ENDBRANCH   8   9
ENDBRANCH   1   8
TORSDOF 9
ENDMDL
MODEL 5
REMARK VINA RESULT:    -3.073      7.512      9.651
REMARK INTER + INTRA:          -5.098
REMARK INTER:                  -4.190
REMARK INTRA:                  -0.908
REMARK UNBOUND:                -0.408
REMARK SMILES O=C([O-])CCCCCCCCC(=O)[O-]
REMARK SMILES IDX 7 1 6 2 5 3 4 4 2 5 1 6 3 7 8 8 9 9 10 10 11 11 12 12 13 13
REMARK SMILES IDX 14 14
REMARK H PARENT
REMARK Flexibility Score: inf
ROOT
ATOM      1  C   UNL     1       2.725 -18.652   5.359  1.00  0.00     0.000 C 
ENDROOT
BRANCH   1   2
ATOM      2  C   UNL     1       3.579 -19.830   5.860  1.00  0.00     0.000 C 
BRANCH   2   3
ATOM      3  C   UNL     1       5.036 -19.750   5.379  1.00  0.00     0.006 C 
BRANCH   3   4
ATOM      4  C   UNL     1       5.499 -21.038   4.685  1.00  0.00     0.053 C 
BRANCH   4   5
ATOM      5  C   UNL     1       6.455 -20.721   3.579  1.00  0.00     0.041 C 
ATOM      6  O   UNL     1       6.709 -19.524   3.285  1.00  0.00    -0.550 OA
ATOM      7  O   UNL     1       7.105 -21.747   2.906  1.00  0.00    -0.550 OA
ENDBRANCH   4   5
ENDBRANCH   3   4
ENDBRANCH   2   3
ENDBRANCH   1   2
BRANCH   1   8
ATOM      8  C   UNL     1       2.266 -18.832   3.904  1.00  0.00     0.000 C 
BRANCH   8   9
ATOM      9  C   UNL     1       2.957 -17.856   2.940  1.00  0.00     0.000 C 
BRANCH   9  10
ATOM     10  C   UNL     1       3.755 -18.612   1.871  1.00  0.00     0.006 C 
BRANCH  10  11
ATOM     11  C   UNL     1       3.329 -20.081   1.804  1.00  0.00     0.053 C 
BRANCH  11  12
ATOM     12  C   UNL     1       3.151 -20.510   0.382  1.00  0.00     0.041 C 
ATOM     13  O   UNL     1       3.825 -19.967  -0.533  1.00  0.00    -0.550 OA
ATOM     14  O   UNL     1       2.206 -21.476   0.059  1.00  0.00    -0.550 OA
ENDBRANCH  11  12
ENDBRANCH  10  11
ENDBRANCH   9  10
ENDBRANCH   8   9
ENDBRANCH   1   8
TORSDOF 9
ENDMDL
MODEL 6
REMARK VINA RESULT:    -3.069      5.260      8.925
REMARK INTER + INTRA:          -5.092
REMARK INTER:                  -4.450
REMARK INTRA:                  -0.642
REMARK UNBOUND:                -0.408
REMARK SMILES O=C([O-])CCCCCCCCC(=O)[O-]
REMARK SMILES IDX 7 1 6 2 5 3 4 4 2 5 1 6 3 7 8 8 9 9 10 10 11 11 12 12 13 13
REMARK SMILES IDX 14 14
REMARK H PARENT
REMARK Flexibility Score: inf
ROOT
ATOM      1  C   UNL     1      10.239 -15.057   7.134  1.00  0.00     0.000 C 
ENDROOT
BRANCH   1   2
ATOM      2  C   UNL     1       9.170 -15.419   8.180  1.00  0.00     0.000 C 
BRANCH   2   3
ATOM      3  C   UNL     1       7.867 -15.923   7.543  1.00  0.00     0.006 C 
BRANCH   3   4
ATOM      4  C   UNL     1       7.080 -16.859   8.471  1.00  0.00     0.053 C 
BRANCH   4   5
ATOM      5  C   UNL     1       5.610 -16.721   8.228  1.00  0.00     0.041 C 
ATOM      6  O   UNL     1       5.098 -15.581   8.076  1.00  0.00    -0.550 OA
ATOM      7  O   UNL     1       4.814 -17.854   8.120  1.00  0.00    -0.550 OA
ENDBRANCH   4   5
ENDBRANCH   3   4
ENDBRANCH   2   3
ENDBRANCH   1   2
BRANCH   1   8
ATOM      8  C   UNL     1       9.806 -15.407   5.702  1.00  0.00     0.000 C 
BRANCH   8   9
ATOM      9  C   UNL     1      10.963 -15.949   4.849  1.00  0.00     0.000 C 
BRANCH   9  10
ATOM     10  C   UNL     1      10.643 -17.349   4.314  1.00  0.00     0.006 C 
BRANCH  10  11
ATOM     11  C   UNL     1       9.139 -17.631   4.376  1.00  0.00     0.053 C 
BRANCH  11  12
ATOM     12  C   UNL     1       8.648 -18.150   3.061  1.00  0.00     0.041 C 
ATOM     13  O   UNL     1       9.228 -17.818   1.994  1.00  0.00    -0.550 OA
ATOM     14  O   UNL     1       7.522 -18.961   3.010  1.00  0.00    -0.550 OA
ENDBRANCH  11  12
ENDBRANCH  10  11
ENDBRANCH   9  10
ENDBRANCH   8   9
ENDBRANCH   1   8
TORSDOF 9
ENDMDL
MODEL 7
REMARK VINA RESULT:    -3.023     14.932     15.784
REMARK INTER + INTRA:          -5.022
REMARK INTER:                  -4.735
REMARK INTRA:                  -0.287
REMARK UNBOUND:                -0.408
REMARK SMILES O=C([O-])CCCCCCCCC(=O)[O-]
REMARK SMILES IDX 7 1 6 2 5 3 4 4 2 5 1 6 3 7 8 8 9 9 10 10 11 11 12 12 13 13
REMARK SMILES IDX 14 14
REMARK H PARENT
REMARK Flexibility Score: inf
ROOT
ATOM      1  C   UNL     1      -3.480 -10.554  -0.763  1.00  0.00     0.000 C 
ENDROOT
BRANCH   1   2
ATOM      2  C   UNL     1      -4.214  -9.461  -1.561  1.00  0.00     0.000 C 
BRANCH   2   3
ATOM      3  C   UNL     1      -4.755  -8.338  -0.664  1.00  0.00     0.006 C 
BRANCH   3   4
ATOM      4  C   UNL     1      -3.989  -7.020  -0.842  1.00  0.00     0.053 C 
BRANCH   4   5
ATOM      5  C   UNL     1      -3.032  -6.815   0.289  1.00  0.00     0.041 C 
ATOM      6  O   UNL     1      -1.907  -7.379   0.276  1.00  0.00    -0.550 OA
ATOM      7  O   UNL     1      -3.362  -5.962   1.334  1.00  0.00    -0.550 OA
ENDBRANCH   4   5
ENDBRANCH   3   4
ENDBRANCH   2   3
ENDBRANCH   1   2
BRANCH   1   8
ATOM      8  C   UNL     1      -4.031 -11.961  -1.044  1.00  0.00     0.000 C 
BRANCH   8   9
ATOM      9  C   UNL     1      -2.927 -13.027  -1.108  1.00  0.00     0.000 C 
BRANCH   9  10
ATOM     10  C   UNL     1      -3.494 -14.423  -0.825  1.00  0.00     0.006 C 
BRANCH  10  11
ATOM     11  C   UNL     1      -2.400 -15.370  -0.326  1.00  0.00     0.053 C 
BRANCH  11  12
ATOM     12  C   UNL     1      -2.866 -16.120   0.882  1.00  0.00     0.041 C 
ATOM     13  O   UNL     1      -3.713 -15.605   1.658  1.00  0.00    -0.550 OA
ATOM     14  O   UNL     1      -2.328 -17.366   1.178  1.00  0.00    -0.550 OA
ENDBRANCH  11  12
ENDBRANCH  10  11
ENDBRANCH   9  10
ENDBRANCH   8   9
ENDBRANCH   1   8
TORSDOF 9
ENDMDL
MODEL 8
REMARK VINA RESULT:    -2.999      1.237      1.946
REMARK INTER + INTRA:          -4.985
REMARK INTER:                  -4.410
REMARK INTRA:                  -0.575
REMARK UNBOUND:                -0.408
REMARK SMILES O=C([O-])CCCCCCCCC(=O)[O-]
REMARK SMILES IDX 7 1 6 2 5 3 4 4 2 5 1 6 3 7 8 8 9 9 10 10 11 11 12 12 13 13
REMARK SMILES IDX 14 14
REMARK H PARENT
REMARK Flexibility Score: inf
ROOT
ATOM      1  C   UNL     1      12.125 -18.222  -1.147  1.00  0.00     0.000 C 
ENDROOT
BRANCH   1   2
ATOM      2  C   UNL     1      10.731 -17.784  -1.632  1.00  0.00     0.000 C 
BRANCH   2   3
ATOM      3  C   UNL     1      10.796 -16.676  -2.694  1.00  0.00     0.006 C 
BRANCH   3   4
ATOM      4  C   UNL     1      12.135 -15.926  -2.683  1.00  0.00     0.053 C 
BRANCH   4   5
ATOM      5  C   UNL     1      11.940 -14.517  -2.218  1.00  0.00     0.041 C 
ATOM      6  O   UNL     1      10.779 -14.057  -2.062  1.00  0.00    -0.550 OA
ATOM      7  O   UNL     1      13.041 -13.728  -1.910  1.00  0.00    -0.550 OA
ENDBRANCH   4   5
ENDBRANCH   3   4
ENDBRANCH   2   3
ENDBRANCH   1   2
BRANCH   1   8
ATOM      8  C   UNL     1      12.068 -19.045   0.149  1.00  0.00     0.000 C 
BRANCH   8   9
ATOM      9  C   UNL     1      10.656 -19.567   0.457  1.00  0.00     0.000 C 
BRANCH   9  10
ATOM     10  C   UNL     1      10.274 -19.290   1.915  1.00  0.00     0.006 C 
BRANCH  10  11
ATOM     11  C   UNL     1      11.517 -19.218   2.805  1.00  0.00     0.053 C 
BRANCH  11  12
ATOM     12  C   UNL     1      11.416 -18.068   3.757  1.00  0.00     0.041 C 
ATOM     13  O   UNL     1      10.403 -17.320   3.739  1.00  0.00    -0.550 OA
ATOM     14  O   UNL     1      12.461 -17.792   4.629  1.00  0.00    -0.550 OA
ENDBRANCH  11  12
ENDBRANCH  10  11
ENDBRANCH   9  10
ENDBRANCH   8   9
ENDBRANCH   1   8
TORSDOF 9
ENDMDL
MODEL 9
REMARK VINA RESULT:    -2.996      7.329      9.232
REMARK INTER + INTRA:          -4.980
REMARK INTER:                  -3.883
REMARK INTRA:                  -1.097
REMARK UNBOUND:                -0.408
REMARK SMILES O=C([O-])CCCCCCCCC(=O)[O-]
REMARK SMILES IDX 7 1 6 2 5 3 4 4 2 5 1 6 3 7 8 8 9 9 10 10 11 11 12 12 13 13
REMARK SMILES IDX 14 14
REMARK H PARENT
REMARK Flexibility Score: inf
ROOT
ATOM      1  C   UNL     1       2.247 -18.687   4.113  1.00  0.00     0.000 C 
ENDROOT
BRANCH   1   2
ATOM      2  C   UNL     1       2.822 -17.859   2.949  1.00  0.00     0.000 C 
BRANCH   2   3
ATOM      3  C   UNL     1       3.827 -18.652   2.101  1.00  0.00     0.006 C 
BRANCH   3   4
ATOM      4  C   UNL     1       3.144 -19.649   1.154  1.00  0.00     0.053 C 
BRANCH   4   5
ATOM      5  C   UNL     1       3.390 -21.053   1.607  1.00  0.00     0.041 C 
ATOM      6  O   UNL     1       2.425 -21.791   1.937  1.00  0.00    -0.550 OA
ATOM      7  O   UNL     1       4.682 -21.564   1.617  1.00  0.00    -0.550 OA
ENDBRANCH   4   5
ENDBRANCH   3   4
ENDBRANCH   2   3
ENDBRANCH   1   2
BRANCH   1   8
ATOM      8  C   UNL     1       3.329 -19.138   5.107  1.00  0.00     0.000 C 
BRANCH   8   9
ATOM      9  C   UNL     1       3.382 -20.664   5.271  1.00  0.00     0.000 C 
BRANCH   9  10
ATOM     10  C   UNL     1       4.823 -21.178   5.176  1.00  0.00     0.006 C 
BRANCH  10  11
ATOM     11  C   UNL     1       5.811 -20.018   5.026  1.00  0.00     0.053 C 
BRANCH  11  12
ATOM     12  C   UNL     1       6.817 -20.321   3.961  1.00  0.00     0.041 C 
ATOM     13  O   UNL     1       7.349 -21.461   3.899  1.00  0.00    -0.550 OA
ATOM     14  O   UNL     1       7.206 -19.331   3.069  1.00  0.00    -0.550 OA
ENDBRANCH  11  12
ENDBRANCH  10  11
ENDBRANCH   9  10
ENDBRANCH   8   9
ENDBRANCH   1   8
TORSDOF 9
ENDMDL
