MODEL 1
REMARK VINA RESULT:    -3.683      0.000      0.000
REMARK INTER + INTRA:          -4.895
REMARK INTER:                  -5.620
REMARK INTRA:                   0.726
REMARK UNBOUND:                 0.726
REMARK SMILES CC1=CCC[C@@H](C)C(=O)C[C@H](C(C)C)C(=O)C1
REMARK SMILES IDX 8 1 9 2 6 3 7 4 5 5 4 6 3 7 2 8 1 9 10 11 11 12 15 13 16 14
REMARK SMILES IDX 17 15 12 17 13 18 14 19
REMARK H PARENT
REMARK Flexibility Score: 70.00
ROOT
ATOM      1  C   UNL     1       4.739 146.815  -6.648  1.00  0.00     0.136 C 
ATOM      2  O   UNL     1       5.110 146.810  -5.485  1.00  0.00    -0.299 OA
ENDROOT
BRANCH   1   3
ATOM      3  C   UNL     1       5.700 146.250  -7.685  1.00  0.00     0.053 C 
ATOM      4  C   UNL     1       5.558 146.821  -9.107  1.00  0.00     0.016 C 
BRANCH   3   5
ATOM      5  C   UNL     1       5.823 144.707  -7.594  1.00  0.00     0.015 C 
BRANCH   5   6
ATOM      6  C   UNL     1       5.595 143.835  -8.854  1.00  0.00     0.028 C 
BRANCH   6   7
ATOM      7  C   UNL     1       4.490 142.805  -8.833  1.00  0.00    -0.028 C 
ATOM      8  C   UNL     1       3.168 143.051  -8.731  1.00  0.00    -0.070 CG0
ATOM      9  C   UNL     1       2.256 141.875  -8.466  1.00  0.00     0.039 C 
ATOM     10  G   UNL     1       2.581 144.446  -8.798  1.00  0.00     0.000 G0
ENDBRANCH   6   7
ENDBRANCH   5   6
ENDBRANCH   3   5
ENDBRANCH   1   3
BRANCH   1  11
ATOM     11  C   UNL     1       3.426 147.491  -6.989  1.00  0.00     0.087 C 
BRANCH  11  12
ATOM     12  C   UNL     1       2.184 146.561  -7.156  1.00  0.00     0.066 C 
BRANCH  12  13
ATOM     13  C   UNL     1       2.473 145.083  -7.413  1.00  0.00     0.140 C 
ATOM     14  O   UNL     1       2.616 144.350  -6.444  1.00  0.00    -0.299 OA
BRANCH  13  15
ATOM     15  C   UNL     1       2.557 144.461  -8.786  1.00  0.00     0.106 CG0
ATOM     16  G   UNL     1       3.144 143.066  -8.729  1.00  0.00     0.000 G0
ENDBRANCH  13  15
ENDBRANCH  12  13
BRANCH  12  17
ATOM     17  C   UNL     1       1.075 146.793  -6.068  1.00  0.00    -0.006 C 
ATOM     18  C   UNL     1      -0.335 146.340  -6.499  1.00  0.00     0.008 C 
ATOM     19  C   UNL     1       1.021 148.266  -5.630  1.00  0.00     0.008 C 
ENDBRANCH  12  17
ENDBRANCH  11  12
ENDBRANCH   1  11
TORSDOF 1
ENDMDL
MODEL 2
REMARK VINA RESULT:    -3.021      1.638      3.560
REMARK INTER + INTRA:          -3.885
REMARK INTER:                  -5.486
REMARK INTRA:                   1.602
REMARK UNBOUND:                 0.726
REMARK SMILES CC1=CCC[C@@H](C)C(=O)C[C@H](C(C)C)C(=O)C1
REMARK SMILES IDX 8 1 9 2 6 3 7 4 5 5 4 6 3 7 2 8 1 9 10 11 11 12 15 13 16 14
REMARK SMILES IDX 17 15 12 17 13 18 14 19
REMARK H PARENT
REMARK Flexibility Score: 70.00
ROOT
ATOM      1  C   UNL     1       2.791 144.403  -8.292  1.00  0.00     0.136 C 
ATOM      2  O   UNL     1       2.748 145.436  -8.942  1.00  0.00    -0.299 OA
ENDROOT
BRANCH   1   3
ATOM      3  C   UNL     1       2.909 143.099  -9.069  1.00  0.00     0.053 C 
ATOM      4  C   UNL     1       1.839 142.038  -8.758  1.00  0.00     0.016 C 
BRANCH   3   5
ATOM      5  C   UNL     1       4.369 142.578  -9.125  1.00  0.00     0.015 C 
BRANCH   5   6
ATOM      6  C   UNL     1       5.543 143.517  -8.749  1.00  0.00     0.028 C 
BRANCH   6   7
ATOM      7  C   UNL     1       5.927 143.653  -7.294  1.00  0.00    -0.028 C 
ATOM      8  C   UNL     1       5.877 144.780  -6.555  1.00  0.00    -0.070 CG0
ATOM      9  C   UNL     1       6.549 144.758  -5.201  1.00  0.00     0.039 C 
ATOM     10  G   UNL     1       5.248 146.065  -7.052  1.00  0.00     0.000 G0
ENDBRANCH   6   7
ENDBRANCH   5   6
ENDBRANCH   3   5
ENDBRANCH   1   3
BRANCH   1  11
ATOM     11  C   UNL     1       2.596 144.481  -6.791  1.00  0.00     0.087 C 
BRANCH  11  12
ATOM     12  C   UNL     1       2.728 145.893  -6.141  1.00  0.00     0.066 C 
BRANCH  12  13
ATOM     13  C   UNL     1       4.119 146.525  -6.168  1.00  0.00     0.140 C 
ATOM     14  O   UNL     1       4.347 147.442  -5.391  1.00  0.00    -0.299 OA
BRANCH  13  15
ATOM     15  C   UNL     1       5.243 146.065  -7.066  1.00  0.00     0.106 CG0
ATOM     16  G   UNL     1       5.879 144.791  -6.550  1.00  0.00     0.000 G0
ENDBRANCH  13  15
ENDBRANCH  12  13
BRANCH  12  17
ATOM     17  C   UNL     1       1.589 146.888  -6.566  1.00  0.00    -0.006 C 
ATOM     18  C   UNL     1       1.418 148.091  -5.615  1.00  0.00     0.008 C 
ATOM     19  C   UNL     1       0.241 146.165  -6.715  1.00  0.00     0.008 C 
ENDBRANCH  12  17
ENDBRANCH  11  12
ENDBRANCH   1  11
TORSDOF 1
ENDMDL
MODEL 3
REMARK VINA RESULT:    -2.327      1.635      4.020
REMARK INTER + INTRA:          -2.826
REMARK INTER:                  -4.244
REMARK INTRA:                   1.418
REMARK UNBOUND:                 0.726
REMARK SMILES CC1=CCC[C@@H](C)C(=O)C[C@H](C(C)C)C(=O)C1
REMARK SMILES IDX 8 1 9 2 6 3 7 4 5 5 4 6 3 7 2 8 1 9 10 11 11 12 15 13 16 14
REMARK SMILES IDX 17 15 12 17 13 18 14 19
REMARK H PARENT
REMARK Flexibility Score: 70.00
ROOT
ATOM      1  C   UNL     1       4.469 147.789  -5.394  1.00  0.00     0.136 C 
ATOM      2  O   UNL     1       4.724 148.836  -4.819  1.00  0.00    -0.299 OA
ENDROOT
BRANCH   1   3
ATOM      3  C   UNL     1       3.084 147.197  -5.173  1.00  0.00     0.053 C 
ATOM      4  C   UNL     1       3.052 145.752  -4.647  1.00  0.00     0.016 C 
BRANCH   3   5
ATOM      5  C   UNL     1       2.120 147.500  -6.351  1.00  0.00     0.015 C 
BRANCH   5   6
ATOM      6  C   UNL     1       1.202 146.384  -6.908  1.00  0.00     0.028 C 
BRANCH   6   7
ATOM      7  C   UNL     1       1.815 145.051  -7.267  1.00  0.00    -0.028 C 
ATOM      8  C   UNL     1       2.663 144.810  -8.288  1.00  0.00    -0.070 CG0
ATOM      9  C   UNL     1       2.951 143.366  -8.630  1.00  0.00     0.039 C 
ATOM     10  G   UNL     1       3.269 145.909  -9.135  1.00  0.00     0.000 G0
ENDBRANCH   6   7
ENDBRANCH   5   6
ENDBRANCH   3   5
ENDBRANCH   1   3
BRANCH   1  11
ATOM     11  C   UNL     1       5.572 147.097  -6.169  1.00  0.00     0.087 C 
BRANCH  11  12
ATOM     12  C   UNL     1       5.130 145.996  -7.182  1.00  0.00     0.066 C 
BRANCH  12  13
ATOM     13  C   UNL     1       4.527 146.485  -8.496  1.00  0.00     0.140 C 
ATOM     14  O   UNL     1       5.109 147.377  -9.098  1.00  0.00    -0.299 OA
BRANCH  13  15
ATOM     15  C   UNL     1       3.276 145.914  -9.121  1.00  0.00     0.106 CG0
ATOM     16  G   UNL     1       2.677 144.820  -8.263  1.00  0.00     0.000 G0
ENDBRANCH  13  15
ENDBRANCH  12  13
BRANCH  12  17
ATOM     17  C   UNL     1       6.197 144.859  -7.377  1.00  0.00    -0.006 C 
ATOM     18  C   UNL     1       6.371 144.405  -8.842  1.00  0.00     0.008 C 
ATOM     19  C   UNL     1       5.877 143.635  -6.504  1.00  0.00     0.008 C 
ENDBRANCH  12  17
ENDBRANCH  11  12
ENDBRANCH   1  11
TORSDOF 1
ENDMDL
MODEL 4
REMARK VINA RESULT:    -1.715      1.787      3.614
REMARK INTER + INTRA:          -1.892
REMARK INTER:                  -3.141
REMARK INTRA:                   1.249
REMARK UNBOUND:                 0.726
REMARK SMILES CC1=CCC[C@@H](C)C(=O)C[C@H](C(C)C)C(=O)C1
REMARK SMILES IDX 8 1 9 2 6 3 7 4 5 5 4 6 3 7 2 8 1 9 10 11 11 12 15 13 16 14
REMARK SMILES IDX 17 15 12 17 13 18 14 19
REMARK H PARENT
REMARK Flexibility Score: 70.00
ROOT
ATOM      1  C   UNL     1       2.671 144.578  -8.126  1.00  0.00     0.136 C 
ATOM      2  O   UNL     1       2.941 145.228  -9.124  1.00  0.00    -0.299 OA
ENDROOT
BRANCH   1   3
ATOM      3  C   UNL     1       2.792 143.064  -8.231  1.00  0.00     0.053 C 
ATOM      4  C   UNL     1       2.636 142.290  -6.911  1.00  0.00     0.016 C 
BRANCH   3   5
ATOM      5  C   UNL     1       3.984 142.630  -9.123  1.00  0.00     0.015 C 
BRANCH   5   6
ATOM      6  C   UNL     1       5.436 142.961  -8.694  1.00  0.00     0.028 C 
BRANCH   6   7
ATOM      7  C   UNL     1       6.030 144.287  -9.107  1.00  0.00    -0.028 C 
ATOM      8  C   UNL     1       6.050 145.418  -8.373  1.00  0.00    -0.070 CG0
ATOM      9  C   UNL     1       6.456 146.696  -9.070  1.00  0.00     0.039 C 
ATOM     10  G   UNL     1       5.619 145.468  -6.922  1.00  0.00     0.000 G0
ENDBRANCH   6   7
ENDBRANCH   5   6
ENDBRANCH   3   5
ENDBRANCH   1   3
BRANCH   1  11
ATOM     11  C   UNL     1       2.121 145.303  -6.913  1.00  0.00     0.087 C 
BRANCH  11  12
ATOM     12  C   UNL     1       3.148 146.092  -6.044  1.00  0.00     0.066 C 
BRANCH  12  13
ATOM     13  C   UNL     1       4.473 146.447  -6.716  1.00  0.00     0.140 C 
ATOM     14  O   UNL     1       4.632 147.599  -7.097  1.00  0.00    -0.299 OA
BRANCH  13  15
ATOM     15  C   UNL     1       5.615 145.478  -6.907  1.00  0.00     0.106 CG0
ATOM     16  G   UNL     1       6.030 145.389  -8.360  1.00  0.00     0.000 G0
ENDBRANCH  13  15
ENDBRANCH  12  13
BRANCH  12  17
ATOM     17  C   UNL     1       2.512 147.294  -5.257  1.00  0.00    -0.006 C 
ATOM     18  C   UNL     1       2.643 147.182  -3.724  1.00  0.00     0.008 C 
ATOM     19  C   UNL     1       1.032 147.483  -5.626  1.00  0.00     0.008 C 
ENDBRANCH  12  17
ENDBRANCH  11  12
ENDBRANCH   1  11
TORSDOF 1
ENDMDL
MODEL 5
REMARK VINA RESULT:    -1.545      1.776      4.553
REMARK INTER + INTRA:          -1.632
REMARK INTER:                  -2.776
REMARK INTRA:                   1.144
REMARK UNBOUND:                 0.726
REMARK SMILES CC1=CCC[C@@H](C)C(=O)C[C@H](C(C)C)C(=O)C1
REMARK SMILES IDX 8 1 9 2 6 3 7 4 5 5 4 6 3 7 2 8 1 9 10 11 11 12 15 13 16 14
REMARK SMILES IDX 17 15 12 17 13 18 14 19
REMARK H PARENT
REMARK Flexibility Score: 70.00
ROOT
ATOM      1  C   UNL     1       4.439 143.239  -7.519  1.00  0.00     0.136 C 
ATOM      2  O   UNL     1       5.067 142.231  -7.802  1.00  0.00    -0.299 OA
ENDROOT
BRANCH   1   3
ATOM      3  C   UNL     1       2.953 143.246  -7.848  1.00  0.00     0.053 C 
ATOM      4  C   UNL     1       2.254 141.875  -7.810  1.00  0.00     0.016 C 
BRANCH   3   5
ATOM      5  C   UNL     1       2.628 144.125  -9.084  1.00  0.00     0.015 C 
BRANCH   5   6
ATOM      6  C   UNL     1       2.231 145.611  -8.897  1.00  0.00     0.028 C 
BRANCH   6   7
ATOM      7  C   UNL     1       1.239 145.966  -7.814  1.00  0.00    -0.028 C 
ATOM      8  C   UNL     1       1.475 146.742  -6.736  1.00  0.00    -0.070 CG0
ATOM      9  C   UNL     1       0.430 146.757  -5.644  1.00  0.00     0.039 C 
ATOM     10  G   UNL     1       2.757 147.527  -6.549  1.00  0.00     0.000 G0
ENDBRANCH   6   7
ENDBRANCH   5   6
ENDBRANCH   3   5
ENDBRANCH   1   3
BRANCH   1  11
ATOM     11  C   UNL     1       5.195 144.441  -6.989  1.00  0.00     0.087 C 
BRANCH  11  12
ATOM     12  C   UNL     1       4.641 145.845  -7.384  1.00  0.00     0.066 C 
BRANCH  12  13
ATOM     13  C   UNL     1       3.940 146.633  -6.279  1.00  0.00     0.140 C 
ATOM     14  O   UNL     1       4.381 146.542  -5.141  1.00  0.00    -0.299 OA
BRANCH  13  15
ATOM     15  C   UNL     1       2.760 147.547  -6.507  1.00  0.00     0.106 CG0
ATOM     16  G   UNL     1       1.486 146.762  -6.738  1.00  0.00     0.000 G0
ENDBRANCH  13  15
ENDBRANCH  12  13
BRANCH  12  17
ATOM     17  C   UNL     1       5.658 146.712  -8.210  1.00  0.00    -0.006 C 
ATOM     18  C   UNL     1       4.993 147.768  -9.118  1.00  0.00     0.008 C 
ATOM     19  C   UNL     1       6.586 145.828  -9.058  1.00  0.00     0.008 C 
ENDBRANCH  12  17
ENDBRANCH  11  12
ENDBRANCH   1  11
TORSDOF 1
ENDMDL
MODEL 6
REMARK VINA RESULT:    -1.374      1.783      4.745
REMARK INTER + INTRA:          -1.371
REMARK INTER:                  -3.714
REMARK INTRA:                   2.343
REMARK UNBOUND:                 0.726
REMARK SMILES CC1=CCC[C@@H](C)C(=O)C[C@H](C(C)C)C(=O)C1
REMARK SMILES IDX 8 1 9 2 6 3 7 4 5 5 4 6 3 7 2 8 1 9 10 11 11 12 15 13 16 14
REMARK SMILES IDX 17 15 12 17 13 18 14 19
REMARK H PARENT
REMARK Flexibility Score: 70.00
ROOT
ATOM      1  C   UNL     1       2.267 145.030  -7.082  1.00  0.00     0.136 C 
ATOM      2  O   UNL     1       2.741 144.149  -6.383  1.00  0.00    -0.299 OA
ENDROOT
BRANCH   1   3
ATOM      3  C   UNL     1       1.449 146.107  -6.381  1.00  0.00     0.053 C 
ATOM      4  C   UNL     1      -0.071 146.048  -6.615  1.00  0.00     0.016 C 
BRANCH   3   5
ATOM      5  C   UNL     1       2.091 147.512  -6.514  1.00  0.00     0.015 C 
BRANCH   5   6
ATOM      6  C   UNL     1       3.245 147.931  -5.567  1.00  0.00     0.028 C 
BRANCH   6   7
ATOM      7  C   UNL     1       4.422 147.000  -5.402  1.00  0.00    -0.028 C 
ATOM      8  C   UNL     1       5.084 146.363  -6.390  1.00  0.00    -0.070 CG0
ATOM      9  C   UNL     1       6.059 145.279  -5.992  1.00  0.00     0.039 C 
ATOM     10  G   UNL     1       4.838 146.639  -7.858  1.00  0.00     0.000 G0
ENDBRANCH   6   7
ENDBRANCH   5   6
ENDBRANCH   3   5
ENDBRANCH   1   3
BRANCH   1  11
ATOM     11  C   UNL     1       2.413 144.922  -8.587  1.00  0.00     0.087 C 
BRANCH  11  12
ATOM     12  C   UNL     1       3.817 144.509  -9.125  1.00  0.00     0.066 C 
BRANCH  12  13
ATOM     13  C   UNL     1       4.993 145.382  -8.691  1.00  0.00     0.140 C 
ATOM     14  O   UNL     1       6.115 145.059  -9.059  1.00  0.00    -0.299 OA
BRANCH  13  15
ATOM     15  C   UNL     1       4.858 146.641  -7.869  1.00  0.00     0.106 CG0
ATOM     16  G   UNL     1       5.092 146.371  -6.397  1.00  0.00     0.000 G0
ENDBRANCH  13  15
ENDBRANCH  12  13
BRANCH  12  17
ATOM     17  C   UNL     1       4.111 142.971  -8.998  1.00  0.00    -0.006 C 
ATOM     18  C   UNL     1       2.844 142.096  -8.882  1.00  0.00     0.008 C 
ATOM     19  C   UNL     1       5.040 142.674  -7.810  1.00  0.00     0.008 C 
ENDBRANCH  12  17
ENDBRANCH  11  12
ENDBRANCH   1  11
TORSDOF 1
ENDMDL
MODEL 7
REMARK VINA RESULT:    -1.117      1.820      2.939
REMARK INTER + INTRA:          -0.979
REMARK INTER:                  -4.041
REMARK INTRA:                   3.062
REMARK UNBOUND:                 0.726
REMARK SMILES CC1=CCC[C@@H](C)C(=O)C[C@H](C(C)C)C(=O)C1
REMARK SMILES IDX 8 1 9 2 6 3 7 4 5 5 4 6 3 7 2 8 1 9 10 11 11 12 15 13 16 14
REMARK SMILES IDX 17 15 12 17 13 18 14 19
REMARK H PARENT
REMARK Flexibility Score: 70.00
ROOT
ATOM      1  C   UNL     1       5.772 144.144  -6.857  1.00  0.00     0.136 C 
ATOM      2  O   UNL     1       6.636 143.806  -6.062  1.00  0.00    -0.299 OA
ENDROOT
BRANCH   1   3
ATOM      3  C   UNL     1       6.010 143.811  -8.323  1.00  0.00     0.053 C 
ATOM      4  C   UNL     1       6.823 144.847  -9.119  1.00  0.00     0.016 C 
BRANCH   3   5
ATOM      5  C   UNL     1       4.728 143.288  -9.023  1.00  0.00     0.015 C 
BRANCH   5   6
ATOM      6  C   UNL     1       3.563 142.713  -8.179  1.00  0.00     0.028 C 
BRANCH   6   7
ATOM      7  C   UNL     1       2.388 143.607  -7.859  1.00  0.00    -0.028 C 
ATOM      8  C   UNL     1       2.264 144.911  -8.183  1.00  0.00    -0.070 CG0
ATOM      9  C   UNL     1       1.133 145.684  -7.545  1.00  0.00     0.039 C 
ATOM     10  G   UNL     1       3.238 145.632  -9.091  1.00  0.00     0.000 G0
ENDBRANCH   6   7
ENDBRANCH   5   6
ENDBRANCH   3   5
ENDBRANCH   1   3
BRANCH   1  11
ATOM     11  C   UNL     1       4.605 144.970  -6.354  1.00  0.00     0.087 C 
BRANCH  11  12
ATOM     12  C   UNL     1       4.508 146.435  -6.882  1.00  0.00     0.066 C 
BRANCH  12  13
ATOM     13  C   UNL     1       4.115 146.603  -8.348  1.00  0.00     0.140 C 
ATOM     14  O   UNL     1       4.584 147.551  -8.963  1.00  0.00    -0.299 OA
BRANCH  13  15
ATOM     15  C   UNL     1       3.213 145.653  -9.099  1.00  0.00     0.106 CG0
ATOM     16  G   UNL     1       2.272 144.924  -8.163  1.00  0.00     0.000 G0
ENDBRANCH  13  15
ENDBRANCH  12  13
BRANCH  12  17
ATOM     17  C   UNL     1       3.725 147.399  -5.918  1.00  0.00    -0.006 C 
ATOM     18  C   UNL     1       4.563 148.585  -5.398  1.00  0.00     0.008 C 
ATOM     19  C   UNL     1       3.133 146.635  -4.723  1.00  0.00     0.008 C 
ENDBRANCH  12  17
ENDBRANCH  11  12
ENDBRANCH   1  11
TORSDOF 1
ENDMDL
MODEL 8
REMARK VINA RESULT:    -1.016      1.607      4.109
REMARK INTER + INTRA:          -0.825
REMARK INTER:                  -2.972
REMARK INTRA:                   2.147
REMARK UNBOUND:                 0.726
REMARK SMILES CC1=CCC[C@@H](C)C(=O)C[C@H](C(C)C)C(=O)C1
REMARK SMILES IDX 8 1 9 2 6 3 7 4 5 5 4 6 3 7 2 8 1 9 10 11 11 12 15 13 16 14
REMARK SMILES IDX 17 15 12 17 13 18 14 19
REMARK H PARENT
REMARK Flexibility Score: 70.00
ROOT
ATOM      1  C   UNL     1       5.102 144.921  -6.525  1.00  0.00     0.136 C 
ATOM      2  O   UNL     1       6.148 144.362  -6.236  1.00  0.00    -0.299 OA
ENDROOT
BRANCH   1   3
ATOM      3  C   UNL     1       5.205 146.314  -7.130  1.00  0.00     0.053 C 
ATOM      4  C   UNL     1       6.310 146.503  -8.185  1.00  0.00     0.016 C 
BRANCH   3   5
ATOM      5  C   UNL     1       5.108 147.430  -6.058  1.00  0.00     0.015 C 
BRANCH   5   6
ATOM      6  C   UNL     1       3.803 148.252  -5.908  1.00  0.00     0.028 C 
BRANCH   6   7
ATOM      7  C   UNL     1       2.504 147.516  -5.681  1.00  0.00    -0.028 C 
ATOM      8  C   UNL     1       1.849 146.752  -6.580  1.00  0.00    -0.070 CG0
ATOM      9  C   UNL     1       0.442 146.321  -6.236  1.00  0.00     0.039 C 
ATOM     10  G   UNL     1       2.433 146.379  -7.926  1.00  0.00     0.000 G0
ENDBRANCH   6   7
ENDBRANCH   5   6
ENDBRANCH   3   5
ENDBRANCH   1   3
BRANCH   1  11
ATOM     11  C   UNL     1       3.793 144.256  -6.147  1.00  0.00     0.087 C 
BRANCH  11  12
ATOM     12  C   UNL     1       2.882 143.788  -7.323  1.00  0.00     0.066 C 
BRANCH  12  13
ATOM     13  C   UNL     1       2.261 144.890  -8.180  1.00  0.00     0.140 C 
ATOM     14  O   UNL     1       1.559 144.555  -9.125  1.00  0.00    -0.299 OA
BRANCH  13  15
ATOM     15  C   UNL     1       2.426 146.367  -7.914  1.00  0.00     0.106 CG0
ATOM     16  G   UNL     1       1.809 146.765  -6.589  1.00  0.00     0.000 G0
ENDBRANCH  13  15
ENDBRANCH  12  13
BRANCH  12  17
ATOM     17  C   UNL     1       3.504 142.621  -8.173  1.00  0.00    -0.006 C 
ATOM     18  C   UNL     1       4.653 143.063  -9.102  1.00  0.00     0.008 C 
ATOM     19  C   UNL     1       2.430 141.901  -9.003  1.00  0.00     0.008 C 
ENDBRANCH  12  17
ENDBRANCH  11  12
ENDBRANCH   1  11
TORSDOF 1
ENDMDL
MODEL 9
REMARK VINA RESULT:    -0.861      1.612      2.736
REMARK INTER + INTRA:          -0.588
REMARK INTER:                  -1.720
REMARK INTRA:                   1.132
REMARK UNBOUND:                 0.726
REMARK SMILES CC1=CCC[C@@H](C)C(=O)C[C@H](C(C)C)C(=O)C1
REMARK SMILES IDX 8 1 9 2 6 3 7 4 5 5 4 6 3 7 2 8 1 9 10 11 11 12 15 13 16 14
REMARK SMILES IDX 17 15 12 17 13 18 14 19
REMARK H PARENT
REMARK Flexibility Score: 70.00
ROOT
ATOM      1  C   UNL     1       5.894 145.251  -7.812  1.00  0.00     0.136 C 
ATOM      2  O   UNL     1       6.375 145.459  -8.915  1.00  0.00    -0.299 OA
ENDROOT
BRANCH   1   3
ATOM      3  C   UNL     1       5.691 143.798  -7.407  1.00  0.00     0.053 C 
ATOM      4  C   UNL     1       6.747 143.218  -6.449  1.00  0.00     0.016 C 
BRANCH   3   5
ATOM      5  C   UNL     1       5.318 142.897  -8.614  1.00  0.00     0.015 C 
BRANCH   5   6
ATOM      6  C   UNL     1       3.830 142.636  -8.957  1.00  0.00     0.028 C 
BRANCH   6   7
ATOM      7  C   UNL     1       2.897 143.817  -9.083  1.00  0.00    -0.028 C 
ATOM      8  C   UNL     1       2.271 144.454  -8.071  1.00  0.00    -0.070 CG0
ATOM      9  C   UNL     1       1.183 145.438  -8.432  1.00  0.00     0.039 C 
ATOM     10  G   UNL     1       2.564 144.172  -6.612  1.00  0.00     0.000 G0
ENDBRANCH   6   7
ENDBRANCH   5   6
ENDBRANCH   3   5
ENDBRANCH   1   3
BRANCH   1  11
ATOM     11  C   UNL     1       5.422 146.434  -6.990  1.00  0.00     0.087 C 
BRANCH  11  12
ATOM     12  C   UNL     1       3.891 146.520  -6.704  1.00  0.00     0.066 C 
BRANCH  12  13
ATOM     13  C   UNL     1       3.277 145.347  -5.943  1.00  0.00     0.140 C 
ATOM     14  O   UNL     1       3.344 145.357  -4.721  1.00  0.00    -0.299 OA
BRANCH  13  15
ATOM     15  C   UNL     1       2.557 144.193  -6.599  1.00  0.00     0.106 CG0
ATOM     16  G   UNL     1       2.258 144.481  -8.055  1.00  0.00     0.000 G0
ENDBRANCH  13  15
ENDBRANCH  12  13
BRANCH  12  17
ATOM     17  C   UNL     1       3.433 147.920  -6.157  1.00  0.00    -0.006 C 
ATOM     18  C   UNL     1       4.285 148.446  -4.983  1.00  0.00     0.008 C 
ATOM     19  C   UNL     1       1.954 147.900  -5.740  1.00  0.00     0.008 C 
ENDBRANCH  12  17
ENDBRANCH  11  12
ENDBRANCH   1  11
TORSDOF 1
ENDMDL
