MODEL 1
REMARK VINA RESULT:    -3.484      0.000      0.000
REMARK INTER + INTRA:          -3.697
REMARK INTER:                  -3.687
REMARK INTRA:                  -0.010
REMARK UNBOUND:                -0.010
REMARK SMILES O=Cc1ccco1
REMARK SMILES IDX 5 1 6 2 7 3 3 4 4 5 2 6 1 7
REMARK H PARENT
REMARK Flexibility Score: inf
ROOT
ATOM      1  C   UNL     1     -30.627  54.095 -52.091  1.00  0.00     0.043 A 
ATOM      2  C   UNL     1     -31.082  54.462 -50.840  1.00  0.00     0.196 A 
ATOM      3  O   UNL     1     -31.969  53.589 -50.418  1.00  0.00    -0.462 OA
ATOM      4  C   UNL     1     -32.115  52.664 -51.338  1.00  0.00     0.166 A 
ATOM      5  C   UNL     1     -31.294  52.932 -52.416  1.00  0.00     0.054 A 
ENDROOT
BRANCH   4   6
ATOM      6  C   UNL     1     -33.028  51.525 -51.209  1.00  0.00     0.298 C 
ATOM      7  O   UNL     1     -34.039  51.424 -51.952  1.00  0.00    -0.294 OA
ENDBRANCH   4   6
TORSDOF 1
ENDMDL
MODEL 2
REMARK VINA RESULT:    -3.454      1.081      1.430
REMARK INTER + INTRA:          -3.666
REMARK INTER:                  -3.652
REMARK INTRA:                  -0.013
REMARK UNBOUND:                -0.010
REMARK SMILES O=Cc1ccco1
REMARK SMILES IDX 5 1 6 2 7 3 3 4 4 5 2 6 1 7
REMARK H PARENT
REMARK Flexibility Score: inf
ROOT
ATOM      1  C   UNL     1     -30.688  54.498 -51.431  1.00  0.00     0.043 A 
ATOM      2  C   UNL     1     -30.507  53.762 -52.586  1.00  0.00     0.196 A 
ATOM      3  O   UNL     1     -31.318  52.727 -52.583  1.00  0.00    -0.462 OA
ATOM      4  C   UNL     1     -32.023  52.753 -51.476  1.00  0.00     0.166 A 
ATOM      5  C   UNL     1     -31.668  53.847 -50.711  1.00  0.00     0.054 A 
ENDROOT
BRANCH   4   6
ATOM      6  C   UNL     1     -33.033  51.748 -51.132  1.00  0.00     0.298 C 
ATOM      7  O   UNL     1     -33.908  51.403 -51.969  1.00  0.00    -0.294 OA
ENDBRANCH   4   6
TORSDOF 1
ENDMDL
MODEL 3
REMARK VINA RESULT:    -3.451      1.260      3.358
REMARK INTER + INTRA:          -3.663
REMARK INTER:                  -3.652
REMARK INTRA:                  -0.011
REMARK UNBOUND:                -0.010
REMARK SMILES O=Cc1ccco1
REMARK SMILES IDX 5 1 6 2 7 3 3 4 4 5 2 6 1 7
REMARK H PARENT
REMARK Flexibility Score: inf
ROOT
ATOM      1  C   UNL     1     -33.233  51.001 -51.388  1.00  0.00     0.043 A 
ATOM      2  C   UNL     1     -32.854  51.077 -52.715  1.00  0.00     0.196 A 
ATOM      3  O   UNL     1     -32.091  52.130 -52.897  1.00  0.00    -0.462 OA
ATOM      4  C   UNL     1     -31.951  52.749 -51.748  1.00  0.00     0.166 A 
ATOM      5  C   UNL     1     -32.650  52.082 -50.761  1.00  0.00     0.054 A 
ENDROOT
BRANCH   4   6
ATOM      6  C   UNL     1     -31.161  53.971 -51.573  1.00  0.00     0.298 C 
ATOM      7  O   UNL     1     -31.113  54.551 -50.456  1.00  0.00    -0.294 OA
ENDBRANCH   4   6
TORSDOF 1
ENDMDL
MODEL 4
REMARK VINA RESULT:    -3.407      3.073      4.121
REMARK INTER + INTRA:          -3.616
REMARK INTER:                  -3.602
REMARK INTRA:                  -0.014
REMARK UNBOUND:                -0.010
REMARK SMILES O=Cc1ccco1
REMARK SMILES IDX 5 1 6 2 7 3 3 4 4 5 2 6 1 7
REMARK H PARENT
REMARK Flexibility Score: inf
ROOT
ATOM      1  C   UNL     1     -33.317  51.524 -51.756  1.00  0.00     0.043 A 
ATOM      2  C   UNL     1     -32.561  50.383 -51.938  1.00  0.00     0.196 A 
ATOM      3  O   UNL     1     -33.336  49.395 -52.324  1.00  0.00    -0.462 OA
ATOM      4  C   UNL     1     -34.569  49.837 -52.404  1.00  0.00     0.166 A 
ATOM      5  C   UNL     1     -34.617  51.173 -52.056  1.00  0.00     0.054 A 
ENDROOT
BRANCH   4   6
ATOM      6  C   UNL     1     -35.708  49.007 -52.805  1.00  0.00     0.298 C 
ATOM      7  O   UNL     1     -35.828  47.830 -52.374  1.00  0.00    -0.294 OA
ENDBRANCH   4   6
TORSDOF 1
ENDMDL
MODEL 5
REMARK VINA RESULT:    -3.404      2.319      3.093
REMARK INTER + INTRA:          -3.613
REMARK INTER:                  -3.602
REMARK INTRA:                  -0.010
REMARK UNBOUND:                -0.010
REMARK SMILES O=Cc1ccco1
REMARK SMILES IDX 5 1 6 2 7 3 3 4 4 5 2 6 1 7
REMARK H PARENT
REMARK Flexibility Score: inf
ROOT
ATOM      1  C   UNL     1     -33.576  51.078 -53.339  1.00  0.00     0.043 A 
ATOM      2  C   UNL     1     -32.257  51.453 -53.510  1.00  0.00     0.196 A 
ATOM      3  O   UNL     1     -31.742  51.800 -52.352  1.00  0.00    -0.462 OA
ATOM      4  C   UNL     1     -32.665  51.668 -51.428  1.00  0.00     0.166 A 
ATOM      5  C   UNL     1     -33.842  51.217 -51.993  1.00  0.00     0.054 A 
ENDROOT
BRANCH   4   6
ATOM      6  C   UNL     1     -32.446  51.966 -50.010  1.00  0.00     0.298 C 
ATOM      7  O   UNL     1     -32.591  51.072 -49.135  1.00  0.00    -0.294 OA
ENDBRANCH   4   6
TORSDOF 1
ENDMDL
MODEL 6
REMARK VINA RESULT:    -3.393     15.704     16.904
REMARK INTER + INTRA:          -3.601
REMARK INTER:                  -3.591
REMARK INTRA:                  -0.010
REMARK UNBOUND:                -0.010
REMARK SMILES O=Cc1ccco1
REMARK SMILES IDX 5 1 6 2 7 3 3 4 4 5 2 6 1 7
REMARK H PARENT
REMARK Flexibility Score: inf
ROOT
ATOM      1  C   UNL     1     -41.771  37.571 -51.157  1.00  0.00     0.043 A 
ATOM      2  C   UNL     1     -40.983  38.360 -51.972  1.00  0.00     0.196 A 
ATOM      3  O   UNL     1     -40.676  39.474 -51.347  1.00  0.00    -0.462 OA
ATOM      4  C   UNL     1     -41.228  39.451 -50.156  1.00  0.00     0.166 A 
ATOM      5  C   UNL     1     -41.932  38.275 -49.982  1.00  0.00     0.054 A 
ENDROOT
BRANCH   4   6
ATOM      6  C   UNL     1     -41.098  40.533 -49.177  1.00  0.00     0.298 C 
ATOM      7  O   UNL     1     -40.745  40.291 -47.993  1.00  0.00    -0.294 OA
ENDBRANCH   4   6
TORSDOF 1
ENDMDL
MODEL 7
REMARK VINA RESULT:    -3.377      1.877      2.546
REMARK INTER + INTRA:          -3.584
REMARK INTER:                  -3.573
REMARK INTRA:                  -0.011
REMARK UNBOUND:                -0.010
REMARK SMILES O=Cc1ccco1
REMARK SMILES IDX 5 1 6 2 7 3 3 4 4 5 2 6 1 7
REMARK H PARENT
REMARK Flexibility Score: inf
ROOT
ATOM      1  C   UNL     1     -32.093  52.575 -51.225  1.00  0.00     0.043 A 
ATOM      2  C   UNL     1     -31.616  52.435 -52.514  1.00  0.00     0.196 A 
ATOM      3  O   UNL     1     -32.324  51.531 -53.152  1.00  0.00    -0.462 OA
ATOM      4  C   UNL     1     -33.246  51.071 -52.339  1.00  0.00     0.166 A 
ATOM      5  C   UNL     1     -33.147  51.693 -51.109  1.00  0.00     0.054 A 
ENDROOT
BRANCH   4   6
ATOM      6  C   UNL     1     -34.222  50.044 -52.712  1.00  0.00     0.298 C 
ATOM      7  O   UNL     1     -35.385  50.058 -52.231  1.00  0.00    -0.294 OA
ENDBRANCH   4   6
TORSDOF 1
ENDMDL
MODEL 8
REMARK VINA RESULT:    -3.307     14.062     15.948
REMARK INTER + INTRA:          -3.510
REMARK INTER:                  -3.500
REMARK INTRA:                  -0.010
REMARK UNBOUND:                -0.010
REMARK SMILES O=Cc1ccco1
REMARK SMILES IDX 5 1 6 2 7 3 3 4 4 5 2 6 1 7
REMARK H PARENT
REMARK Flexibility Score: inf
ROOT
ATOM      1  C   UNL     1     -40.996  38.482 -50.681  1.00  0.00     0.043 A 
ATOM      2  C   UNL     1     -42.337  38.791 -50.561  1.00  0.00     0.196 A 
ATOM      3  O   UNL     1     -42.485  40.094 -50.481  1.00  0.00    -0.462 OA
ATOM      4  C   UNL     1     -41.300  40.655 -50.544  1.00  0.00     0.166 A 
ATOM      5  C   UNL     1     -40.323  39.686 -50.670  1.00  0.00     0.054 A 
ENDROOT
BRANCH   4   6
ATOM      6  C   UNL     1     -41.080  42.102 -50.486  1.00  0.00     0.298 C 
ATOM      7  O   UNL     1     -40.570  42.715 -51.460  1.00  0.00    -0.294 OA
ENDBRANCH   4   6
TORSDOF 1
ENDMDL
MODEL 9
REMARK VINA RESULT:    -3.297      2.383      3.357
REMARK INTER + INTRA:          -3.500
REMARK INTER:                  -3.489
REMARK INTRA:                  -0.011
REMARK UNBOUND:                -0.010
REMARK SMILES O=Cc1ccco1
REMARK SMILES IDX 5 1 6 2 7 3 3 4 4 5 2 6 1 7
REMARK H PARENT
REMARK Flexibility Score: inf
ROOT
ATOM      1  C   UNL     1     -33.268  51.504 -51.278  1.00  0.00     0.043 A 
ATOM      2  C   UNL     1     -32.027  51.811 -51.803  1.00  0.00     0.196 A 
ATOM      3  O   UNL     1     -32.030  51.600 -53.099  1.00  0.00    -0.462 OA
ATOM      4  C   UNL     1     -33.219  51.168 -53.450  1.00  0.00     0.166 A 
ATOM      5  C   UNL     1     -34.041  51.087 -52.342  1.00  0.00     0.054 A 
ENDROOT
BRANCH   4   6
ATOM      6  C   UNL     1     -33.588  50.827 -54.826  1.00  0.00     0.298 C 
ATOM      7  O   UNL     1     -34.561  50.063 -55.060  1.00  0.00    -0.294 OA
ENDBRANCH   4   6
TORSDOF 1
ENDMDL
