MODEL 1
REMARK VINA RESULT:    -4.183      0.000      0.000
REMARK INTER + INTRA:          -6.186
REMARK INTER:                  -5.650
REMARK INTRA:                  -0.536
REMARK UNBOUND:                -0.536
REMARK SMILES O=C[C@H](O)[C@@H](O)[C@H](O)CO
REMARK SMILES IDX 7 1 9 2 10 3 5 5 3 6 2 7 1 8 4 9 6 11 8 13
REMARK H PARENT 10 4 4 10 6 12 8 14
REMARK Flexibility Score: inf
ROOT
ATOM      1  C   UNL     1      21.613  21.594  22.571  1.00  0.00     0.171 C 
ENDROOT
BRANCH   1   2
ATOM      2  C   UNL     1      22.859  21.269  21.721  1.00  0.00     0.190 C 
BRANCH   2   3
ATOM      3  O   UNL     1      23.969  21.998  22.165  1.00  0.00    -0.394 OA
ATOM      4  H   UNL     1      24.148  22.682  21.469  1.00  0.00     0.210 HD
ENDBRANCH   2   3
ENDBRANCH   1   2
BRANCH   1   5
ATOM      5  C   UNL     1      21.449  23.096  22.943  1.00  0.00     0.181 C 
BRANCH   5   6
ATOM      6  C   UNL     1      21.923  23.494  24.369  1.00  0.00     0.209 C 
BRANCH   6   7
ATOM      7  C   UNL     1      20.947  24.414  25.047  1.00  0.00     0.258 C 
ATOM      8  O   UNL     1      20.020  24.909  24.424  1.00  0.00    -0.300 OA
ENDBRANCH   6   7
BRANCH   6   9
ATOM      9  O   UNL     1      23.162  24.152  24.292  1.00  0.00    -0.383 OA
ATOM     10  H   UNL     1      23.814  23.505  23.912  1.00  0.00     0.211 HD
ENDBRANCH   6   9
ENDBRANCH   5   6
BRANCH   5  11
ATOM     11  O   UNL     1      22.063  23.904  21.967  1.00  0.00    -0.387 OA
ATOM     12  H   UNL     1      22.603  23.316  21.378  1.00  0.00     0.211 HD
ENDBRANCH   5  11
ENDBRANCH   1   5
BRANCH   1  13
ATOM     13  O   UNL     1      21.603  20.808  23.736  1.00  0.00    -0.388 OA
ATOM     14  H   UNL     1      21.005  21.262  24.387  1.00  0.00     0.211 HD
ENDBRANCH   1  13
TORSDOF 8
ENDMDL
MODEL 2
REMARK VINA RESULT:    -4.129      2.903      4.838
REMARK INTER + INTRA:          -6.114
REMARK INTER:                  -5.690
REMARK INTRA:                  -0.425
REMARK UNBOUND:                -0.536
REMARK SMILES O=C[C@H](O)[C@@H](O)[C@H](O)CO
REMARK SMILES IDX 7 1 9 2 10 3 5 5 3 6 2 7 1 8 4 9 6 11 8 13
REMARK H PARENT 10 4 4 10 6 12 8 14
REMARK Flexibility Score: inf
ROOT
ATOM      1  C   UNL     1      21.901  20.340  22.620  1.00  0.00     0.171 C 
ENDROOT
BRANCH   1   2
ATOM      2  C   UNL     1      22.454  21.453  21.703  1.00  0.00     0.190 C 
BRANCH   2   3
ATOM      3  O   UNL     1      23.731  21.850  22.118  1.00  0.00    -0.394 OA
ATOM      4  H   UNL     1      24.227  21.016  22.324  1.00  0.00     0.210 HD
ENDBRANCH   2   3
ENDBRANCH   1   2
BRANCH   1   5
ATOM      5  C   UNL     1      20.803  19.447  21.973  1.00  0.00     0.181 C 
BRANCH   5   6
ATOM      6  C   UNL     1      20.298  18.262  22.843  1.00  0.00     0.209 C 
BRANCH   6   7
ATOM      7  C   UNL     1      19.258  17.445  22.128  1.00  0.00     0.258 C 
ATOM      8  O   UNL     1      18.953  17.698  20.973  1.00  0.00    -0.300 OA
ENDBRANCH   6   7
BRANCH   6   9
ATOM      9  O   UNL     1      19.729  18.752  24.029  1.00  0.00    -0.383 OA
ATOM     10  H   UNL     1      18.743  18.751  23.904  1.00  0.00     0.211 HD
ENDBRANCH   6   9
ENDBRANCH   5   6
BRANCH   5  11
ATOM     11  O   UNL     1      19.727  20.244  21.538  1.00  0.00    -0.387 OA
ATOM     12  H   UNL     1      19.585  20.067  20.572  1.00  0.00     0.211 HD
ENDBRANCH   5  11
ENDBRANCH   1   5
BRANCH   1  13
ATOM     13  O   UNL     1      21.423  20.894  23.819  1.00  0.00    -0.388 OA
ATOM     14  H   UNL     1      21.814  21.805  23.895  1.00  0.00     0.211 HD
ENDBRANCH   1  13
TORSDOF 8
ENDMDL
MODEL 3
REMARK VINA RESULT:    -3.971      6.087      7.486
REMARK INTER + INTRA:          -5.900
REMARK INTER:                  -5.169
REMARK INTRA:                  -0.731
REMARK UNBOUND:                -0.536
REMARK SMILES O=C[C@H](O)[C@@H](O)[C@H](O)CO
REMARK SMILES IDX 7 1 9 2 10 3 5 5 3 6 2 7 1 8 4 9 6 11 8 13
REMARK H PARENT 10 4 4 10 6 12 8 14
REMARK Flexibility Score: inf
ROOT
ATOM      1  C   UNL     1      25.976  26.436  23.646  1.00  0.00     0.171 C 
ENDROOT
BRANCH   1   2
ATOM      2  C   UNL     1      25.332  27.778  24.052  1.00  0.00     0.190 C 
BRANCH   2   3
ATOM      3  O   UNL     1      25.211  28.628  22.945  1.00  0.00    -0.394 OA
ATOM      4  H   UNL     1      24.688  29.412  23.255  1.00  0.00     0.210 HD
ENDBRANCH   2   3
ENDBRANCH   1   2
BRANCH   1   5
ATOM      5  C   UNL     1      27.487  26.519  23.286  1.00  0.00     0.181 C 
BRANCH   5   6
ATOM      6  C   UNL     1      27.922  25.737  22.013  1.00  0.00     0.209 C 
BRANCH   6   7
ATOM      7  C   UNL     1      29.417  25.603  21.922  1.00  0.00     0.258 C 
ATOM      8  O   UNL     1      30.120  26.582  21.726  1.00  0.00    -0.300 OA
ENDBRANCH   6   7
BRANCH   6   9
ATOM      9  O   UNL     1      27.473  26.411  20.866  1.00  0.00    -0.383 OA
ATOM     10  H   UNL     1      26.482  26.466  20.928  1.00  0.00     0.211 HD
ENDBRANCH   6   9
ENDBRANCH   5   6
BRANCH   5  11
ATOM     11  O   UNL     1      27.892  27.864  23.210  1.00  0.00    -0.387 OA
ATOM     12  H   UNL     1      28.874  27.882  23.071  1.00  0.00     0.211 HD
ENDBRANCH   5  11
ENDBRANCH   1   5
BRANCH   1  13
ATOM     13  O   UNL     1      25.261  25.858  22.583  1.00  0.00    -0.388 OA
ATOM     14  H   UNL     1      24.452  26.416  22.440  1.00  0.00     0.211 HD
ENDBRANCH   1  13
TORSDOF 8
ENDMDL
MODEL 4
REMARK VINA RESULT:    -3.781      6.006      6.887
REMARK INTER + INTRA:          -5.644
REMARK INTER:                  -4.693
REMARK INTRA:                  -0.951
REMARK UNBOUND:                -0.536
REMARK SMILES O=C[C@H](O)[C@@H](O)[C@H](O)CO
REMARK SMILES IDX 7 1 9 2 10 3 5 5 3 6 2 7 1 8 4 9 6 11 8 13
REMARK H PARENT 10 4 4 10 6 12 8 14
REMARK Flexibility Score: inf
ROOT
ATOM      1  C   UNL     1      28.900  26.460  22.275  1.00  0.00     0.171 C 
ENDROOT
BRANCH   1   2
ATOM      2  C   UNL     1      28.767  26.109  20.778  1.00  0.00     0.190 C 
BRANCH   2   3
ATOM      3  O   UNL     1      27.497  26.453  20.297  1.00  0.00    -0.394 OA
ATOM      4  H   UNL     1      27.102  27.064  20.972  1.00  0.00     0.210 HD
ENDBRANCH   2   3
ENDBRANCH   1   2
BRANCH   1   5
ATOM      5  C   UNL     1      27.736  25.948  23.172  1.00  0.00     0.181 C 
BRANCH   5   6
ATOM      6  C   UNL     1      26.767  27.039  23.708  1.00  0.00     0.209 C 
BRANCH   6   7
ATOM      7  C   UNL     1      25.731  26.462  24.634  1.00  0.00     0.258 C 
ATOM      8  O   UNL     1      25.849  25.329  25.072  1.00  0.00    -0.300 OA
ENDBRANCH   6   7
BRANCH   6   9
ATOM      9  O   UNL     1      26.101  27.652  22.635  1.00  0.00    -0.383 OA
ATOM     10  H   UNL     1      25.752  28.522  22.965  1.00  0.00     0.211 HD
ENDBRANCH   6   9
ENDBRANCH   5   6
BRANCH   5  11
ATOM     11  O   UNL     1      27.027  24.931  22.507  1.00  0.00    -0.387 OA
ATOM     12  H   UNL     1      26.106  25.260  22.336  1.00  0.00     0.211 HD
ENDBRANCH   5  11
ENDBRANCH   1   5
BRANCH   1  13
ATOM     13  O   UNL     1      29.054  27.847  22.436  1.00  0.00    -0.388 OA
ATOM     14  H   UNL     1      28.178  28.204  22.740  1.00  0.00     0.211 HD
ENDBRANCH   1  13
TORSDOF 8
ENDMDL
MODEL 5
REMARK VINA RESULT:    -3.770      7.225      8.357
REMARK INTER + INTRA:          -5.629
REMARK INTER:                  -4.720
REMARK INTRA:                  -0.909
REMARK UNBOUND:                -0.536
REMARK SMILES O=C[C@H](O)[C@@H](O)[C@H](O)CO
REMARK SMILES IDX 7 1 9 2 10 3 5 5 3 6 2 7 1 8 4 9 6 11 8 13
REMARK H PARENT 10 4 4 10 6 12 8 14
REMARK Flexibility Score: inf
ROOT
ATOM      1  C   UNL     1      27.382  26.162  22.436  1.00  0.00     0.171 C 
ENDROOT
BRANCH   1   2
ATOM      2  C   UNL     1      25.987  26.549  22.972  1.00  0.00     0.190 C 
BRANCH   2   3
ATOM      3  O   UNL     1      25.781  27.931  22.872  1.00  0.00    -0.394 OA
ATOM      4  H   UNL     1      26.062  28.187  21.956  1.00  0.00     0.210 HD
ENDBRANCH   2   3
ENDBRANCH   1   2
BRANCH   1   5
ATOM      5  C   UNL     1      28.576  26.783  23.216  1.00  0.00     0.181 C 
BRANCH   5   6
ATOM      6  C   UNL     1      29.992  26.362  22.729  1.00  0.00     0.209 C 
BRANCH   6   7
ATOM      7  C   UNL     1      30.675  27.466  21.971  1.00  0.00     0.258 C 
ATOM      8  O   UNL     1      30.224  27.863  20.908  1.00  0.00    -0.300 OA
ENDBRANCH   6   7
BRANCH   6   9
ATOM      9  O   UNL     1      29.891  25.247  21.882  1.00  0.00    -0.383 OA
ATOM     10  H   UNL     1      30.720  25.219  21.334  1.00  0.00     0.211 HD
ENDBRANCH   6   9
ENDBRANCH   5   6
BRANCH   5  11
ATOM     11  O   UNL     1      28.454  28.184  23.250  1.00  0.00    -0.387 OA
ATOM     12  H   UNL     1      28.821  28.545  22.401  1.00  0.00     0.211 HD
ENDBRANCH   5  11
ENDBRANCH   1   5
BRANCH   1  13
ATOM     13  O   UNL     1      27.482  26.483  21.071  1.00  0.00    -0.388 OA
ATOM     14  H   UNL     1      26.871  27.249  20.907  1.00  0.00     0.211 HD
ENDBRANCH   1  13
TORSDOF 8
ENDMDL
MODEL 6
REMARK VINA RESULT:    -3.720      1.128      4.103
REMARK INTER + INTRA:          -5.562
REMARK INTER:                  -5.134
REMARK INTRA:                  -0.428
REMARK UNBOUND:                -0.536
REMARK SMILES O=C[C@H](O)[C@@H](O)[C@H](O)CO
REMARK SMILES IDX 7 1 9 2 10 3 5 5 3 6 2 7 1 8 4 9 6 11 8 13
REMARK H PARENT 10 4 4 10 6 12 8 14
REMARK Flexibility Score: inf
ROOT
ATOM      1  C   UNL     1      21.510  23.539  23.567  1.00  0.00     0.171 C 
ENDROOT
BRANCH   1   2
ATOM      2  C   UNL     1      20.662  24.104  24.726  1.00  0.00     0.190 C 
BRANCH   2   3
ATOM      3  O   UNL     1      20.026  25.292  24.344  1.00  0.00    -0.394 OA
ATOM      4  H   UNL     1      20.329  25.483  23.419  1.00  0.00     0.210 HD
ENDBRANCH   2   3
ENDBRANCH   1   2
BRANCH   1   5
ATOM      5  C   UNL     1      21.222  22.051  23.213  1.00  0.00     0.181 C 
BRANCH   5   6
ATOM      6  C   UNL     1      21.997  21.487  21.989  1.00  0.00     0.209 C 
BRANCH   6   7
ATOM      7  C   UNL     1      21.706  20.029  21.765  1.00  0.00     0.258 C 
ATOM      8  O   UNL     1      20.569  19.596  21.879  1.00  0.00    -0.300 OA
ENDBRANCH   6   7
BRANCH   6   9
ATOM      9  O   UNL     1      23.379  21.629  22.195  1.00  0.00    -0.383 OA
ATOM     10  H   UNL     1      23.738  20.728  22.410  1.00  0.00     0.211 HD
ENDBRANCH   6   9
ENDBRANCH   5   6
BRANCH   5  11
ATOM     11  O   UNL     1      21.415  21.240  24.346  1.00  0.00    -0.387 OA
ATOM     12  H   UNL     1      21.749  21.815  25.082  1.00  0.00     0.211 HD
ENDBRANCH   5  11
ENDBRANCH   1   5
BRANCH   1  13
ATOM     13  O   UNL     1      22.878  23.711  23.839  1.00  0.00    -0.388 OA
ATOM     14  H   UNL     1      23.215  24.401  23.208  1.00  0.00     0.211 HD
ENDBRANCH   1  13
TORSDOF 8
ENDMDL
MODEL 7
REMARK VINA RESULT:    -3.619      6.641      7.340
REMARK INTER + INTRA:          -5.425
REMARK INTER:                  -4.749
REMARK INTRA:                  -0.677
REMARK UNBOUND:                -0.536
REMARK SMILES O=C[C@H](O)[C@@H](O)[C@H](O)CO
REMARK SMILES IDX 7 1 9 2 10 3 5 5 3 6 2 7 1 8 4 9 6 11 8 13
REMARK H PARENT 10 4 4 10 6 12 8 14
REMARK Flexibility Score: inf
ROOT
ATOM      1  C   UNL     1      28.890  25.668  21.644  1.00  0.00     0.171 C 
ENDROOT
BRANCH   1   2
ATOM      2  C   UNL     1      28.928  26.413  20.293  1.00  0.00     0.190 C 
BRANCH   2   3
ATOM      3  O   UNL     1      27.863  26.016  19.475  1.00  0.00    -0.394 OA
ATOM      4  H   UNL     1      27.550  26.835  19.011  1.00  0.00     0.210 HD
ENDBRANCH   2   3
ENDBRANCH   1   2
BRANCH   1   5
ATOM      5  C   UNL     1      27.713  26.070  22.579  1.00  0.00     0.181 C 
BRANCH   5   6
ATOM      6  C   UNL     1      28.076  27.039  23.741  1.00  0.00     0.209 C 
BRANCH   6   7
ATOM      7  C   UNL     1      26.884  27.348  24.605  1.00  0.00     0.258 C 
ATOM      8  O   UNL     1      26.031  28.136  24.231  1.00  0.00    -0.300 OA
ENDBRANCH   6   7
BRANCH   6   9
ATOM      9  O   UNL     1      28.561  28.248  23.217  1.00  0.00    -0.383 OA
ATOM     10  H   UNL     1      28.468  28.934  23.930  1.00  0.00     0.211 HD
ENDBRANCH   6   9
ENDBRANCH   5   6
BRANCH   5  11
ATOM     11  O   UNL     1      26.644  26.578  21.818  1.00  0.00    -0.387 OA
ATOM     12  H   UNL     1      26.718  26.209  20.901  1.00  0.00     0.211 HD
ENDBRANCH   5  11
ENDBRANCH   1   5
BRANCH   1  13
ATOM     13  O   UNL     1      30.113  25.824  22.318  1.00  0.00    -0.388 OA
ATOM     14  H   UNL     1      30.579  26.595  21.899  1.00  0.00     0.211 HD
ENDBRANCH   1  13
TORSDOF 8
ENDMDL
MODEL 8
REMARK VINA RESULT:    -3.547      6.764      7.888
REMARK INTER + INTRA:          -5.328
REMARK INTER:                  -4.757
REMARK INTRA:                  -0.570
REMARK UNBOUND:                -0.536
REMARK SMILES O=C[C@H](O)[C@@H](O)[C@H](O)CO
REMARK SMILES IDX 7 1 9 2 10 3 5 5 3 6 2 7 1 8 4 9 6 11 8 13
REMARK H PARENT 10 4 4 10 6 12 8 14
REMARK Flexibility Score: inf
ROOT
ATOM      1  C   UNL     1      27.179  26.010  22.801  1.00  0.00     0.171 C 
ENDROOT
BRANCH   1   2
ATOM      2  C   UNL     1      25.865  26.748  23.132  1.00  0.00     0.190 C 
BRANCH   2   3
ATOM      3  O   UNL     1      26.028  28.134  23.010  1.00  0.00    -0.394 OA
ATOM      4  H   UNL     1      26.961  28.277  22.704  1.00  0.00     0.210 HD
ENDBRANCH   2   3
ENDBRANCH   1   2
BRANCH   1   5
ATOM      5  C   UNL     1      27.985  26.611  21.613  1.00  0.00     0.181 C 
BRANCH   5   6
ATOM      6  C   UNL     1      29.384  27.189  21.970  1.00  0.00     0.209 C 
BRANCH   6   7
ATOM      7  C   UNL     1      30.273  26.153  22.600  1.00  0.00     0.258 C 
ATOM      8  O   UNL     1      30.628  25.170  21.969  1.00  0.00    -0.300 OA
ENDBRANCH   6   7
BRANCH   6   9
ATOM      9  O   UNL     1      29.241  28.252  22.876  1.00  0.00    -0.383 OA
ATOM     10  H   UNL     1      28.830  27.881  23.701  1.00  0.00     0.211 HD
ENDBRANCH   6   9
ENDBRANCH   5   6
BRANCH   5  11
ATOM     11  O   UNL     1      28.082  25.671  20.571  1.00  0.00    -0.387 OA
ATOM     12  H   UNL     1      27.172  25.523  20.205  1.00  0.00     0.211 HD
ENDBRANCH   5  11
ENDBRANCH   1   5
BRANCH   1  13
ATOM     13  O   UNL     1      26.923  24.648  22.565  1.00  0.00    -0.388 OA
ATOM     14  H   UNL     1      27.753  24.259  22.182  1.00  0.00     0.211 HD
ENDBRANCH   1  13
TORSDOF 8
ENDMDL
MODEL 9
REMARK VINA RESULT:    -3.501      7.624      8.339
REMARK INTER + INTRA:          -5.265
REMARK INTER:                  -4.769
REMARK INTRA:                  -0.497
REMARK UNBOUND:                -0.536
REMARK SMILES O=C[C@H](O)[C@@H](O)[C@H](O)CO
REMARK SMILES IDX 7 1 9 2 10 3 5 5 3 6 2 7 1 8 4 9 6 11 8 13
REMARK H PARENT 10 4 4 10 6 12 8 14
REMARK Flexibility Score: inf
ROOT
ATOM      1  C   UNL     1      28.881  26.343  20.217  1.00  0.00     0.171 C 
ENDROOT
BRANCH   1   2
ATOM      2  C   UNL     1      29.347  25.502  19.009  1.00  0.00     0.190 C 
BRANCH   2   3
ATOM      3  O   UNL     1      29.499  26.306  17.872  1.00  0.00    -0.394 OA
ATOM      4  H   UNL     1      29.309  27.235  18.163  1.00  0.00     0.210 HD
ENDBRANCH   2   3
ENDBRANCH   1   2
BRANCH   1   5
ATOM      5  C   UNL     1      29.373  25.828  21.600  1.00  0.00     0.181 C 
BRANCH   5   6
ATOM      6  C   UNL     1      29.864  26.920  22.592  1.00  0.00     0.209 C 
BRANCH   6   7
ATOM      7  C   UNL     1      28.805  27.280  23.597  1.00  0.00     0.258 C 
ATOM      8  O   UNL     1      27.657  27.495  23.242  1.00  0.00    -0.300 OA
ENDBRANCH   6   7
BRANCH   6   9
ATOM      9  O   UNL     1      30.209  28.083  21.885  1.00  0.00    -0.383 OA
ATOM     10  H   UNL     1      29.361  28.520  21.607  1.00  0.00     0.211 HD
ENDBRANCH   6   9
ENDBRANCH   5   6
BRANCH   5  11
ATOM     11  O   UNL     1      28.386  25.020  22.193  1.00  0.00    -0.387 OA
ATOM     12  H   UNL     1      28.800  24.149  22.425  1.00  0.00     0.211 HD
ENDBRANCH   5  11
ENDBRANCH   1   5
BRANCH   1  13
ATOM     13  O   UNL     1      27.480  26.454  20.217  1.00  0.00    -0.388 OA
ATOM     14  H   UNL     1      27.219  26.835  19.338  1.00  0.00     0.211 HD
ENDBRANCH   1  13
TORSDOF 8
ENDMDL
