MODEL 1
REMARK VINA RESULT:    -3.694      0.000      0.000
REMARK INTER + INTRA:          -5.733
REMARK INTER:                  -4.990
REMARK INTRA:                  -0.743
REMARK UNBOUND:                -0.743
REMARK SMILES CCCCCCC=CC(=O)[O-]
REMARK SMILES IDX 5 1 6 2 7 3 8 4 9 5 10 6 11 7 4 8 3 9 2 10 1 11
REMARK H PARENT
REMARK Flexibility Score: inf
ROOT
ATOM      1  C   UNL     1       5.227  -0.927 -13.356  1.00  0.00     0.004 C 
ENDROOT
BRANCH   1   2
ATOM      2  C   UNL     1       5.863  -2.206 -13.913  1.00  0.00     0.027 C 
BRANCH   2   3
ATOM      3  C   UNL     1       6.333  -3.107 -12.808  1.00  0.00    -0.025 C 
ATOM      4  C   UNL     1       6.196  -2.766 -11.523  1.00  0.00     0.020 C 
BRANCH   4   5
ATOM      5  C   UNL     1       6.665  -3.632 -10.430  1.00  0.00     0.064 C 
ATOM      6  O   UNL     1       5.847  -4.382  -9.838  1.00  0.00    -0.545 OA
ATOM      7  O   UNL     1       8.001  -3.637 -10.043  1.00  0.00    -0.545 OA
ENDBRANCH   4   5
ENDBRANCH   2   3
ENDBRANCH   1   2
BRANCH   1   8
ATOM      8  C   UNL     1       5.874   0.322 -13.972  1.00  0.00     0.000 C 
BRANCH   8   9
ATOM      9  C   UNL     1       7.407   0.232 -14.019  1.00  0.00    -0.000 C 
BRANCH   9  10
ATOM     10  C   UNL     1       8.068   0.706 -12.716  1.00  0.00    -0.003 C 
ATOM     11  C   UNL     1       9.010  -0.357 -12.159  1.00  0.00     0.004 C 
ENDBRANCH   9  10
ENDBRANCH   8   9
ENDBRANCH   1   8
TORSDOF 6
ENDMDL
MODEL 2
REMARK VINA RESULT:    -3.614     15.867     16.716
REMARK INTER + INTRA:          -5.625
REMARK INTER:                  -5.346
REMARK INTRA:                  -0.280
REMARK UNBOUND:                -0.743
REMARK SMILES CCCCCCC=CC(=O)[O-]
REMARK SMILES IDX 5 1 6 2 7 3 8 4 9 5 10 6 11 7 4 8 3 9 2 10 1 11
REMARK H PARENT
REMARK Flexibility Score: inf
ROOT
ATOM      1  C   UNL     1      -6.048   5.513  -3.050  1.00  0.00     0.004 C 
ENDROOT
BRANCH   1   2
ATOM      2  C   UNL     1      -5.600   4.289  -3.859  1.00  0.00     0.027 C 
BRANCH   2   3
ATOM      3  C   UNL     1      -4.734   4.691  -5.019  1.00  0.00    -0.025 C 
ATOM      4  C   UNL     1      -4.004   5.810  -4.991  1.00  0.00     0.020 C 
BRANCH   4   5
ATOM      5  C   UNL     1      -3.164   6.222  -6.125  1.00  0.00     0.064 C 
ATOM      6  O   UNL     1      -2.780   7.417  -6.212  1.00  0.00    -0.545 OA
ATOM      7  O   UNL     1      -2.782   5.310  -7.104  1.00  0.00    -0.545 OA
ENDBRANCH   4   5
ENDBRANCH   2   3
ENDBRANCH   1   2
BRANCH   1   8
ATOM      8  C   UNL     1      -5.924   5.249  -1.542  1.00  0.00     0.000 C 
BRANCH   8   9
ATOM      9  C   UNL     1      -5.159   6.360  -0.807  1.00  0.00    -0.000 C 
BRANCH   9  10
ATOM     10  C   UNL     1      -4.621   5.906   0.558  1.00  0.00    -0.003 C 
ATOM     11  C   UNL     1      -3.213   6.442   0.801  1.00  0.00     0.004 C 
ENDBRANCH   9  10
ENDBRANCH   8   9
ENDBRANCH   1   8
TORSDOF 6
ENDMDL
MODEL 3
REMARK VINA RESULT:    -3.558      1.664      2.733
REMARK INTER + INTRA:          -5.549
REMARK INTER:                  -5.236
REMARK INTRA:                  -0.313
REMARK UNBOUND:                -0.743
REMARK SMILES CCCCCCC=CC(=O)[O-]
REMARK SMILES IDX 5 1 6 2 7 3 8 4 9 5 10 6 11 7 4 8 3 9 2 10 1 11
REMARK H PARENT
REMARK Flexibility Score: inf
ROOT
ATOM      1  C   UNL     1       5.214  -1.057 -13.547  1.00  0.00     0.004 C 
ENDROOT
BRANCH   1   2
ATOM      2  C   UNL     1       6.627  -0.723 -13.054  1.00  0.00     0.027 C 
BRANCH   2   3
ATOM      3  C   UNL     1       7.128  -1.762 -12.092  1.00  0.00    -0.025 C 
ATOM      4  C   UNL     1       6.294  -2.609 -11.481  1.00  0.00     0.020 C 
BRANCH   4   5
ATOM      5  C   UNL     1       6.769  -3.622 -10.526  1.00  0.00     0.064 C 
ATOM      6  O   UNL     1       8.002  -3.736 -10.305  1.00  0.00    -0.545 OA
ATOM      7  O   UNL     1       5.875  -4.454  -9.861  1.00  0.00    -0.545 OA
ENDBRANCH   4   5
ENDBRANCH   2   3
ENDBRANCH   1   2
BRANCH   1   8
ATOM      8  C   UNL     1       4.463   0.216 -13.965  1.00  0.00     0.000 C 
BRANCH   8   9
ATOM      9  C   UNL     1       5.313   1.486 -13.798  1.00  0.00    -0.000 C 
BRANCH   9  10
ATOM     10  C   UNL     1       4.530   2.767 -14.119  1.00  0.00    -0.003 C 
ATOM     11  C   UNL     1       4.297   3.599 -12.861  1.00  0.00     0.004 C 
ENDBRANCH   9  10
ENDBRANCH   8   9
ENDBRANCH   1   8
TORSDOF 6
ENDMDL
MODEL 4
REMARK VINA RESULT:    -3.529     14.792     15.722
REMARK INTER + INTRA:          -5.510
REMARK INTER:                  -5.171
REMARK INTRA:                  -0.339
REMARK UNBOUND:                -0.743
REMARK SMILES CCCCCCC=CC(=O)[O-]
REMARK SMILES IDX 5 1 6 2 7 3 8 4 9 5 10 6 11 7 4 8 3 9 2 10 1 11
REMARK H PARENT
REMARK Flexibility Score: inf
ROOT
ATOM      1  C   UNL     1       9.103  -1.589   3.237  1.00  0.00     0.004 C 
ENDROOT
BRANCH   1   2
ATOM      2  C   UNL     1       9.175  -2.955   2.545  1.00  0.00     0.027 C 
BRANCH   2   3
ATOM      3  C   UNL     1       7.909  -3.737   2.750  1.00  0.00    -0.025 C 
ATOM      4  C   UNL     1       7.662  -4.859   2.068  1.00  0.00     0.020 C 
BRANCH   4   5
ATOM      5  C   UNL     1       6.421  -5.627   2.248  1.00  0.00     0.064 C 
ATOM      6  O   UNL     1       5.696  -5.879   1.251  1.00  0.00    -0.545 OA
ATOM      7  O   UNL     1       6.036  -6.081   3.505  1.00  0.00    -0.545 OA
ENDBRANCH   4   5
ENDBRANCH   2   3
ENDBRANCH   1   2
BRANCH   1   8
ATOM      8  C   UNL     1       8.046  -1.594   4.352  1.00  0.00     0.000 C 
BRANCH   8   9
ATOM      9  C   UNL     1       7.281  -0.265   4.448  1.00  0.00    -0.000 C 
BRANCH   9  10
ATOM     10  C   UNL     1       8.036   0.902   3.795  1.00  0.00    -0.003 C 
ATOM     11  C   UNL     1       7.250   2.204   3.917  1.00  0.00     0.004 C 
ENDBRANCH   9  10
ENDBRANCH   8   9
ENDBRANCH   1   8
TORSDOF 6
ENDMDL
MODEL 5
REMARK VINA RESULT:    -3.511      1.084      2.689
REMARK INTER + INTRA:          -5.487
REMARK INTER:                  -4.842
REMARK INTRA:                  -0.645
REMARK UNBOUND:                -0.743
REMARK SMILES CCCCCCC=CC(=O)[O-]
REMARK SMILES IDX 5 1 6 2 7 3 8 4 9 5 10 6 11 7 4 8 3 9 2 10 1 11
REMARK H PARENT
REMARK Flexibility Score: inf
ROOT
ATOM      1  C   UNL     1       8.828  -0.606 -13.606  1.00  0.00     0.004 C 
ENDROOT
BRANCH   1   2
ATOM      2  C   UNL     1       8.580  -0.439 -12.101  1.00  0.00     0.027 C 
BRANCH   2   3
ATOM      3  C   UNL     1       8.428  -1.770 -11.424  1.00  0.00    -0.025 C 
ATOM      4  C   UNL     1       7.239  -2.373 -11.326  1.00  0.00     0.020 C 
BRANCH   4   5
ATOM      5  C   UNL     1       7.073  -3.670 -10.652  1.00  0.00     0.064 C 
ATOM      6  O   UNL     1       8.059  -4.443 -10.542  1.00  0.00    -0.545 OA
ATOM      7  O   UNL     1       5.842  -4.054 -10.131  1.00  0.00    -0.545 OA
ENDBRANCH   4   5
ENDBRANCH   2   3
ENDBRANCH   1   2
BRANCH   1   8
ATOM      8  C   UNL     1       7.737   0.103 -14.423  1.00  0.00     0.000 C 
BRANCH   8   9
ATOM      9  C   UNL     1       6.829   0.988 -13.556  1.00  0.00    -0.000 C 
BRANCH   9  10
ATOM     10  C   UNL     1       5.339   0.805 -13.881  1.00  0.00    -0.003 C 
ATOM     11  C   UNL     1       4.888  -0.626 -13.604  1.00  0.00     0.004 C 
ENDBRANCH   9  10
ENDBRANCH   8   9
ENDBRANCH   1   8
TORSDOF 6
ENDMDL
MODEL 6
REMARK VINA RESULT:    -3.496      1.811      2.705
REMARK INTER + INTRA:          -5.465
REMARK INTER:                  -5.147
REMARK INTRA:                  -0.318
REMARK UNBOUND:                -0.743
REMARK SMILES CCCCCCC=CC(=O)[O-]
REMARK SMILES IDX 5 1 6 2 7 3 8 4 9 5 10 6 11 7 4 8 3 9 2 10 1 11
REMARK H PARENT
REMARK Flexibility Score: inf
ROOT
ATOM      1  C   UNL     1       8.156  -0.157 -12.780  1.00  0.00     0.004 C 
ENDROOT
BRANCH   1   2
ATOM      2  C   UNL     1       6.689  -0.579 -12.929  1.00  0.00     0.027 C 
BRANCH   2   3
ATOM      3  C   UNL     1       6.434  -1.903 -12.268  1.00  0.00    -0.025 C 
ATOM      4  C   UNL     1       7.272  -2.401 -11.353  1.00  0.00     0.020 C 
BRANCH   4   5
ATOM      5  C   UNL     1       7.043  -3.702 -10.708  1.00  0.00     0.064 C 
ATOM      6  O   UNL     1       7.963  -4.559 -10.694  1.00  0.00    -0.545 OA
ATOM      7  O   UNL     1       5.823  -4.000 -10.109  1.00  0.00    -0.545 OA
ENDBRANCH   4   5
ENDBRANCH   2   3
ENDBRANCH   1   2
BRANCH   1   8
ATOM      8  C   UNL     1       8.296   1.371 -12.847  1.00  0.00     0.000 C 
BRANCH   8   9
ATOM      9  C   UNL     1       6.957   2.078 -13.108  1.00  0.00    -0.000 C 
BRANCH   9  10
ATOM     10  C   UNL     1       6.835   3.411 -12.355  1.00  0.00    -0.003 C 
ATOM     11  C   UNL     1       5.412   3.957 -12.431  1.00  0.00     0.004 C 
ENDBRANCH   9  10
ENDBRANCH   8   9
ENDBRANCH   1   8
TORSDOF 6
ENDMDL
MODEL 7
REMARK VINA RESULT:    -3.402     15.714     16.504
REMARK INTER + INTRA:          -5.338
REMARK INTER:                  -4.973
REMARK INTRA:                  -0.365
REMARK UNBOUND:                -0.743
REMARK SMILES CCCCCCC=CC(=O)[O-]
REMARK SMILES IDX 5 1 6 2 7 3 8 4 9 5 10 6 11 7 4 8 3 9 2 10 1 11
REMARK H PARENT
REMARK Flexibility Score: inf
ROOT
ATOM      1  C   UNL     1      -5.073   4.263  -4.682  1.00  0.00     0.004 C 
ENDROOT
BRANCH   1   2
ATOM      2  C   UNL     1      -6.304   4.785  -3.931  1.00  0.00     0.027 C 
BRANCH   2   3
ATOM      3  C   UNL     1      -6.001   5.008  -2.477  1.00  0.00    -0.025 C 
ATOM      4  C   UNL     1      -5.452   6.147  -2.044  1.00  0.00     0.020 C 
BRANCH   4   5
ATOM      5  C   UNL     1      -5.137   6.373  -0.626  1.00  0.00     0.064 C 
ATOM      6  O   UNL     1      -4.801   7.523  -0.240  1.00  0.00    -0.545 OA
ATOM      7  O   UNL     1      -5.207   5.336   0.298  1.00  0.00    -0.545 OA
ENDBRANCH   4   5
ENDBRANCH   2   3
ENDBRANCH   1   2
BRANCH   1   8
ATOM      8  C   UNL     1      -4.624   5.262  -5.759  1.00  0.00     0.000 C 
BRANCH   8   9
ATOM      9  C   UNL     1      -3.427   6.116  -5.312  1.00  0.00    -0.000 C 
BRANCH   9  10
ATOM     10  C   UNL     1      -2.712   6.795  -6.489  1.00  0.00    -0.003 C 
ATOM     11  C   UNL     1      -2.675   5.882  -7.711  1.00  0.00     0.004 C 
ENDBRANCH   9  10
ENDBRANCH   8   9
ENDBRANCH   1   8
TORSDOF 6
ENDMDL
MODEL 8
REMARK VINA RESULT:    -3.394     16.638     17.438
REMARK INTER + INTRA:          -5.327
REMARK INTER:                  -4.925
REMARK INTRA:                  -0.402
REMARK UNBOUND:                -0.743
REMARK SMILES CCCCCCC=CC(=O)[O-]
REMARK SMILES IDX 5 1 6 2 7 3 8 4 9 5 10 6 11 7 4 8 3 9 2 10 1 11
REMARK H PARENT
REMARK Flexibility Score: inf
ROOT
ATOM      1  C   UNL     1      -6.029   4.804  -0.809  1.00  0.00     0.004 C 
ENDROOT
BRANCH   1   2
ATOM      2  C   UNL     1      -6.257   5.813  -1.941  1.00  0.00     0.027 C 
BRANCH   2   3
ATOM      3  C   UNL     1      -5.605   5.359  -3.215  1.00  0.00    -0.025 C 
ATOM      4  C   UNL     1      -4.664   6.093  -3.819  1.00  0.00     0.020 C 
BRANCH   4   5
ATOM      5  C   UNL     1      -4.027   5.668  -5.074  1.00  0.00     0.064 C 
ATOM      6  O   UNL     1      -4.164   4.481  -5.469  1.00  0.00    -0.545 OA
ATOM      7  O   UNL     1      -3.278   6.559  -5.834  1.00  0.00    -0.545 OA
ENDBRANCH   4   5
ENDBRANCH   2   3
ENDBRANCH   1   2
BRANCH   1   8
ATOM      8  C   UNL     1      -5.279   5.454   0.363  1.00  0.00     0.000 C 
BRANCH   8   9
ATOM      9  C   UNL     1      -4.374   6.613  -0.083  1.00  0.00    -0.000 C 
BRANCH   9  10
ATOM     10  C   UNL     1      -3.037   6.644   0.671  1.00  0.00    -0.003 C 
ATOM     11  C   UNL     1      -2.935   5.482   1.656  1.00  0.00     0.004 C 
ENDBRANCH   9  10
ENDBRANCH   8   9
ENDBRANCH   1   8
TORSDOF 6
ENDMDL
MODEL 9
REMARK VINA RESULT:    -3.371     14.657     15.744
REMARK INTER + INTRA:          -5.296
REMARK INTER:                  -4.803
REMARK INTRA:                  -0.493
REMARK UNBOUND:                -0.743
REMARK SMILES CCCCCCC=CC(=O)[O-]
REMARK SMILES IDX 5 1 6 2 7 3 8 4 9 5 10 6 11 7 4 8 3 9 2 10 1 11
REMARK H PARENT
REMARK Flexibility Score: inf
ROOT
ATOM      1  C   UNL     1      -6.730   4.608  -5.735  1.00  0.00     0.004 C 
ENDROOT
BRANCH   1   2
ATOM      2  C   UNL     1      -6.372   5.637  -6.815  1.00  0.00     0.027 C 
BRANCH   2   3
ATOM      3  C   UNL     1      -4.914   5.991  -6.768  1.00  0.00    -0.025 C 
ATOM      4  C   UNL     1      -4.079   5.647  -7.754  1.00  0.00     0.020 C 
BRANCH   4   5
ATOM      5  C   UNL     1      -2.646   5.975  -7.714  1.00  0.00     0.064 C 
ATOM      6  O   UNL     1      -2.204   6.721  -6.803  1.00  0.00    -0.545 OA
ATOM      7  O   UNL     1      -1.768   5.469  -8.668  1.00  0.00    -0.545 OA
ENDBRANCH   4   5
ENDBRANCH   2   3
ENDBRANCH   1   2
BRANCH   1   8
ATOM      8  C   UNL     1      -5.652   4.565  -4.641  1.00  0.00     0.000 C 
BRANCH   8   9
ATOM      9  C   UNL     1      -6.234   4.733  -3.229  1.00  0.00    -0.000 C 
BRANCH   9  10
ATOM     10  C   UNL     1      -5.640   5.936  -2.484  1.00  0.00    -0.003 C 
ATOM     11  C   UNL     1      -5.733   7.206  -3.325  1.00  0.00     0.004 C 
ENDBRANCH   9  10
ENDBRANCH   8   9
ENDBRANCH   1   8
TORSDOF 6
ENDMDL
