MODEL 1
REMARK VINA RESULT:    -3.695      0.000      0.000
REMARK INTER + INTRA:          -6.110
REMARK INTER:                  -5.207
REMARK INTRA:                  -0.904
REMARK UNBOUND:                -0.904
REMARK SMILES CCCCCCCCC(=O)[O-]
REMARK SMILES IDX 6 1 7 2 8 3 9 4 10 5 11 6 5 7 4 8 3 9 2 10 1 11
REMARK H PARENT
REMARK Flexibility Score: inf
ROOT
ATOM      1  C   UNL     1      44.601  61.831  13.501  1.00  0.00     0.000 C 
ENDROOT
BRANCH   1   2
ATOM      2  C   UNL     1      44.434  60.357  13.089  1.00  0.00     0.006 C 
BRANCH   2   3
ATOM      3  C   UNL     1      42.975  59.923  12.875  1.00  0.00     0.053 C 
BRANCH   3   4
ATOM      4  C   UNL     1      42.694  59.589  11.443  1.00  0.00     0.041 C 
ATOM      5  O   UNL     1      41.646  58.965  11.132  1.00  0.00    -0.550 OA
ATOM      6  O   UNL     1      43.573  59.998  10.447  1.00  0.00    -0.550 OA
ENDBRANCH   3   4
ENDBRANCH   2   3
ENDBRANCH   1   2
BRANCH   1   7
ATOM      7  C   UNL     1      44.620  62.785  12.293  1.00  0.00     0.000 C 
BRANCH   7   8
ATOM      8  C   UNL     1      43.414  63.738  12.272  1.00  0.00    -0.000 C 
BRANCH   8   9
ATOM      9  C   UNL     1      42.337  63.303  11.262  1.00  0.00    -0.000 C 
BRANCH   9  10
ATOM     10  C   UNL     1      41.005  62.945  11.940  1.00  0.00    -0.003 C 
ATOM     11  C   UNL     1      41.050  63.107  13.459  1.00  0.00     0.004 C 
ENDBRANCH   9  10
ENDBRANCH   8   9
ENDBRANCH   7   8
ENDBRANCH   1   7
TORSDOF 7
ENDMDL
MODEL 2
REMARK VINA RESULT:    -3.693      2.515      4.045
REMARK INTER + INTRA:          -6.108
REMARK INTER:                  -5.386
REMARK INTRA:                  -0.722
REMARK UNBOUND:                -0.904
REMARK SMILES CCCCCCCCC(=O)[O-]
REMARK SMILES IDX 6 1 7 2 8 3 9 4 10 5 11 6 5 7 4 8 3 9 2 10 1 11
REMARK H PARENT
REMARK Flexibility Score: inf
ROOT
ATOM      1  C   UNL     1      44.552  60.452  12.830  1.00  0.00     0.000 C 
ENDROOT
BRANCH   1   2
ATOM      2  C   UNL     1      44.421  61.831  13.504  1.00  0.00     0.006 C 
BRANCH   2   3
ATOM      3  C   UNL     1      44.620  63.019  12.550  1.00  0.00     0.053 C 
BRANCH   3   4
ATOM      4  C   UNL     1      43.317  63.645  12.156  1.00  0.00     0.041 C 
ATOM      5  O   UNL     1      42.276  63.418  12.827  1.00  0.00    -0.550 OA
ATOM      6  O   UNL     1      43.261  64.506  11.067  1.00  0.00    -0.550 OA
ENDBRANCH   3   4
ENDBRANCH   2   3
ENDBRANCH   1   2
BRANCH   1   7
ATOM      7  C   UNL     1      43.215  59.937  12.269  1.00  0.00     0.000 C 
BRANCH   7   8
ATOM      8  C   UNL     1      43.183  59.925  10.733  1.00  0.00    -0.000 C 
BRANCH   8   9
ATOM      9  C   UNL     1      44.577  60.123  10.113  1.00  0.00    -0.000 C 
BRANCH   9  10
ATOM     10  C   UNL     1      44.516  60.779   8.724  1.00  0.00    -0.003 C 
ATOM     11  C   UNL     1      43.376  61.789   8.595  1.00  0.00     0.004 C 
ENDBRANCH   9  10
ENDBRANCH   8   9
ENDBRANCH   7   8
ENDBRANCH   1   7
TORSDOF 7
ENDMDL
MODEL 3
REMARK VINA RESULT:    -3.676      9.804     11.373
REMARK INTER + INTRA:          -6.085
REMARK INTER:                  -5.603
REMARK INTRA:                  -0.481
REMARK UNBOUND:                -0.904
REMARK SMILES CCCCCCCCC(=O)[O-]
REMARK SMILES IDX 6 1 7 2 8 3 9 4 10 5 11 6 5 7 4 8 3 9 2 10 1 11
REMARK H PARENT
REMARK Flexibility Score: inf
ROOT
ATOM      1  C   UNL     1      48.980  60.018  23.085  1.00  0.00     0.000 C 
ENDROOT
BRANCH   1   2
ATOM      2  C   UNL     1      47.528  59.505  23.100  1.00  0.00     0.006 C 
BRANCH   2   3
ATOM      3  C   UNL     1      46.534  60.403  22.347  1.00  0.00     0.053 C 
BRANCH   3   4
ATOM      4  C   UNL     1      45.856  59.673  21.229  1.00  0.00     0.041 C 
ATOM      5  O   UNL     1      46.532  58.984  20.420  1.00  0.00    -0.550 OA
ATOM      6  O   UNL     1      44.474  59.727  21.101  1.00  0.00    -0.550 OA
ENDBRANCH   3   4
ENDBRANCH   2   3
ENDBRANCH   1   2
BRANCH   1   7
ATOM      7  C   UNL     1      49.974  58.968  22.557  1.00  0.00     0.000 C 
BRANCH   7   8
ATOM      8  C   UNL     1      51.278  59.595  22.039  1.00  0.00    -0.000 C 
BRANCH   8   9
ATOM      9  C   UNL     1      51.270  59.796  20.513  1.00  0.00    -0.000 C 
BRANCH   9  10
ATOM     10  C   UNL     1      50.007  59.220  19.851  1.00  0.00    -0.003 C 
ATOM     11  C   UNL     1      49.394  60.169  18.822  1.00  0.00     0.004 C 
ENDBRANCH   9  10
ENDBRANCH   8   9
ENDBRANCH   7   8
ENDBRANCH   1   7
TORSDOF 7
ENDMDL
MODEL 4
REMARK VINA RESULT:    -3.658      1.896      3.647
REMARK INTER + INTRA:          -6.059
REMARK INTER:                  -5.340
REMARK INTRA:                  -0.719
REMARK UNBOUND:                -0.904
REMARK SMILES CCCCCCCCC(=O)[O-]
REMARK SMILES IDX 6 1 7 2 8 3 9 4 10 5 11 6 5 7 4 8 3 9 2 10 1 11
REMARK H PARENT
REMARK Flexibility Score: inf
ROOT
ATOM      1  C   UNL     1      44.236  63.801  12.253  1.00  0.00     0.000 C 
ENDROOT
BRANCH   1   2
ATOM      2  C   UNL     1      42.780  63.875  11.755  1.00  0.00     0.006 C 
BRANCH   2   3
ATOM      3  C   UNL     1      41.732  63.498  12.813  1.00  0.00     0.053 C 
BRANCH   3   4
ATOM      4  C   UNL     1      40.540  62.824  12.206  1.00  0.00     0.041 C 
ATOM      5  O   UNL     1      39.440  62.811  12.819  1.00  0.00    -0.550 OA
ATOM      6  O   UNL     1      40.635  62.242  10.949  1.00  0.00    -0.550 OA
ENDBRANCH   3   4
ENDBRANCH   2   3
ENDBRANCH   1   2
BRANCH   1   7
ATOM      7  C   UNL     1      44.843  62.394  12.103  1.00  0.00     0.000 C 
BRANCH   7   8
ATOM      8  C   UNL     1      44.857  61.611  13.425  1.00  0.00    -0.000 C 
BRANCH   8   9
ATOM      9  C   UNL     1      44.292  60.188  13.273  1.00  0.00    -0.000 C 
BRANCH   9  10
ATOM     10  C   UNL     1      43.421  60.032  12.016  1.00  0.00    -0.003 C 
ATOM     11  C   UNL     1      42.128  59.261  12.284  1.00  0.00     0.004 C 
ENDBRANCH   9  10
ENDBRANCH   8   9
ENDBRANCH   7   8
ENDBRANCH   1   7
TORSDOF 7
ENDMDL
MODEL 5
REMARK VINA RESULT:    -3.649      2.065      3.755
REMARK INTER + INTRA:          -6.046
REMARK INTER:                  -5.175
REMARK INTRA:                  -0.871
REMARK UNBOUND:                -0.904
REMARK SMILES CCCCCCCCC(=O)[O-]
REMARK SMILES IDX 6 1 7 2 8 3 9 4 10 5 11 6 5 7 4 8 3 9 2 10 1 11
REMARK H PARENT
REMARK Flexibility Score: inf
ROOT
ATOM      1  C   UNL     1      44.657  63.017  12.417  1.00  0.00     0.000 C 
ENDROOT
BRANCH   1   2
ATOM      2  C   UNL     1      43.263  63.652  12.258  1.00  0.00     0.006 C 
BRANCH   2   3
ATOM      3  C   UNL     1      42.612  63.411  10.887  1.00  0.00     0.053 C 
BRANCH   3   4
ATOM      4  C   UNL     1      41.629  62.281  10.924  1.00  0.00     0.041 C 
ATOM      5  O   UNL     1      41.313  61.753  12.023  1.00  0.00    -0.550 OA
ATOM      6  O   UNL     1      41.036  61.836   9.750  1.00  0.00    -0.550 OA
ENDBRANCH   3   4
ENDBRANCH   2   3
ENDBRANCH   1   2
BRANCH   1   7
ATOM      7  C   UNL     1      44.618  61.692  13.200  1.00  0.00     0.000 C 
BRANCH   7   8
ATOM      8  C   UNL     1      44.709  60.460  12.285  1.00  0.00    -0.000 C 
BRANCH   8   9
ATOM      9  C   UNL     1      45.362  60.781  10.929  1.00  0.00    -0.000 C 
BRANCH   9  10
ATOM     10  C   UNL     1      44.709  60.017   9.766  1.00  0.00    -0.003 C 
ATOM     11  C   UNL     1      44.289  60.933   8.617  1.00  0.00     0.004 C 
ENDBRANCH   9  10
ENDBRANCH   8   9
ENDBRANCH   7   8
ENDBRANCH   1   7
TORSDOF 7
ENDMDL
MODEL 6
REMARK VINA RESULT:    -3.616      2.574      4.111
REMARK INTER + INTRA:          -5.999
REMARK INTER:                  -5.336
REMARK INTRA:                  -0.663
REMARK UNBOUND:                -0.904
REMARK SMILES CCCCCCCCC(=O)[O-]
REMARK SMILES IDX 6 1 7 2 8 3 9 4 10 5 11 6 5 7 4 8 3 9 2 10 1 11
REMARK H PARENT
REMARK Flexibility Score: inf
ROOT
ATOM      1  C   UNL     1      44.443  62.986  12.622  1.00  0.00     0.000 C 
ENDROOT
BRANCH   1   2
ATOM      2  C   UNL     1      43.126  63.706  12.277  1.00  0.00     0.006 C 
BRANCH   2   3
ATOM      3  C   UNL     1      41.967  62.762  11.921  1.00  0.00     0.053 C 
BRANCH   3   4
ATOM      4  C   UNL     1      40.768  62.996  12.788  1.00  0.00     0.041 C 
ATOM      5  O   UNL     1      39.642  63.210  12.267  1.00  0.00    -0.550 OA
ATOM      6  O   UNL     1      40.888  62.942  14.171  1.00  0.00    -0.550 OA
ENDBRANCH   3   4
ENDBRANCH   2   3
ENDBRANCH   1   2
BRANCH   1   7
ATOM      7  C   UNL     1      44.215  61.649  13.351  1.00  0.00     0.000 C 
BRANCH   7   8
ATOM      8  C   UNL     1      44.640  60.436  12.508  1.00  0.00    -0.000 C 
BRANCH   8   9
ATOM      9  C   UNL     1      45.314  60.843  11.187  1.00  0.00    -0.000 C 
BRANCH   9  10
ATOM     10  C   UNL     1      44.731  60.099   9.974  1.00  0.00    -0.003 C 
ATOM     11  C   UNL     1      44.128  61.042   8.934  1.00  0.00     0.004 C 
ENDBRANCH   9  10
ENDBRANCH   8   9
ENDBRANCH   7   8
ENDBRANCH   1   7
TORSDOF 7
ENDMDL
MODEL 7
REMARK VINA RESULT:    -3.590      2.146      2.943
REMARK INTER + INTRA:          -5.963
REMARK INTER:                  -5.167
REMARK INTRA:                  -0.796
REMARK UNBOUND:                -0.904
REMARK SMILES CCCCCCCCC(=O)[O-]
REMARK SMILES IDX 6 1 7 2 8 3 9 4 10 5 11 6 5 7 4 8 3 9 2 10 1 11
REMARK H PARENT
REMARK Flexibility Score: inf
ROOT
ATOM      1  C   UNL     1      45.368  60.846  11.048  1.00  0.00     0.000 C 
ENDROOT
BRANCH   1   2
ATOM      2  C   UNL     1      44.765  60.092   9.848  1.00  0.00     0.006 C 
BRANCH   2   3
ATOM      3  C   UNL     1      44.231  61.005   8.734  1.00  0.00     0.053 C 
BRANCH   3   4
ATOM      4  C   UNL     1      42.955  61.682   9.127  1.00  0.00     0.041 C 
ATOM      5  O   UNL     1      42.125  61.091   9.867  1.00  0.00    -0.550 OA
ATOM      6  O   UNL     1      42.698  62.981   8.706  1.00  0.00    -0.550 OA
ENDBRANCH   3   4
ENDBRANCH   2   3
ENDBRANCH   1   2
BRANCH   1   7
ATOM      7  C   UNL     1      44.684  60.485  12.379  1.00  0.00     0.000 C 
BRANCH   7   8
ATOM      8  C   UNL     1      44.184  61.722  13.142  1.00  0.00    -0.000 C 
BRANCH   8   9
ATOM      9  C   UNL     1      44.718  63.037  12.547  1.00  0.00    -0.000 C 
BRANCH   9  10
ATOM     10  C   UNL     1      43.595  63.935  12.001  1.00  0.00    -0.003 C 
ATOM     11  C   UNL     1      42.209  63.506  12.480  1.00  0.00     0.004 C 
ENDBRANCH   9  10
ENDBRANCH   8   9
ENDBRANCH   7   8
ENDBRANCH   1   7
TORSDOF 7
ENDMDL
MODEL 8
REMARK VINA RESULT:    -3.463      2.271      3.607
REMARK INTER + INTRA:          -5.784
REMARK INTER:                  -5.057
REMARK INTRA:                  -0.727
REMARK UNBOUND:                -0.904
REMARK SMILES CCCCCCCCC(=O)[O-]
REMARK SMILES IDX 6 1 7 2 8 3 9 4 10 5 11 6 5 7 4 8 3 9 2 10 1 11
REMARK H PARENT
REMARK Flexibility Score: inf
ROOT
ATOM      1  C   UNL     1      42.869  63.600  11.744  1.00  0.00     0.000 C 
ENDROOT
BRANCH   1   2
ATOM      2  C   UNL     1      44.304  63.550  12.301  1.00  0.00     0.006 C 
BRANCH   2   3
ATOM      3  C   UNL     1      44.975  62.172  12.192  1.00  0.00     0.053 C 
BRANCH   3   4
ATOM      4  C   UNL     1      44.168  61.101  12.859  1.00  0.00     0.041 C 
ATOM      5  O   UNL     1      43.955  61.147  14.099  1.00  0.00    -0.550 OA
ATOM      6  O   UNL     1      43.621  60.070  12.104  1.00  0.00    -0.550 OA
ENDBRANCH   3   4
ENDBRANCH   2   3
ENDBRANCH   1   2
BRANCH   1   7
ATOM      7  C   UNL     1      42.747  64.501  10.501  1.00  0.00     0.000 C 
BRANCH   7   8
ATOM      8  C   UNL     1      42.353  63.717   9.239  1.00  0.00    -0.000 C 
BRANCH   8   9
ATOM      9  C   UNL     1      42.558  62.201   9.398  1.00  0.00    -0.000 C 
BRANCH   9  10
ATOM     10  C   UNL     1      43.424  61.602   8.278  1.00  0.00    -0.003 C 
ATOM     11  C   UNL     1      44.667  60.888   8.806  1.00  0.00     0.004 C 
ENDBRANCH   9  10
ENDBRANCH   8   9
ENDBRANCH   7   8
ENDBRANCH   1   7
TORSDOF 7
ENDMDL
MODEL 9
REMARK VINA RESULT:    -3.406      1.626      3.226
REMARK INTER + INTRA:          -5.703
REMARK INTER:                  -4.904
REMARK INTRA:                  -0.799
REMARK UNBOUND:                -0.904
REMARK SMILES CCCCCCCCC(=O)[O-]
REMARK SMILES IDX 6 1 7 2 8 3 9 4 10 5 11 6 5 7 4 8 3 9 2 10 1 11
REMARK H PARENT
REMARK Flexibility Score: inf
ROOT
ATOM      1  C   UNL     1      42.752  63.207  10.038  1.00  0.00     0.000 C 
ENDROOT
BRANCH   1   2
ATOM      2  C   UNL     1      42.514  62.050   9.050  1.00  0.00     0.006 C 
BRANCH   2   3
ATOM      3  C   UNL     1      43.738  61.150   8.827  1.00  0.00     0.053 C 
BRANCH   3   4
ATOM      4  C   UNL     1      44.059  60.329  10.037  1.00  0.00     0.041 C 
ATOM      5  O   UNL     1      43.154  59.667  10.611  1.00  0.00    -0.550 OA
ATOM      6  O   UNL     1      45.363  60.268  10.511  1.00  0.00    -0.550 OA
ENDBRANCH   3   4
ENDBRANCH   2   3
ENDBRANCH   1   2
BRANCH   1   7
ATOM      7  C   UNL     1      41.913  63.071  11.322  1.00  0.00     0.000 C 
BRANCH   7   8
ATOM      8  C   UNL     1      42.724  63.369  12.593  1.00  0.00    -0.000 C 
BRANCH   8   9
ATOM      9  C   UNL     1      44.243  63.310  12.350  1.00  0.00    -0.000 C 
BRANCH   9  10
ATOM     10  C   UNL     1      44.958  62.358  13.323  1.00  0.00    -0.003 C 
ATOM     11  C   UNL     1      44.119  61.130  13.674  1.00  0.00     0.004 C 
ENDBRANCH   9  10
ENDBRANCH   8   9
ENDBRANCH   7   8
ENDBRANCH   1   7
TORSDOF 7
ENDMDL
