MODEL 1
REMARK VINA RESULT:    -3.674      0.000      0.000
REMARK INTER + INTRA:          -4.370
REMARK INTER:                  -4.318
REMARK INTRA:                  -0.052
REMARK UNBOUND:                -0.052
REMARK SMILES O=C([O-])CCC(=O)[O-]
REMARK SMILES IDX 4 1 2 2 1 3 3 4 5 5 6 6 7 7 8 8
REMARK H PARENT
REMARK Flexibility Score: inf
ROOT
ATOM      1  C   UNL     1     -43.338  29.563  25.127  1.00  0.00     0.059 C 
ENDROOT
BRANCH   1   2
ATOM      2  C   UNL     1     -43.961  30.923  25.038  1.00  0.00     0.042 C 
ATOM      3  O   UNL     1     -44.189  31.445  23.915  1.00  0.00    -0.550 OA
ATOM      4  O   UNL     1     -44.326  31.597  26.196  1.00  0.00    -0.550 OA
ENDBRANCH   1   2
BRANCH   1   5
ATOM      5  C   UNL     1     -42.912  29.231  26.561  1.00  0.00     0.059 C 
BRANCH   5   6
ATOM      6  C   UNL     1     -43.342  27.852  26.958  1.00  0.00     0.042 C 
ATOM      7  O   UNL     1     -42.645  26.853  26.637  1.00  0.00    -0.550 OA
ATOM      8  O   UNL     1     -44.492  27.673  27.717  1.00  0.00    -0.550 OA
ENDBRANCH   5   6
ENDBRANCH   1   5
TORSDOF 3
ENDMDL
MODEL 2
REMARK VINA RESULT:    -3.585      0.359      4.079
REMARK INTER + INTRA:          -4.265
REMARK INTER:                  -4.216
REMARK INTRA:                  -0.049
REMARK UNBOUND:                -0.052
REMARK SMILES O=C([O-])CCC(=O)[O-]
REMARK SMILES IDX 4 1 2 2 1 3 3 4 5 5 6 6 7 7 8 8
REMARK H PARENT
REMARK Flexibility Score: inf
ROOT
ATOM      1  C   UNL     1     -42.875  28.971  26.153  1.00  0.00     0.059 C 
ENDROOT
BRANCH   1   2
ATOM      2  C   UNL     1     -43.274  27.619  26.663  1.00  0.00     0.042 C 
ATOM      3  O   UNL     1     -42.470  26.653  26.596  1.00  0.00    -0.550 OA
ATOM      4  O   UNL     1     -44.520  27.438  27.250  1.00  0.00    -0.550 OA
ENDBRANCH   1   2
BRANCH   1   5
ATOM      5  C   UNL     1     -43.695  29.374  24.922  1.00  0.00     0.059 C 
BRANCH   5   6
ATOM      6  C   UNL     1     -43.987  30.843  24.912  1.00  0.00     0.042 C 
ATOM      7  O   UNL     1     -44.178  31.445  23.822  1.00  0.00    -0.550 OA
ATOM      8  O   UNL     1     -44.088  31.540  26.109  1.00  0.00    -0.550 OA
ENDBRANCH   5   6
ENDBRANCH   1   5
TORSDOF 3
ENDMDL
MODEL 3
REMARK VINA RESULT:    -3.382      2.358      3.111
REMARK INTER + INTRA:          -4.027
REMARK INTER:                  -3.934
REMARK INTRA:                  -0.093
REMARK UNBOUND:                -0.052
REMARK SMILES O=C([O-])CCC(=O)[O-]
REMARK SMILES IDX 4 1 2 2 1 3 3 4 5 5 6 6 7 7 8 8
REMARK H PARENT
REMARK Flexibility Score: inf
ROOT
ATOM      1  C   UNL     1     -43.978  29.364  23.802  1.00  0.00     0.059 C 
ENDROOT
BRANCH   1   2
ATOM      2  C   UNL     1     -44.521  28.059  23.306  1.00  0.00     0.042 C 
ATOM      3  O   UNL     1     -44.918  27.947  22.116  1.00  0.00    -0.550 OA
ATOM      4  O   UNL     1     -44.551  26.954  24.147  1.00  0.00    -0.550 OA
ENDBRANCH   1   2
BRANCH   1   5
ATOM      5  C   UNL     1     -44.285  29.576  25.288  1.00  0.00     0.059 C 
BRANCH   5   6
ATOM      6  C   UNL     1     -43.073  29.353  26.139  1.00  0.00     0.042 C 
ATOM      7  O   UNL     1     -42.187  30.243  26.227  1.00  0.00    -0.550 OA
ATOM      8  O   UNL     1     -42.941  28.177  26.867  1.00  0.00    -0.550 OA
ENDBRANCH   5   6
ENDBRANCH   1   5
TORSDOF 3
ENDMDL
MODEL 4
REMARK VINA RESULT:    -3.343      1.561      2.260
REMARK INTER + INTRA:          -3.981
REMARK INTER:                  -3.950
REMARK INTRA:                  -0.032
REMARK UNBOUND:                -0.052
REMARK SMILES O=C([O-])CCC(=O)[O-]
REMARK SMILES IDX 4 1 2 2 1 3 3 4 5 5 6 6 7 7 8 8
REMARK H PARENT
REMARK Flexibility Score: inf
ROOT
ATOM      1  C   UNL     1     -43.730  29.437  25.628  1.00  0.00     0.059 C 
ENDROOT
BRANCH   1   2
ATOM      2  C   UNL     1     -44.101  30.864  25.366  1.00  0.00     0.042 C 
ATOM      3  O   UNL     1     -44.301  31.655  26.325  1.00  0.00    -0.550 OA
ATOM      4  O   UNL     1     -44.186  31.332  24.060  1.00  0.00    -0.550 OA
ENDBRANCH   1   2
BRANCH   1   5
ATOM      5  C   UNL     1     -44.069  28.537  24.434  1.00  0.00     0.059 C 
BRANCH   5   6
ATOM      6  C   UNL     1     -43.875  27.089  24.763  1.00  0.00     0.042 C 
ATOM      7  O   UNL     1     -44.575  26.210  24.194  1.00  0.00    -0.550 OA
ATOM      8  O   UNL     1     -42.894  26.707  25.670  1.00  0.00    -0.550 OA
ENDBRANCH   5   6
ENDBRANCH   1   5
TORSDOF 3
ENDMDL
MODEL 5
REMARK VINA RESULT:    -3.321      2.327      3.628
REMARK INTER + INTRA:          -3.955
REMARK INTER:                  -3.856
REMARK INTRA:                  -0.099
REMARK UNBOUND:                -0.052
REMARK SMILES O=C([O-])CCC(=O)[O-]
REMARK SMILES IDX 4 1 2 2 1 3 3 4 5 5 6 6 7 7 8 8
REMARK H PARENT
REMARK Flexibility Score: inf
ROOT
ATOM      1  C   UNL     1     -43.706  29.631  23.694  1.00  0.00     0.059 C 
ENDROOT
BRANCH   1   2
ATOM      2  C   UNL     1     -44.428  28.319  23.705  1.00  0.00     0.042 C 
ATOM      3  O   UNL     1     -44.653  27.726  24.792  1.00  0.00    -0.550 OA
ATOM      4  O   UNL     1     -44.890  27.770  22.515  1.00  0.00    -0.550 OA
ENDBRANCH   1   2
BRANCH   1   5
ATOM      5  C   UNL     1     -44.478  30.706  24.467  1.00  0.00     0.059 C 
BRANCH   5   6
ATOM      6  C   UNL     1     -43.878  30.952  25.817  1.00  0.00     0.042 C 
ATOM      7  O   UNL     1     -42.715  30.548  26.078  1.00  0.00    -0.550 OA
ATOM      8  O   UNL     1     -44.590  31.664  26.774  1.00  0.00    -0.550 OA
ENDBRANCH   5   6
ENDBRANCH   1   5
TORSDOF 3
ENDMDL
MODEL 6
REMARK VINA RESULT:    -3.261      2.294      3.062
REMARK INTER + INTRA:          -3.884
REMARK INTER:                  -3.758
REMARK INTRA:                  -0.125
REMARK UNBOUND:                -0.052
REMARK SMILES O=C([O-])CCC(=O)[O-]
REMARK SMILES IDX 4 1 2 2 1 3 3 4 5 5 6 6 7 7 8 8
REMARK H PARENT
REMARK Flexibility Score: inf
ROOT
ATOM      1  C   UNL     1     -43.669  27.698  27.047  1.00  0.00     0.059 C 
ENDROOT
BRANCH   1   2
ATOM      2  C   UNL     1     -43.559  29.192  27.045  1.00  0.00     0.042 C 
ATOM      3  O   UNL     1     -44.400  29.891  27.669  1.00  0.00    -0.550 OA
ATOM      4  O   UNL     1     -42.504  29.811  26.387  1.00  0.00    -0.550 OA
ENDBRANCH   1   2
BRANCH   1   5
ATOM      5  C   UNL     1     -43.117  27.090  25.753  1.00  0.00     0.059 C 
BRANCH   5   6
ATOM      6  C   UNL     1     -44.159  27.045  24.677  1.00  0.00     0.042 C 
ATOM      7  O   UNL     1     -44.938  26.060  24.589  1.00  0.00    -0.550 OA
ATOM      8  O   UNL     1     -44.295  28.111  23.797  1.00  0.00    -0.550 OA
ENDBRANCH   5   6
ENDBRANCH   1   5
TORSDOF 3
ENDMDL
MODEL 7
REMARK VINA RESULT:    -3.122      3.771      4.391
REMARK INTER + INTRA:          -3.721
REMARK INTER:                  -3.685
REMARK INTRA:                  -0.037
REMARK UNBOUND:                -0.052
REMARK SMILES O=C([O-])CCC(=O)[O-]
REMARK SMILES IDX 4 1 2 2 1 3 3 4 5 5 6 6 7 7 8 8
REMARK H PARENT
REMARK Flexibility Score: inf
ROOT
ATOM      1  C   UNL     1     -44.536  27.659  23.946  1.00  0.00     0.059 C 
ENDROOT
BRANCH   1   2
ATOM      2  C   UNL     1     -43.968  29.023  24.192  1.00  0.00     0.042 C 
ATOM      3  O   UNL     1     -43.138  29.208  25.120  1.00  0.00    -0.550 OA
ATOM      4  O   UNL     1     -44.326  30.083  23.368  1.00  0.00    -0.550 OA
ENDBRANCH   1   2
BRANCH   1   5
ATOM      5  C   UNL     1     -44.808  27.420  22.457  1.00  0.00     0.059 C 
BRANCH   5   6
ATOM      6  C   UNL     1     -44.452  26.024  22.049  1.00  0.00     0.042 C 
ATOM      7  O   UNL     1     -44.484  25.088  22.891  1.00  0.00    -0.550 OA
ATOM      8  O   UNL     1     -44.125  25.748  20.727  1.00  0.00    -0.550 OA
ENDBRANCH   5   6
ENDBRANCH   1   5
TORSDOF 3
ENDMDL
MODEL 8
REMARK VINA RESULT:    -3.071     11.563     12.957
REMARK INTER + INTRA:          -3.662
REMARK INTER:                  -3.549
REMARK INTRA:                  -0.113
REMARK UNBOUND:                -0.052
REMARK SMILES O=C([O-])CCC(=O)[O-]
REMARK SMILES IDX 4 1 2 2 1 3 3 4 5 5 6 6 7 7 8 8
REMARK H PARENT
REMARK Flexibility Score: inf
ROOT
ATOM      1  C   UNL     1     -32.401  24.986  30.963  1.00  0.00     0.059 C 
ENDROOT
BRANCH   1   2
ATOM      2  C   UNL     1     -33.833  25.371  31.179  1.00  0.00     0.042 C 
ATOM      3  O   UNL     1     -34.264  26.475  30.754  1.00  0.00    -0.550 OA
ATOM      4  O   UNL     1     -34.700  24.493  31.815  1.00  0.00    -0.550 OA
ENDBRANCH   1   2
BRANCH   1   5
ATOM      5  C   UNL     1     -32.210  24.252  29.631  1.00  0.00     0.059 C 
BRANCH   5   6
ATOM      6  C   UNL     1     -32.002  22.783  29.837  1.00  0.00     0.042 C 
ATOM      7  O   UNL     1     -31.479  22.083  28.929  1.00  0.00    -0.550 OA
ATOM      8  O   UNL     1     -32.349  22.194  31.046  1.00  0.00    -0.550 OA
ENDBRANCH   5   6
ENDBRANCH   1   5
TORSDOF 3
ENDMDL
MODEL 9
REMARK VINA RESULT:    -3.064     11.549     13.317
REMARK INTER + INTRA:          -3.653
REMARK INTER:                  -3.542
REMARK INTRA:                  -0.112
REMARK UNBOUND:                -0.052
REMARK SMILES O=C([O-])CCC(=O)[O-]
REMARK SMILES IDX 4 1 2 2 1 3 3 4 5 5 6 6 7 7 8 8
REMARK H PARENT
REMARK Flexibility Score: inf
ROOT
ATOM      1  C   UNL     1     -32.219  24.221  29.648  1.00  0.00     0.059 C 
ENDROOT
BRANCH   1   2
ATOM      2  C   UNL     1     -31.970  22.759  29.861  1.00  0.00     0.042 C 
ATOM      3  O   UNL     1     -32.359  22.197  30.918  1.00  0.00    -0.550 OA
ATOM      4  O   UNL     1     -31.346  22.010  28.872  1.00  0.00    -0.550 OA
ENDBRANCH   1   2
BRANCH   1   5
ATOM      5  C   UNL     1     -32.427  24.958  30.976  1.00  0.00     0.059 C 
BRANCH   5   6
ATOM      6  C   UNL     1     -33.858  25.355  31.167  1.00  0.00     0.042 C 
ATOM      7  O   UNL     1     -34.270  26.468  30.747  1.00  0.00    -0.550 OA
ATOM      8  O   UNL     1     -34.747  24.478  31.776  1.00  0.00    -0.550 OA
ENDBRANCH   5   6
ENDBRANCH   1   5
TORSDOF 3
ENDMDL
