MODEL 1
REMARK VINA RESULT:    -0.602      0.000      0.000
REMARK INTER + INTRA:          -0.620
REMARK INTER:                  -0.620
REMARK INTRA:                   0.000
REMARK UNBOUND:                 0.000
REMARK SMILES C[C@@H]1CC[C@@]2(OC1)O[C@H]1C[C@@H]3[C@@H]4CC=C5C[C@@H](O)CC[C@@]5(C)[C@@H]4CC[C@@]3(C)[C@@H]1[C@H]2C
REMARK SMILES IDX 1 1 2 2 3 3 4 4 5 5 29 6 28 7 9 8 8 9 10 10 11 11 26 12
REMARK SMILES IDX 25 13 24 14 23 15 12 16 13 17 14 18 15 19 21 20 20 21 19 22
REMARK SMILES IDX 17 23 16 24 22 25 27 26 30 27 6 28 7 29 18 30
REMARK H PARENT 18 31
REMARK Flexibility Score: inf
ROOT
ATOM      1  C   UNL     1      -5.785  11.001  10.539  1.00  0.00     0.010 C 
ATOM      2  C   UNL     1      -5.905  12.126   9.507  1.00  0.00     0.012 C 
ATOM      3  C   UNL     1      -6.125  11.556   8.099  1.00  0.00     0.011 C 
ATOM      4  C   UNL     1      -6.111  12.687   7.071  1.00  0.00     0.066 C 
ATOM      5  C   UNL     1      -4.831  13.550   7.227  1.00  0.00     0.171 C 
ATOM      6  C   UNL     1      -4.793  14.782   6.234  1.00  0.00     0.052 C 
ATOM      7  C   UNL     1      -3.849  14.231   5.204  1.00  0.00     0.033 C 
ATOM      8  C   UNL     1      -2.890  13.539   6.126  1.00  0.00     0.126 C 
ATOM      9  O   UNL     1      -3.689  12.723   6.930  1.00  0.00    -0.346 OA
ATOM     10  C   UNL     1      -1.831  12.923   5.211  1.00  0.00     0.037 C 
ATOM     11  C   UNL     1      -2.001  13.743   3.905  1.00  0.00     0.002 C 
ATOM     12  C   UNL     1      -2.918  14.953   4.215  1.00  0.00    -0.024 C 
ATOM     13  C   UNL     1      -3.571  15.362   2.879  1.00  0.00     0.008 C 
ATOM     14  C   UNL     1      -2.500  15.743   1.824  1.00  0.00     0.005 C 
ATOM     15  C   UNL     1      -1.311  14.721   1.640  1.00  0.00     0.003 C 
ATOM     16  C   UNL     1      -0.821  14.026   2.963  1.00  0.00     0.000 C 
ATOM     17  C   UNL     1       0.410  14.732   3.546  1.00  0.00     0.031 C 
ATOM     18  C   UNL     1       1.515  14.575   2.540  1.00  0.00    -0.027 C 
ATOM     19  C   UNL     1       1.258  14.721   1.223  1.00  0.00    -0.065 C 
ATOM     20  C   UNL     1      -0.097  15.277   0.749  1.00  0.00    -0.008 C 
ATOM     21  C   UNL     1      -0.324  14.836  -0.727  1.00  0.00     0.014 C 
ATOM     22  C   UNL     1       0.826  15.209  -1.687  1.00  0.00     0.033 C 
ATOM     23  C   UNL     1       2.242  15.046  -1.076  1.00  0.00     0.118 C 
ATOM     24  C   UNL     1       2.265  14.208   0.215  1.00  0.00     0.063 C 
ATOM     25  C   UNL     1       0.020  16.825   0.796  1.00  0.00     0.016 C 
ATOM     26  C   UNL     1      -2.217  16.173   4.889  1.00  0.00     0.012 C 
ATOM     27  C   UNL     1      -6.125  15.247   5.625  1.00  0.00     0.014 C 
ATOM     28  O   UNL     1      -4.747  14.055   8.556  1.00  0.00    -0.349 OA
ATOM     29  C   UNL     1      -4.648  13.013   9.513  1.00  0.00     0.167 C 
ENDROOT
BRANCH  23  30
ATOM     30  O   UNL     1       3.133  14.512  -2.023  1.00  0.00    -0.393 OA
ATOM     31  H   UNL     1       3.812  15.210  -2.222  1.00  0.00     0.210 HD
ENDBRANCH  23  30
TORSDOF 1
ENDMDL
