MODEL 1
REMARK VINA RESULT:    -3.380      0.000      0.000
REMARK INTER + INTRA:         -11.374
REMARK INTER:                  -7.727
REMARK INTRA:                  -3.647
REMARK UNBOUND:                -3.647
REMARK SMILES CCCCCCCCCCCCCCCCCCCCCCCC(=O)[O-]
REMARK SMILES IDX 13 1 14 2 15 3 16 4 17 5 18 6 19 7 20 8 21 9 22 10 23 11
REMARK SMILES IDX 24 12 25 13 26 14 12 15 11 16 10 17 9 18 8 19 7 20 6 21 5 22
REMARK SMILES IDX 4 23 3 24 2 25 1 26
REMARK H PARENT
REMARK Flexibility Score: inf
ROOT
ATOM      1  C   UNL     1      60.296  32.675  58.376  1.00  0.00     0.000 C 
ENDROOT
BRANCH   1   2
ATOM      2  C   UNL     1      60.820  31.589  59.332  1.00  0.00     0.000 C 
BRANCH   2   3
ATOM      3  C   UNL     1      61.255  32.161  60.693  1.00  0.00     0.000 C 
BRANCH   3   4
ATOM      4  C   UNL     1      61.020  31.175  61.849  1.00  0.00     0.000 C 
BRANCH   4   5
ATOM      5  C   UNL     1      61.951  29.951  61.781  1.00  0.00     0.000 C 
BRANCH   5   6
ATOM      6  C   UNL     1      63.428  30.346  61.623  1.00  0.00     0.000 C 
BRANCH   6   7
ATOM      7  C   UNL     1      64.286  29.202  61.056  1.00  0.00     0.000 C 
BRANCH   7   8
ATOM      8  C   UNL     1      63.437  28.089  60.421  1.00  0.00     0.000 C 
BRANCH   8   9
ATOM      9  C   UNL     1      63.983  26.686  60.728  1.00  0.00     0.000 C 
BRANCH   9  10
ATOM     10  C   UNL     1      62.856  25.740  61.158  1.00  0.00     0.006 C 
BRANCH  10  11
ATOM     11  C   UNL     1      61.829  26.468  62.030  1.00  0.00     0.053 C 
BRANCH  11  12
ATOM     12  C   UNL     1      60.823  25.503  62.572  1.00  0.00     0.041 C 
ATOM     13  O   UNL     1      60.045  24.894  61.791  1.00  0.00    -0.550 OA
ATOM     14  O   UNL     1      60.782  25.232  63.934  1.00  0.00    -0.550 OA
ENDBRANCH  11  12
ENDBRANCH  10  11
ENDBRANCH   9  10
ENDBRANCH   8   9
ENDBRANCH   7   8
ENDBRANCH   6   7
ENDBRANCH   5   6
ENDBRANCH   4   5
ENDBRANCH   3   4
ENDBRANCH   2   3
ENDBRANCH   1   2
BRANCH   1  15
ATOM     15  C   UNL     1      61.419  33.341  57.561  1.00  0.00     0.000 C 
BRANCH  15  16
ATOM     16  C   UNL     1      61.375  34.876  57.648  1.00  0.00     0.000 C 
BRANCH  16  17
ATOM     17  C   UNL     1      60.660  35.378  58.911  1.00  0.00     0.000 C 
BRANCH  17  18
ATOM     18  C   UNL     1      61.538  36.383  59.673  1.00  0.00    -0.000 C 
BRANCH  18  19
ATOM     19  C   UNL     1      62.112  35.808  60.980  1.00  0.00    -0.000 C 
BRANCH  19  20
ATOM     20  C   UNL     1      63.600  36.120  61.234  1.00  0.00    -0.000 C 
BRANCH  20  21
ATOM     21  C   UNL     1      64.487  34.893  61.516  1.00  0.00    -0.000 C 
BRANCH  21  22
ATOM     22  C   UNL     1      64.354  33.772  60.462  1.00  0.00    -0.000 C 
BRANCH  22  23
ATOM     23  C   UNL     1      64.760  34.234  59.051  1.00  0.00    -0.000 C 
BRANCH  23  24
ATOM     24  C   UNL     1      65.207  33.056  58.159  1.00  0.00    -0.000 C 
BRANCH  24  25
ATOM     25  C   UNL     1      64.446  31.749  58.439  1.00  0.00    -0.003 C 
ATOM     26  C   UNL     1      64.885  30.596  57.540  1.00  0.00     0.004 C 
ENDBRANCH  24  25
ENDBRANCH  23  24
ENDBRANCH  22  23
ENDBRANCH  21  22
ENDBRANCH  20  21
ENDBRANCH  19  20
ENDBRANCH  18  19
ENDBRANCH  17  18
ENDBRANCH  16  17
ENDBRANCH  15  16
ENDBRANCH   1  15
TORSDOF 22
ENDMDL
MODEL 2
REMARK VINA RESULT:    -3.368      2.851      6.810
REMARK INTER + INTRA:         -11.348
REMARK INTER:                  -7.322
REMARK INTRA:                  -4.025
REMARK UNBOUND:                -3.647
REMARK SMILES CCCCCCCCCCCCCCCCCCCCCCCC(=O)[O-]
REMARK SMILES IDX 13 1 14 2 15 3 16 4 17 5 18 6 19 7 20 8 21 9 22 10 23 11
REMARK SMILES IDX 24 12 25 13 26 14 12 15 11 16 10 17 9 18 8 19 7 20 6 21 5 22
REMARK SMILES IDX 4 23 3 24 2 25 1 26
REMARK H PARENT
REMARK Flexibility Score: inf
ROOT
ATOM      1  C   UNL     1      64.347  35.319  57.824  1.00  0.00     0.000 C 
ENDROOT
BRANCH   1   2
ATOM      2  C   UNL     1      65.642  35.521  58.629  1.00  0.00     0.000 C 
BRANCH   2   3
ATOM      3  C   UNL     1      65.520  36.644  59.674  1.00  0.00     0.000 C 
BRANCH   3   4
ATOM      4  C   UNL     1      65.737  36.140  61.110  1.00  0.00     0.000 C 
BRANCH   4   5
ATOM      5  C   UNL     1      64.416  35.789  61.819  1.00  0.00     0.000 C 
BRANCH   5   6
ATOM      6  C   UNL     1      63.229  36.607  61.287  1.00  0.00     0.000 C 
BRANCH   6   7
ATOM      7  C   UNL     1      62.018  35.728  60.936  1.00  0.00     0.000 C 
BRANCH   7   8
ATOM      8  C   UNL     1      60.932  36.502  60.169  1.00  0.00     0.000 C 
BRANCH   8   9
ATOM      9  C   UNL     1      60.909  36.153  58.672  1.00  0.00     0.000 C 
BRANCH   9  10
ATOM     10  C   UNL     1      59.603  35.444  58.295  1.00  0.00     0.006 C 
BRANCH  10  11
ATOM     11  C   UNL     1      59.883  34.140  57.541  1.00  0.00     0.053 C 
BRANCH  11  12
ATOM     12  C   UNL     1      58.731  33.196  57.681  1.00  0.00     0.041 C 
ATOM     13  O   UNL     1      57.574  33.554  57.336  1.00  0.00    -0.550 OA
ATOM     14  O   UNL     1      58.944  31.902  58.138  1.00  0.00    -0.550 OA
ENDBRANCH  11  12
ENDBRANCH  10  11
ENDBRANCH   9  10
ENDBRANCH   8   9
ENDBRANCH   7   8
ENDBRANCH   6   7
ENDBRANCH   5   6
ENDBRANCH   4   5
ENDBRANCH   3   4
ENDBRANCH   2   3
ENDBRANCH   1   2
BRANCH   1  15
ATOM     15  C   UNL     1      63.750  33.912  58.003  1.00  0.00     0.000 C 
BRANCH  15  16
ATOM     16  C   UNL     1      64.504  33.083  59.056  1.00  0.00     0.000 C 
BRANCH  16  17
ATOM     17  C   UNL     1      63.607  32.653  60.226  1.00  0.00     0.000 C 
BRANCH  17  18
ATOM     18  C   UNL     1      62.237  32.180  59.719  1.00  0.00    -0.000 C 
BRANCH  18  19
ATOM     19  C   UNL     1      61.152  32.199  60.812  1.00  0.00    -0.000 C 
BRANCH  19  20
ATOM     20  C   UNL     1      61.062  30.920  61.666  1.00  0.00    -0.000 C 
BRANCH  20  21
ATOM     21  C   UNL     1      60.430  29.706  60.961  1.00  0.00    -0.000 C 
BRANCH  21  22
ATOM     22  C   UNL     1      61.462  28.708  60.391  1.00  0.00    -0.000 C 
BRANCH  22  23
ATOM     23  C   UNL     1      62.618  28.428  61.369  1.00  0.00    -0.000 C 
BRANCH  23  24
ATOM     24  C   UNL     1      63.982  28.351  60.650  1.00  0.00    -0.000 C 
BRANCH  24  25
ATOM     25  C   UNL     1      64.970  29.446  61.085  1.00  0.00    -0.003 C 
ATOM     26  C   UNL     1      66.413  29.143  60.689  1.00  0.00     0.004 C 
ENDBRANCH  24  25
ENDBRANCH  23  24
ENDBRANCH  22  23
ENDBRANCH  21  22
ENDBRANCH  20  21
ENDBRANCH  19  20
ENDBRANCH  18  19
ENDBRANCH  17  18
ENDBRANCH  16  17
ENDBRANCH  15  16
ENDBRANCH   1  15
TORSDOF 22
ENDMDL
MODEL 3
REMARK VINA RESULT:    -3.358     10.053     12.926
REMARK INTER + INTRA:         -11.323
REMARK INTER:                  -7.000
REMARK INTRA:                  -4.323
REMARK UNBOUND:                -3.647
REMARK SMILES CCCCCCCCCCCCCCCCCCCCCCCC(=O)[O-]
REMARK SMILES IDX 13 1 14 2 15 3 16 4 17 5 18 6 19 7 20 8 21 9 22 10 23 11
REMARK SMILES IDX 24 12 25 13 26 14 12 15 11 16 10 17 9 18 8 19 7 20 6 21 5 22
REMARK SMILES IDX 4 23 3 24 2 25 1 26
REMARK H PARENT
REMARK Flexibility Score: inf
ROOT
ATOM      1  C   UNL     1      58.860  29.040  49.757  1.00  0.00     0.000 C 
ENDROOT
BRANCH   1   2
ATOM      2  C   UNL     1      59.734  27.974  49.075  1.00  0.00     0.000 C 
BRANCH   2   3
ATOM      3  C   UNL     1      59.402  26.548  49.546  1.00  0.00     0.000 C 
BRANCH   3   4
ATOM      4  C   UNL     1      60.651  25.765  49.983  1.00  0.00     0.000 C 
BRANCH   4   5
ATOM      5  C   UNL     1      60.661  25.460  51.492  1.00  0.00     0.000 C 
BRANCH   5   6
ATOM      6  C   UNL     1      60.309  26.691  52.341  1.00  0.00     0.000 C 
BRANCH   6   7
ATOM      7  C   UNL     1      61.426  27.748  52.338  1.00  0.00     0.000 C 
BRANCH   7   8
ATOM      8  C   UNL     1      62.815  27.135  52.583  1.00  0.00     0.000 C 
BRANCH   8   9
ATOM      9  C   UNL     1      63.830  27.529  51.497  1.00  0.00     0.000 C 
BRANCH   9  10
ATOM     10  C   UNL     1      63.179  28.427  50.439  1.00  0.00     0.006 C 
BRANCH  10  11
ATOM     11  C   UNL     1      63.504  27.935  49.026  1.00  0.00     0.053 C 
BRANCH  11  12
ATOM     12  C   UNL     1      64.465  28.866  48.355  1.00  0.00     0.041 C 
ATOM     13  O   UNL     1      64.623  28.821  47.107  1.00  0.00    -0.550 OA
ATOM     14  O   UNL     1      65.144  29.821  49.101  1.00  0.00    -0.550 OA
ENDBRANCH  11  12
ENDBRANCH  10  11
ENDBRANCH   9  10
ENDBRANCH   8   9
ENDBRANCH   7   8
ENDBRANCH   6   7
ENDBRANCH   5   6
ENDBRANCH   4   5
ENDBRANCH   3   4
ENDBRANCH   2   3
ENDBRANCH   1   2
BRANCH   1  15
ATOM     15  C   UNL     1      57.527  28.474  50.275  1.00  0.00     0.000 C 
BRANCH  15  16
ATOM     16  C   UNL     1      57.225  28.908  51.719  1.00  0.00     0.000 C 
BRANCH  16  17
ATOM     17  C   UNL     1      56.744  27.745  52.599  1.00  0.00     0.000 C 
BRANCH  17  18
ATOM     18  C   UNL     1      56.664  26.443  51.788  1.00  0.00    -0.000 C 
BRANCH  18  19
ATOM     19  C   UNL     1      55.217  25.985  51.528  1.00  0.00    -0.000 C 
BRANCH  19  20
ATOM     20  C   UNL     1      54.850  25.792  50.044  1.00  0.00    -0.000 C 
BRANCH  20  21
ATOM     21  C   UNL     1      53.753  26.734  49.513  1.00  0.00    -0.000 C 
BRANCH  21  22
ATOM     22  C   UNL     1      53.307  27.807  50.530  1.00  0.00    -0.000 C 
BRANCH  22  23
ATOM     23  C   UNL     1      53.839  29.210  50.184  1.00  0.00    -0.000 C 
BRANCH  23  24
ATOM     24  C   UNL     1      53.735  30.182  51.378  1.00  0.00    -0.000 C 
BRANCH  24  25
ATOM     25  C   UNL     1      53.440  29.484  52.717  1.00  0.00    -0.003 C 
ATOM     26  C   UNL     1      54.155  30.131  53.900  1.00  0.00     0.004 C 
ENDBRANCH  24  25
ENDBRANCH  23  24
ENDBRANCH  22  23
ENDBRANCH  21  22
ENDBRANCH  20  21
ENDBRANCH  19  20
ENDBRANCH  18  19
ENDBRANCH  17  18
ENDBRANCH  16  17
ENDBRANCH  15  16
ENDBRANCH   1  15
TORSDOF 22
ENDMDL
MODEL 4
REMARK VINA RESULT:    -3.337      9.937     12.568
REMARK INTER + INTRA:         -11.275
REMARK INTER:                  -7.018
REMARK INTRA:                  -4.257
REMARK UNBOUND:                -3.647
REMARK SMILES CCCCCCCCCCCCCCCCCCCCCCCC(=O)[O-]
REMARK SMILES IDX 13 1 14 2 15 3 16 4 17 5 18 6 19 7 20 8 21 9 22 10 23 11
REMARK SMILES IDX 24 12 25 13 26 14 12 15 11 16 10 17 9 18 8 19 7 20 6 21 5 22
REMARK SMILES IDX 4 23 3 24 2 25 1 26
REMARK H PARENT
REMARK Flexibility Score: inf
ROOT
ATOM      1  C   UNL     1      59.472  27.597  53.123  1.00  0.00     0.000 C 
ENDROOT
BRANCH   1   2
ATOM      2  C   UNL     1      58.733  26.251  53.025  1.00  0.00     0.000 C 
BRANCH   2   3
ATOM      3  C   UNL     1      57.248  26.363  53.411  1.00  0.00     0.000 C 
BRANCH   3   4
ATOM      4  C   UNL     1      56.313  25.800  52.327  1.00  0.00     0.000 C 
BRANCH   4   5
ATOM      5  C   UNL     1      57.023  25.608  50.974  1.00  0.00     0.000 C 
BRANCH   5   6
ATOM      6  C   UNL     1      56.258  26.263  49.814  1.00  0.00     0.000 C 
BRANCH   6   7
ATOM      7  C   UNL     1      54.768  25.880  49.800  1.00  0.00     0.000 C 
BRANCH   7   8
ATOM      8  C   UNL     1      53.846  27.110  49.758  1.00  0.00     0.000 C 
BRANCH   8   9
ATOM      9  C   UNL     1      54.549  28.388  50.242  1.00  0.00     0.000 C 
BRANCH   9  10
ATOM     10  C   UNL     1      54.098  28.759  51.659  1.00  0.00     0.006 C 
BRANCH  10  11
ATOM     11  C   UNL     1      55.101  29.706  52.325  1.00  0.00     0.053 C 
BRANCH  11  12
ATOM     12  C   UNL     1      54.384  30.771  53.094  1.00  0.00     0.041 C 
ATOM     13  O   UNL     1      54.172  31.896  52.570  1.00  0.00    -0.550 OA
ATOM     14  O   UNL     1      53.901  30.503  54.368  1.00  0.00    -0.550 OA
ENDBRANCH  11  12
ENDBRANCH  10  11
ENDBRANCH   9  10
ENDBRANCH   8   9
ENDBRANCH   7   8
ENDBRANCH   6   7
ENDBRANCH   5   6
ENDBRANCH   4   5
ENDBRANCH   3   4
ENDBRANCH   2   3
ENDBRANCH   1   2
BRANCH   1  15
ATOM     15  C   UNL     1      58.559  28.799  52.821  1.00  0.00     0.000 C 
BRANCH  15  16
ATOM     16  C   UNL     1      59.018  29.588  51.583  1.00  0.00     0.000 C 
BRANCH  16  17
ATOM     17  C   UNL     1      58.211  29.237  50.324  1.00  0.00     0.000 C 
BRANCH  17  18
ATOM     18  C   UNL     1      59.144  28.842  49.169  1.00  0.00    -0.000 C 
BRANCH  18  19
ATOM     19  C   UNL     1      59.751  27.437  49.341  1.00  0.00    -0.000 C 
BRANCH  19  20
ATOM     20  C   UNL     1      61.272  27.408  49.585  1.00  0.00    -0.000 C 
BRANCH  20  21
ATOM     21  C   UNL     1      61.806  26.114  50.227  1.00  0.00    -0.000 C 
BRANCH  21  22
ATOM     22  C   UNL     1      60.847  24.910  50.095  1.00  0.00    -0.000 C 
BRANCH  22  23
ATOM     23  C   UNL     1      61.006  23.897  51.243  1.00  0.00    -0.000 C 
BRANCH  23  24
ATOM     24  C   UNL     1      59.697  23.130  51.527  1.00  0.00    -0.000 C 
BRANCH  24  25
ATOM     25  C   UNL     1      59.901  21.848  52.353  1.00  0.00    -0.003 C 
ATOM     26  C   UNL     1      58.589  21.205  52.796  1.00  0.00     0.004 C 
ENDBRANCH  24  25
ENDBRANCH  23  24
ENDBRANCH  22  23
ENDBRANCH  21  22
ENDBRANCH  20  21
ENDBRANCH  19  20
ENDBRANCH  18  19
ENDBRANCH  17  18
ENDBRANCH  16  17
ENDBRANCH  15  16
ENDBRANCH   1  15
TORSDOF 22
ENDMDL
MODEL 5
REMARK VINA RESULT:    -3.306      3.221      6.814
REMARK INTER + INTRA:         -11.204
REMARK INTER:                  -6.813
REMARK INTRA:                  -4.391
REMARK UNBOUND:                -3.647
REMARK SMILES CCCCCCCCCCCCCCCCCCCCCCCC(=O)[O-]
REMARK SMILES IDX 13 1 14 2 15 3 16 4 17 5 18 6 19 7 20 8 21 9 22 10 23 11
REMARK SMILES IDX 24 12 25 13 26 14 12 15 11 16 10 17 9 18 8 19 7 20 6 21 5 22
REMARK SMILES IDX 4 23 3 24 2 25 1 26
REMARK H PARENT
REMARK Flexibility Score: inf
ROOT
ATOM      1  C   UNL     1      64.107  32.517  58.500  1.00  0.00     0.000 C 
ENDROOT
BRANCH   1   2
ATOM      2  C   UNL     1      64.684  32.404  59.921  1.00  0.00     0.000 C 
BRANCH   2   3
ATOM      3  C   UNL     1      64.216  33.545  60.841  1.00  0.00     0.000 C 
BRANCH   3   4
ATOM      4  C   UNL     1      63.398  34.609  60.091  1.00  0.00     0.000 C 
BRANCH   4   5
ATOM      5  C   UNL     1      62.526  35.459  61.034  1.00  0.00     0.000 C 
BRANCH   5   6
ATOM      6  C   UNL     1      61.138  35.752  60.444  1.00  0.00     0.000 C 
BRANCH   6   7
ATOM      7  C   UNL     1      61.201  36.155  58.961  1.00  0.00     0.000 C 
BRANCH   7   8
ATOM      8  C   UNL     1      59.828  36.081  58.273  1.00  0.00     0.000 C 
BRANCH   8   9
ATOM      9  C   UNL     1      59.942  35.870  56.755  1.00  0.00     0.000 C 
BRANCH   9  10
ATOM     10  C   UNL     1      58.701  35.159  56.205  1.00  0.00     0.006 C 
BRANCH  10  11
ATOM     11  C   UNL     1      57.660  34.938  57.307  1.00  0.00     0.053 C 
BRANCH  11  12
ATOM     12  C   UNL     1      57.059  33.572  57.193  1.00  0.00     0.041 C 
ATOM     13  O   UNL     1      57.499  32.755  56.343  1.00  0.00    -0.550 OA
ATOM     14  O   UNL     1      56.050  33.182  58.066  1.00  0.00    -0.550 OA
ENDBRANCH  11  12
ENDBRANCH  10  11
ENDBRANCH   9  10
ENDBRANCH   8   9
ENDBRANCH   7   8
ENDBRANCH   6   7
ENDBRANCH   5   6
ENDBRANCH   4   5
ENDBRANCH   3   4
ENDBRANCH   2   3
ENDBRANCH   1   2
BRANCH   1  15
ATOM     15  C   UNL     1      63.700  31.153  57.913  1.00  0.00     0.000 C 
BRANCH  15  16
ATOM     16  C   UNL     1      62.206  31.090  57.556  1.00  0.00     0.000 C 
BRANCH  16  17
ATOM     17  C   UNL     1      61.545  32.476  57.520  1.00  0.00     0.000 C 
BRANCH  17  18
ATOM     18  C   UNL     1      60.367  32.546  58.503  1.00  0.00    -0.000 C 
BRANCH  18  19
ATOM     19  C   UNL     1      60.423  31.454  59.587  1.00  0.00    -0.000 C 
BRANCH  19  20
ATOM     20  C   UNL     1      60.960  31.919  60.955  1.00  0.00    -0.000 C 
BRANCH  20  21
ATOM     21  C   UNL     1      61.286  30.788  61.948  1.00  0.00    -0.000 C 
BRANCH  21  22
ATOM     22  C   UNL     1      62.688  30.171  61.753  1.00  0.00    -0.000 C 
BRANCH  22  23
ATOM     23  C   UNL     1      62.633  28.684  61.359  1.00  0.00    -0.000 C 
BRANCH  23  24
ATOM     24  C   UNL     1      63.798  28.284  60.429  1.00  0.00    -0.000 C 
BRANCH  24  25
ATOM     25  C   UNL     1      65.141  28.929  60.813  1.00  0.00    -0.003 C 
ATOM     26  C   UNL     1      66.332  27.993  60.623  1.00  0.00     0.004 C 
ENDBRANCH  24  25
ENDBRANCH  23  24
ENDBRANCH  22  23
ENDBRANCH  21  22
ENDBRANCH  20  21
ENDBRANCH  19  20
ENDBRANCH  18  19
ENDBRANCH  17  18
ENDBRANCH  16  17
ENDBRANCH  15  16
ENDBRANCH   1  15
TORSDOF 22
ENDMDL
MODEL 6
REMARK VINA RESULT:    -3.229      9.658     12.514
REMARK INTER + INTRA:         -11.028
REMARK INTER:                  -6.549
REMARK INTRA:                  -4.479
REMARK UNBOUND:                -3.647
REMARK SMILES CCCCCCCCCCCCCCCCCCCCCCCC(=O)[O-]
REMARK SMILES IDX 13 1 14 2 15 3 16 4 17 5 18 6 19 7 20 8 21 9 22 10 23 11
REMARK SMILES IDX 24 12 25 13 26 14 12 15 11 16 10 17 9 18 8 19 7 20 6 21 5 22
REMARK SMILES IDX 4 23 3 24 2 25 1 26
REMARK H PARENT
REMARK Flexibility Score: inf
ROOT
ATOM      1  C   UNL     1      59.624  28.652  53.142  1.00  0.00     0.000 C 
ENDROOT
BRANCH   1   2
ATOM      2  C   UNL     1      60.432  27.344  53.190  1.00  0.00     0.000 C 
BRANCH   2   3
ATOM      3  C   UNL     1      59.541  26.106  53.391  1.00  0.00     0.000 C 
BRANCH   3   4
ATOM      4  C   UNL     1      60.051  24.880  52.617  1.00  0.00     0.000 C 
BRANCH   4   5
ATOM      5  C   UNL     1      59.386  24.733  51.236  1.00  0.00     0.000 C 
BRANCH   5   6
ATOM      6  C   UNL     1      60.288  25.227  50.095  1.00  0.00     0.000 C 
BRANCH   6   7
ATOM      7  C   UNL     1      59.688  26.430  49.348  1.00  0.00     0.000 C 
BRANCH   7   8
ATOM      8  C   UNL     1      60.630  27.646  49.339  1.00  0.00     0.000 C 
BRANCH   8   9
ATOM      9  C   UNL     1      62.059  27.284  49.771  1.00  0.00     0.000 C 
BRANCH   9  10
ATOM     10  C   UNL     1      62.704  28.434  50.553  1.00  0.00     0.006 C 
BRANCH  10  11
ATOM     11  C   UNL     1      61.890  29.724  50.404  1.00  0.00     0.053 C 
BRANCH  11  12
ATOM     12  C   UNL     1      62.780  30.862  50.015  1.00  0.00     0.041 C 
ATOM     13  O   UNL     1      63.375  30.851  48.905  1.00  0.00    -0.550 OA
ATOM     14  O   UNL     1      62.908  31.963  50.854  1.00  0.00    -0.550 OA
ENDBRANCH  11  12
ENDBRANCH  10  11
ENDBRANCH   9  10
ENDBRANCH   8   9
ENDBRANCH   7   8
ENDBRANCH   6   7
ENDBRANCH   5   6
ENDBRANCH   4   5
ENDBRANCH   3   4
ENDBRANCH   2   3
ENDBRANCH   1   2
BRANCH   1  15
ATOM     15  C   UNL     1      58.173  28.438  52.679  1.00  0.00     0.000 C 
BRANCH  15  16
ATOM     16  C   UNL     1      57.885  29.102  51.322  1.00  0.00     0.000 C 
BRANCH  16  17
ATOM     17  C   UNL     1      56.944  28.267  50.441  1.00  0.00     0.000 C 
BRANCH  17  18
ATOM     18  C   UNL     1      56.467  27.012  51.188  1.00  0.00    -0.000 C 
BRANCH  18  19
ATOM     19  C   UNL     1      54.948  26.787  51.075  1.00  0.00    -0.000 C 
BRANCH  19  20
ATOM     20  C   UNL     1      54.292  27.375  49.811  1.00  0.00    -0.000 C 
BRANCH  20  21
ATOM     21  C   UNL     1      53.218  28.449  50.069  1.00  0.00    -0.000 C 
BRANCH  21  22
ATOM     22  C   UNL     1      53.796  29.820  50.484  1.00  0.00    -0.000 C 
BRANCH  22  23
ATOM     23  C   UNL     1      53.058  30.434  51.687  1.00  0.00    -0.000 C 
BRANCH  23  24
ATOM     24  C   UNL     1      53.350  29.674  52.999  1.00  0.00    -0.000 C 
BRANCH  24  25
ATOM     25  C   UNL     1      54.833  29.693  53.404  1.00  0.00    -0.003 C 
ATOM     26  C   UNL     1      55.399  31.105  53.542  1.00  0.00     0.004 C 
ENDBRANCH  24  25
ENDBRANCH  23  24
ENDBRANCH  22  23
ENDBRANCH  21  22
ENDBRANCH  20  21
ENDBRANCH  19  20
ENDBRANCH  18  19
ENDBRANCH  17  18
ENDBRANCH  16  17
ENDBRANCH  15  16
ENDBRANCH   1  15
TORSDOF 22
ENDMDL
MODEL 7
REMARK VINA RESULT:    -3.204     10.099     13.013
REMARK INTER + INTRA:         -10.972
REMARK INTER:                  -7.300
REMARK INTRA:                  -3.672
REMARK UNBOUND:                -3.647
REMARK SMILES CCCCCCCCCCCCCCCCCCCCCCCC(=O)[O-]
REMARK SMILES IDX 13 1 14 2 15 3 16 4 17 5 18 6 19 7 20 8 21 9 22 10 23 11
REMARK SMILES IDX 24 12 25 13 26 14 12 15 11 16 10 17 9 18 8 19 7 20 6 21 5 22
REMARK SMILES IDX 4 23 3 24 2 25 1 26
REMARK H PARENT
REMARK Flexibility Score: inf
ROOT
ATOM      1  C   UNL     1      58.584  27.765  52.904  1.00  0.00     0.000 C 
ENDROOT
BRANCH   1   2
ATOM      2  C   UNL     1      58.944  28.925  51.960  1.00  0.00     0.000 C 
BRANCH   2   3
ATOM      3  C   UNL     1      57.992  29.023  50.755  1.00  0.00     0.000 C 
BRANCH   3   4
ATOM      4  C   UNL     1      58.735  28.960  49.410  1.00  0.00     0.000 C 
BRANCH   4   5
ATOM      5  C   UNL     1      59.976  28.049  49.461  1.00  0.00     0.000 C 
BRANCH   5   6
ATOM      6  C   UNL     1      59.628  26.573  49.215  1.00  0.00     0.000 C 
BRANCH   6   7
ATOM      7  C   UNL     1      60.608  25.613  49.912  1.00  0.00     0.000 C 
BRANCH   7   8
ATOM      8  C   UNL     1      61.728  26.357  50.659  1.00  0.00     0.000 C 
BRANCH   8   9
ATOM      9  C   UNL     1      63.077  26.271  49.928  1.00  0.00     0.000 C 
BRANCH   9  10
ATOM     10  C   UNL     1      63.634  27.670  49.639  1.00  0.00     0.006 C 
BRANCH  10  11
ATOM     11  C   UNL     1      64.190  27.757  48.214  1.00  0.00     0.053 C 
BRANCH  11  12
ATOM     12  C   UNL     1      65.387  28.654  48.173  1.00  0.00     0.041 C 
ATOM     13  O   UNL     1      66.058  28.862  49.217  1.00  0.00    -0.550 OA
ATOM     14  O   UNL     1      65.794  29.215  46.969  1.00  0.00    -0.550 OA
ENDBRANCH  11  12
ENDBRANCH  10  11
ENDBRANCH   9  10
ENDBRANCH   8   9
ENDBRANCH   7   8
ENDBRANCH   6   7
ENDBRANCH   5   6
ENDBRANCH   4   5
ENDBRANCH   3   4
ENDBRANCH   2   3
ENDBRANCH   1   2
BRANCH   1  15
ATOM     15  C   UNL     1      57.903  26.594  52.174  1.00  0.00     0.000 C 
BRANCH  15  16
ATOM     16  C   UNL     1      56.573  26.186  52.830  1.00  0.00     0.000 C 
BRANCH  16  17
ATOM     17  C   UNL     1      55.551  25.651  51.816  1.00  0.00     0.000 C 
BRANCH  17  18
ATOM     18  C   UNL     1      56.028  25.901  50.377  1.00  0.00    -0.000 C 
BRANCH  18  19
ATOM     19  C   UNL     1      54.869  25.976  49.365  1.00  0.00    -0.000 C 
BRANCH  19  20
ATOM     20  C   UNL     1      53.810  27.054  49.663  1.00  0.00    -0.000 C 
BRANCH  20  21
ATOM     21  C   UNL     1      54.364  28.382  50.210  1.00  0.00    -0.000 C 
BRANCH  21  22
ATOM     22  C   UNL     1      53.547  28.962  51.386  1.00  0.00    -0.000 C 
BRANCH  22  23
ATOM     23  C   UNL     1      54.379  29.101  52.674  1.00  0.00    -0.000 C 
BRANCH  23  24
ATOM     24  C   UNL     1      55.332  30.314  52.623  1.00  0.00    -0.000 C 
BRANCH  24  25
ATOM     25  C   UNL     1      56.117  30.536  53.927  1.00  0.00    -0.003 C 
ATOM     26  C   UNL     1      57.158  31.648  53.818  1.00  0.00     0.004 C 
ENDBRANCH  24  25
ENDBRANCH  23  24
ENDBRANCH  22  23
ENDBRANCH  21  22
ENDBRANCH  20  21
ENDBRANCH  19  20
ENDBRANCH  18  19
ENDBRANCH  17  18
ENDBRANCH  16  17
ENDBRANCH  15  16
ENDBRANCH   1  15
TORSDOF 22
ENDMDL
MODEL 8
REMARK VINA RESULT:    -3.200      9.410     11.531
REMARK INTER + INTRA:         -10.963
REMARK INTER:                  -7.193
REMARK INTRA:                  -3.770
REMARK UNBOUND:                -3.647
REMARK SMILES CCCCCCCCCCCCCCCCCCCCCCCC(=O)[O-]
REMARK SMILES IDX 13 1 14 2 15 3 16 4 17 5 18 6 19 7 20 8 21 9 22 10 23 11
REMARK SMILES IDX 24 12 25 13 26 14 12 15 11 16 10 17 9 18 8 19 7 20 6 21 5 22
REMARK SMILES IDX 4 23 3 24 2 25 1 26
REMARK H PARENT
REMARK Flexibility Score: inf
ROOT
ATOM      1  C   UNL     1      54.235  26.670  50.540  1.00  0.00     0.000 C 
ENDROOT
BRANCH   1   2
ATOM      2  C   UNL     1      55.253  25.864  49.715  1.00  0.00     0.000 C 
BRANCH   2   3
ATOM      3  C   UNL     1      56.709  26.219  50.064  1.00  0.00     0.000 C 
BRANCH   3   4
ATOM      4  C   UNL     1      56.862  26.732  51.505  1.00  0.00     0.000 C 
BRANCH   4   5
ATOM      5  C   UNL     1      57.644  28.056  51.581  1.00  0.00     0.000 C 
BRANCH   5   6
ATOM      6  C   UNL     1      57.741  28.759  50.218  1.00  0.00     0.000 C 
BRANCH   6   7
ATOM      7  C   UNL     1      59.195  29.052  49.808  1.00  0.00     0.000 C 
BRANCH   7   8
ATOM      8  C   UNL     1      59.844  27.874  49.063  1.00  0.00     0.000 C 
BRANCH   8   9
ATOM      9  C   UNL     1      60.942  27.188  49.892  1.00  0.00     0.000 C 
BRANCH   9  10
ATOM     10  C   UNL     1      60.626  25.703  50.098  1.00  0.00     0.006 C 
BRANCH  10  11
ATOM     11  C   UNL     1      61.904  24.900  50.362  1.00  0.00     0.053 C 
BRANCH  11  12
ATOM     12  C   UNL     1      61.600  23.437  50.426  1.00  0.00     0.041 C 
ATOM     13  O   UNL     1      61.871  22.778  51.464  1.00  0.00    -0.550 OA
ATOM     14  O   UNL     1      60.964  22.811  49.360  1.00  0.00    -0.550 OA
ENDBRANCH  11  12
ENDBRANCH  10  11
ENDBRANCH   9  10
ENDBRANCH   8   9
ENDBRANCH   7   8
ENDBRANCH   6   7
ENDBRANCH   5   6
ENDBRANCH   4   5
ENDBRANCH   3   4
ENDBRANCH   2   3
ENDBRANCH   1   2
BRANCH   1  15
ATOM     15  C   UNL     1      53.199  27.394  49.663  1.00  0.00     0.000 C 
BRANCH  15  16
ATOM     16  C   UNL     1      52.976  28.852  50.100  1.00  0.00     0.000 C 
BRANCH  16  17
ATOM     17  C   UNL     1      54.276  29.545  50.536  1.00  0.00     0.000 C 
BRANCH  17  18
ATOM     18  C   UNL     1      54.061  30.343  51.832  1.00  0.00    -0.000 C 
BRANCH  18  19
ATOM     19  C   UNL     1      54.468  29.561  53.094  1.00  0.00    -0.000 C 
BRANCH  19  20
ATOM     20  C   UNL     1      55.756  30.054  53.782  1.00  0.00    -0.000 C 
BRANCH  20  21
ATOM     21  C   UNL     1      56.364  31.338  53.187  1.00  0.00    -0.000 C 
BRANCH  21  22
ATOM     22  C   UNL     1      57.893  31.449  53.376  1.00  0.00    -0.000 C 
BRANCH  22  23
ATOM     23  C   UNL     1      58.394  30.685  54.615  1.00  0.00    -0.000 C 
BRANCH  23  24
ATOM     24  C   UNL     1      59.476  29.643  54.257  1.00  0.00    -0.000 C 
BRANCH  24  25
ATOM     25  C   UNL     1      60.862  30.258  54.002  1.00  0.00    -0.003 C 
ATOM     26  C   UNL     1      61.453  29.865  52.650  1.00  0.00     0.004 C 
ENDBRANCH  24  25
ENDBRANCH  23  24
ENDBRANCH  22  23
ENDBRANCH  21  22
ENDBRANCH  20  21
ENDBRANCH  19  20
ENDBRANCH  18  19
ENDBRANCH  17  18
ENDBRANCH  16  17
ENDBRANCH  15  16
ENDBRANCH   1  15
TORSDOF 22
ENDMDL
MODEL 9
REMARK VINA RESULT:    -3.127      9.968     12.328
REMARK INTER + INTRA:         -10.795
REMARK INTER:                  -6.083
REMARK INTRA:                  -4.712
REMARK UNBOUND:                -3.647
REMARK SMILES CCCCCCCCCCCCCCCCCCCCCCCC(=O)[O-]
REMARK SMILES IDX 13 1 14 2 15 3 16 4 17 5 18 6 19 7 20 8 21 9 22 10 23 11
REMARK SMILES IDX 24 12 25 13 26 14 12 15 11 16 10 17 9 18 8 19 7 20 6 21 5 22
REMARK SMILES IDX 4 23 3 24 2 25 1 26
REMARK H PARENT
REMARK Flexibility Score: inf
ROOT
ATOM      1  C   UNL     1      55.565  28.099  50.466  1.00  0.00     0.000 C 
ENDROOT
BRANCH   1   2
ATOM      2  C   UNL     1      54.145  28.568  50.107  1.00  0.00     0.000 C 
BRANCH   2   3
ATOM      3  C   UNL     1      53.090  27.465  50.309  1.00  0.00     0.000 C 
BRANCH   3   4
ATOM      4  C   UNL     1      53.291  26.275  49.357  1.00  0.00     0.000 C 
BRANCH   4   5
ATOM      5  C   UNL     1      53.940  25.064  50.053  1.00  0.00     0.000 C 
BRANCH   5   6
ATOM      6  C   UNL     1      53.522  24.941  51.526  1.00  0.00     0.000 C 
BRANCH   6   7
ATOM      7  C   UNL     1      54.724  24.989  52.485  1.00  0.00     0.000 C 
BRANCH   7   8
ATOM      8  C   UNL     1      54.394  25.706  53.805  1.00  0.00     0.000 C 
BRANCH   8   9
ATOM      9  C   UNL     1      54.986  27.123  53.867  1.00  0.00     0.000 C 
BRANCH   9  10
ATOM     10  C   UNL     1      53.876  28.180  53.889  1.00  0.00     0.006 C 
BRANCH  10  11
ATOM     11  C   UNL     1      54.459  29.591  53.762  1.00  0.00     0.053 C 
BRANCH  11  12
ATOM     12  C   UNL     1      54.567  30.237  55.108  1.00  0.00     0.041 C 
ATOM     13  O   UNL     1      55.204  31.314  55.244  1.00  0.00    -0.550 OA
ATOM     14  O   UNL     1      53.917  29.678  56.201  1.00  0.00    -0.550 OA
ENDBRANCH  11  12
ENDBRANCH  10  11
ENDBRANCH   9  10
ENDBRANCH   8   9
ENDBRANCH   7   8
ENDBRANCH   6   7
ENDBRANCH   5   6
ENDBRANCH   4   5
ENDBRANCH   3   4
ENDBRANCH   2   3
ENDBRANCH   1   2
BRANCH   1  15
ATOM     15  C   UNL     1      56.549  29.269  50.646  1.00  0.00     0.000 C 
BRANCH  15  16
ATOM     16  C   UNL     1      57.701  28.925  51.605  1.00  0.00     0.000 C 
BRANCH  16  17
ATOM     17  C   UNL     1      59.082  29.215  51.000  1.00  0.00     0.000 C 
BRANCH  17  18
ATOM     18  C   UNL     1      59.137  28.777  49.528  1.00  0.00    -0.000 C 
BRANCH  18  19
ATOM     19  C   UNL     1      60.257  27.759  49.245  1.00  0.00    -0.000 C 
BRANCH  19  20
ATOM     20  C   UNL     1      59.931  26.305  49.636  1.00  0.00    -0.000 C 
BRANCH  20  21
ATOM     21  C   UNL     1      58.432  25.951  49.651  1.00  0.00    -0.000 C 
BRANCH  21  22
ATOM     22  C   UNL     1      57.955  25.318  50.977  1.00  0.00    -0.000 C 
BRANCH  22  23
ATOM     23  C   UNL     1      59.042  25.334  52.067  1.00  0.00    -0.000 C 
BRANCH  23  24
ATOM     24  C   UNL     1      58.476  25.733  53.447  1.00  0.00    -0.000 C 
BRANCH  24  25
ATOM     25  C   UNL     1      59.277  26.847  54.142  1.00  0.00    -0.003 C 
ATOM     26  C   UNL     1      60.698  26.989  53.603  1.00  0.00     0.004 C 
ENDBRANCH  24  25
ENDBRANCH  23  24
ENDBRANCH  22  23
ENDBRANCH  21  22
ENDBRANCH  20  21
ENDBRANCH  19  20
ENDBRANCH  18  19
ENDBRANCH  17  18
ENDBRANCH  16  17
ENDBRANCH  15  16
ENDBRANCH   1  15
TORSDOF 22
ENDMDL
