MODEL 1
REMARK VINA RESULT:    16.303      0.000      0.000
REMARK INTER + INTRA:          42.269
REMARK INTER:                  41.082
REMARK INTRA:                   1.187
REMARK UNBOUND:                 1.187
REMARK SMILES CCCCCCCCCCCCCCCCCCCCCCCCCCCC(=O)[O-]
REMARK SMILES IDX 15 1 16 2 17 3 18 4 19 5 20 6 21 7 22 8 23 9 24 10 25 11
REMARK SMILES IDX 26 12 27 13 28 14 29 15 30 16 14 17 13 18 12 19 11 20 10 21
REMARK SMILES IDX 9 22 8 23 7 24 6 25 5 26 4 27 3 28 2 29 1 30
REMARK H PARENT
REMARK Flexibility Score: inf
ROOT
ATOM      1  C   UNL     1      26.431  45.111   6.973  1.00  0.00     0.000 C 
ENDROOT
BRANCH   1   2
ATOM      2  C   UNL     1      25.679  46.230   7.716  1.00  0.00     0.000 C 
BRANCH   2   3
ATOM      3  C   UNL     1      26.286  47.620   7.459  1.00  0.00     0.000 C 
BRANCH   3   4
ATOM      4  C   UNL     1      27.656  47.541   6.761  1.00  0.00     0.000 C 
BRANCH   4   5
ATOM      5  C   UNL     1      27.535  47.364   5.238  1.00  0.00     0.000 C 
BRANCH   5   6
ATOM      6  C   UNL     1      28.716  46.583   4.634  1.00  0.00     0.000 C 
BRANCH   6   7
ATOM      7  C   UNL     1      28.250  45.496   3.641  1.00  0.00     0.000 C 
BRANCH   7   8
ATOM      8  C   UNL     1      29.386  44.586   3.142  1.00  0.00     0.000 C 
BRANCH   8   9
ATOM      9  C   UNL     1      29.086  43.947   1.776  1.00  0.00     0.000 C 
BRANCH   9  10
ATOM     10  C   UNL     1      30.088  44.385   0.684  1.00  0.00     0.000 C 
BRANCH  10  11
ATOM     11  C   UNL     1      30.867  43.220   0.045  1.00  0.00     0.000 C 
BRANCH  11  12
ATOM     12  C   UNL     1      30.040  42.320  -0.892  1.00  0.00     0.006 C 
BRANCH  12  13
ATOM     13  C   UNL     1      29.708  42.953  -2.253  1.00  0.00     0.053 C 
BRANCH  13  14
ATOM     14  C   UNL     1      28.886  42.039  -3.110  1.00  0.00     0.041 C 
ATOM     15  O   UNL     1      29.130  41.936  -4.340  1.00  0.00    -0.550 OA
ATOM     16  O   UNL     1      27.830  41.327  -2.555  1.00  0.00    -0.550 OA
ENDBRANCH  13  14
ENDBRANCH  12  13
ENDBRANCH  11  12
ENDBRANCH  10  11
ENDBRANCH   9  10
ENDBRANCH   8   9
ENDBRANCH   7   8
ENDBRANCH   6   7
ENDBRANCH   5   6
ENDBRANCH   4   5
ENDBRANCH   3   4
ENDBRANCH   2   3
ENDBRANCH   1   2
BRANCH   1  17
ATOM     17  C   UNL     1      25.627  44.535   5.797  1.00  0.00     0.000 C 
BRANCH  17  18
ATOM     18  C   UNL     1      26.415  43.473   5.014  1.00  0.00     0.000 C 
BRANCH  18  19
ATOM     19  C   UNL     1      26.264  43.615   3.489  1.00  0.00     0.000 C 
BRANCH  19  20
ATOM     20  C   UNL     1      24.810  43.652   2.970  1.00  0.00     0.000 C 
BRANCH  20  21
ATOM     21  C   UNL     1      24.355  42.401   2.198  1.00  0.00     0.000 C 
BRANCH  21  22
ATOM     22  C   UNL     1      22.880  42.051   2.440  1.00  0.00    -0.000 C 
BRANCH  22  23
ATOM     23  C   UNL     1      22.453  42.453   3.860  1.00  0.00    -0.000 C 
BRANCH  23  24
ATOM     24  C   UNL     1      23.453  42.001   4.935  1.00  0.00    -0.000 C 
BRANCH  24  25
ATOM     25  C   UNL     1      24.041  40.609   4.645  1.00  0.00    -0.000 C 
BRANCH  25  26
ATOM     26  C   UNL     1      25.267  40.285   5.517  1.00  0.00    -0.000 C 
BRANCH  26  27
ATOM     27  C   UNL     1      25.525  38.783   5.750  1.00  0.00    -0.000 C 
BRANCH  27  28
ATOM     28  C   UNL     1      26.249  38.472   7.076  1.00  0.00    -0.000 C 
BRANCH  28  29
ATOM     29  C   UNL     1      25.665  39.265   8.255  1.00  0.00    -0.003 C 
ATOM     30  C   UNL     1      24.150  39.399   8.132  1.00  0.00     0.004 C 
ENDBRANCH  28  29
ENDBRANCH  27  28
ENDBRANCH  26  27
ENDBRANCH  25  26
ENDBRANCH  24  25
ENDBRANCH  23  24
ENDBRANCH  22  23
ENDBRANCH  21  22
ENDBRANCH  20  21
ENDBRANCH  19  20
ENDBRANCH  18  19
ENDBRANCH  17  18
ENDBRANCH   1  17
TORSDOF 26
ENDMDL
MODEL 2
REMARK VINA RESULT:    16.476      0.700      1.246
REMARK INTER + INTRA:          42.705
REMARK INTER:                  40.530
REMARK INTRA:                   2.175
REMARK UNBOUND:                 1.187
REMARK SMILES CCCCCCCCCCCCCCCCCCCCCCCCCCCC(=O)[O-]
REMARK SMILES IDX 15 1 16 2 17 3 18 4 19 5 20 6 21 7 22 8 23 9 24 10 25 11
REMARK SMILES IDX 26 12 27 13 28 14 29 15 30 16 14 17 13 18 12 19 11 20 10 21
REMARK SMILES IDX 9 22 8 23 7 24 6 25 5 26 4 27 3 28 2 29 1 30
REMARK H PARENT
REMARK Flexibility Score: inf
ROOT
ATOM      1  C   UNL     1      26.819  44.435   6.371  1.00  0.00     0.000 C 
ENDROOT
BRANCH   1   2
ATOM      2  C   UNL     1      25.765  45.505   6.708  1.00  0.00     0.000 C 
BRANCH   2   3
ATOM      3  C   UNL     1      26.310  46.600   7.640  1.00  0.00     0.000 C 
BRANCH   3   4
ATOM      4  C   UNL     1      27.380  47.471   6.956  1.00  0.00     0.000 C 
BRANCH   4   5
ATOM      5  C   UNL     1      27.325  47.381   5.422  1.00  0.00     0.000 C 
BRANCH   5   6
ATOM      6  C   UNL     1      28.628  46.835   4.811  1.00  0.00     0.000 C 
BRANCH   6   7
ATOM      7  C   UNL     1      28.378  45.614   3.898  1.00  0.00     0.000 C 
BRANCH   7   8
ATOM      8  C   UNL     1      29.393  45.483   2.749  1.00  0.00     0.000 C 
BRANCH   8   9
ATOM      9  C   UNL     1      29.361  44.100   2.077  1.00  0.00     0.000 C 
BRANCH   9  10
ATOM     10  C   UNL     1      29.700  44.166   0.571  1.00  0.00     0.000 C 
BRANCH  10  11
ATOM     11  C   UNL     1      30.658  43.057   0.095  1.00  0.00     0.000 C 
BRANCH  11  12
ATOM     12  C   UNL     1      30.095  42.136  -1.004  1.00  0.00     0.006 C 
BRANCH  12  13
ATOM     13  C   UNL     1      29.692  42.863  -2.298  1.00  0.00     0.053 C 
BRANCH  13  14
ATOM     14  C   UNL     1      28.885  41.985  -3.204  1.00  0.00     0.041 C 
ATOM     15  O   UNL     1      27.873  41.381  -2.764  1.00  0.00    -0.550 OA
ATOM     16  O   UNL     1      29.272  41.807  -4.527  1.00  0.00    -0.550 OA
ENDBRANCH  13  14
ENDBRANCH  12  13
ENDBRANCH  11  12
ENDBRANCH  10  11
ENDBRANCH   9  10
ENDBRANCH   8   9
ENDBRANCH   7   8
ENDBRANCH   6   7
ENDBRANCH   5   6
ENDBRANCH   4   5
ENDBRANCH   3   4
ENDBRANCH   2   3
ENDBRANCH   1   2
BRANCH   1  17
ATOM     17  C   UNL     1      26.263  43.312   5.483  1.00  0.00     0.000 C 
BRANCH  17  18
ATOM     18  C   UNL     1      26.460  43.599   3.985  1.00  0.00     0.000 C 
BRANCH  18  19
ATOM     19  C   UNL     1      25.134  43.835   3.239  1.00  0.00     0.000 C 
BRANCH  19  20
ATOM     20  C   UNL     1      24.868  42.887   2.050  1.00  0.00     0.000 C 
BRANCH  20  21
ATOM     21  C   UNL     1      23.754  41.848   2.273  1.00  0.00     0.000 C 
BRANCH  21  22
ATOM     22  C   UNL     1      22.488  42.452   2.898  1.00  0.00    -0.000 C 
BRANCH  22  23
ATOM     23  C   UNL     1      22.727  42.806   4.374  1.00  0.00    -0.000 C 
BRANCH  23  24
ATOM     24  C   UNL     1      23.003  41.572   5.246  1.00  0.00    -0.000 C 
BRANCH  24  25
ATOM     25  C   UNL     1      24.405  40.984   5.010  1.00  0.00    -0.000 C 
BRANCH  25  26
ATOM     26  C   UNL     1      24.611  39.629   5.710  1.00  0.00    -0.000 C 
BRANCH  26  27
ATOM     27  C   UNL     1      24.965  39.714   7.208  1.00  0.00    -0.000 C 
BRANCH  27  28
ATOM     28  C   UNL     1      26.268  38.977   7.583  1.00  0.00    -0.000 C 
BRANCH  28  29
ATOM     29  C   UNL     1      26.716  37.996   6.489  1.00  0.00    -0.003 C 
ATOM     30  C   UNL     1      25.515  37.386   5.772  1.00  0.00     0.004 C 
ENDBRANCH  28  29
ENDBRANCH  27  28
ENDBRANCH  26  27
ENDBRANCH  25  26
ENDBRANCH  24  25
ENDBRANCH  23  24
ENDBRANCH  22  23
ENDBRANCH  21  22
ENDBRANCH  20  21
ENDBRANCH  19  20
ENDBRANCH  18  19
ENDBRANCH  17  18
ENDBRANCH   1  17
TORSDOF 26
ENDMDL
MODEL 3
REMARK VINA RESULT:    16.824      2.638      7.999
REMARK INTER + INTRA:          43.582
REMARK INTER:                  43.863
REMARK INTRA:                  -0.281
REMARK UNBOUND:                 1.187
REMARK SMILES CCCCCCCCCCCCCCCCCCCCCCCCCCCC(=O)[O-]
REMARK SMILES IDX 15 1 16 2 17 3 18 4 19 5 20 6 21 7 22 8 23 9 24 10 25 11
REMARK SMILES IDX 26 12 27 13 28 14 29 15 30 16 14 17 13 18 12 19 11 20 10 21
REMARK SMILES IDX 9 22 8 23 7 24 6 25 5 26 4 27 3 28 2 29 1 30
REMARK H PARENT
REMARK Flexibility Score: inf
ROOT
ATOM      1  C   UNL     1      25.929  44.957   6.030  1.00  0.00     0.000 C 
ENDROOT
BRANCH   1   2
ATOM      2  C   UNL     1      26.505  43.536   5.897  1.00  0.00     0.000 C 
BRANCH   2   3
ATOM      3  C   UNL     1      26.466  43.017   4.450  1.00  0.00     0.000 C 
BRANCH   3   4
ATOM      4  C   UNL     1      25.232  43.521   3.680  1.00  0.00     0.000 C 
BRANCH   4   5
ATOM      5  C   UNL     1      25.040  42.803   2.334  1.00  0.00     0.000 C 
BRANCH   5   6
ATOM      6  C   UNL     1      23.781  41.918   2.306  1.00  0.00     0.000 C 
BRANCH   6   7
ATOM      7  C   UNL     1      22.597  42.564   3.058  1.00  0.00     0.000 C 
BRANCH   7   8
ATOM      8  C   UNL     1      22.841  42.733   4.567  1.00  0.00     0.000 C 
BRANCH   8   9
ATOM      9  C   UNL     1      22.746  41.407   5.342  1.00  0.00     0.000 C 
BRANCH   9  10
ATOM     10  C   UNL     1      24.113  40.700   5.475  1.00  0.00     0.000 C 
BRANCH  10  11
ATOM     11  C   UNL     1      24.167  39.648   6.598  1.00  0.00     0.000 C 
BRANCH  11  12
ATOM     12  C   UNL     1      25.333  39.813   7.591  1.00  0.00     0.006 C 
BRANCH  12  13
ATOM     13  C   UNL     1      26.323  38.637   7.612  1.00  0.00     0.053 C 
BRANCH  13  14
ATOM     14  C   UNL     1      26.428  37.970   6.274  1.00  0.00     0.041 C 
ATOM     15  O   UNL     1      27.443  38.151   5.554  1.00  0.00    -0.550 OA
ATOM     16  O   UNL     1      25.386  37.176   5.809  1.00  0.00    -0.550 OA
ENDBRANCH  13  14
ENDBRANCH  12  13
ENDBRANCH  11  12
ENDBRANCH  10  11
ENDBRANCH   9  10
ENDBRANCH   8   9
ENDBRANCH   7   8
ENDBRANCH   6   7
ENDBRANCH   5   6
ENDBRANCH   4   5
ENDBRANCH   3   4
ENDBRANCH   2   3
ENDBRANCH   1   2
BRANCH   1  17
ATOM     17  C   UNL     1      26.159  45.562   7.424  1.00  0.00     0.000 C 
BRANCH  17  18
ATOM     18  C   UNL     1      26.249  47.097   7.388  1.00  0.00     0.000 C 
BRANCH  18  19
ATOM     19  C   UNL     1      27.614  47.608   6.894  1.00  0.00     0.000 C 
BRANCH  19  20
ATOM     20  C   UNL     1      27.735  47.797   5.366  1.00  0.00     0.000 C 
BRANCH  20  21
ATOM     21  C   UNL     1      28.714  46.842   4.660  1.00  0.00     0.000 C 
BRANCH  21  22
ATOM     22  C   UNL     1      28.006  45.786   3.800  1.00  0.00    -0.000 C 
BRANCH  22  23
ATOM     23  C   UNL     1      28.965  44.637   3.453  1.00  0.00    -0.000 C 
BRANCH  23  24
ATOM     24  C   UNL     1      28.677  44.013   2.079  1.00  0.00    -0.000 C 
BRANCH  24  25
ATOM     25  C   UNL     1      29.781  44.313   1.051  1.00  0.00    -0.000 C 
BRANCH  25  26
ATOM     26  C   UNL     1      30.524  43.048   0.586  1.00  0.00    -0.000 C 
BRANCH  26  27
ATOM     27  C   UNL     1      30.729  42.933  -0.938  1.00  0.00    -0.000 C 
BRANCH  27  28
ATOM     28  C   UNL     1      29.431  43.101  -1.756  1.00  0.00    -0.000 C 
BRANCH  28  29
ATOM     29  C   UNL     1      29.567  42.542  -3.181  1.00  0.00    -0.003 C 
ATOM     30  C   UNL     1      28.426  41.583  -3.506  1.00  0.00     0.004 C 
ENDBRANCH  28  29
ENDBRANCH  27  28
ENDBRANCH  26  27
ENDBRANCH  25  26
ENDBRANCH  24  25
ENDBRANCH  23  24
ENDBRANCH  22  23
ENDBRANCH  21  22
ENDBRANCH  20  21
ENDBRANCH  19  20
ENDBRANCH  18  19
ENDBRANCH  17  18
ENDBRANCH   1  17
TORSDOF 26
ENDMDL
MODEL 4
REMARK VINA RESULT:    17.064      0.838      1.400
REMARK INTER + INTRA:          44.187
REMARK INTER:                  43.924
REMARK INTRA:                   0.263
REMARK UNBOUND:                 1.187
REMARK SMILES CCCCCCCCCCCCCCCCCCCCCCCCCCCC(=O)[O-]
REMARK SMILES IDX 15 1 16 2 17 3 18 4 19 5 20 6 21 7 22 8 23 9 24 10 25 11
REMARK SMILES IDX 26 12 27 13 28 14 29 15 30 16 14 17 13 18 12 19 11 20 10 21
REMARK SMILES IDX 9 22 8 23 7 24 6 25 5 26 4 27 3 28 2 29 1 30
REMARK H PARENT
REMARK Flexibility Score: inf
ROOT
ATOM      1  C   UNL     1      26.623  44.401   6.133  1.00  0.00     0.000 C 
ENDROOT
BRANCH   1   2
ATOM      2  C   UNL     1      25.485  45.331   6.590  1.00  0.00     0.000 C 
BRANCH   2   3
ATOM      3  C   UNL     1      25.987  46.489   7.468  1.00  0.00     0.000 C 
BRANCH   3   4
ATOM      4  C   UNL     1      27.378  46.990   7.038  1.00  0.00     0.000 C 
BRANCH   4   5
ATOM      5  C   UNL     1      27.411  47.458   5.573  1.00  0.00     0.000 C 
BRANCH   5   6
ATOM      6  C   UNL     1      28.562  46.823   4.772  1.00  0.00     0.000 C 
BRANCH   6   7
ATOM      7  C   UNL     1      28.051  45.842   3.694  1.00  0.00     0.000 C 
BRANCH   7   8
ATOM      8  C   UNL     1      29.048  44.719   3.358  1.00  0.00     0.000 C 
BRANCH   8   9
ATOM      9  C   UNL     1      29.777  44.944   2.023  1.00  0.00     0.000 C 
BRANCH   9  10
ATOM     10  C   UNL     1      29.541  43.794   1.018  1.00  0.00     0.000 C 
BRANCH  10  11
ATOM     11  C   UNL     1      30.699  43.583   0.025  1.00  0.00     0.000 C 
BRANCH  11  12
ATOM     12  C   UNL     1      30.656  42.255  -0.755  1.00  0.00     0.006 C 
BRANCH  12  13
ATOM     13  C   UNL     1      29.313  41.966  -1.445  1.00  0.00     0.053 C 
BRANCH  13  14
ATOM     14  C   UNL     1      29.208  42.648  -2.774  1.00  0.00     0.041 C 
ATOM     15  O   UNL     1      29.380  43.892  -2.862  1.00  0.00    -0.550 OA
ATOM     16  O   UNL     1      28.886  41.915  -3.909  1.00  0.00    -0.550 OA
ENDBRANCH  13  14
ENDBRANCH  12  13
ENDBRANCH  11  12
ENDBRANCH  10  11
ENDBRANCH   9  10
ENDBRANCH   8   9
ENDBRANCH   7   8
ENDBRANCH   6   7
ENDBRANCH   5   6
ENDBRANCH   4   5
ENDBRANCH   3   4
ENDBRANCH   2   3
ENDBRANCH   1   2
BRANCH   1  17
ATOM     17  C   UNL     1      26.154  43.342   5.123  1.00  0.00     0.000 C 
BRANCH  17  18
ATOM     18  C   UNL     1      26.430  43.757   3.669  1.00  0.00     0.000 C 
BRANCH  18  19
ATOM     19  C   UNL     1      25.161  43.779   2.798  1.00  0.00     0.000 C 
BRANCH  19  20
ATOM     20  C   UNL     1      24.585  42.393   2.435  1.00  0.00     0.000 C 
BRANCH  20  21
ATOM     21  C   UNL     1      23.207  42.074   3.041  1.00  0.00     0.000 C 
BRANCH  21  22
ATOM     22  C   UNL     1      23.129  42.376   4.544  1.00  0.00    -0.000 C 
BRANCH  22  23
ATOM     23  C   UNL     1      23.262  41.084   5.365  1.00  0.00    -0.000 C 
BRANCH  23  24
ATOM     24  C   UNL     1      24.568  40.327   5.079  1.00  0.00    -0.000 C 
BRANCH  24  25
ATOM     25  C   UNL     1      24.549  38.890   5.628  1.00  0.00    -0.000 C 
BRANCH  25  26
ATOM     26  C   UNL     1      25.958  38.290   5.782  1.00  0.00    -0.000 C 
BRANCH  26  27
ATOM     27  C   UNL     1      26.745  38.777   7.014  1.00  0.00    -0.000 C 
BRANCH  27  28
ATOM     28  C   UNL     1      25.974  38.637   8.343  1.00  0.00    -0.000 C 
BRANCH  28  29
ATOM     29  C   UNL     1      25.220  39.924   8.714  1.00  0.00    -0.003 C 
ATOM     30  C   UNL     1      23.732  39.653   8.910  1.00  0.00     0.004 C 
ENDBRANCH  28  29
ENDBRANCH  27  28
ENDBRANCH  26  27
ENDBRANCH  25  26
ENDBRANCH  24  25
ENDBRANCH  23  24
ENDBRANCH  22  23
ENDBRANCH  21  22
ENDBRANCH  20  21
ENDBRANCH  19  20
ENDBRANCH  18  19
ENDBRANCH  17  18
ENDBRANCH   1  17
TORSDOF 26
ENDMDL
MODEL 5
REMARK VINA RESULT:    17.279      4.066      5.601
REMARK INTER + INTRA:          44.730
REMARK INTER:                  44.955
REMARK INTRA:                  -0.225
REMARK UNBOUND:                 1.187
REMARK SMILES CCCCCCCCCCCCCCCCCCCCCCCCCCCC(=O)[O-]
REMARK SMILES IDX 15 1 16 2 17 3 18 4 19 5 20 6 21 7 22 8 23 9 24 10 25 11
REMARK SMILES IDX 26 12 27 13 28 14 29 15 30 16 14 17 13 18 12 19 11 20 10 21
REMARK SMILES IDX 9 22 8 23 7 24 6 25 5 26 4 27 3 28 2 29 1 30
REMARK H PARENT
REMARK Flexibility Score: inf
ROOT
ATOM      1  C   UNL     1      27.789  45.492   3.720  1.00  0.00     0.000 C 
ENDROOT
BRANCH   1   2
ATOM      2  C   UNL     1      28.951  44.628   3.196  1.00  0.00     0.000 C 
BRANCH   2   3
ATOM      3  C   UNL     1      28.757  44.205   1.731  1.00  0.00     0.000 C 
BRANCH   3   4
ATOM      4  C   UNL     1      30.094  44.080   0.976  1.00  0.00     0.000 C 
BRANCH   4   5
ATOM      5  C   UNL     1      30.156  42.829   0.085  1.00  0.00     0.000 C 
BRANCH   5   6
ATOM      6  C   UNL     1      31.301  42.886  -0.942  1.00  0.00     0.000 C 
BRANCH   6   7
ATOM      7  C   UNL     1      32.601  43.459  -0.336  1.00  0.00     0.000 C 
BRANCH   7   8
ATOM      8  C   UNL     1      33.845  42.596  -0.611  1.00  0.00     0.000 C 
BRANCH   8   9
ATOM      9  C   UNL     1      35.069  43.029   0.213  1.00  0.00     0.000 C 
BRANCH   9  10
ATOM     10  C   UNL     1      35.885  44.142  -0.480  1.00  0.00     0.000 C 
BRANCH  10  11
ATOM     11  C   UNL     1      36.388  43.767  -1.886  1.00  0.00     0.000 C 
BRANCH  11  12
ATOM     12  C   UNL     1      37.832  44.204  -2.201  1.00  0.00     0.006 C 
BRANCH  12  13
ATOM     13  C   UNL     1      38.914  43.235  -1.698  1.00  0.00     0.053 C 
BRANCH  13  14
ATOM     14  C   UNL     1      38.834  41.904  -2.381  1.00  0.00     0.041 C 
ATOM     15  O   UNL     1      39.301  41.758  -3.540  1.00  0.00    -0.550 OA
ATOM     16  O   UNL     1      38.211  40.834  -1.750  1.00  0.00    -0.550 OA
ENDBRANCH  13  14
ENDBRANCH  12  13
ENDBRANCH  11  12
ENDBRANCH  10  11
ENDBRANCH   9  10
ENDBRANCH   8   9
ENDBRANCH   7   8
ENDBRANCH   6   7
ENDBRANCH   5   6
ENDBRANCH   4   5
ENDBRANCH   3   4
ENDBRANCH   2   3
ENDBRANCH   1   2
BRANCH   1  17
ATOM     17  C   UNL     1      27.449  45.200   5.190  1.00  0.00     0.000 C 
BRANCH  17  18
ATOM     18  C   UNL     1      26.403  44.083   5.338  1.00  0.00     0.000 C 
BRANCH  18  19
ATOM     19  C   UNL     1      26.213  43.264   4.049  1.00  0.00     0.000 C 
BRANCH  19  20
ATOM     20  C   UNL     1      24.930  43.579   3.249  1.00  0.00     0.000 C 
BRANCH  20  21
ATOM     21  C   UNL     1      24.601  42.590   2.116  1.00  0.00     0.000 C 
BRANCH  21  22
ATOM     22  C   UNL     1      23.179  42.022   2.210  1.00  0.00    -0.000 C 
BRANCH  22  23
ATOM     23  C   UNL     1      22.407  42.679   3.364  1.00  0.00    -0.000 C 
BRANCH  23  24
ATOM     24  C   UNL     1      22.910  42.236   4.747  1.00  0.00    -0.000 C 
BRANCH  24  25
ATOM     25  C   UNL     1      23.700  40.917   4.692  1.00  0.00    -0.000 C 
BRANCH  25  26
ATOM     26  C   UNL     1      24.723  40.785   5.834  1.00  0.00    -0.000 C 
BRANCH  26  27
ATOM     27  C   UNL     1      24.504  39.582   6.773  1.00  0.00    -0.000 C 
BRANCH  27  28
ATOM     28  C   UNL     1      25.790  38.784   7.073  1.00  0.00    -0.000 C 
BRANCH  28  29
ATOM     29  C   UNL     1      26.231  37.923   5.879  1.00  0.00    -0.003 C 
ATOM     30  C   UNL     1      27.734  38.038   5.644  1.00  0.00     0.004 C 
ENDBRANCH  28  29
ENDBRANCH  27  28
ENDBRANCH  26  27
ENDBRANCH  25  26
ENDBRANCH  24  25
ENDBRANCH  23  24
ENDBRANCH  22  23
ENDBRANCH  21  22
ENDBRANCH  20  21
ENDBRANCH  19  20
ENDBRANCH  18  19
ENDBRANCH  17  18
ENDBRANCH   1  17
TORSDOF 26
ENDMDL
MODEL 6
REMARK VINA RESULT:    17.389      4.741     10.368
REMARK INTER + INTRA:          45.006
REMARK INTER:                  46.380
REMARK INTRA:                  -1.373
REMARK UNBOUND:                 1.187
REMARK SMILES CCCCCCCCCCCCCCCCCCCCCCCCCCCC(=O)[O-]
REMARK SMILES IDX 15 1 16 2 17 3 18 4 19 5 20 6 21 7 22 8 23 9 24 10 25 11
REMARK SMILES IDX 26 12 27 13 28 14 29 15 30 16 14 17 13 18 12 19 11 20 10 21
REMARK SMILES IDX 9 22 8 23 7 24 6 25 5 26 4 27 3 28 2 29 1 30
REMARK H PARENT
REMARK Flexibility Score: inf
ROOT
ATOM      1  C   UNL     1      29.208  44.382   3.426  1.00  0.00     0.000 C 
ENDROOT
BRANCH   1   2
ATOM      2  C   UNL     1      28.619  45.705   3.948  1.00  0.00     0.000 C 
BRANCH   2   3
ATOM      3  C   UNL     1      27.205  45.533   4.527  1.00  0.00     0.000 C 
BRANCH   3   4
ATOM      4  C   UNL     1      27.049  44.218   5.311  1.00  0.00     0.000 C 
BRANCH   4   5
ATOM      5  C   UNL     1      26.220  43.170   4.551  1.00  0.00     0.000 C 
BRANCH   5   6
ATOM      6  C   UNL     1      25.348  43.790   3.444  1.00  0.00     0.000 C 
BRANCH   6   7
ATOM      7  C   UNL     1      24.896  42.744   2.401  1.00  0.00     0.000 C 
BRANCH   7   8
ATOM      8  C   UNL     1      23.402  42.389   2.489  1.00  0.00     0.000 C 
BRANCH   8   9
ATOM      9  C   UNL     1      22.790  42.706   3.864  1.00  0.00     0.000 C 
BRANCH   9  10
ATOM     10  C   UNL     1      22.798  41.485   4.812  1.00  0.00     0.000 C 
BRANCH  10  11
ATOM     11  C   UNL     1      24.175  40.806   4.946  1.00  0.00     0.000 C 
BRANCH  11  12
ATOM     12  C   UNL     1      24.433  40.118   6.299  1.00  0.00     0.006 C 
BRANCH  12  13
ATOM     13  C   UNL     1      25.419  38.940   6.236  1.00  0.00     0.053 C 
BRANCH  13  14
ATOM     14  C   UNL     1      26.103  38.712   7.549  1.00  0.00     0.041 C 
ATOM     15  O   UNL     1      27.073  37.914   7.627  1.00  0.00    -0.550 OA
ATOM     16  O   UNL     1      25.647  39.355   8.693  1.00  0.00    -0.550 OA
ENDBRANCH  13  14
ENDBRANCH  12  13
ENDBRANCH  11  12
ENDBRANCH  10  11
ENDBRANCH   9  10
ENDBRANCH   8   9
ENDBRANCH   7   8
ENDBRANCH   6   7
ENDBRANCH   5   6
ENDBRANCH   4   5
ENDBRANCH   3   4
ENDBRANCH   2   3
ENDBRANCH   1   2
BRANCH   1  17
ATOM     17  C   UNL     1      28.798  44.081   1.976  1.00  0.00     0.000 C 
BRANCH  17  18
ATOM     18  C   UNL     1      30.005  44.048   1.023  1.00  0.00     0.000 C 
BRANCH  18  19
ATOM     19  C   UNL     1      29.775  43.148  -0.205  1.00  0.00     0.000 C 
BRANCH  19  20
ATOM     20  C   UNL     1      31.013  42.362  -0.689  1.00  0.00     0.000 C 
BRANCH  20  21
ATOM     21  C   UNL     1      32.357  43.102  -0.552  1.00  0.00     0.000 C 
BRANCH  21  22
ATOM     22  C   UNL     1      33.543  42.153  -0.330  1.00  0.00    -0.000 C 
BRANCH  22  23
ATOM     23  C   UNL     1      34.853  42.804  -0.798  1.00  0.00    -0.000 C 
BRANCH  23  24
ATOM     24  C   UNL     1      35.328  43.928   0.136  1.00  0.00    -0.000 C 
BRANCH  24  25
ATOM     25  C   UNL     1      36.458  44.770  -0.482  1.00  0.00    -0.000 C 
BRANCH  25  26
ATOM     26  C   UNL     1      36.938  44.222  -1.838  1.00  0.00    -0.000 C 
BRANCH  26  27
ATOM     27  C   UNL     1      38.426  43.821  -1.892  1.00  0.00    -0.000 C 
BRANCH  27  28
ATOM     28  C   UNL     1      38.669  42.305  -1.745  1.00  0.00    -0.000 C 
BRANCH  28  29
ATOM     29  C   UNL     1      39.090  41.654  -3.072  1.00  0.00    -0.003 C 
ATOM     30  C   UNL     1      38.878  40.143  -3.035  1.00  0.00     0.004 C 
ENDBRANCH  28  29
ENDBRANCH  27  28
ENDBRANCH  26  27
ENDBRANCH  25  26
ENDBRANCH  24  25
ENDBRANCH  23  24
ENDBRANCH  22  23
ENDBRANCH  21  22
ENDBRANCH  20  21
ENDBRANCH  19  20
ENDBRANCH  18  19
ENDBRANCH  17  18
ENDBRANCH   1  17
TORSDOF 26
ENDMDL
MODEL 7
REMARK VINA RESULT:    17.727      3.774      5.144
REMARK INTER + INTRA:          45.859
REMARK INTER:                  46.890
REMARK INTRA:                  -1.030
REMARK UNBOUND:                 1.187
REMARK SMILES CCCCCCCCCCCCCCCCCCCCCCCCCCCC(=O)[O-]
REMARK SMILES IDX 15 1 16 2 17 3 18 4 19 5 20 6 21 7 22 8 23 9 24 10 25 11
REMARK SMILES IDX 26 12 27 13 28 14 29 15 30 16 14 17 13 18 12 19 11 20 10 21
REMARK SMILES IDX 9 22 8 23 7 24 6 25 5 26 4 27 3 28 2 29 1 30
REMARK H PARENT
REMARK Flexibility Score: inf
ROOT
ATOM      1  C   UNL     1      27.438  44.474   5.008  1.00  0.00     0.000 C 
ENDROOT
BRANCH   1   2
ATOM      2  C   UNL     1      27.978  45.350   3.863  1.00  0.00     0.000 C 
BRANCH   2   3
ATOM      3  C   UNL     1      29.216  44.741   3.186  1.00  0.00     0.000 C 
BRANCH   3   4
ATOM      4  C   UNL     1      28.917  44.238   1.762  1.00  0.00     0.000 C 
BRANCH   4   5
ATOM      5  C   UNL     1      30.107  43.495   1.134  1.00  0.00     0.000 C 
BRANCH   5   6
ATOM      6  C   UNL     1      29.763  42.861  -0.226  1.00  0.00     0.000 C 
BRANCH   6   7
ATOM      7  C   UNL     1      31.007  42.695  -1.125  1.00  0.00     0.000 C 
BRANCH   7   8
ATOM      8  C   UNL     1      32.243  43.458  -0.618  1.00  0.00     0.000 C 
BRANCH   8   9
ATOM      9  C   UNL     1      33.524  42.606  -0.641  1.00  0.00     0.000 C 
BRANCH   9  10
ATOM     10  C   UNL     1      34.640  43.191   0.254  1.00  0.00     0.000 C 
BRANCH  10  11
ATOM     11  C   UNL     1      35.553  44.201  -0.465  1.00  0.00     0.000 C 
BRANCH  11  12
ATOM     12  C   UNL     1      36.396  43.616  -1.614  1.00  0.00     0.006 C 
BRANCH  12  13
ATOM     13  C   UNL     1      37.865  44.067  -1.620  1.00  0.00     0.053 C 
BRANCH  13  14
ATOM     14  C   UNL     1      38.801  42.925  -1.868  1.00  0.00     0.041 C 
ATOM     15  O   UNL     1      39.983  43.144  -2.240  1.00  0.00    -0.550 OA
ATOM     16  O   UNL     1      38.357  41.616  -1.722  1.00  0.00    -0.550 OA
ENDBRANCH  13  14
ENDBRANCH  12  13
ENDBRANCH  11  12
ENDBRANCH  10  11
ENDBRANCH   9  10
ENDBRANCH   8   9
ENDBRANCH   7   8
ENDBRANCH   6   7
ENDBRANCH   5   6
ENDBRANCH   4   5
ENDBRANCH   3   4
ENDBRANCH   2   3
ENDBRANCH   1   2
BRANCH   1  17
ATOM     17  C   UNL     1      26.138  43.746   4.635  1.00  0.00     0.000 C 
BRANCH  17  18
ATOM     18  C   UNL     1      26.128  43.279   3.170  1.00  0.00     0.000 C 
BRANCH  18  19
ATOM     19  C   UNL     1      24.818  43.620   2.439  1.00  0.00     0.000 C 
BRANCH  19  20
ATOM     20  C   UNL     1      23.942  42.409   2.051  1.00  0.00     0.000 C 
BRANCH  20  21
ATOM     21  C   UNL     1      22.549  42.368   2.706  1.00  0.00     0.000 C 
BRANCH  21  22
ATOM     22  C   UNL     1      22.550  42.890   4.150  1.00  0.00    -0.000 C 
BRANCH  22  23
ATOM     23  C   UNL     1      22.963  41.780   5.128  1.00  0.00    -0.000 C 
BRANCH  23  24
ATOM     24  C   UNL     1      24.114  40.912   4.596  1.00  0.00    -0.000 C 
BRANCH  24  25
ATOM     25  C   UNL     1      25.118  40.525   5.695  1.00  0.00    -0.000 C 
BRANCH  25  26
ATOM     26  C   UNL     1      25.605  39.070   5.574  1.00  0.00    -0.000 C 
BRANCH  26  27
ATOM     27  C   UNL     1      25.824  38.340   6.913  1.00  0.00    -0.000 C 
BRANCH  27  28
ATOM     28  C   UNL     1      25.585  39.226   8.153  1.00  0.00    -0.000 C 
BRANCH  28  29
ATOM     29  C   UNL     1      24.109  39.241   8.579  1.00  0.00    -0.003 C 
ATOM     30  C   UNL     1      23.840  40.348   9.594  1.00  0.00     0.004 C 
ENDBRANCH  28  29
ENDBRANCH  27  28
ENDBRANCH  26  27
ENDBRANCH  25  26
ENDBRANCH  24  25
ENDBRANCH  23  24
ENDBRANCH  22  23
ENDBRANCH  21  22
ENDBRANCH  20  21
ENDBRANCH  19  20
ENDBRANCH  18  19
ENDBRANCH  17  18
ENDBRANCH   1  17
TORSDOF 26
ENDMDL
MODEL 8
REMARK VINA RESULT:    18.009      3.788      9.050
REMARK INTER + INTRA:          46.570
REMARK INTER:                  47.237
REMARK INTRA:                  -0.667
REMARK UNBOUND:                 1.187
REMARK SMILES CCCCCCCCCCCCCCCCCCCCCCCCCCCC(=O)[O-]
REMARK SMILES IDX 15 1 16 2 17 3 18 4 19 5 20 6 21 7 22 8 23 9 24 10 25 11
REMARK SMILES IDX 26 12 27 13 28 14 29 15 30 16 14 17 13 18 12 19 11 20 10 21
REMARK SMILES IDX 9 22 8 23 7 24 6 25 5 26 4 27 3 28 2 29 1 30
REMARK H PARENT
REMARK Flexibility Score: inf
ROOT
ATOM      1  C   UNL     1      27.519  46.962   6.369  1.00  0.00     0.000 C 
ENDROOT
BRANCH   1   2
ATOM      2  C   UNL     1      26.386  46.153   7.025  1.00  0.00     0.000 C 
BRANCH   2   3
ATOM      3  C   UNL     1      25.815  45.073   6.090  1.00  0.00     0.000 C 
BRANCH   3   4
ATOM      4  C   UNL     1      26.805  43.916   5.859  1.00  0.00     0.000 C 
BRANCH   4   5
ATOM      5  C   UNL     1      26.564  43.189   4.526  1.00  0.00     0.000 C 
BRANCH   5   6
ATOM      6  C   UNL     1      25.236  43.593   3.859  1.00  0.00     0.000 C 
BRANCH   6   7
ATOM      7  C   UNL     1      25.103  43.023   2.430  1.00  0.00     0.000 C 
BRANCH   7   8
ATOM      8  C   UNL     1      23.900  42.082   2.248  1.00  0.00     0.000 C 
BRANCH   8   9
ATOM      9  C   UNL     1      22.679  42.501   3.085  1.00  0.00     0.000 C 
BRANCH   9  10
ATOM     10  C   UNL     1      22.970  42.493   4.602  1.00  0.00     0.000 C 
BRANCH  10  11
ATOM     11  C   UNL     1      23.023  41.083   5.221  1.00  0.00     0.000 C 
BRANCH  11  12
ATOM     12  C   UNL     1      24.402  40.660   5.762  1.00  0.00     0.006 C 
BRANCH  12  13
ATOM     13  C   UNL     1      24.944  39.349   5.169  1.00  0.00     0.053 C 
BRANCH  13  14
ATOM     14  C   UNL     1      25.615  38.501   6.205  1.00  0.00     0.041 C 
ATOM     15  O   UNL     1      25.857  38.970   7.347  1.00  0.00    -0.550 OA
ATOM     16  O   UNL     1      26.004  37.203   5.897  1.00  0.00    -0.550 OA
ENDBRANCH  13  14
ENDBRANCH  12  13
ENDBRANCH  11  12
ENDBRANCH  10  11
ENDBRANCH   9  10
ENDBRANCH   8   9
ENDBRANCH   7   8
ENDBRANCH   6   7
ENDBRANCH   5   6
ENDBRANCH   4   5
ENDBRANCH   3   4
ENDBRANCH   2   3
ENDBRANCH   1   2
BRANCH   1  17
ATOM     17  C   UNL     1      27.485  46.895   4.835  1.00  0.00     0.000 C 
BRANCH  17  18
ATOM     18  C   UNL     1      28.669  46.100   4.258  1.00  0.00     0.000 C 
BRANCH  18  19
ATOM     19  C   UNL     1      28.306  45.325   2.980  1.00  0.00     0.000 C 
BRANCH  19  20
ATOM     20  C   UNL     1      29.302  44.216   2.574  1.00  0.00     0.000 C 
BRANCH  20  21
ATOM     21  C   UNL     1      30.069  44.467   1.263  1.00  0.00     0.000 C 
BRANCH  21  22
ATOM     22  C   UNL     1      29.807  43.391   0.200  1.00  0.00    -0.000 C 
BRANCH  22  23
ATOM     23  C   UNL     1      31.078  42.571  -0.066  1.00  0.00    -0.000 C 
BRANCH  23  24
ATOM     24  C   UNL     1      32.203  43.403  -0.701  1.00  0.00    -0.000 C 
BRANCH  24  25
ATOM     25  C   UNL     1      33.558  42.676  -0.681  1.00  0.00    -0.000 C 
BRANCH  25  26
ATOM     26  C   UNL     1      34.730  43.605  -0.320  1.00  0.00    -0.000 C 
BRANCH  26  27
ATOM     27  C   UNL     1      35.788  43.784  -1.427  1.00  0.00    -0.000 C 
BRANCH  27  28
ATOM     28  C   UNL     1      37.223  43.979  -0.894  1.00  0.00    -0.000 C 
BRANCH  28  29
ATOM     29  C   UNL     1      38.285  43.659  -1.957  1.00  0.00    -0.003 C 
ATOM     30  C   UNL     1      38.514  42.155  -2.071  1.00  0.00     0.004 C 
ENDBRANCH  28  29
ENDBRANCH  27  28
ENDBRANCH  26  27
ENDBRANCH  25  26
ENDBRANCH  24  25
ENDBRANCH  23  24
ENDBRANCH  22  23
ENDBRANCH  21  22
ENDBRANCH  20  21
ENDBRANCH  19  20
ENDBRANCH  18  19
ENDBRANCH  17  18
ENDBRANCH   1  17
TORSDOF 26
ENDMDL
MODEL 9
REMARK VINA RESULT:    18.621      3.455      8.564
REMARK INTER + INTRA:          48.112
REMARK INTER:                  48.742
REMARK INTRA:                  -0.630
REMARK UNBOUND:                 1.187
REMARK SMILES CCCCCCCCCCCCCCCCCCCCCCCCCCCC(=O)[O-]
REMARK SMILES IDX 15 1 16 2 17 3 18 4 19 5 20 6 21 7 22 8 23 9 24 10 25 11
REMARK SMILES IDX 26 12 27 13 28 14 29 15 30 16 14 17 13 18 12 19 11 20 10 21
REMARK SMILES IDX 9 22 8 23 7 24 6 25 5 26 4 27 3 28 2 29 1 30
REMARK H PARENT
REMARK Flexibility Score: inf
ROOT
ATOM      1  C   UNL     1      25.973  44.112   4.922  1.00  0.00     0.000 C 
ENDROOT
BRANCH   1   2
ATOM      2  C   UNL     1      25.967  43.105   3.758  1.00  0.00     0.000 C 
BRANCH   2   3
ATOM      3  C   UNL     1      25.006  43.515   2.629  1.00  0.00     0.000 C 
BRANCH   3   4
ATOM      4  C   UNL     1      24.303  42.303   1.990  1.00  0.00     0.000 C 
BRANCH   4   5
ATOM      5  C   UNL     1      22.823  42.196   2.393  1.00  0.00     0.000 C 
BRANCH   5   6
ATOM      6  C   UNL     1      22.500  42.975   3.681  1.00  0.00     0.000 C 
BRANCH   6   7
ATOM      7  C   UNL     1      23.015  42.251   4.945  1.00  0.00     0.000 C 
BRANCH   7   8
ATOM      8  C   UNL     1      23.482  40.809   4.686  1.00  0.00     0.000 C 
BRANCH   8   9
ATOM      9  C   UNL     1      24.867  40.511   5.283  1.00  0.00     0.000 C 
BRANCH   9  10
ATOM     10  C   UNL     1      25.083  39.005   5.558  1.00  0.00     0.000 C 
BRANCH  10  11
ATOM     11  C   UNL     1      26.240  38.705   6.529  1.00  0.00     0.000 C 
BRANCH  11  12
ATOM     12  C   UNL     1      25.835  38.597   8.012  1.00  0.00     0.006 C 
BRANCH  12  13
ATOM     13  C   UNL     1      25.452  39.935   8.666  1.00  0.00     0.053 C 
BRANCH  13  14
ATOM     14  C   UNL     1      24.027  39.945   9.127  1.00  0.00     0.041 C 
ATOM     15  O   UNL     1      23.090  39.924   8.288  1.00  0.00    -0.550 OA
ATOM     16  O   UNL     1      23.735  40.012  10.484  1.00  0.00    -0.550 OA
ENDBRANCH  13  14
ENDBRANCH  12  13
ENDBRANCH  11  12
ENDBRANCH  10  11
ENDBRANCH   9  10
ENDBRANCH   8   9
ENDBRANCH   7   8
ENDBRANCH   6   7
ENDBRANCH   5   6
ENDBRANCH   4   5
ENDBRANCH   3   4
ENDBRANCH   2   3
ENDBRANCH   1   2
BRANCH   1  17
ATOM     17  C   UNL     1      26.812  43.631   6.117  1.00  0.00     0.000 C 
BRANCH  17  18
ATOM     18  C   UNL     1      26.976  44.719   7.191  1.00  0.00     0.000 C 
BRANCH  18  19
ATOM     19  C   UNL     1      26.030  45.916   6.984  1.00  0.00     0.000 C 
BRANCH  19  20
ATOM     20  C   UNL     1      26.725  47.276   6.759  1.00  0.00     0.000 C 
BRANCH  20  21
ATOM     21  C   UNL     1      27.910  47.255   5.776  1.00  0.00     0.000 C 
BRANCH  21  22
ATOM     22  C   UNL     1      27.636  46.408   4.526  1.00  0.00    -0.000 C 
BRANCH  22  23
ATOM     23  C   UNL     1      28.944  45.828   3.967  1.00  0.00    -0.000 C 
BRANCH  23  24
ATOM     24  C   UNL     1      28.716  44.608   3.061  1.00  0.00    -0.000 C 
BRANCH  24  25
ATOM     25  C   UNL     1      29.533  44.679   1.759  1.00  0.00    -0.000 C 
BRANCH  25  26
ATOM     26  C   UNL     1      29.859  43.290   1.181  1.00  0.00    -0.000 C 
BRANCH  26  27
ATOM     27  C   UNL     1      30.354  43.289  -0.279  1.00  0.00    -0.000 C 
BRANCH  27  28
ATOM     28  C   UNL     1      29.732  42.176  -1.147  1.00  0.00    -0.000 C 
BRANCH  28  29
ATOM     29  C   UNL     1      29.777  42.514  -2.645  1.00  0.00    -0.003 C 
ATOM     30  C   UNL     1      29.466  43.988  -2.885  1.00  0.00     0.004 C 
ENDBRANCH  28  29
ENDBRANCH  27  28
ENDBRANCH  26  27
ENDBRANCH  25  26
ENDBRANCH  24  25
ENDBRANCH  23  24
ENDBRANCH  22  23
ENDBRANCH  21  22
ENDBRANCH  20  21
ENDBRANCH  19  20
ENDBRANCH  18  19
ENDBRANCH  17  18
ENDBRANCH   1  17
TORSDOF 26
ENDMDL
