MODEL 1
REMARK VINA RESULT:    -4.139      0.000      0.000
REMARK INTER + INTRA:         -13.749
REMARK INTER:                  -9.463
REMARK INTRA:                  -4.287
REMARK UNBOUND:                -4.287
REMARK SMILES CCCCCCCCCCCCCCCCCCCCCCCC(=O)[O-]
REMARK SMILES IDX 13 1 14 2 15 3 16 4 17 5 18 6 19 7 20 8 21 9 22 10 23 11
REMARK SMILES IDX 24 12 25 13 26 14 12 15 11 16 10 17 9 18 8 19 7 20 6 21 5 22
REMARK SMILES IDX 4 23 3 24 2 25 1 26
REMARK H PARENT
REMARK Flexibility Score: inf
ROOT
ATOM      1  C   UNL     1       0.671 -20.607  -2.745  1.00  0.00     0.000 C 
ENDROOT
BRANCH   1   2
ATOM      2  C   UNL     1       0.732 -20.336  -4.260  1.00  0.00     0.000 C 
BRANCH   2   3
ATOM      3  C   UNL     1       0.112 -21.470  -5.090  1.00  0.00     0.000 C 
BRANCH   3   4
ATOM      4  C   UNL     1       0.878 -21.735  -6.395  1.00  0.00     0.000 C 
BRANCH   4   5
ATOM      5  C   UNL     1       2.361 -21.379  -6.242  1.00  0.00     0.000 C 
BRANCH   5   6
ATOM      6  C   UNL     1       3.043 -21.257  -7.614  1.00  0.00     0.000 C 
BRANCH   6   7
ATOM      7  C   UNL     1       3.743 -19.902  -7.807  1.00  0.00     0.000 C 
BRANCH   7   8
ATOM      8  C   UNL     1       3.571 -18.972  -6.593  1.00  0.00     0.000 C 
BRANCH   8   9
ATOM      9  C   UNL     1       4.818 -18.115  -6.325  1.00  0.00     0.000 C 
BRANCH   9  10
ATOM     10  C   UNL     1       4.473 -16.744  -5.725  1.00  0.00     0.006 C 
BRANCH  10  11
ATOM     11  C   UNL     1       2.956 -16.555  -5.626  1.00  0.00     0.053 C 
BRANCH  11  12
ATOM     12  C   UNL     1       2.600 -15.824  -4.369  1.00  0.00     0.041 C 
ATOM     13  O   UNL     1       3.501 -15.288  -3.671  1.00  0.00    -0.550 OA
ATOM     14  O   UNL     1       1.278 -15.777  -3.944  1.00  0.00    -0.550 OA
ENDBRANCH  11  12
ENDBRANCH  10  11
ENDBRANCH   9  10
ENDBRANCH   8   9
ENDBRANCH   7   8
ENDBRANCH   6   7
ENDBRANCH   5   6
ENDBRANCH   4   5
ENDBRANCH   3   4
ENDBRANCH   2   3
ENDBRANCH   1   2
BRANCH   1  15
ATOM     15  C   UNL     1       2.000 -20.303  -2.036  1.00  0.00     0.000 C 
BRANCH  15  16
ATOM     16  C   UNL     1       2.596 -18.950  -2.453  1.00  0.00     0.000 C 
BRANCH  16  17
ATOM     17  C   UNL     1       4.065 -19.103  -2.876  1.00  0.00     0.000 C 
BRANCH  17  18
ATOM     18  C   UNL     1       4.583 -20.547  -2.745  1.00  0.00    -0.000 C 
BRANCH  18  19
ATOM     19  C   UNL     1       5.862 -20.858  -3.546  1.00  0.00    -0.000 C 
BRANCH  19  20
ATOM     20  C   UNL     1       5.577 -21.532  -4.897  1.00  0.00    -0.000 C 
BRANCH  20  21
ATOM     21  C   UNL     1       6.721 -21.278  -5.890  1.00  0.00    -0.000 C 
BRANCH  21  22
ATOM     22  C   UNL     1       6.606 -22.160  -7.152  1.00  0.00    -0.000 C 
BRANCH  22  23
ATOM     23  C   UNL     1       7.432 -21.643  -8.342  1.00  0.00    -0.000 C 
BRANCH  23  24
ATOM     24  C   UNL     1       7.777 -20.152  -8.226  1.00  0.00    -0.000 C 
BRANCH  24  25
ATOM     25  C   UNL     1       7.715 -19.468  -9.596  1.00  0.00    -0.003 C 
ATOM     26  C   UNL     1       6.622 -18.402  -9.631  1.00  0.00     0.004 C 
ENDBRANCH  24  25
ENDBRANCH  23  24
ENDBRANCH  22  23
ENDBRANCH  21  22
ENDBRANCH  20  21
ENDBRANCH  19  20
ENDBRANCH  18  19
ENDBRANCH  17  18
ENDBRANCH  16  17
ENDBRANCH  15  16
ENDBRANCH   1  15
TORSDOF 22
ENDMDL
MODEL 2
REMARK VINA RESULT:    -4.133      2.232      5.204
REMARK INTER + INTRA:         -13.736
REMARK INTER:                  -9.836
REMARK INTRA:                  -3.900
REMARK UNBOUND:                -4.287
REMARK SMILES CCCCCCCCCCCCCCCCCCCCCCCC(=O)[O-]
REMARK SMILES IDX 13 1 14 2 15 3 16 4 17 5 18 6 19 7 20 8 21 9 22 10 23 11
REMARK SMILES IDX 24 12 25 13 26 14 12 15 11 16 10 17 9 18 8 19 7 20 6 21 5 22
REMARK SMILES IDX 4 23 3 24 2 25 1 26
REMARK H PARENT
REMARK Flexibility Score: inf
ROOT
ATOM      1  C   UNL     1       0.863 -22.136  -7.652  1.00  0.00     0.000 C 
ENDROOT
BRANCH   1   2
ATOM      2  C   UNL     1       1.492 -20.851  -8.222  1.00  0.00     0.000 C 
BRANCH   2   3
ATOM      3  C   UNL     1       2.970 -20.693  -7.835  1.00  0.00     0.000 C 
BRANCH   3   4
ATOM      4  C   UNL     1       3.225 -19.450  -6.968  1.00  0.00     0.000 C 
BRANCH   4   5
ATOM      5  C   UNL     1       4.281 -19.738  -5.895  1.00  0.00     0.000 C 
BRANCH   5   6
ATOM      6  C   UNL     1       4.320 -21.234  -5.546  1.00  0.00     0.000 C 
BRANCH   6   7
ATOM      7  C   UNL     1       5.742 -21.816  -5.603  1.00  0.00     0.000 C 
BRANCH   7   8
ATOM      8  C   UNL     1       6.223 -22.054  -7.045  1.00  0.00     0.000 C 
BRANCH   8   9
ATOM      9  C   UNL     1       7.713 -21.727  -7.231  1.00  0.00     0.000 C 
BRANCH   9  10
ATOM     10  C   UNL     1       8.041 -20.264  -6.897  1.00  0.00     0.006 C 
BRANCH  10  11
ATOM     11  C   UNL     1       8.127 -19.417  -8.170  1.00  0.00     0.053 C 
BRANCH  11  12
ATOM     12  C   UNL     1       6.851 -18.664  -8.385  1.00  0.00     0.041 C 
ATOM     13  O   UNL     1       6.005 -19.077  -9.222  1.00  0.00    -0.550 OA
ATOM     14  O   UNL     1       6.619 -17.480  -7.696  1.00  0.00    -0.550 OA
ENDBRANCH  11  12
ENDBRANCH  10  11
ENDBRANCH   9  10
ENDBRANCH   8   9
ENDBRANCH   7   8
ENDBRANCH   6   7
ENDBRANCH   5   6
ENDBRANCH   4   5
ENDBRANCH   3   4
ENDBRANCH   2   3
ENDBRANCH   1   2
BRANCH   1  15
ATOM     15  C   UNL     1       1.032 -22.252  -6.129  1.00  0.00     0.000 C 
BRANCH  15  16
ATOM     16  C   UNL     1       0.022 -21.390  -5.356  1.00  0.00     0.000 C 
BRANCH  16  17
ATOM     17  C   UNL     1       0.740 -20.429  -4.397  1.00  0.00     0.000 C 
BRANCH  17  18
ATOM     18  C   UNL     1       0.354 -20.649  -2.922  1.00  0.00    -0.000 C 
BRANCH  18  19
ATOM     19  C   UNL     1       1.535 -20.660  -1.933  1.00  0.00    -0.000 C 
BRANCH  19  20
ATOM     20  C   UNL     1       2.795 -19.983  -2.491  1.00  0.00    -0.000 C 
BRANCH  20  21
ATOM     21  C   UNL     1       2.906 -18.534  -1.995  1.00  0.00    -0.000 C 
BRANCH  21  22
ATOM     22  C   UNL     1       3.864 -17.690  -2.863  1.00  0.00    -0.000 C 
BRANCH  22  23
ATOM     23  C   UNL     1       5.310 -17.664  -2.337  1.00  0.00    -0.000 C 
BRANCH  23  24
ATOM     24  C   UNL     1       5.950 -19.058  -2.281  1.00  0.00    -0.000 C 
BRANCH  24  25
ATOM     25  C   UNL     1       7.104 -19.171  -3.284  1.00  0.00    -0.003 C 
ATOM     26  C   UNL     1       7.167 -17.945  -4.191  1.00  0.00     0.004 C 
ENDBRANCH  24  25
ENDBRANCH  23  24
ENDBRANCH  22  23
ENDBRANCH  21  22
ENDBRANCH  20  21
ENDBRANCH  19  20
ENDBRANCH  18  19
ENDBRANCH  17  18
ENDBRANCH  16  17
ENDBRANCH  15  16
ENDBRANCH   1  15
TORSDOF 22
ENDMDL
MODEL 3
REMARK VINA RESULT:    -4.126      2.795      6.217
REMARK INTER + INTRA:         -13.719
REMARK INTER:                  -9.640
REMARK INTRA:                  -4.080
REMARK UNBOUND:                -4.287
REMARK SMILES CCCCCCCCCCCCCCCCCCCCCCCC(=O)[O-]
REMARK SMILES IDX 13 1 14 2 15 3 16 4 17 5 18 6 19 7 20 8 21 9 22 10 23 11
REMARK SMILES IDX 24 12 25 13 26 14 12 15 11 16 10 17 9 18 8 19 7 20 6 21 5 22
REMARK SMILES IDX 4 23 3 24 2 25 1 26
REMARK H PARENT
REMARK Flexibility Score: inf
ROOT
ATOM      1  C   UNL     1       0.430 -21.879  -5.262  1.00  0.00     0.000 C 
ENDROOT
BRANCH   1   2
ATOM      2  C   UNL     1       0.478 -20.511  -4.557  1.00  0.00     0.000 C 
BRANCH   2   3
ATOM      3  C   UNL     1       0.602 -20.635  -3.031  1.00  0.00     0.000 C 
BRANCH   3   4
ATOM      4  C   UNL     1       1.891 -19.999  -2.488  1.00  0.00     0.000 C 
BRANCH   4   5
ATOM      5  C   UNL     1       3.092 -20.353  -3.374  1.00  0.00     0.000 C 
BRANCH   5   6
ATOM      6  C   UNL     1       4.402 -19.839  -2.757  1.00  0.00     0.000 C 
BRANCH   6   7
ATOM      7  C   UNL     1       5.537 -20.873  -2.837  1.00  0.00     0.000 C 
BRANCH   7   8
ATOM      8  C   UNL     1       6.109 -21.011  -4.259  1.00  0.00     0.000 C 
BRANCH   8   9
ATOM      9  C   UNL     1       6.886 -19.763  -4.706  1.00  0.00     0.000 C 
BRANCH   9  10
ATOM     10  C   UNL     1       7.617 -19.970  -6.040  1.00  0.00     0.006 C 
BRANCH  10  11
ATOM     11  C   UNL     1       7.576 -21.441  -6.465  1.00  0.00     0.053 C 
BRANCH  11  12
ATOM     12  C   UNL     1       7.524 -21.554  -7.957  1.00  0.00     0.041 C 
ATOM     13  O   UNL     1       7.583 -22.685  -8.509  1.00  0.00    -0.550 OA
ATOM     14  O   UNL     1       7.459 -20.408  -8.738  1.00  0.00    -0.550 OA
ENDBRANCH  11  12
ENDBRANCH  10  11
ENDBRANCH   9  10
ENDBRANCH   8   9
ENDBRANCH   7   8
ENDBRANCH   6   7
ENDBRANCH   5   6
ENDBRANCH   4   5
ENDBRANCH   3   4
ENDBRANCH   2   3
ENDBRANCH   1   2
BRANCH   1  15
ATOM     15  C   UNL     1      -0.010 -21.772  -6.731  1.00  0.00     0.000 C 
BRANCH  15  16
ATOM     16  C   UNL     1       1.116 -22.130  -7.712  1.00  0.00     0.000 C 
BRANCH  16  17
ATOM     17  C   UNL     1       1.998 -20.908  -8.008  1.00  0.00     0.000 C 
BRANCH  17  18
ATOM     18  C   UNL     1       3.360 -20.959  -7.293  1.00  0.00    -0.000 C 
BRANCH  18  19
ATOM     19  C   UNL     1       4.082 -19.605  -7.163  1.00  0.00    -0.000 C 
BRANCH  19  20
ATOM     20  C   UNL     1       3.256 -18.552  -6.410  1.00  0.00    -0.000 C 
BRANCH  20  21
ATOM     21  C   UNL     1       4.167 -17.509  -5.746  1.00  0.00    -0.000 C 
BRANCH  21  22
ATOM     22  C   UNL     1       3.439 -16.714  -4.641  1.00  0.00    -0.000 C 
BRANCH  22  23
ATOM     23  C   UNL     1       1.938 -17.034  -4.539  1.00  0.00    -0.000 C 
BRANCH  23  24
ATOM     24  C   UNL     1       1.260 -16.346  -3.346  1.00  0.00    -0.000 C 
BRANCH  24  25
ATOM     25  C   UNL     1       2.066 -16.562  -2.060  1.00  0.00    -0.003 C 
ATOM     26  C   UNL     1       2.306 -15.242  -1.332  1.00  0.00     0.004 C 
ENDBRANCH  24  25
ENDBRANCH  23  24
ENDBRANCH  22  23
ENDBRANCH  21  22
ENDBRANCH  20  21
ENDBRANCH  19  20
ENDBRANCH  18  19
ENDBRANCH  17  18
ENDBRANCH  16  17
ENDBRANCH  15  16
ENDBRANCH   1  15
TORSDOF 22
ENDMDL
MODEL 4
REMARK VINA RESULT:    -4.116     12.621     14.903
REMARK INTER + INTRA:         -13.695
REMARK INTER:                 -10.688
REMARK INTRA:                  -3.008
REMARK UNBOUND:                -4.287
REMARK SMILES CCCCCCCCCCCCCCCCCCCCCCCC(=O)[O-]
REMARK SMILES IDX 13 1 14 2 15 3 16 4 17 5 18 6 19 7 20 8 21 9 22 10 23 11
REMARK SMILES IDX 24 12 25 13 26 14 12 15 11 16 10 17 9 18 8 19 7 20 6 21 5 22
REMARK SMILES IDX 4 23 3 24 2 25 1 26
REMARK H PARENT
REMARK Flexibility Score: inf
ROOT
ATOM      1  C   UNL     1      -8.939 -24.180  -2.539  1.00  0.00     0.000 C 
ENDROOT
BRANCH   1   2
ATOM      2  C   UNL     1      -7.514 -23.619  -2.374  1.00  0.00     0.000 C 
BRANCH   2   3
ATOM      3  C   UNL     1      -7.461 -22.406  -1.433  1.00  0.00     0.000 C 
BRANCH   3   4
ATOM      4  C   UNL     1      -8.767 -22.207  -0.650  1.00  0.00     0.000 C 
BRANCH   4   5
ATOM      5  C   UNL     1      -9.258 -20.758  -0.761  1.00  0.00     0.000 C 
BRANCH   5   6
ATOM      6  C   UNL     1      -9.796 -20.254   0.588  1.00  0.00     0.000 C 
BRANCH   6   7
ATOM      7  C   UNL     1     -10.013 -21.392   1.599  1.00  0.00     0.000 C 
BRANCH   7   8
ATOM      8  C   UNL     1      -9.277 -21.147   2.928  1.00  0.00     0.000 C 
BRANCH   8   9
ATOM      9  C   UNL     1      -8.908 -19.670   3.134  1.00  0.00     0.000 C 
BRANCH   9  10
ATOM     10  C   UNL     1      -9.365 -19.133   4.498  1.00  0.00     0.006 C 
BRANCH  10  11
ATOM     11  C   UNL     1      -8.219 -18.415   5.217  1.00  0.00     0.053 C 
BRANCH  11  12
ATOM     12  C   UNL     1      -7.023 -19.310   5.320  1.00  0.00     0.041 C 
ATOM     13  O   UNL     1      -6.004 -19.089   4.615  1.00  0.00    -0.550 OA
ATOM     14  O   UNL     1      -7.055 -20.416   6.160  1.00  0.00    -0.550 OA
ENDBRANCH  11  12
ENDBRANCH  10  11
ENDBRANCH   9  10
ENDBRANCH   8   9
ENDBRANCH   7   8
ENDBRANCH   6   7
ENDBRANCH   5   6
ENDBRANCH   4   5
ENDBRANCH   3   4
ENDBRANCH   2   3
ENDBRANCH   1   2
BRANCH   1  15
ATOM     15  C   UNL     1      -9.064 -25.129  -3.741  1.00  0.00     0.000 C 
BRANCH  15  16
ATOM     16  C   UNL     1     -10.210 -26.139  -3.580  1.00  0.00     0.000 C 
BRANCH  16  17
ATOM     17  C   UNL     1      -9.687 -27.486  -3.060  1.00  0.00     0.000 C 
BRANCH  17  18
ATOM     18  C   UNL     1      -9.961 -27.701  -1.560  1.00  0.00    -0.000 C 
BRANCH  18  19
ATOM     19  C   UNL     1      -8.733 -28.111  -0.724  1.00  0.00    -0.000 C 
BRANCH  19  20
ATOM     20  C   UNL     1      -7.650 -27.023  -0.671  1.00  0.00    -0.000 C 
BRANCH  20  21
ATOM     21  C   UNL     1      -6.313 -27.552  -1.211  1.00  0.00    -0.000 C 
BRANCH  21  22
ATOM     22  C   UNL     1      -5.784 -26.708  -2.390  1.00  0.00    -0.000 C 
BRANCH  22  23
ATOM     23  C   UNL     1      -5.775 -27.462  -3.731  1.00  0.00    -0.000 C 
BRANCH  23  24
ATOM     24  C   UNL     1      -5.631 -28.981  -3.561  1.00  0.00    -0.000 C 
BRANCH  24  25
ATOM     25  C   UNL     1      -6.794 -29.719  -4.232  1.00  0.00    -0.003 C 
ATOM     26  C   UNL     1      -7.606 -30.513  -3.212  1.00  0.00     0.004 C 
ENDBRANCH  24  25
ENDBRANCH  23  24
ENDBRANCH  22  23
ENDBRANCH  21  22
ENDBRANCH  20  21
ENDBRANCH  19  20
ENDBRANCH  18  19
ENDBRANCH  17  18
ENDBRANCH  16  17
ENDBRANCH  15  16
ENDBRANCH   1  15
TORSDOF 22
ENDMDL
MODEL 5
REMARK VINA RESULT:    -4.110      1.287      3.683
REMARK INTER + INTRA:         -13.682
REMARK INTER:                  -9.375
REMARK INTRA:                  -4.307
REMARK UNBOUND:                -4.287
REMARK SMILES CCCCCCCCCCCCCCCCCCCCCCCC(=O)[O-]
REMARK SMILES IDX 13 1 14 2 15 3 16 4 17 5 18 6 19 7 20 8 21 9 22 10 23 11
REMARK SMILES IDX 24 12 25 13 26 14 12 15 11 16 10 17 9 18 8 19 7 20 6 21 5 22
REMARK SMILES IDX 4 23 3 24 2 25 1 26
REMARK H PARENT
REMARK Flexibility Score: inf
ROOT
ATOM      1  C   UNL     1       1.208 -21.897  -6.725  1.00  0.00     0.000 C 
ENDROOT
BRANCH   1   2
ATOM      2  C   UNL     1       0.356 -21.580  -5.481  1.00  0.00     0.000 C 
BRANCH   2   3
ATOM      3  C   UNL     1       0.923 -20.413  -4.658  1.00  0.00     0.000 C 
BRANCH   3   4
ATOM      4  C   UNL     1       0.451 -20.436  -3.196  1.00  0.00     0.000 C 
BRANCH   4   5
ATOM      5  C   UNL     1       1.640 -20.330  -2.234  1.00  0.00     0.000 C 
BRANCH   5   6
ATOM      6  C   UNL     1       2.967 -20.250  -3.005  1.00  0.00     0.000 C 
BRANCH   6   7
ATOM      7  C   UNL     1       3.794 -19.010  -2.628  1.00  0.00     0.000 C 
BRANCH   7   8
ATOM      8  C   UNL     1       2.956 -17.941  -1.904  1.00  0.00     0.000 C 
BRANCH   8   9
ATOM      9  C   UNL     1       2.711 -16.696  -2.770  1.00  0.00     0.000 C 
BRANCH   9  10
ATOM     10  C   UNL     1       1.574 -16.897  -3.782  1.00  0.00     0.006 C 
BRANCH  10  11
ATOM     11  C   UNL     1       2.118 -16.953  -5.214  1.00  0.00     0.053 C 
BRANCH  11  12
ATOM     12  C   UNL     1       2.031 -15.606  -5.860  1.00  0.00     0.041 C 
ATOM     13  O   UNL     1       0.914 -15.038  -5.993  1.00  0.00    -0.550 OA
ATOM     14  O   UNL     1       3.177 -15.000  -6.359  1.00  0.00    -0.550 OA
ENDBRANCH  11  12
ENDBRANCH  10  11
ENDBRANCH   9  10
ENDBRANCH   8   9
ENDBRANCH   7   8
ENDBRANCH   6   7
ENDBRANCH   5   6
ENDBRANCH   4   5
ENDBRANCH   3   4
ENDBRANCH   2   3
ENDBRANCH   1   2
BRANCH   1  15
ATOM     15  C   UNL     1       1.465 -20.659  -7.597  1.00  0.00     0.000 C 
BRANCH  15  16
ATOM     16  C   UNL     1       2.937 -20.221  -7.583  1.00  0.00     0.000 C 
BRANCH  16  17
ATOM     17  C   UNL     1       3.853 -21.385  -7.177  1.00  0.00     0.000 C 
BRANCH  17  18
ATOM     18  C   UNL     1       4.603 -21.131  -5.856  1.00  0.00    -0.000 C 
BRANCH  18  19
ATOM     19  C   UNL     1       6.073 -21.591  -5.840  1.00  0.00    -0.000 C 
BRANCH  19  20
ATOM     20  C   UNL     1       6.654 -21.800  -7.247  1.00  0.00    -0.000 C 
BRANCH  20  21
ATOM     21  C   UNL     1       7.758 -20.775  -7.543  1.00  0.00    -0.000 C 
BRANCH  21  22
ATOM     22  C   UNL     1       7.471 -19.959  -8.822  1.00  0.00    -0.000 C 
BRANCH  22  23
ATOM     23  C   UNL     1       6.261 -19.019  -8.694  1.00  0.00    -0.000 C 
BRANCH  23  24
ATOM     24  C   UNL     1       6.544 -17.799  -7.807  1.00  0.00    -0.000 C 
BRANCH  24  25
ATOM     25  C   UNL     1       5.515 -17.693  -6.676  1.00  0.00    -0.003 C 
ATOM     26  C   UNL     1       6.179 -17.844  -5.310  1.00  0.00     0.004 C 
ENDBRANCH  24  25
ENDBRANCH  23  24
ENDBRANCH  22  23
ENDBRANCH  21  22
ENDBRANCH  20  21
ENDBRANCH  19  20
ENDBRANCH  18  19
ENDBRANCH  17  18
ENDBRANCH  16  17
ENDBRANCH  15  16
ENDBRANCH   1  15
TORSDOF 22
ENDMDL
MODEL 6
REMARK VINA RESULT:    -4.072      2.689      6.005
REMARK INTER + INTRA:         -13.597
REMARK INTER:                  -9.495
REMARK INTRA:                  -4.101
REMARK UNBOUND:                -4.287
REMARK SMILES CCCCCCCCCCCCCCCCCCCCCCCC(=O)[O-]
REMARK SMILES IDX 13 1 14 2 15 3 16 4 17 5 18 6 19 7 20 8 21 9 22 10 23 11
REMARK SMILES IDX 24 12 25 13 26 14 12 15 11 16 10 17 9 18 8 19 7 20 6 21 5 22
REMARK SMILES IDX 4 23 3 24 2 25 1 26
REMARK H PARENT
REMARK Flexibility Score: inf
ROOT
ATOM      1  C   UNL     1       0.512 -20.515  -3.703  1.00  0.00     0.000 C 
ENDROOT
BRANCH   1   2
ATOM      2  C   UNL     1       0.428 -20.685  -5.231  1.00  0.00     0.000 C 
BRANCH   2   3
ATOM      3  C   UNL     1       0.318 -22.157  -5.658  1.00  0.00     0.000 C 
BRANCH   3   4
ATOM      4  C   UNL     1       0.833 -22.399  -7.086  1.00  0.00     0.000 C 
BRANCH   4   5
ATOM      5  C   UNL     1       0.929 -21.082  -7.865  1.00  0.00     0.000 C 
BRANCH   5   6
ATOM      6  C   UNL     1       2.354 -20.857  -8.393  1.00  0.00     0.000 C 
BRANCH   6   7
ATOM      7  C   UNL     1       3.230 -20.063  -7.410  1.00  0.00     0.000 C 
BRANCH   7   8
ATOM      8  C   UNL     1       4.285 -20.944  -6.718  1.00  0.00     0.000 C 
BRANCH   8   9
ATOM      9  C   UNL     1       4.064 -21.048  -5.201  1.00  0.00     0.000 C 
BRANCH   9  10
ATOM     10  C   UNL     1       5.381 -21.138  -4.418  1.00  0.00     0.006 C 
BRANCH  10  11
ATOM     11  C   UNL     1       5.138 -20.970  -2.915  1.00  0.00     0.053 C 
BRANCH  11  12
ATOM     12  C   UNL     1       6.275 -20.233  -2.279  1.00  0.00     0.041 C 
ATOM     13  O   UNL     1       6.713 -19.173  -2.800  1.00  0.00    -0.550 OA
ATOM     14  O   UNL     1       6.883 -20.744  -1.139  1.00  0.00    -0.550 OA
ENDBRANCH  11  12
ENDBRANCH  10  11
ENDBRANCH   9  10
ENDBRANCH   8   9
ENDBRANCH   7   8
ENDBRANCH   6   7
ENDBRANCH   5   6
ENDBRANCH   4   5
ENDBRANCH   3   4
ENDBRANCH   2   3
ENDBRANCH   1   2
BRANCH   1  15
ATOM     15  C   UNL     1       1.322 -19.276  -3.291  1.00  0.00     0.000 C 
BRANCH  15  16
ATOM     16  C   UNL     1       1.605 -18.335  -4.471  1.00  0.00     0.000 C 
BRANCH  16  17
ATOM     17  C   UNL     1       2.924 -17.575  -4.264  1.00  0.00     0.000 C 
BRANCH  17  18
ATOM     18  C   UNL     1       3.499 -17.739  -2.845  1.00  0.00    -0.000 C 
BRANCH  18  19
ATOM     19  C   UNL     1       3.887 -16.425  -2.141  1.00  0.00    -0.000 C 
BRANCH  19  20
ATOM     20  C   UNL     1       3.239 -16.269  -0.758  1.00  0.00    -0.000 C 
BRANCH  20  21
ATOM     21  C   UNL     1       3.099 -14.787  -0.380  1.00  0.00    -0.000 C 
BRANCH  21  22
ATOM     22  C   UNL     1       1.931 -14.101  -1.122  1.00  0.00    -0.000 C 
BRANCH  22  23
ATOM     23  C   UNL     1       0.687 -14.993  -1.268  1.00  0.00    -0.000 C 
BRANCH  23  24
ATOM     24  C   UNL     1       0.270 -15.201  -2.731  1.00  0.00    -0.000 C 
BRANCH  24  25
ATOM     25  C   UNL     1       1.108 -14.326  -3.669  1.00  0.00    -0.003 C 
ATOM     26  C   UNL     1       0.840 -14.671  -5.131  1.00  0.00     0.004 C 
ENDBRANCH  24  25
ENDBRANCH  23  24
ENDBRANCH  22  23
ENDBRANCH  21  22
ENDBRANCH  20  21
ENDBRANCH  19  20
ENDBRANCH  18  19
ENDBRANCH  17  18
ENDBRANCH  16  17
ENDBRANCH  15  16
ENDBRANCH   1  15
TORSDOF 22
ENDMDL
MODEL 7
REMARK VINA RESULT:    -4.063      2.711      6.567
REMARK INTER + INTRA:         -13.576
REMARK INTER:                  -9.279
REMARK INTRA:                  -4.298
REMARK UNBOUND:                -4.287
REMARK SMILES CCCCCCCCCCCCCCCCCCCCCCCC(=O)[O-]
REMARK SMILES IDX 13 1 14 2 15 3 16 4 17 5 18 6 19 7 20 8 21 9 22 10 23 11
REMARK SMILES IDX 24 12 25 13 26 14 12 15 11 16 10 17 9 18 8 19 7 20 6 21 5 22
REMARK SMILES IDX 4 23 3 24 2 25 1 26
REMARK H PARENT
REMARK Flexibility Score: inf
ROOT
ATOM      1  C   UNL     1       5.672 -19.775  -6.703  1.00  0.00     0.000 C 
ENDROOT
BRANCH   1   2
ATOM      2  C   UNL     1       5.458 -21.297  -6.609  1.00  0.00     0.000 C 
BRANCH   2   3
ATOM      3  C   UNL     1       4.978 -21.743  -5.219  1.00  0.00     0.000 C 
BRANCH   3   4
ATOM      4  C   UNL     1       5.700 -21.007  -4.080  1.00  0.00     0.000 C 
BRANCH   4   5
ATOM      5  C   UNL     1       4.754 -20.763  -2.898  1.00  0.00     0.000 C 
BRANCH   5   6
ATOM      6  C   UNL     1       3.405 -20.206  -3.378  1.00  0.00     0.000 C 
BRANCH   6   7
ATOM      7  C   UNL     1       2.349 -20.173  -2.261  1.00  0.00     0.000 C 
BRANCH   7   8
ATOM      8  C   UNL     1       0.953 -20.589  -2.758  1.00  0.00     0.000 C 
BRANCH   8   9
ATOM      9  C   UNL     1       0.657 -20.082  -4.177  1.00  0.00     0.000 C 
BRANCH   9  10
ATOM     10  C   UNL     1       0.395 -21.225  -5.169  1.00  0.00     0.006 C 
BRANCH  10  11
ATOM     11  C   UNL     1       1.541 -21.348  -6.178  1.00  0.00     0.053 C 
BRANCH  11  12
ATOM     12  C   UNL     1       1.058 -21.986  -7.443  1.00  0.00     0.041 C 
ATOM     13  O   UNL     1       0.494 -23.112  -7.410  1.00  0.00    -0.550 OA
ATOM     14  O   UNL     1       1.274 -21.358  -8.664  1.00  0.00    -0.550 OA
ENDBRANCH  11  12
ENDBRANCH  10  11
ENDBRANCH   9  10
ENDBRANCH   8   9
ENDBRANCH   7   8
ENDBRANCH   6   7
ENDBRANCH   5   6
ENDBRANCH   4   5
ENDBRANCH   3   4
ENDBRANCH   2   3
ENDBRANCH   1   2
BRANCH   1  15
ATOM     15  C   UNL     1       4.356 -19.005  -6.891  1.00  0.00     0.000 C 
BRANCH  15  16
ATOM     16  C   UNL     1       4.325 -17.687  -6.103  1.00  0.00     0.000 C 
BRANCH  16  17
ATOM     17  C   UNL     1       2.944 -17.456  -5.472  1.00  0.00     0.000 C 
BRANCH  17  18
ATOM     18  C   UNL     1       2.704 -15.990  -5.064  1.00  0.00    -0.000 C 
BRANCH  18  19
ATOM     19  C   UNL     1       1.387 -15.729  -4.309  1.00  0.00    -0.000 C 
BRANCH  19  20
ATOM     20  C   UNL     1       1.254 -16.561  -3.025  1.00  0.00    -0.000 C 
BRANCH  20  21
ATOM     21  C   UNL     1       1.218 -15.656  -1.785  1.00  0.00    -0.000 C 
BRANCH  21  22
ATOM     22  C   UNL     1       2.571 -15.624  -1.044  1.00  0.00    -0.000 C 
BRANCH  22  23
ATOM     23  C   UNL     1       3.539 -16.737  -1.481  1.00  0.00    -0.000 C 
BRANCH  23  24
ATOM     24  C   UNL     1       4.878 -16.195  -1.999  1.00  0.00    -0.000 C 
BRANCH  24  25
ATOM     25  C   UNL     1       5.718 -17.316  -2.621  1.00  0.00    -0.003 C 
ATOM     26  C   UNL     1       6.671 -17.924  -1.595  1.00  0.00     0.004 C 
ENDBRANCH  24  25
ENDBRANCH  23  24
ENDBRANCH  22  23
ENDBRANCH  21  22
ENDBRANCH  20  21
ENDBRANCH  19  20
ENDBRANCH  18  19
ENDBRANCH  17  18
ENDBRANCH  16  17
ENDBRANCH  15  16
ENDBRANCH   1  15
TORSDOF 22
ENDMDL
MODEL 8
REMARK VINA RESULT:    -4.056      1.622      3.435
REMARK INTER + INTRA:         -13.560
REMARK INTER:                  -9.159
REMARK INTRA:                  -4.401
REMARK UNBOUND:                -4.287
REMARK SMILES CCCCCCCCCCCCCCCCCCCCCCCC(=O)[O-]
REMARK SMILES IDX 13 1 14 2 15 3 16 4 17 5 18 6 19 7 20 8 21 9 22 10 23 11
REMARK SMILES IDX 24 12 25 13 26 14 12 15 11 16 10 17 9 18 8 19 7 20 6 21 5 22
REMARK SMILES IDX 4 23 3 24 2 25 1 26
REMARK H PARENT
REMARK Flexibility Score: inf
ROOT
ATOM      1  C   UNL     1       1.615 -20.846  -7.831  1.00  0.00     0.000 C 
ENDROOT
BRANCH   1   2
ATOM      2  C   UNL     1       0.901 -22.158  -7.453  1.00  0.00     0.000 C 
BRANCH   2   3
ATOM      3  C   UNL     1       0.298 -22.118  -6.041  1.00  0.00     0.000 C 
BRANCH   3   4
ATOM      4  C   UNL     1       0.533 -20.775  -5.334  1.00  0.00     0.000 C 
BRANCH   4   5
ATOM      5  C   UNL     1       0.358 -20.915  -3.817  1.00  0.00     0.000 C 
BRANCH   5   6
ATOM      6  C   UNL     1       1.274 -19.938  -3.064  1.00  0.00     0.000 C 
BRANCH   6   7
ATOM      7  C   UNL     1       1.289 -18.536  -3.696  1.00  0.00     0.000 C 
BRANCH   7   8
ATOM      8  C   UNL     1       2.297 -17.594  -3.015  1.00  0.00     0.000 C 
BRANCH   8   9
ATOM      9  C   UNL     1       3.426 -18.354  -2.302  1.00  0.00     0.000 C 
BRANCH   9  10
ATOM     10  C   UNL     1       4.566 -17.429  -1.852  1.00  0.00     0.006 C 
BRANCH  10  11
ATOM     11  C   UNL     1       4.680 -16.210  -2.773  1.00  0.00     0.053 C 
BRANCH  11  12
ATOM     12  C   UNL     1       5.701 -16.453  -3.840  1.00  0.00     0.041 C 
ATOM     13  O   UNL     1       5.381 -16.362  -5.055  1.00  0.00    -0.550 OA
ATOM     14  O   UNL     1       6.993 -16.828  -3.493  1.00  0.00    -0.550 OA
ENDBRANCH  11  12
ENDBRANCH  10  11
ENDBRANCH   9  10
ENDBRANCH   8   9
ENDBRANCH   7   8
ENDBRANCH   6   7
ENDBRANCH   5   6
ENDBRANCH   4   5
ENDBRANCH   3   4
ENDBRANCH   2   3
ENDBRANCH   1   2
BRANCH   1  15
ATOM     15  C   UNL     1       3.133 -20.913  -7.603  1.00  0.00     0.000 C 
BRANCH  15  16
ATOM     16  C   UNL     1       3.732 -19.554  -7.212  1.00  0.00     0.000 C 
BRANCH  16  17
ATOM     17  C   UNL     1       4.198 -19.559  -5.748  1.00  0.00     0.000 C 
BRANCH  17  18
ATOM     18  C   UNL     1       4.192 -20.964  -5.118  1.00  0.00    -0.000 C 
BRANCH  18  19
ATOM     19  C   UNL     1       5.171 -21.159  -3.945  1.00  0.00    -0.000 C 
BRANCH  19  20
ATOM     20  C   UNL     1       6.424 -20.277  -4.053  1.00  0.00    -0.000 C 
BRANCH  20  21
ATOM     21  C   UNL     1       7.661 -21.121  -4.394  1.00  0.00    -0.000 C 
BRANCH  21  22
ATOM     22  C   UNL     1       8.179 -20.849  -5.823  1.00  0.00    -0.000 C 
BRANCH  22  23
ATOM     23  C   UNL     1       7.394 -21.597  -6.915  1.00  0.00    -0.000 C 
BRANCH  23  24
ATOM     24  C   UNL     1       7.235 -20.778  -8.203  1.00  0.00    -0.000 C 
BRANCH  24  25
ATOM     25  C   UNL     1       7.368 -19.278  -7.918  1.00  0.00    -0.003 C 
ATOM     26  C   UNL     1       6.692 -18.448  -9.006  1.00  0.00     0.004 C 
ENDBRANCH  24  25
ENDBRANCH  23  24
ENDBRANCH  22  23
ENDBRANCH  21  22
ENDBRANCH  20  21
ENDBRANCH  19  20
ENDBRANCH  18  19
ENDBRANCH  17  18
ENDBRANCH  16  17
ENDBRANCH  15  16
ENDBRANCH   1  15
TORSDOF 22
ENDMDL
MODEL 9
REMARK VINA RESULT:    -3.998      2.936      5.987
REMARK INTER + INTRA:         -13.428
REMARK INTER:                  -9.323
REMARK INTRA:                  -4.105
REMARK UNBOUND:                -4.287
REMARK SMILES CCCCCCCCCCCCCCCCCCCCCCCC(=O)[O-]
REMARK SMILES IDX 13 1 14 2 15 3 16 4 17 5 18 6 19 7 20 8 21 9 22 10 23 11
REMARK SMILES IDX 24 12 25 13 26 14 12 15 11 16 10 17 9 18 8 19 7 20 6 21 5 22
REMARK SMILES IDX 4 23 3 24 2 25 1 26
REMARK H PARENT
REMARK Flexibility Score: inf
ROOT
ATOM      1  C   UNL     1       0.363 -21.173  -5.071  1.00  0.00     0.000 C 
ENDROOT
BRANCH   1   2
ATOM      2  C   UNL     1       1.146 -21.986  -6.119  1.00  0.00     0.000 C 
BRANCH   2   3
ATOM      3  C   UNL     1       0.760 -21.622  -7.560  1.00  0.00     0.000 C 
BRANCH   3   4
ATOM      4  C   UNL     1       1.892 -20.907  -8.314  1.00  0.00     0.000 C 
BRANCH   4   5
ATOM      5  C   UNL     1       3.219 -21.033  -7.557  1.00  0.00     0.000 C 
BRANCH   5   6
ATOM      6  C   UNL     1       3.835 -19.651  -7.291  1.00  0.00     0.000 C 
BRANCH   6   7
ATOM      7  C   UNL     1       4.337 -19.497  -5.846  1.00  0.00     0.000 C 
BRANCH   7   8
ATOM      8  C   UNL     1       4.626 -20.852  -5.175  1.00  0.00     0.000 C 
BRANCH   8   9
ATOM      9  C   UNL     1       5.773 -20.773  -4.156  1.00  0.00     0.000 C 
BRANCH   9  10
ATOM     10  C   UNL     1       7.057 -21.447  -4.661  1.00  0.00     0.006 C 
BRANCH  10  11
ATOM     11  C   UNL     1       7.574 -20.762  -5.930  1.00  0.00     0.053 C 
BRANCH  11  12
ATOM     12  C   UNL     1       7.759 -21.763  -7.027  1.00  0.00     0.041 C 
ATOM     13  O   UNL     1       6.759 -22.329  -7.543  1.00  0.00    -0.550 OA
ATOM     14  O   UNL     1       9.038 -22.105  -7.446  1.00  0.00    -0.550 OA
ENDBRANCH  11  12
ENDBRANCH  10  11
ENDBRANCH   9  10
ENDBRANCH   8   9
ENDBRANCH   7   8
ENDBRANCH   6   7
ENDBRANCH   5   6
ENDBRANCH   4   5
ENDBRANCH   3   4
ENDBRANCH   2   3
ENDBRANCH   1   2
BRANCH   1  15
ATOM     15  C   UNL     1       0.955 -19.773  -4.846  1.00  0.00     0.000 C 
BRANCH  15  16
ATOM     16  C   UNL     1       0.940 -19.356  -3.368  1.00  0.00     0.000 C 
BRANCH  16  17
ATOM     17  C   UNL     1       2.303 -19.617  -2.709  1.00  0.00     0.000 C 
BRANCH  17  18
ATOM     18  C   UNL     1       2.786 -18.444  -1.837  1.00  0.00    -0.000 C 
BRANCH  18  19
ATOM     19  C   UNL     1       4.239 -17.998  -2.087  1.00  0.00    -0.000 C 
BRANCH  19  20
ATOM     20  C   UNL     1       4.473 -16.511  -1.784  1.00  0.00    -0.000 C 
BRANCH  20  21
ATOM     21  C   UNL     1       3.486 -16.003  -0.723  1.00  0.00    -0.000 C 
BRANCH  21  22
ATOM     22  C   UNL     1       2.647 -14.809  -1.227  1.00  0.00    -0.000 C 
BRANCH  22  23
ATOM     23  C   UNL     1       2.507 -14.758  -2.758  1.00  0.00    -0.000 C 
BRANCH  23  24
ATOM     24  C   UNL     1       1.240 -15.461  -3.265  1.00  0.00    -0.000 C 
BRANCH  24  25
ATOM     25  C   UNL     1       1.387 -15.856  -4.739  1.00  0.00    -0.003 C 
ATOM     26  C   UNL     1       2.827 -16.242  -5.066  1.00  0.00     0.004 C 
ENDBRANCH  24  25
ENDBRANCH  23  24
ENDBRANCH  22  23
ENDBRANCH  21  22
ENDBRANCH  20  21
ENDBRANCH  19  20
ENDBRANCH  18  19
ENDBRANCH  17  18
ENDBRANCH  16  17
ENDBRANCH  15  16
ENDBRANCH   1  15
TORSDOF 22
ENDMDL
