MODEL 1
REMARK VINA RESULT:    -5.665      0.000      0.000
REMARK INTER + INTRA:         -14.749
REMARK INTER:                 -12.288
REMARK INTRA:                  -2.462
REMARK UNBOUND:                -2.462
REMARK SMILES CCCCCCCCCCCCCCCCCCCCCC(=O)[O-]
REMARK SMILES IDX 12 1 11 2 10 3 9 4 8 5 7 6 6 7 5 8 4 9 3 10 2 11 1 12 13 13
REMARK SMILES IDX 14 14 15 15 16 16 17 17 18 18 19 19 20 20 21 21 22 22 23 23
REMARK SMILES IDX 24 24
REMARK H PARENT
REMARK Flexibility Score: inf
ROOT
ATOM      1  C   UNL     1     -10.021 -15.606  27.399  1.00  0.00     0.000 C 
ENDROOT
BRANCH   1   2
ATOM      2  C   UNL     1     -11.470 -15.983  27.054  1.00  0.00     0.000 C 
BRANCH   2   3
ATOM      3  C   UNL     1     -12.011 -17.044  28.019  1.00  0.00     0.000 C 
BRANCH   3   4
ATOM      4  C   UNL     1     -13.275 -16.543  28.734  1.00  0.00    -0.000 C 
BRANCH   4   5
ATOM      5  C   UNL     1     -13.480 -17.191  30.113  1.00  0.00    -0.000 C 
BRANCH   5   6
ATOM      6  C   UNL     1     -12.770 -18.549  30.245  1.00  0.00    -0.000 C 
BRANCH   6   7
ATOM      7  C   UNL     1     -12.110 -18.747  31.622  1.00  0.00    -0.000 C 
BRANCH   7   8
ATOM      8  C   UNL     1     -10.585 -18.956  31.591  1.00  0.00    -0.000 C 
BRANCH   8   9
ATOM      9  C   UNL     1      -9.847 -17.864  30.797  1.00  0.00    -0.000 C 
BRANCH   9  10
ATOM     10  C   UNL     1      -8.887 -17.037  31.671  1.00  0.00    -0.000 C 
BRANCH  10  11
ATOM     11  C   UNL     1      -9.309 -15.572  31.882  1.00  0.00    -0.003 C 
ATOM     12  C   UNL     1     -10.775 -15.317  31.535  1.00  0.00     0.004 C 
ENDBRANCH  10  11
ENDBRANCH   9  10
ENDBRANCH   8   9
ENDBRANCH   7   8
ENDBRANCH   6   7
ENDBRANCH   5   6
ENDBRANCH   4   5
ENDBRANCH   3   4
ENDBRANCH   2   3
ENDBRANCH   1   2
BRANCH   1  13
ATOM     13  C   UNL     1      -9.261 -14.984  26.213  1.00  0.00     0.000 C 
BRANCH  13  14
ATOM     14  C   UNL     1      -7.751 -15.282  26.178  1.00  0.00     0.000 C 
BRANCH  14  15
ATOM     15  C   UNL     1      -6.913 -14.205  26.888  1.00  0.00     0.000 C 
BRANCH  15  16
ATOM     16  C   UNL     1      -5.565 -14.741  27.400  1.00  0.00     0.000 C 
BRANCH  16  17
ATOM     17  C   UNL     1      -5.199 -14.325  28.837  1.00  0.00     0.000 C 
BRANCH  17  18
ATOM     18  C   UNL     1      -6.324 -14.577  29.865  1.00  0.00     0.000 C 
BRANCH  18  19
ATOM     19  C   UNL     1      -6.898 -13.266  30.431  1.00  0.00     0.000 C 
BRANCH  19  20
ATOM     20  C   UNL     1      -6.397 -12.966  31.853  1.00  0.00     0.006 C 
BRANCH  20  21
ATOM     21  C   UNL     1      -5.966 -11.505  32.032  1.00  0.00     0.053 C 
BRANCH  21  22
ATOM     22  C   UNL     1      -4.487 -11.372  31.854  1.00  0.00     0.041 C 
ATOM     23  O   UNL     1      -3.988 -11.357  30.697  1.00  0.00    -0.550 OA
ATOM     24  O   UNL     1      -3.665 -11.207  32.961  1.00  0.00    -0.550 OA
ENDBRANCH  21  22
ENDBRANCH  20  21
ENDBRANCH  19  20
ENDBRANCH  18  19
ENDBRANCH  17  18
ENDBRANCH  16  17
ENDBRANCH  15  16
ENDBRANCH  14  15
ENDBRANCH  13  14
ENDBRANCH   1  13
TORSDOF 20
ENDMDL
MODEL 2
REMARK VINA RESULT:    -5.628      3.359      7.111
REMARK INTER + INTRA:         -14.670
REMARK INTER:                 -12.303
REMARK INTRA:                  -2.368
REMARK UNBOUND:                -2.462
REMARK SMILES CCCCCCCCCCCCCCCCCCCCCC(=O)[O-]
REMARK SMILES IDX 12 1 11 2 10 3 9 4 8 5 7 6 6 7 5 8 4 9 3 10 2 11 1 12 13 13
REMARK SMILES IDX 14 14 15 15 16 16 17 17 18 18 19 19 20 20 21 21 22 22 23 23
REMARK SMILES IDX 24 24
REMARK H PARENT
REMARK Flexibility Score: inf
ROOT
ATOM      1  C   UNL     1      -7.274 -14.906  26.369  1.00  0.00     0.000 C 
ENDROOT
BRANCH   1   2
ATOM      2  C   UNL     1      -6.131 -14.224  27.135  1.00  0.00     0.000 C 
BRANCH   2   3
ATOM      3  C   UNL     1      -6.225 -14.509  28.639  1.00  0.00     0.000 C 
BRANCH   3   4
ATOM      4  C   UNL     1      -4.845 -14.404  29.306  1.00  0.00    -0.000 C 
BRANCH   4   5
ATOM      5  C   UNL     1      -4.206 -13.016  29.143  1.00  0.00    -0.000 C 
BRANCH   5   6
ATOM      6  C   UNL     1      -4.997 -11.907  29.858  1.00  0.00    -0.000 C 
BRANCH   6   7
ATOM      7  C   UNL     1      -5.037 -12.092  31.386  1.00  0.00    -0.000 C 
BRANCH   7   8
ATOM      8  C   UNL     1      -6.430 -11.945  32.025  1.00  0.00    -0.000 C 
BRANCH   8   9
ATOM      9  C   UNL     1      -7.282 -13.220  31.904  1.00  0.00    -0.000 C 
BRANCH   9  10
ATOM     10  C   UNL     1      -6.745 -14.381  32.762  1.00  0.00    -0.000 C 
BRANCH  10  11
ATOM     11  C   UNL     1      -6.853 -15.769  32.107  1.00  0.00    -0.003 C 
ATOM     12  C   UNL     1      -8.244 -16.058  31.544  1.00  0.00     0.004 C 
ENDBRANCH  10  11
ENDBRANCH   9  10
ENDBRANCH   8   9
ENDBRANCH   7   8
ENDBRANCH   6   7
ENDBRANCH   5   6
ENDBRANCH   4   5
ENDBRANCH   3   4
ENDBRANCH   2   3
ENDBRANCH   1   2
BRANCH   1  13
ATOM     13  C   UNL     1      -8.314 -13.909  25.825  1.00  0.00     0.000 C 
BRANCH  13  14
ATOM     14  C   UNL     1      -9.745 -14.464  25.699  1.00  0.00     0.000 C 
BRANCH  14  15
ATOM     15  C   UNL     1     -10.105 -15.449  26.824  1.00  0.00     0.000 C 
BRANCH  15  16
ATOM     16  C   UNL     1     -11.578 -15.889  26.781  1.00  0.00     0.000 C 
BRANCH  16  17
ATOM     17  C   UNL     1     -11.999 -16.874  27.889  1.00  0.00     0.000 C 
BRANCH  17  18
ATOM     18  C   UNL     1     -11.100 -16.823  29.143  1.00  0.00     0.000 C 
BRANCH  18  19
ATOM     19  C   UNL     1     -11.779 -16.093  30.315  1.00  0.00     0.000 C 
BRANCH  19  20
ATOM     20  C   UNL     1     -12.467 -17.057  31.295  1.00  0.00     0.006 C 
BRANCH  20  21
ATOM     21  C   UNL     1     -11.612 -17.353  32.533  1.00  0.00     0.053 C 
BRANCH  21  22
ATOM     22  C   UNL     1     -11.119 -18.765  32.502  1.00  0.00     0.041 C 
ATOM     23  O   UNL     1     -11.448 -19.570  33.413  1.00  0.00    -0.550 OA
ATOM     24  O   UNL     1     -10.345 -19.208  31.437  1.00  0.00    -0.550 OA
ENDBRANCH  21  22
ENDBRANCH  20  21
ENDBRANCH  19  20
ENDBRANCH  18  19
ENDBRANCH  17  18
ENDBRANCH  16  17
ENDBRANCH  15  16
ENDBRANCH  14  15
ENDBRANCH  13  14
ENDBRANCH   1  13
TORSDOF 20
ENDMDL
MODEL 3
REMARK VINA RESULT:    -5.513      2.005      6.860
REMARK INTER + INTRA:         -14.420
REMARK INTER:                 -12.302
REMARK INTRA:                  -2.119
REMARK UNBOUND:                -2.462
REMARK SMILES CCCCCCCCCCCCCCCCCCCCCC(=O)[O-]
REMARK SMILES IDX 12 1 11 2 10 3 9 4 8 5 7 6 6 7 5 8 4 9 3 10 2 11 1 12 13 13
REMARK SMILES IDX 14 14 15 15 16 16 17 17 18 18 19 19 20 20 21 21 22 22 23 23
REMARK SMILES IDX 24 24
REMARK H PARENT
REMARK Flexibility Score: inf
ROOT
ATOM      1  C   UNL     1      -9.379 -14.805  25.974  1.00  0.00     0.000 C 
ENDROOT
BRANCH   1   2
ATOM      2  C   UNL     1      -8.251 -14.957  27.005  1.00  0.00     0.000 C 
BRANCH   2   3
ATOM      3  C   UNL     1      -6.896 -14.559  26.406  1.00  0.00     0.000 C 
BRANCH   3   4
ATOM      4  C   UNL     1      -5.793 -14.586  27.475  1.00  0.00    -0.000 C 
BRANCH   4   5
ATOM      5  C   UNL     1      -6.309 -14.224  28.877  1.00  0.00    -0.000 C 
BRANCH   5   6
ATOM      6  C   UNL     1      -5.401 -13.218  29.605  1.00  0.00    -0.000 C 
BRANCH   6   7
ATOM      7  C   UNL     1      -6.134 -12.451  30.720  1.00  0.00    -0.000 C 
BRANCH   7   8
ATOM      8  C   UNL     1      -5.412 -11.188  31.227  1.00  0.00    -0.000 C 
BRANCH   8   9
ATOM      9  C   UNL     1      -4.761 -11.383  32.607  1.00  0.00    -0.000 C 
BRANCH   9  10
ATOM     10  C   UNL     1      -3.227 -11.498  32.532  1.00  0.00    -0.000 C 
BRANCH  10  11
ATOM     11  C   UNL     1      -2.610 -11.020  31.206  1.00  0.00    -0.003 C 
ATOM     12  C   UNL     1      -1.847 -12.121  30.470  1.00  0.00     0.004 C 
ENDBRANCH  10  11
ENDBRANCH   9  10
ENDBRANCH   8   9
ENDBRANCH   7   8
ENDBRANCH   6   7
ENDBRANCH   5   6
ENDBRANCH   4   5
ENDBRANCH   3   4
ENDBRANCH   2   3
ENDBRANCH   1   2
BRANCH   1  13
ATOM     13  C   UNL     1     -10.725 -15.368  26.466  1.00  0.00     0.000 C 
BRANCH  13  14
ATOM     14  C   UNL     1     -10.632 -16.316  27.675  1.00  0.00     0.000 C 
BRANCH  14  15
ATOM     15  C   UNL     1     -12.004 -16.851  28.121  1.00  0.00     0.000 C 
BRANCH  15  16
ATOM     16  C   UNL     1     -12.544 -16.135  29.371  1.00  0.00     0.000 C 
BRANCH  16  17
ATOM     17  C   UNL     1     -12.999 -17.065  30.512  1.00  0.00     0.000 C 
BRANCH  17  18
ATOM     18  C   UNL     1     -12.018 -17.115  31.704  1.00  0.00     0.000 C 
BRANCH  18  19
ATOM     19  C   UNL     1     -10.879 -18.125  31.477  1.00  0.00     0.000 C 
BRANCH  19  20
ATOM     20  C   UNL     1      -9.492 -17.528  31.766  1.00  0.00     0.006 C 
BRANCH  20  21
ATOM     21  C   UNL     1      -9.214 -16.257  30.954  1.00  0.00     0.053 C 
BRANCH  21  22
ATOM     22  C   UNL     1      -8.374 -15.306  31.746  1.00  0.00     0.041 C 
ATOM     23  O   UNL     1      -7.221 -15.644  32.124  1.00  0.00    -0.550 OA
ATOM     24  O   UNL     1      -8.841 -14.026  32.017  1.00  0.00    -0.550 OA
ENDBRANCH  21  22
ENDBRANCH  20  21
ENDBRANCH  19  20
ENDBRANCH  18  19
ENDBRANCH  17  18
ENDBRANCH  16  17
ENDBRANCH  15  16
ENDBRANCH  14  15
ENDBRANCH  13  14
ENDBRANCH   1  13
TORSDOF 20
ENDMDL
MODEL 4
REMARK VINA RESULT:    -5.465      3.140      7.113
REMARK INTER + INTRA:         -14.316
REMARK INTER:                 -12.144
REMARK INTRA:                  -2.171
REMARK UNBOUND:                -2.462
REMARK SMILES CCCCCCCCCCCCCCCCCCCCCC(=O)[O-]
REMARK SMILES IDX 12 1 11 2 10 3 9 4 8 5 7 6 6 7 5 8 4 9 3 10 2 11 1 12 13 13
REMARK SMILES IDX 14 14 15 15 16 16 17 17 18 18 19 19 20 20 21 21 22 22 23 23
REMARK SMILES IDX 24 24
REMARK H PARENT
REMARK Flexibility Score: inf
ROOT
ATOM      1  C   UNL     1      -7.648 -14.133  26.000  1.00  0.00     0.000 C 
ENDROOT
BRANCH   1   2
ATOM      2  C   UNL     1      -7.056 -14.939  27.167  1.00  0.00     0.000 C 
BRANCH   2   3
ATOM      3  C   UNL     1      -5.608 -14.520  27.451  1.00  0.00     0.000 C 
BRANCH   3   4
ATOM      4  C   UNL     1      -5.383 -14.305  28.955  1.00  0.00    -0.000 C 
BRANCH   4   5
ATOM      5  C   UNL     1      -6.477 -13.446  29.608  1.00  0.00    -0.000 C 
BRANCH   5   6
ATOM      6  C   UNL     1      -7.047 -14.079  30.889  1.00  0.00    -0.000 C 
BRANCH   6   7
ATOM      7  C   UNL     1      -6.750 -13.245  32.149  1.00  0.00    -0.000 C 
BRANCH   7   8
ATOM      8  C   UNL     1      -6.153 -11.851  31.885  1.00  0.00    -0.000 C 
BRANCH   8   9
ATOM      9  C   UNL     1      -4.752 -11.674  32.495  1.00  0.00    -0.000 C 
BRANCH   9  10
ATOM     10  C   UNL     1      -3.754 -11.023  31.519  1.00  0.00    -0.000 C 
BRANCH  10  11
ATOM     11  C   UNL     1      -3.112 -11.994  30.512  1.00  0.00    -0.003 C 
ATOM     12  C   UNL     1      -3.032 -11.422  29.098  1.00  0.00     0.004 C 
ENDBRANCH  10  11
ENDBRANCH   9  10
ENDBRANCH   8   9
ENDBRANCH   7   8
ENDBRANCH   6   7
ENDBRANCH   5   6
ENDBRANCH   4   5
ENDBRANCH   3   4
ENDBRANCH   2   3
ENDBRANCH   1   2
BRANCH   1  13
ATOM     13  C   UNL     1      -9.169 -14.319  25.850  1.00  0.00     0.000 C 
BRANCH  13  14
ATOM     14  C   UNL     1      -9.795 -15.361  26.794  1.00  0.00     0.000 C 
BRANCH  14  15
ATOM     15  C   UNL     1     -11.295 -15.581  26.531  1.00  0.00     0.000 C 
BRANCH  15  16
ATOM     16  C   UNL     1     -11.906 -16.662  27.437  1.00  0.00     0.000 C 
BRANCH  16  17
ATOM     17  C   UNL     1     -12.952 -16.153  28.448  1.00  0.00     0.000 C 
BRANCH  17  18
ATOM     18  C   UNL     1     -12.435 -16.088  29.901  1.00  0.00     0.000 C 
BRANCH  18  19
ATOM     19  C   UNL     1     -10.925 -16.365  29.993  1.00  0.00     0.000 C 
BRANCH  19  20
ATOM     20  C   UNL     1     -10.333 -15.981  31.359  1.00  0.00     0.006 C 
BRANCH  20  21
ATOM     21  C   UNL     1      -9.452 -17.085  31.954  1.00  0.00     0.053 C 
BRANCH  21  22
ATOM     22  C   UNL     1     -10.187 -18.388  31.970  1.00  0.00     0.041 C 
ATOM     23  O   UNL     1      -9.796 -19.344  31.249  1.00  0.00    -0.550 OA
ATOM     24  O   UNL     1     -11.269 -18.565  32.823  1.00  0.00    -0.550 OA
ENDBRANCH  21  22
ENDBRANCH  20  21
ENDBRANCH  19  20
ENDBRANCH  18  19
ENDBRANCH  17  18
ENDBRANCH  16  17
ENDBRANCH  15  16
ENDBRANCH  14  15
ENDBRANCH  13  14
ENDBRANCH   1  13
TORSDOF 20
ENDMDL
MODEL 5
REMARK VINA RESULT:    -5.412      1.267      2.592
REMARK INTER + INTRA:         -14.201
REMARK INTER:                 -11.855
REMARK INTRA:                  -2.346
REMARK UNBOUND:                -2.462
REMARK SMILES CCCCCCCCCCCCCCCCCCCCCC(=O)[O-]
REMARK SMILES IDX 12 1 11 2 10 3 9 4 8 5 7 6 6 7 5 8 4 9 3 10 2 11 1 12 13 13
REMARK SMILES IDX 14 14 15 15 16 16 17 17 18 18 19 19 20 20 21 21 22 22 23 23
REMARK SMILES IDX 24 24
REMARK H PARENT
REMARK Flexibility Score: inf
ROOT
ATOM      1  C   UNL     1     -11.248 -17.033  28.241  1.00  0.00     0.000 C 
ENDROOT
BRANCH   1   2
ATOM      2  C   UNL     1     -12.671 -16.486  28.429  1.00  0.00     0.000 C 
BRANCH   2   3
ATOM      3  C   UNL     1     -13.329 -17.074  29.683  1.00  0.00     0.000 C 
BRANCH   3   4
ATOM      4  C   UNL     1     -12.703 -18.428  30.050  1.00  0.00    -0.000 C 
BRANCH   4   5
ATOM      5  C   UNL     1     -12.107 -18.448  31.466  1.00  0.00    -0.000 C 
BRANCH   5   6
ATOM      6  C   UNL     1     -12.072 -17.055  32.118  1.00  0.00    -0.000 C 
BRANCH   6   7
ATOM      7  C   UNL     1     -10.742 -16.317  31.879  1.00  0.00    -0.000 C 
BRANCH   7   8
ATOM      8  C   UNL     1      -9.557 -17.219  31.486  1.00  0.00    -0.000 C 
BRANCH   8   9
ATOM      9  C   UNL     1      -8.196 -16.638  31.909  1.00  0.00    -0.000 C 
BRANCH   9  10
ATOM     10  C   UNL     1      -7.768 -15.435  31.049  1.00  0.00    -0.000 C 
BRANCH  10  11
ATOM     11  C   UNL     1      -7.968 -14.063  31.715  1.00  0.00    -0.003 C 
ATOM     12  C   UNL     1      -6.808 -13.666  32.627  1.00  0.00     0.004 C 
ENDBRANCH  10  11
ENDBRANCH   9  10
ENDBRANCH   8   9
ENDBRANCH   7   8
ENDBRANCH   6   7
ENDBRANCH   5   6
ENDBRANCH   4   5
ENDBRANCH   3   4
ENDBRANCH   2   3
ENDBRANCH   1   2
BRANCH   1  13
ATOM     13  C   UNL     1     -10.235 -15.949  27.830  1.00  0.00     0.000 C 
BRANCH  13  14
ATOM     14  C   UNL     1     -10.476 -15.324  26.444  1.00  0.00     0.000 C 
BRANCH  14  15
ATOM     15  C   UNL     1      -9.289 -14.473  25.959  1.00  0.00     0.000 C 
BRANCH  15  16
ATOM     16  C   UNL     1      -7.927 -15.093  26.315  1.00  0.00     0.000 C 
BRANCH  16  17
ATOM     17  C   UNL     1      -7.061 -14.260  27.279  1.00  0.00     0.000 C 
BRANCH  17  18
ATOM     18  C   UNL     1      -5.603 -14.755  27.394  1.00  0.00     0.000 C 
BRANCH  18  19
ATOM     19  C   UNL     1      -5.000 -14.468  28.780  1.00  0.00     0.000 C 
BRANCH  19  20
ATOM     20  C   UNL     1      -5.357 -13.067  29.303  1.00  0.00     0.006 C 
BRANCH  20  21
ATOM     21  C   UNL     1      -4.203 -12.068  29.155  1.00  0.00     0.053 C 
BRANCH  21  22
ATOM     22  C   UNL     1      -3.174 -12.298  30.217  1.00  0.00     0.041 C 
ATOM     23  O   UNL     1      -3.259 -11.696  31.320  1.00  0.00    -0.550 OA
ATOM     24  O   UNL     1      -2.155 -13.219  30.010  1.00  0.00    -0.550 OA
ENDBRANCH  21  22
ENDBRANCH  20  21
ENDBRANCH  19  20
ENDBRANCH  18  19
ENDBRANCH  17  18
ENDBRANCH  16  17
ENDBRANCH  15  16
ENDBRANCH  14  15
ENDBRANCH  13  14
ENDBRANCH   1  13
TORSDOF 20
ENDMDL
MODEL 6
REMARK VINA RESULT:    -5.348      2.868      5.553
REMARK INTER + INTRA:         -14.063
REMARK INTER:                 -11.827
REMARK INTRA:                  -2.235
REMARK UNBOUND:                -2.462
REMARK SMILES CCCCCCCCCCCCCCCCCCCCCC(=O)[O-]
REMARK SMILES IDX 12 1 11 2 10 3 9 4 8 5 7 6 6 7 5 8 4 9 3 10 2 11 1 12 13 13
REMARK SMILES IDX 14 14 15 15 16 16 17 17 18 18 19 19 20 20 21 21 22 22 23 23
REMARK SMILES IDX 24 24
REMARK H PARENT
REMARK Flexibility Score: inf
ROOT
ATOM      1  C   UNL     1      -7.003 -13.190  32.447  1.00  0.00     0.000 C 
ENDROOT
BRANCH   1   2
ATOM      2  C   UNL     1      -7.594 -14.130  31.384  1.00  0.00     0.000 C 
BRANCH   2   3
ATOM      3  C   UNL     1      -7.379 -15.600  31.765  1.00  0.00     0.000 C 
BRANCH   3   4
ATOM      4  C   UNL     1      -8.633 -16.435  31.463  1.00  0.00    -0.000 C 
BRANCH   4   5
ATOM      5  C   UNL     1      -9.938 -15.646  31.652  1.00  0.00    -0.000 C 
BRANCH   5   6
ATOM      6  C   UNL     1     -10.969 -16.394  32.514  1.00  0.00    -0.000 C 
BRANCH   6   7
ATOM      7  C   UNL     1     -10.813 -17.925  32.436  1.00  0.00    -0.000 C 
BRANCH   7   8
ATOM      8  C   UNL     1     -12.049 -18.681  31.915  1.00  0.00    -0.000 C 
BRANCH   8   9
ATOM      9  C   UNL     1     -12.235 -18.549  30.394  1.00  0.00    -0.000 C 
BRANCH   9  10
ATOM     10  C   UNL     1     -13.359 -17.567  30.013  1.00  0.00    -0.000 C 
BRANCH  10  11
ATOM     11  C   UNL     1     -12.905 -16.370  29.159  1.00  0.00    -0.003 C 
ATOM     12  C   UNL     1     -11.600 -16.631  28.409  1.00  0.00     0.004 C 
ENDBRANCH  10  11
ENDBRANCH   9  10
ENDBRANCH   8   9
ENDBRANCH   7   8
ENDBRANCH   6   7
ENDBRANCH   5   6
ENDBRANCH   4   5
ENDBRANCH   3   4
ENDBRANCH   2   3
ENDBRANCH   1   2
BRANCH   1  13
ATOM     13  C   UNL     1      -6.439 -11.887  31.852  1.00  0.00     0.000 C 
BRANCH  13  14
ATOM     14  C   UNL     1      -4.918 -11.707  32.002  1.00  0.00     0.000 C 
BRANCH  14  15
ATOM     15  C   UNL     1      -4.163 -11.873  30.673  1.00  0.00     0.000 C 
BRANCH  15  16
ATOM     16  C   UNL     1      -5.021 -12.531  29.579  1.00  0.00     0.000 C 
BRANCH  16  17
ATOM     17  C   UNL     1      -4.440 -13.828  28.983  1.00  0.00     0.000 C 
BRANCH  17  18
ATOM     18  C   UNL     1      -5.509 -14.793  28.427  1.00  0.00     0.000 C 
BRANCH  18  19
ATOM     19  C   UNL     1      -5.884 -14.468  26.971  1.00  0.00     0.000 C 
BRANCH  19  20
ATOM     20  C   UNL     1      -7.368 -14.728  26.668  1.00  0.00     0.006 C 
BRANCH  20  21
ATOM     21  C   UNL     1      -8.006 -13.610  25.834  1.00  0.00     0.053 C 
BRANCH  21  22
ATOM     22  C   UNL     1      -9.400 -13.984  25.440  1.00  0.00     0.041 C 
ATOM     23  O   UNL     1     -10.008 -14.900  26.057  1.00  0.00    -0.550 OA
ATOM     24  O   UNL     1     -10.049 -13.285  24.431  1.00  0.00    -0.550 OA
ENDBRANCH  21  22
ENDBRANCH  20  21
ENDBRANCH  19  20
ENDBRANCH  18  19
ENDBRANCH  17  18
ENDBRANCH  16  17
ENDBRANCH  15  16
ENDBRANCH  14  15
ENDBRANCH  13  14
ENDBRANCH   1  13
TORSDOF 20
ENDMDL
MODEL 7
REMARK VINA RESULT:    -5.326      1.529      4.481
REMARK INTER + INTRA:         -14.014
REMARK INTER:                 -11.889
REMARK INTRA:                  -2.125
REMARK UNBOUND:                -2.462
REMARK SMILES CCCCCCCCCCCCCCCCCCCCCC(=O)[O-]
REMARK SMILES IDX 12 1 11 2 10 3 9 4 8 5 7 6 6 7 5 8 4 9 3 10 2 11 1 12 13 13
REMARK SMILES IDX 14 14 15 15 16 16 17 17 18 18 19 19 20 20 21 21 22 22 23 23
REMARK SMILES IDX 24 24
REMARK H PARENT
REMARK Flexibility Score: inf
ROOT
ATOM      1  C   UNL     1     -10.748 -18.578  32.564  1.00  0.00     0.000 C 
ENDROOT
BRANCH   1   2
ATOM      2  C   UNL     1     -12.070 -18.682  31.788  1.00  0.00     0.000 C 
BRANCH   2   3
ATOM      3  C   UNL     1     -12.798 -17.333  31.752  1.00  0.00     0.000 C 
BRANCH   3   4
ATOM      4  C   UNL     1     -12.634 -16.655  30.384  1.00  0.00    -0.000 C 
BRANCH   4   5
ATOM      5  C   UNL     1     -12.653 -17.653  29.215  1.00  0.00    -0.000 C 
BRANCH   5   6
ATOM      6  C   UNL     1     -11.635 -17.304  28.116  1.00  0.00    -0.000 C 
BRANCH   6   7
ATOM      7  C   UNL     1     -12.082 -16.116  27.244  1.00  0.00    -0.000 C 
BRANCH   7   8
ATOM      8  C   UNL     1     -11.034 -15.619  26.231  1.00  0.00    -0.000 C 
BRANCH   8   9
ATOM      9  C   UNL     1      -9.674 -15.308  26.881  1.00  0.00    -0.000 C 
BRANCH   9  10
ATOM     10  C   UNL     1      -8.646 -14.755  25.877  1.00  0.00    -0.000 C 
BRANCH  10  11
ATOM     11  C   UNL     1      -8.853 -13.280  25.489  1.00  0.00    -0.003 C 
ATOM     12  C   UNL     1      -9.755 -13.104  24.268  1.00  0.00     0.004 C 
ENDBRANCH  10  11
ENDBRANCH   9  10
ENDBRANCH   8   9
ENDBRANCH   7   8
ENDBRANCH   6   7
ENDBRANCH   5   6
ENDBRANCH   4   5
ENDBRANCH   3   4
ENDBRANCH   2   3
ENDBRANCH   1   2
BRANCH   1  13
ATOM     13  C   UNL     1      -9.546 -18.239  31.663  1.00  0.00     0.000 C 
BRANCH  13  14
ATOM     14  C   UNL     1      -8.964 -16.827  31.857  1.00  0.00     0.000 C 
BRANCH  14  15
ATOM     15  C   UNL     1      -8.941 -16.007  30.556  1.00  0.00     0.000 C 
BRANCH  15  16
ATOM     16  C   UNL     1      -7.811 -14.964  30.529  1.00  0.00     0.000 C 
BRANCH  16  17
ATOM     17  C   UNL     1      -6.676 -15.204  31.542  1.00  0.00     0.000 C 
BRANCH  17  18
ATOM     18  C   UNL     1      -6.608 -14.146  32.665  1.00  0.00     0.000 C 
BRANCH  18  19
ATOM     19  C   UNL     1      -7.130 -12.774  32.202  1.00  0.00     0.000 C 
BRANCH  19  20
ATOM     20  C   UNL     1      -5.998 -11.786  31.881  1.00  0.00     0.006 C 
BRANCH  20  21
ATOM     21  C   UNL     1      -5.649 -11.750  30.389  1.00  0.00     0.053 C 
BRANCH  21  22
ATOM     22  C   UNL     1      -4.178 -11.553  30.201  1.00  0.00     0.041 C 
ATOM     23  O   UNL     1      -3.547 -10.756  30.946  1.00  0.00    -0.550 OA
ATOM     24  O   UNL     1      -3.494 -12.290  29.244  1.00  0.00    -0.550 OA
ENDBRANCH  21  22
ENDBRANCH  20  21
ENDBRANCH  19  20
ENDBRANCH  18  19
ENDBRANCH  17  18
ENDBRANCH  16  17
ENDBRANCH  15  16
ENDBRANCH  14  15
ENDBRANCH  13  14
ENDBRANCH   1  13
TORSDOF 20
ENDMDL
MODEL 8
REMARK VINA RESULT:    -5.268      1.342      3.127
REMARK INTER + INTRA:         -13.890
REMARK INTER:                 -11.469
REMARK INTRA:                  -2.421
REMARK UNBOUND:                -2.462
REMARK SMILES CCCCCCCCCCCCCCCCCCCCCC(=O)[O-]
REMARK SMILES IDX 12 1 11 2 10 3 9 4 8 5 7 6 6 7 5 8 4 9 3 10 2 11 1 12 13 13
REMARK SMILES IDX 14 14 15 15 16 16 17 17 18 18 19 19 20 20 21 21 22 22 23 23
REMARK SMILES IDX 24 24
REMARK H PARENT
REMARK Flexibility Score: inf
ROOT
ATOM      1  C   UNL     1      -7.527 -15.050  26.416  1.00  0.00     0.000 C 
ENDROOT
BRANCH   1   2
ATOM      2  C   UNL     1      -8.639 -14.062  26.031  1.00  0.00     0.000 C 
BRANCH   2   3
ATOM      3  C   UNL     1      -9.993 -14.772  25.913  1.00  0.00     0.000 C 
BRANCH   3   4
ATOM      4  C   UNL     1     -10.272 -15.636  27.152  1.00  0.00    -0.000 C 
BRANCH   4   5
ATOM      5  C   UNL     1     -11.527 -16.509  27.003  1.00  0.00    -0.000 C 
BRANCH   5   6
ATOM      6  C   UNL     1     -12.660 -16.093  27.958  1.00  0.00    -0.000 C 
BRANCH   6   7
ATOM      7  C   UNL     1     -12.560 -16.775  29.335  1.00  0.00    -0.000 C 
BRANCH   7   8
ATOM      8  C   UNL     1     -12.040 -18.224  29.310  1.00  0.00    -0.000 C 
BRANCH   8   9
ATOM      9  C   UNL     1     -10.829 -18.442  30.233  1.00  0.00    -0.000 C 
BRANCH   9  10
ATOM     10  C   UNL     1      -9.957 -17.182  30.382  1.00  0.00    -0.000 C 
BRANCH  10  11
ATOM     11  C   UNL     1      -9.833 -16.651  31.821  1.00  0.00    -0.003 C 
ATOM     12  C   UNL     1     -10.499 -15.289  32.016  1.00  0.00     0.004 C 
ENDBRANCH  10  11
ENDBRANCH   9  10
ENDBRANCH   8   9
ENDBRANCH   7   8
ENDBRANCH   6   7
ENDBRANCH   5   6
ENDBRANCH   4   5
ENDBRANCH   3   4
ENDBRANCH   2   3
ENDBRANCH   1   2
BRANCH   1  13
ATOM     13  C   UNL     1      -6.614 -14.522  27.538  1.00  0.00     0.000 C 
BRANCH  13  14
ATOM     14  C   UNL     1      -7.227 -14.558  28.949  1.00  0.00     0.000 C 
BRANCH  14  15
ATOM     15  C   UNL     1      -6.186 -14.329  30.058  1.00  0.00     0.000 C 
BRANCH  15  16
ATOM     16  C   UNL     1      -6.780 -14.467  31.470  1.00  0.00     0.000 C 
BRANCH  16  17
ATOM     17  C   UNL     1      -6.926 -13.146  32.250  1.00  0.00     0.000 C 
BRANCH  17  18
ATOM     18  C   UNL     1      -6.139 -11.968  31.634  1.00  0.00     0.000 C 
BRANCH  18  19
ATOM     19  C   UNL     1      -4.871 -11.633  32.438  1.00  0.00     0.000 C 
BRANCH  19  20
ATOM     20  C   UNL     1      -3.768 -11.006  31.571  1.00  0.00     0.006 C 
BRANCH  20  21
ATOM     21  C   UNL     1      -2.625 -11.983  31.268  1.00  0.00     0.053 C 
BRANCH  21  22
ATOM     22  C   UNL     1      -2.824 -12.621  29.930  1.00  0.00     0.041 C 
ATOM     23  O   UNL     1      -2.250 -13.708  29.655  1.00  0.00    -0.550 OA
ATOM     24  O   UNL     1      -3.688 -12.045  29.007  1.00  0.00    -0.550 OA
ENDBRANCH  21  22
ENDBRANCH  20  21
ENDBRANCH  19  20
ENDBRANCH  18  19
ENDBRANCH  17  18
ENDBRANCH  16  17
ENDBRANCH  15  16
ENDBRANCH  14  15
ENDBRANCH  13  14
ENDBRANCH   1  13
TORSDOF 20
ENDMDL
MODEL 9
REMARK VINA RESULT:    -5.211      3.106      7.980
REMARK INTER + INTRA:         -13.766
REMARK INTER:                 -11.382
REMARK INTRA:                  -2.384
REMARK UNBOUND:                -2.462
REMARK SMILES CCCCCCCCCCCCCCCCCCCCCC(=O)[O-]
REMARK SMILES IDX 12 1 11 2 10 3 9 4 8 5 7 6 6 7 5 8 4 9 3 10 2 11 1 12 13 13
REMARK SMILES IDX 14 14 15 15 16 16 17 17 18 18 19 19 20 20 21 21 22 22 23 23
REMARK SMILES IDX 24 24
REMARK H PARENT
REMARK Flexibility Score: inf
ROOT
ATOM      1  C   UNL     1      -5.545 -11.403  31.533  1.00  0.00     0.000 C 
ENDROOT
BRANCH   1   2
ATOM      2  C   UNL     1      -4.120 -11.485  32.100  1.00  0.00     0.000 C 
BRANCH   2   3
ATOM      3  C   UNL     1      -3.121 -11.930  31.026  1.00  0.00     0.000 C 
BRANCH   3   4
ATOM      4  C   UNL     1      -3.842 -12.278  29.715  1.00  0.00    -0.000 C 
BRANCH   4   5
ATOM      5  C   UNL     1      -3.153 -13.409  28.934  1.00  0.00    -0.000 C 
BRANCH   5   6
ATOM      6  C   UNL     1      -4.148 -14.292  28.161  1.00  0.00    -0.000 C 
BRANCH   6   7
ATOM      7  C   UNL     1      -5.441 -14.568  28.951  1.00  0.00    -0.000 C 
BRANCH   7   8
ATOM      8  C   UNL     1      -6.743 -14.175  28.229  1.00  0.00    -0.000 C 
BRANCH   8   9
ATOM      9  C   UNL     1      -6.723 -14.518  26.729  1.00  0.00    -0.000 C 
BRANCH   9  10
ATOM     10  C   UNL     1      -7.988 -15.267  26.272  1.00  0.00    -0.000 C 
BRANCH  10  11
ATOM     11  C   UNL     1      -9.218 -14.372  26.040  1.00  0.00    -0.003 C 
ATOM     12  C   UNL     1      -8.903 -13.125  25.214  1.00  0.00     0.004 C 
ENDBRANCH  10  11
ENDBRANCH   9  10
ENDBRANCH   8   9
ENDBRANCH   7   8
ENDBRANCH   6   7
ENDBRANCH   5   6
ENDBRANCH   4   5
ENDBRANCH   3   4
ENDBRANCH   2   3
ENDBRANCH   1   2
BRANCH   1  13
ATOM     13  C   UNL     1      -6.580 -12.152  32.393  1.00  0.00     0.000 C 
BRANCH  13  14
ATOM     14  C   UNL     1      -7.174 -13.415  31.745  1.00  0.00     0.000 C 
BRANCH  14  15
ATOM     15  C   UNL     1      -6.725 -14.711  32.442  1.00  0.00     0.000 C 
BRANCH  15  16
ATOM     16  C   UNL     1      -7.366 -15.969  31.831  1.00  0.00     0.000 C 
BRANCH  16  17
ATOM     17  C   UNL     1      -8.801 -15.780  31.302  1.00  0.00     0.000 C 
BRANCH  17  18
ATOM     18  C   UNL     1      -9.842 -16.695  31.983  1.00  0.00     0.000 C 
BRANCH  18  19
ATOM     19  C   UNL     1      -9.619 -18.180  31.646  1.00  0.00     0.000 C 
BRANCH  19  20
ATOM     20  C   UNL     1     -10.103 -18.546  30.234  1.00  0.00     0.006 C 
BRANCH  20  21
ATOM     21  C   UNL     1     -11.602 -18.290  30.037  1.00  0.00     0.053 C 
BRANCH  21  22
ATOM     22  C   UNL     1     -11.819 -17.233  29.001  1.00  0.00     0.041 C 
ATOM     23  O   UNL     1     -12.989 -16.874  28.699  1.00  0.00    -0.550 OA
ATOM     24  O   UNL     1     -10.731 -16.604  28.410  1.00  0.00    -0.550 OA
ENDBRANCH  21  22
ENDBRANCH  20  21
ENDBRANCH  19  20
ENDBRANCH  18  19
ENDBRANCH  17  18
ENDBRANCH  16  17
ENDBRANCH  15  16
ENDBRANCH  14  15
ENDBRANCH  13  14
ENDBRANCH   1  13
TORSDOF 20
ENDMDL
