MODEL 1
REMARK VINA RESULT:    -3.755      0.000      0.000
REMARK INTER + INTRA:          -8.191
REMARK INTER:                  -6.390
REMARK INTRA:                  -1.801
REMARK UNBOUND:                -1.801
REMARK SMILES CCCCCCCCCCCCCC(=O)[O-]
REMARK SMILES IDX 8 1 9 2 10 3 11 4 12 5 13 6 14 7 15 8 16 9 7 10 6 11 5 12
REMARK SMILES IDX 4 13 3 14 2 15 1 16
REMARK H PARENT
REMARK Flexibility Score: inf
ROOT
ATOM      1  C   UNL     1      31.662  26.106 -16.733  1.00  0.00     0.000 C 
ENDROOT
BRANCH   1   2
ATOM      2  C   UNL     1      30.635  26.956 -15.972  1.00  0.00     0.000 C 
BRANCH   2   3
ATOM      3  C   UNL     1      29.711  27.703 -16.945  1.00  0.00     0.000 C 
BRANCH   3   4
ATOM      4  C   UNL     1      28.217  27.455 -16.666  1.00  0.00     0.000 C 
BRANCH   4   5
ATOM      5  C   UNL     1      27.919  26.580 -15.430  1.00  0.00     0.006 C 
BRANCH   5   6
ATOM      6  C   UNL     1      26.946  25.420 -15.690  1.00  0.00     0.053 C 
BRANCH   6   7
ATOM      7  C   UNL     1      26.883  24.472 -14.531  1.00  0.00     0.041 C 
ATOM      8  O   UNL     1      27.171  23.257 -14.690  1.00  0.00    -0.550 OA
ATOM      9  O   UNL     1      26.473  24.926 -13.284  1.00  0.00    -0.550 OA
ENDBRANCH   6   7
ENDBRANCH   5   6
ENDBRANCH   4   5
ENDBRANCH   3   4
ENDBRANCH   2   3
ENDBRANCH   1   2
BRANCH   1  10
ATOM     10  C   UNL     1      31.005  25.053 -17.639  1.00  0.00     0.000 C 
BRANCH  10  11
ATOM     11  C   UNL     1      30.259  23.969 -16.845  1.00  0.00    -0.000 C 
BRANCH  11  12
ATOM     12  C   UNL     1      29.251  23.233 -17.735  1.00  0.00    -0.000 C 
BRANCH  12  13
ATOM     13  C   UNL     1      28.601  24.190 -18.740  1.00  0.00    -0.000 C 
BRANCH  13  14
ATOM     14  C   UNL     1      27.912  23.417 -19.871  1.00  0.00    -0.000 C 
BRANCH  14  15
ATOM     15  C   UNL     1      26.717  24.202 -20.425  1.00  0.00    -0.003 C 
ATOM     16  C   UNL     1      26.038  25.017 -19.327  1.00  0.00     0.004 C 
ENDBRANCH  14  15
ENDBRANCH  13  14
ENDBRANCH  12  13
ENDBRANCH  11  12
ENDBRANCH  10  11
ENDBRANCH   1  10
TORSDOF 12
ENDMDL
MODEL 2
REMARK VINA RESULT:    -3.669      3.764      4.755
REMARK INTER + INTRA:          -8.044
REMARK INTER:                  -6.846
REMARK INTRA:                  -1.199
REMARK UNBOUND:                -1.801
REMARK SMILES CCCCCCCCCCCCCC(=O)[O-]
REMARK SMILES IDX 8 1 9 2 10 3 11 4 12 5 13 6 14 7 15 8 16 9 7 10 6 11 5 12
REMARK SMILES IDX 4 13 3 14 2 15 1 16
REMARK H PARENT
REMARK Flexibility Score: inf
ROOT
ATOM      1  C   UNL     1      27.625  26.136 -16.515  1.00  0.00     0.000 C 
ENDROOT
BRANCH   1   2
ATOM      2  C   UNL     1      28.192  27.435 -15.924  1.00  0.00     0.000 C 
BRANCH   2   3
ATOM      3  C   UNL     1      29.305  28.004 -16.816  1.00  0.00     0.000 C 
BRANCH   3   4
ATOM      4  C   UNL     1      28.888  29.291 -17.551  1.00  0.00     0.000 C 
BRANCH   4   5
ATOM      5  C   UNL     1      27.406  29.687 -17.386  1.00  0.00     0.006 C 
BRANCH   5   6
ATOM      6  C   UNL     1      26.584  29.634 -18.683  1.00  0.00     0.053 C 
BRANCH   6   7
ATOM      7  C   UNL     1      26.730  30.888 -19.490  1.00  0.00     0.041 C 
ATOM      8  O   UNL     1      26.003  31.887 -19.246  1.00  0.00    -0.550 OA
ATOM      9  O   UNL     1      27.645  30.940 -20.533  1.00  0.00    -0.550 OA
ENDBRANCH   6   7
ENDBRANCH   5   6
ENDBRANCH   4   5
ENDBRANCH   3   4
ENDBRANCH   2   3
ENDBRANCH   1   2
BRANCH   1  10
ATOM     10  C   UNL     1      27.317  25.081 -15.440  1.00  0.00     0.000 C 
BRANCH  10  11
ATOM     11  C   UNL     1      27.777  23.671 -15.844  1.00  0.00    -0.000 C 
BRANCH  11  12
ATOM     12  C   UNL     1      29.256  23.672 -16.246  1.00  0.00    -0.000 C 
BRANCH  12  13
ATOM     13  C   UNL     1      29.458  22.993 -17.606  1.00  0.00    -0.000 C 
BRANCH  13  14
ATOM     14  C   UNL     1      29.411  24.019 -18.745  1.00  0.00    -0.000 C 
BRANCH  14  15
ATOM     15  C   UNL     1      28.462  23.561 -19.859  1.00  0.00    -0.003 C 
ATOM     16  C   UNL     1      27.024  23.978 -19.562  1.00  0.00     0.004 C 
ENDBRANCH  14  15
ENDBRANCH  13  14
ENDBRANCH  12  13
ENDBRANCH  11  12
ENDBRANCH  10  11
ENDBRANCH   1  10
TORSDOF 12
ENDMDL
MODEL 3
REMARK VINA RESULT:    -3.664      2.996      4.189
REMARK INTER + INTRA:          -8.036
REMARK INTER:                  -6.555
REMARK INTRA:                  -1.481
REMARK UNBOUND:                -1.801
REMARK SMILES CCCCCCCCCCCCCC(=O)[O-]
REMARK SMILES IDX 8 1 9 2 10 3 11 4 12 5 13 6 14 7 15 8 16 9 7 10 6 11 5 12
REMARK SMILES IDX 4 13 3 14 2 15 1 16
REMARK H PARENT
REMARK Flexibility Score: inf
ROOT
ATOM      1  C   UNL     1      29.011  26.700 -13.482  1.00  0.00     0.000 C 
ENDROOT
BRANCH   1   2
ATOM      2  C   UNL     1      30.223  26.098 -14.208  1.00  0.00     0.000 C 
BRANCH   2   3
ATOM      3  C   UNL     1      30.731  27.046 -15.306  1.00  0.00     0.000 C 
BRANCH   3   4
ATOM      4  C   UNL     1      29.795  27.110 -16.526  1.00  0.00     0.000 C 
BRANCH   4   5
ATOM      5  C   UNL     1      29.165  28.493 -16.794  1.00  0.00     0.006 C 
BRANCH   5   6
ATOM      6  C   UNL     1      27.708  28.446 -17.282  1.00  0.00     0.053 C 
BRANCH   6   7
ATOM      7  C   UNL     1      27.242  29.780 -17.780  1.00  0.00     0.041 C 
ATOM      8  O   UNL     1      26.603  30.553 -17.018  1.00  0.00    -0.550 OA
ATOM      9  O   UNL     1      27.483  30.154 -19.096  1.00  0.00    -0.550 OA
ENDBRANCH   6   7
ENDBRANCH   5   6
ENDBRANCH   4   5
ENDBRANCH   3   4
ENDBRANCH   2   3
ENDBRANCH   1   2
BRANCH   1  10
ATOM     10  C   UNL     1      27.816  25.734 -13.423  1.00  0.00     0.000 C 
BRANCH  10  11
ATOM     11  C   UNL     1      26.914  25.831 -14.663  1.00  0.00    -0.000 C 
BRANCH  11  12
ATOM     12  C   UNL     1      27.232  24.712 -15.661  1.00  0.00    -0.000 C 
BRANCH  12  13
ATOM     13  C   UNL     1      26.523  24.950 -17.000  1.00  0.00    -0.000 C 
BRANCH  13  14
ATOM     14  C   UNL     1      27.488  24.758 -18.176  1.00  0.00    -0.000 C 
BRANCH  14  15
ATOM     15  C   UNL     1      26.747  24.241 -19.415  1.00  0.00    -0.003 C 
ATOM     16  C   UNL     1      25.854  25.324 -20.015  1.00  0.00     0.004 C 
ENDBRANCH  14  15
ENDBRANCH  13  14
ENDBRANCH  12  13
ENDBRANCH  11  12
ENDBRANCH  10  11
ENDBRANCH   1  10
TORSDOF 12
ENDMDL
MODEL 4
REMARK VINA RESULT:    -3.584      1.040      3.779
REMARK INTER + INTRA:          -7.899
REMARK INTER:                  -6.155
REMARK INTRA:                  -1.744
REMARK UNBOUND:                -1.801
REMARK SMILES CCCCCCCCCCCCCC(=O)[O-]
REMARK SMILES IDX 8 1 9 2 10 3 11 4 12 5 13 6 14 7 15 8 16 9 7 10 6 11 5 12
REMARK SMILES IDX 4 13 3 14 2 15 1 16
REMARK H PARENT
REMARK Flexibility Score: inf
ROOT
ATOM      1  C   UNL     1      27.973  23.414 -19.114  1.00  0.00     0.000 C 
ENDROOT
BRANCH   1   2
ATOM      2  C   UNL     1      26.883  24.226 -19.830  1.00  0.00     0.000 C 
BRANCH   2   3
ATOM      3  C   UNL     1      26.008  24.981 -18.818  1.00  0.00     0.000 C 
BRANCH   3   4
ATOM      4  C   UNL     1      26.801  25.495 -17.602  1.00  0.00     0.000 C 
BRANCH   4   5
ATOM      5  C   UNL     1      26.295  24.995 -16.233  1.00  0.00     0.006 C 
BRANCH   5   6
ATOM      6  C   UNL     1      27.285  25.197 -15.075  1.00  0.00     0.053 C 
BRANCH   6   7
ATOM      7  C   UNL     1      27.419  23.966 -14.232  1.00  0.00     0.041 C 
ATOM      8  O   UNL     1      27.477  24.059 -12.977  1.00  0.00    -0.550 OA
ATOM      9  O   UNL     1      27.513  22.718 -14.835  1.00  0.00    -0.550 OA
ENDBRANCH   6   7
ENDBRANCH   5   6
ENDBRANCH   4   5
ENDBRANCH   3   4
ENDBRANCH   2   3
ENDBRANCH   1   2
BRANCH   1  10
ATOM     10  C   UNL     1      29.356  23.575 -19.767  1.00  0.00     0.000 C 
BRANCH  10  11
ATOM     11  C   UNL     1      30.450  23.950 -18.755  1.00  0.00    -0.000 C 
BRANCH  11  12
ATOM     12  C   UNL     1      29.920  23.867 -17.319  1.00  0.00    -0.000 C 
BRANCH  12  13
ATOM     13  C   UNL     1      30.645  24.862 -16.406  1.00  0.00    -0.000 C 
BRANCH  13  14
ATOM     14  C   UNL     1      30.768  26.236 -17.077  1.00  0.00    -0.000 C 
BRANCH  14  15
ATOM     15  C   UNL     1      30.300  27.352 -16.135  1.00  0.00    -0.003 C 
ATOM     16  C   UNL     1      29.127  28.122 -16.733  1.00  0.00     0.004 C 
ENDBRANCH  14  15
ENDBRANCH  13  14
ENDBRANCH  12  13
ENDBRANCH  11  12
ENDBRANCH  10  11
ENDBRANCH   1  10
TORSDOF 12
ENDMDL
MODEL 5
REMARK VINA RESULT:    -3.571      2.042      4.518
REMARK INTER + INTRA:          -7.877
REMARK INTER:                  -5.780
REMARK INTRA:                  -2.097
REMARK UNBOUND:                -1.801
REMARK SMILES CCCCCCCCCCCCCC(=O)[O-]
REMARK SMILES IDX 8 1 9 2 10 3 11 4 12 5 13 6 14 7 15 8 16 9 7 10 6 11 5 12
REMARK SMILES IDX 4 13 3 14 2 15 1 16
REMARK H PARENT
REMARK Flexibility Score: inf
ROOT
ATOM      1  C   UNL     1      31.416  25.955 -16.197  1.00  0.00     0.000 C 
ENDROOT
BRANCH   1   2
ATOM      2  C   UNL     1      31.040  24.542 -15.729  1.00  0.00     0.000 C 
BRANCH   2   3
ATOM      3  C   UNL     1      30.113  23.856 -16.745  1.00  0.00     0.000 C 
BRANCH   3   4
ATOM      4  C   UNL     1      30.322  24.359 -18.185  1.00  0.00     0.000 C 
BRANCH   4   5
ATOM      5  C   UNL     1      29.287  23.853 -19.211  1.00  0.00     0.006 C 
BRANCH   5   6
ATOM      6  C   UNL     1      27.919  23.491 -18.611  1.00  0.00     0.053 C 
BRANCH   6   7
ATOM      7  C   UNL     1      26.796  24.183 -19.322  1.00  0.00     0.041 C 
ATOM      8  O   UNL     1      26.658  24.053 -20.567  1.00  0.00    -0.550 OA
ATOM      9  O   UNL     1      25.922  24.997 -18.613  1.00  0.00    -0.550 OA
ENDBRANCH   6   7
ENDBRANCH   5   6
ENDBRANCH   4   5
ENDBRANCH   3   4
ENDBRANCH   2   3
ENDBRANCH   1   2
BRANCH   1  10
ATOM     10  C   UNL     1      30.488  27.036 -15.621  1.00  0.00     0.000 C 
BRANCH  10  11
ATOM     11  C   UNL     1      29.582  27.670 -16.689  1.00  0.00    -0.000 C 
BRANCH  11  12
ATOM     12  C   UNL     1      28.162  27.098 -16.612  1.00  0.00    -0.000 C 
BRANCH  12  13
ATOM     13  C   UNL     1      27.844  26.602 -15.197  1.00  0.00    -0.000 C 
BRANCH  13  14
ATOM     14  C   UNL     1      26.860  25.426 -15.233  1.00  0.00    -0.000 C 
BRANCH  14  15
ATOM     15  C   UNL     1      27.373  24.255 -14.387  1.00  0.00    -0.003 C 
ATOM     16  C   UNL     1      28.107  24.753 -13.145  1.00  0.00     0.004 C 
ENDBRANCH  14  15
ENDBRANCH  13  14
ENDBRANCH  12  13
ENDBRANCH  11  12
ENDBRANCH  10  11
ENDBRANCH   1  10
TORSDOF 12
ENDMDL
MODEL 6
REMARK VINA RESULT:    -3.571      2.731      5.233
REMARK INTER + INTRA:          -7.876
REMARK INTER:                  -6.192
REMARK INTRA:                  -1.684
REMARK UNBOUND:                -1.801
REMARK SMILES CCCCCCCCCCCCCC(=O)[O-]
REMARK SMILES IDX 8 1 9 2 10 3 11 4 12 5 13 6 14 7 15 8 16 9 7 10 6 11 5 12
REMARK SMILES IDX 4 13 3 14 2 15 1 16
REMARK H PARENT
REMARK Flexibility Score: inf
ROOT
ATOM      1  C   UNL     1      29.446  27.182 -16.830  1.00  0.00     0.000 C 
ENDROOT
BRANCH   1   2
ATOM      2  C   UNL     1      27.963  27.153 -16.433  1.00  0.00     0.000 C 
BRANCH   2   3
ATOM      3  C   UNL     1      27.282  25.874 -16.944  1.00  0.00     0.000 C 
BRANCH   3   4
ATOM      4  C   UNL     1      28.197  24.638 -16.878  1.00  0.00     0.000 C 
BRANCH   4   5
ATOM      5  C   UNL     1      27.945  23.579 -17.972  1.00  0.00     0.006 C 
BRANCH   5   6
ATOM      6  C   UNL     1      28.283  24.042 -19.398  1.00  0.00     0.053 C 
BRANCH   6   7
ATOM      7  C   UNL     1      27.080  24.027 -20.290  1.00  0.00     0.041 C 
ATOM      8  O   UNL     1      27.017  23.221 -21.256  1.00  0.00    -0.550 OA
ATOM      9  O   UNL     1      26.045  24.928 -20.076  1.00  0.00    -0.550 OA
ENDBRANCH   6   7
ENDBRANCH   5   6
ENDBRANCH   4   5
ENDBRANCH   3   4
ENDBRANCH   2   3
ENDBRANCH   1   2
BRANCH   1  10
ATOM     10  C   UNL     1      30.373  27.474 -15.639  1.00  0.00     0.000 C 
BRANCH  10  11
ATOM     11  C   UNL     1      31.078  26.213 -15.114  1.00  0.00    -0.000 C 
BRANCH  11  12
ATOM     12  C   UNL     1      30.304  25.601 -13.941  1.00  0.00    -0.000 C 
BRANCH  12  13
ATOM     13  C   UNL     1      29.918  26.673 -12.916  1.00  0.00    -0.000 C 
BRANCH  13  14
ATOM     14  C   UNL     1      28.408  26.660 -12.646  1.00  0.00    -0.000 C 
BRANCH  14  15
ATOM     15  C   UNL     1      27.757  25.400 -13.229  1.00  0.00    -0.003 C 
ATOM     16  C   UNL     1      27.014  24.615 -12.151  1.00  0.00     0.004 C 
ENDBRANCH  14  15
ENDBRANCH  13  14
ENDBRANCH  12  13
ENDBRANCH  11  12
ENDBRANCH  10  11
ENDBRANCH   1  10
TORSDOF 12
ENDMDL
MODEL 7
REMARK VINA RESULT:    -3.568      2.385      4.957
REMARK INTER + INTRA:          -7.872
REMARK INTER:                  -5.997
REMARK INTRA:                  -1.875
REMARK UNBOUND:                -1.801
REMARK SMILES CCCCCCCCCCCCCC(=O)[O-]
REMARK SMILES IDX 8 1 9 2 10 3 11 4 12 5 13 6 14 7 15 8 16 9 7 10 6 11 5 12
REMARK SMILES IDX 4 13 3 14 2 15 1 16
REMARK H PARENT
REMARK Flexibility Score: inf
ROOT
ATOM      1  C   UNL     1      28.033  26.714 -15.123  1.00  0.00     0.000 C 
ENDROOT
BRANCH   1   2
ATOM      2  C   UNL     1      27.281  25.381 -15.244  1.00  0.00     0.000 C 
BRANCH   2   3
ATOM      3  C   UNL     1      28.260  24.198 -15.273  1.00  0.00     0.000 C 
BRANCH   3   4
ATOM      4  C   UNL     1      28.253  23.444 -16.615  1.00  0.00     0.000 C 
BRANCH   4   5
ATOM      5  C   UNL     1      27.570  24.189 -17.781  1.00  0.00     0.006 C 
BRANCH   5   6
ATOM      6  C   UNL     1      28.043  23.758 -19.178  1.00  0.00     0.053 C 
BRANCH   6   7
ATOM      7  C   UNL     1      27.003  24.014 -20.225  1.00  0.00     0.041 C 
ATOM      8  O   UNL     1      26.120  24.893 -20.040  1.00  0.00    -0.550 OA
ATOM      9  O   UNL     1      26.989  23.259 -21.390  1.00  0.00    -0.550 OA
ENDBRANCH   6   7
ENDBRANCH   5   6
ENDBRANCH   4   5
ENDBRANCH   3   4
ENDBRANCH   2   3
ENDBRANCH   1   2
BRANCH   1  10
ATOM     10  C   UNL     1      28.196  27.428 -16.475  1.00  0.00     0.000 C 
BRANCH  10  11
ATOM     11  C   UNL     1      29.659  27.777 -16.788  1.00  0.00    -0.000 C 
BRANCH  11  12
ATOM     12  C   UNL     1      30.584  27.339 -15.647  1.00  0.00    -0.000 C 
BRANCH  12  13
ATOM     13  C   UNL     1      31.472  26.166 -16.077  1.00  0.00    -0.000 C 
BRANCH  13  14
ATOM     14  C   UNL     1      31.577  26.086 -17.605  1.00  0.00    -0.000 C 
BRANCH  14  15
ATOM     15  C   UNL     1      31.466  24.636 -18.089  1.00  0.00    -0.003 C 
ATOM     16  C   UNL     1      31.966  23.661 -17.026  1.00  0.00     0.004 C 
ENDBRANCH  14  15
ENDBRANCH  13  14
ENDBRANCH  12  13
ENDBRANCH  11  12
ENDBRANCH  10  11
ENDBRANCH   1  10
TORSDOF 12
ENDMDL
MODEL 8
REMARK VINA RESULT:    -3.566      2.514      4.585
REMARK INTER + INTRA:          -7.869
REMARK INTER:                  -6.743
REMARK INTRA:                  -1.125
REMARK UNBOUND:                -1.801
REMARK SMILES CCCCCCCCCCCCCC(=O)[O-]
REMARK SMILES IDX 8 1 9 2 10 3 11 4 12 5 13 6 14 7 15 8 16 9 7 10 6 11 5 12
REMARK SMILES IDX 4 13 3 14 2 15 1 16
REMARK H PARENT
REMARK Flexibility Score: inf
ROOT
ATOM      1  C   UNL     1      29.798  24.665 -15.158  1.00  0.00     0.000 C 
ENDROOT
BRANCH   1   2
ATOM      2  C   UNL     1      28.408  25.156 -14.728  1.00  0.00     0.000 C 
BRANCH   2   3
ATOM      3  C   UNL     1      27.311  24.200 -15.220  1.00  0.00     0.000 C 
BRANCH   3   4
ATOM      4  C   UNL     1      26.289  24.882 -16.147  1.00  0.00     0.000 C 
BRANCH   4   5
ATOM      5  C   UNL     1      26.868  25.434 -17.466  1.00  0.00     0.006 C 
BRANCH   5   6
ATOM      6  C   UNL     1      26.184  24.902 -18.735  1.00  0.00     0.053 C 
BRANCH   6   7
ATOM      7  C   UNL     1      27.063  23.948 -19.486  1.00  0.00     0.041 C 
ATOM      8  O   UNL     1      26.997  23.880 -20.742  1.00  0.00    -0.550 OA
ATOM      9  O   UNL     1      27.929  23.110 -18.795  1.00  0.00    -0.550 OA
ENDBRANCH   6   7
ENDBRANCH   5   6
ENDBRANCH   4   5
ENDBRANCH   3   4
ENDBRANCH   2   3
ENDBRANCH   1   2
BRANCH   1  10
ATOM     10  C   UNL     1      30.746  25.818 -15.525  1.00  0.00     0.000 C 
BRANCH  10  11
ATOM     11  C   UNL     1      30.036  27.180 -15.567  1.00  0.00    -0.000 C 
BRANCH  11  12
ATOM     12  C   UNL     1      29.858  27.661 -17.012  1.00  0.00    -0.000 C 
BRANCH  12  13
ATOM     13  C   UNL     1      29.122  29.005 -17.058  1.00  0.00    -0.000 C 
BRANCH  13  14
ATOM     14  C   UNL     1      27.651  28.814 -17.449  1.00  0.00    -0.000 C 
BRANCH  14  15
ATOM     15  C   UNL     1      26.936  30.165 -17.574  1.00  0.00    -0.003 C 
ATOM     16  C   UNL     1      26.562  30.458 -19.024  1.00  0.00     0.004 C 
ENDBRANCH  14  15
ENDBRANCH  13  14
ENDBRANCH  12  13
ENDBRANCH  11  12
ENDBRANCH  10  11
ENDBRANCH   1  10
TORSDOF 12
ENDMDL
MODEL 9
REMARK VINA RESULT:    -3.562      2.564      5.243
REMARK INTER + INTRA:          -7.861
REMARK INTER:                  -5.827
REMARK INTRA:                  -2.034
REMARK UNBOUND:                -1.801
REMARK SMILES CCCCCCCCCCCCCC(=O)[O-]
REMARK SMILES IDX 8 1 9 2 10 3 11 4 12 5 13 6 14 7 15 8 16 9 7 10 6 11 5 12
REMARK SMILES IDX 4 13 3 14 2 15 1 16
REMARK H PARENT
REMARK Flexibility Score: inf
ROOT
ATOM      1  C   UNL     1      28.370  23.889 -14.627  1.00  0.00     0.000 C 
ENDROOT
BRANCH   1   2
ATOM      2  C   UNL     1      28.473  22.707 -15.602  1.00  0.00     0.000 C 
BRANCH   2   3
ATOM      3  C   UNL     1      29.691  22.861 -16.525  1.00  0.00     0.000 C 
BRANCH   3   4
ATOM      4  C   UNL     1      29.317  23.327 -17.943  1.00  0.00     0.000 C 
BRANCH   4   5
ATOM      5  C   UNL     1      27.825  23.182 -18.307  1.00  0.00     0.006 C 
BRANCH   5   6
ATOM      6  C   UNL     1      27.122  24.503 -18.658  1.00  0.00     0.053 C 
BRANCH   6   7
ATOM      7  C   UNL     1      26.563  24.488 -20.048  1.00  0.00     0.041 C 
ATOM      8  O   UNL     1      25.620  25.262 -20.360  1.00  0.00    -0.550 OA
ATOM      9  O   UNL     1      27.062  23.595 -20.987  1.00  0.00    -0.550 OA
ENDBRANCH   6   7
ENDBRANCH   5   6
ENDBRANCH   4   5
ENDBRANCH   3   4
ENDBRANCH   2   3
ENDBRANCH   1   2
BRANCH   1  10
ATOM     10  C   UNL     1      27.221  24.848 -14.976  1.00  0.00     0.000 C 
BRANCH  10  11
ATOM     11  C   UNL     1      27.611  26.325 -14.811  1.00  0.00    -0.000 C 
BRANCH  11  12
ATOM     12  C   UNL     1      27.850  26.985 -16.174  1.00  0.00    -0.000 C 
BRANCH  12  13
ATOM     13  C   UNL     1      29.252  27.601 -16.249  1.00  0.00    -0.000 C 
BRANCH  13  14
ATOM     14  C   UNL     1      30.208  26.699 -17.040  1.00  0.00    -0.000 C 
BRANCH  14  15
ATOM     15  C   UNL     1      31.283  26.101 -16.125  1.00  0.00    -0.003 C 
ATOM     16  C   UNL     1      31.272  26.769 -14.753  1.00  0.00     0.004 C 
ENDBRANCH  14  15
ENDBRANCH  13  14
ENDBRANCH  12  13
ENDBRANCH  11  12
ENDBRANCH  10  11
ENDBRANCH   1  10
TORSDOF 12
ENDMDL
