MODEL 1
REMARK VINA RESULT:    -5.991      0.000      0.000
REMARK INTER + INTRA:          -6.166
REMARK INTER:                  -6.166
REMARK INTRA:                   0.000
REMARK UNBOUND:                 0.000
REMARK SMILES O=c1ccc2ccc(O)cc2o1
REMARK SMILES IDX 6 1 7 2 8 3 10 4 11 5 5 6 4 7 3 8 2 9 1 10 12 11 9 12
REMARK H PARENT 9 13
REMARK Flexibility Score: inf
ROOT
ATOM      1  C   UNL     1       8.494   2.571  11.301  1.00  0.00     0.016 A 
ATOM      2  C   UNL     1       8.071   1.366  10.734  1.00  0.00     0.047 A 
ATOM      3  C   UNL     1       7.001   1.345   9.831  1.00  0.00     0.119 A 
ATOM      4  C   UNL     1       6.349   2.541   9.491  1.00  0.00     0.094 A 
ATOM      5  C   UNL     1       6.765   3.752  10.055  1.00  0.00     0.142 A 
ATOM      6  C   UNL     1       7.846   3.768  10.965  1.00  0.00     0.018 A 
ATOM      7  C   UNL     1       8.239   4.994  11.511  1.00  0.00     0.019 A 
ATOM      8  C   UNL     1       7.561   6.155  11.144  1.00  0.00     0.094 A 
ATOM      9  C   UNL     1       6.500   6.064  10.236  1.00  0.00     0.336 A 
ATOM     10  O   UNL     1       5.875   7.101   9.892  1.00  0.00    -0.246 OA
ATOM     11  O   UNL     1       6.145   4.884   9.731  1.00  0.00    -0.423 OA
ENDROOT
BRANCH   3  12
ATOM     12  O   UNL     1       6.594   0.134   9.277  1.00  0.00    -0.508 OA
ATOM     13  H   UNL     1       7.176  -0.369   8.617  1.00  0.00     0.293 HD
ENDBRANCH   3  12
TORSDOF 1
ENDMDL
MODEL 2
REMARK VINA RESULT:    -5.477      1.468      2.239
REMARK INTER + INTRA:          -5.637
REMARK INTER:                  -5.637
REMARK INTRA:                   0.000
REMARK UNBOUND:                 0.000
REMARK SMILES O=c1ccc2ccc(O)cc2o1
REMARK SMILES IDX 6 1 7 2 8 3 10 4 11 5 5 6 4 7 3 8 2 9 1 10 12 11 9 12
REMARK H PARENT 9 13
REMARK Flexibility Score: inf
ROOT
ATOM      1  C   UNL     1       6.633   2.132   9.563  1.00  0.00     0.016 A 
ATOM      2  C   UNL     1       7.417   1.120  10.125  1.00  0.00     0.047 A 
ATOM      3  C   UNL     1       8.370   1.426  11.104  1.00  0.00     0.119 A 
ATOM      4  C   UNL     1       8.541   2.754  11.524  1.00  0.00     0.094 A 
ATOM      5  C   UNL     1       7.761   3.773  10.966  1.00  0.00     0.142 A 
ATOM      6  C   UNL     1       6.800   3.460   9.979  1.00  0.00     0.018 A 
ATOM      7  C   UNL     1       6.036   4.500   9.440  1.00  0.00     0.019 A 
ATOM      8  C   UNL     1       6.241   5.803   9.889  1.00  0.00     0.094 A 
ATOM      9  C   UNL     1       7.211   6.039  10.870  1.00  0.00     0.336 A 
ATOM     10  O   UNL     1       7.412   7.209  11.288  1.00  0.00    -0.246 OA
ATOM     11  O   UNL     1       7.925   5.031  11.366  1.00  0.00    -0.423 OA
ENDROOT
BRANCH   3  12
ATOM     12  O   UNL     1       9.142   0.404  11.652  1.00  0.00    -0.508 OA
ATOM     13  H   UNL     1       8.916  -0.007  12.551  1.00  0.00     0.293 HD
ENDBRANCH   3  12
TORSDOF 1
ENDMDL
MODEL 3
REMARK VINA RESULT:    -5.421      0.756      4.230
REMARK INTER + INTRA:          -5.579
REMARK INTER:                  -5.579
REMARK INTRA:                   0.000
REMARK UNBOUND:                 0.000
REMARK SMILES O=c1ccc2ccc(O)cc2o1
REMARK SMILES IDX 6 1 7 2 8 3 10 4 11 5 5 6 4 7 3 8 2 9 1 10 12 11 9 12
REMARK H PARENT 9 13
REMARK Flexibility Score: inf
ROOT
ATOM      1  C   UNL     1       8.222   5.161  11.507  1.00  0.00     0.016 A 
ATOM      2  C   UNL     1       7.562   6.335  11.131  1.00  0.00     0.047 A 
ATOM      3  C   UNL     1       6.520   6.293  10.197  1.00  0.00     0.119 A 
ATOM      4  C   UNL     1       6.134   5.067   9.634  1.00  0.00     0.094 A 
ATOM      5  C   UNL     1       6.789   3.887  10.004  1.00  0.00     0.142 A 
ATOM      6  C   UNL     1       7.840   3.934  10.947  1.00  0.00     0.018 A 
ATOM      7  C   UNL     1       8.475   2.738  11.297  1.00  0.00     0.019 A 
ATOM      8  C   UNL     1       8.057   1.545  10.711  1.00  0.00     0.094 A 
ATOM      9  C   UNL     1       7.009   1.574   9.785  1.00  0.00     0.336 A 
ATOM     10  O   UNL     1       6.616   0.507   9.244  1.00  0.00    -0.246 OA
ATOM     11  O   UNL     1       6.421   2.726   9.469  1.00  0.00    -0.423 OA
ENDROOT
BRANCH   3  12
ATOM     12  O   UNL     1       5.875   7.473   9.835  1.00  0.00    -0.508 OA
ATOM     13  H   UNL     1       6.206   8.043   9.064  1.00  0.00     0.293 HD
ENDBRANCH   3  12
TORSDOF 1
ENDMDL
MODEL 4
REMARK VINA RESULT:    -5.267      1.670      4.750
REMARK INTER + INTRA:          -5.421
REMARK INTER:                  -5.421
REMARK INTRA:                   0.000
REMARK UNBOUND:                 0.000
REMARK SMILES O=c1ccc2ccc(O)cc2o1
REMARK SMILES IDX 6 1 7 2 8 3 10 4 11 5 5 6 4 7 3 8 2 9 1 10 12 11 9 12
REMARK H PARENT 9 13
REMARK Flexibility Score: inf
ROOT
ATOM      1  C   UNL     1       6.038   4.431   9.529  1.00  0.00     0.016 A 
ATOM      2  C   UNL     1       6.246   5.740   9.974  1.00  0.00     0.047 A 
ATOM      3  C   UNL     1       7.248   6.018  10.911  1.00  0.00     0.119 A 
ATOM      4  C   UNL     1       8.050   4.979  11.408  1.00  0.00     0.094 A 
ATOM      5  C   UNL     1       7.849   3.666  10.969  1.00  0.00     0.142 A 
ATOM      6  C   UNL     1       6.837   3.389  10.023  1.00  0.00     0.018 A 
ATOM      7  C   UNL     1       6.660   2.067   9.604  1.00  0.00     0.019 A 
ATOM      8  C   UNL     1       7.481   1.069  10.125  1.00  0.00     0.094 A 
ATOM      9  C   UNL     1       8.463   1.416  11.058  1.00  0.00     0.336 A 
ATOM     10  O   UNL     1       9.214   0.529  11.541  1.00  0.00    -0.246 OA
ATOM     11  O   UNL     1       8.611   2.683  11.441  1.00  0.00    -0.423 OA
ENDROOT
BRANCH   3  12
ATOM     12  O   UNL     1       7.440   7.329  11.342  1.00  0.00    -0.508 OA
ATOM     13  H   UNL     1       6.826   8.079  11.045  1.00  0.00     0.293 HD
ENDBRANCH   3  12
TORSDOF 1
ENDMDL
MODEL 5
REMARK VINA RESULT:    -4.876     17.700     19.591
REMARK INTER + INTRA:          -5.018
REMARK INTER:                  -5.018
REMARK INTRA:                   0.000
REMARK UNBOUND:                 0.000
REMARK SMILES O=c1ccc2ccc(O)cc2o1
REMARK SMILES IDX 6 1 7 2 8 3 10 4 11 5 5 6 4 7 3 8 2 9 1 10 12 11 9 12
REMARK H PARENT 9 13
REMARK Flexibility Score: inf
ROOT
ATOM      1  C   UNL     1      17.939  -8.113  20.028  1.00  0.00     0.016 A 
ATOM      2  C   UNL     1      17.962  -6.718  20.125  1.00  0.00     0.047 A 
ATOM      3  C   UNL     1      18.874  -5.971  19.370  1.00  0.00     0.119 A 
ATOM      4  C   UNL     1      19.771  -6.624  18.510  1.00  0.00     0.094 A 
ATOM      5  C   UNL     1      19.756  -8.019  18.408  1.00  0.00     0.142 A 
ATOM      6  C   UNL     1      18.834  -8.769  19.171  1.00  0.00     0.018 A 
ATOM      7  C   UNL     1      18.843 -10.162  19.047  1.00  0.00     0.019 A 
ATOM      8  C   UNL     1      19.752 -10.765  18.180  1.00  0.00     0.094 A 
ATOM      9  C   UNL     1      20.636  -9.959  17.455  1.00  0.00     0.336 A 
ATOM     10  O   UNL     1      21.466 -10.485  16.667  1.00  0.00    -0.246 OA
ATOM     11  O   UNL     1      20.607  -8.635  17.591  1.00  0.00    -0.423 OA
ENDROOT
BRANCH   3  12
ATOM     12  O   UNL     1      18.881  -4.582  19.480  1.00  0.00    -0.508 OA
ATOM     13  H   UNL     1      19.646  -4.091  19.929  1.00  0.00     0.293 HD
ENDBRANCH   3  12
TORSDOF 1
ENDMDL
MODEL 6
REMARK VINA RESULT:    -4.859      8.512     10.060
REMARK INTER + INTRA:          -5.001
REMARK INTER:                  -5.001
REMARK INTRA:                   0.000
REMARK UNBOUND:                 0.000
REMARK SMILES O=c1ccc2ccc(O)cc2o1
REMARK SMILES IDX 6 1 7 2 8 3 10 4 11 5 5 6 4 7 3 8 2 9 1 10 12 11 9 12
REMARK H PARENT 9 13
REMARK Flexibility Score: inf
ROOT
ATOM      1  C   UNL     1       8.753  -2.869  17.831  1.00  0.00     0.016 A 
ATOM      2  C   UNL     1       8.338  -2.943  16.498  1.00  0.00     0.047 A 
ATOM      3  C   UNL     1       9.120  -2.382  15.481  1.00  0.00     0.119 A 
ATOM      4  C   UNL     1      10.326  -1.740  15.799  1.00  0.00     0.094 A 
ATOM      5  C   UNL     1      10.749  -1.660  17.131  1.00  0.00     0.142 A 
ATOM      6  C   UNL     1       9.958  -2.229  18.154  1.00  0.00     0.018 A 
ATOM      7  C   UNL     1      10.407  -2.133  19.475  1.00  0.00     0.019 A 
ATOM      8  C   UNL     1      11.613  -1.486  19.742  1.00  0.00     0.094 A 
ATOM      9  C   UNL     1      12.344  -0.947  18.678  1.00  0.00     0.336 A 
ATOM     10  O   UNL     1      13.435  -0.358  18.899  1.00  0.00    -0.246 OA
ATOM     11  O   UNL     1      11.894  -1.051  17.429  1.00  0.00    -0.423 OA
ENDROOT
BRANCH   3  12
ATOM     12  O   UNL     1       8.689  -2.466  14.159  1.00  0.00    -0.508 OA
ATOM     13  H   UNL     1       8.464  -3.357  13.731  1.00  0.00     0.293 HD
ENDBRANCH   3  12
TORSDOF 1
ENDMDL
MODEL 7
REMARK VINA RESULT:    -4.767      8.715     10.526
REMARK INTER + INTRA:          -4.906
REMARK INTER:                  -4.906
REMARK INTRA:                   0.000
REMARK UNBOUND:                 0.000
REMARK SMILES O=c1ccc2ccc(O)cc2o1
REMARK SMILES IDX 6 1 7 2 8 3 10 4 11 5 5 6 4 7 3 8 2 9 1 10 12 11 9 12
REMARK H PARENT 9 13
REMARK Flexibility Score: inf
ROOT
ATOM      1  C   UNL     1      10.792  -1.927  18.190  1.00  0.00     0.016 A 
ATOM      2  C   UNL     1      11.051  -1.559  16.866  1.00  0.00     0.047 A 
ATOM      3  C   UNL     1      10.083  -1.759  15.874  1.00  0.00     0.119 A 
ATOM      4  C   UNL     1       8.846  -2.331  16.208  1.00  0.00     0.094 A 
ATOM      5  C   UNL     1       8.579  -2.702  17.531  1.00  0.00     0.142 A 
ATOM      6  C   UNL     1       9.558  -2.498  18.529  1.00  0.00     0.018 A 
ATOM      7  C   UNL     1       9.261  -2.880  19.841  1.00  0.00     0.019 A 
ATOM      8  C   UNL     1       8.019  -3.443  20.125  1.00  0.00     0.094 A 
ATOM      9  C   UNL     1       7.097  -3.615  19.086  1.00  0.00     0.336 A 
ATOM     10  O   UNL     1       5.970  -4.122  19.322  1.00  0.00    -0.246 OA
ATOM     11  O   UNL     1       7.405  -3.243  17.845  1.00  0.00    -0.423 OA
ENDROOT
BRANCH   3  12
ATOM     12  O   UNL     1      10.360  -1.386  14.560  1.00  0.00    -0.508 OA
ATOM     13  H   UNL     1       9.689  -0.869  14.004  1.00  0.00     0.293 HD
ENDBRANCH   3  12
TORSDOF 1
ENDMDL
MODEL 8
REMARK VINA RESULT:    -4.704      8.025      9.932
REMARK INTER + INTRA:          -4.842
REMARK INTER:                  -4.842
REMARK INTRA:                   0.000
REMARK UNBOUND:                 0.000
REMARK SMILES O=c1ccc2ccc(O)cc2o1
REMARK SMILES IDX 6 1 7 2 8 3 10 4 11 5 5 6 4 7 3 8 2 9 1 10 12 11 9 12
REMARK H PARENT 9 13
REMARK Flexibility Score: inf
ROOT
ATOM      1  C   UNL     1       8.863  -2.797  18.609  1.00  0.00     0.016 A 
ATOM      2  C   UNL     1       9.645  -2.137  19.562  1.00  0.00     0.047 A 
ATOM      3  C   UNL     1      10.671  -1.274  19.160  1.00  0.00     0.119 A 
ATOM      4  C   UNL     1      10.918  -1.068  17.794  1.00  0.00     0.094 A 
ATOM      5  C   UNL     1      10.141  -1.724  16.834  1.00  0.00     0.142 A 
ATOM      6  C   UNL     1       9.105  -2.594  17.243  1.00  0.00     0.018 A 
ATOM      7  C   UNL     1       8.346  -3.236  16.260  1.00  0.00     0.019 A 
ATOM      8  C   UNL     1       8.628  -2.999  14.916  1.00  0.00     0.094 A 
ATOM      9  C   UNL     1       9.668  -2.124  14.584  1.00  0.00     0.336 A 
ATOM     10  O   UNL     1       9.938  -1.898  13.375  1.00  0.00    -0.246 OA
ATOM     11  O   UNL     1      10.377  -1.527  15.539  1.00  0.00    -0.423 OA
ENDROOT
BRANCH   3  12
ATOM     12  O   UNL     1      11.440  -0.627  20.125  1.00  0.00    -0.508 OA
ATOM     13  H   UNL     1      11.022  -0.243  20.965  1.00  0.00     0.293 HD
ENDBRANCH   3  12
TORSDOF 1
ENDMDL
MODEL 9
REMARK VINA RESULT:    -4.596      9.413     10.995
REMARK INTER + INTRA:          -4.731
REMARK INTER:                  -4.731
REMARK INTRA:                   0.000
REMARK UNBOUND:                 0.000
REMARK SMILES O=c1ccc2ccc(O)cc2o1
REMARK SMILES IDX 6 1 7 2 8 3 10 4 11 5 5 6 4 7 3 8 2 9 1 10 12 11 9 12
REMARK H PARENT 9 13
REMARK Flexibility Score: inf
ROOT
ATOM      1  C   UNL     1       9.791  -2.759  18.224  1.00  0.00     0.016 A 
ATOM      2  C   UNL     1       8.804  -1.868  17.791  1.00  0.00     0.047 A 
ATOM      3  C   UNL     1       9.102  -0.511  17.623  1.00  0.00     0.119 A 
ATOM      4  C   UNL     1      10.396  -0.039  17.889  1.00  0.00     0.094 A 
ATOM      5  C   UNL     1      11.390  -0.924  18.323  1.00  0.00     0.142 A 
ATOM      6  C   UNL     1      11.086  -2.293  18.491  1.00  0.00     0.018 A 
ATOM      7  C   UNL     1      12.100  -3.152  18.926  1.00  0.00     0.019 A 
ATOM      8  C   UNL     1      13.371  -2.638  19.178  1.00  0.00     0.094 A 
ATOM      9  C   UNL     1      13.600  -1.271  18.989  1.00  0.00     0.336 A 
ATOM     10  O   UNL     1      14.740  -0.787  19.211  1.00  0.00    -0.246 OA
ATOM     11  O   UNL     1      12.617  -0.474  18.574  1.00  0.00    -0.423 OA
ENDROOT
BRANCH   3  12
ATOM     12  O   UNL     1       8.105   0.362  17.191  1.00  0.00    -0.508 OA
ATOM     13  H   UNL     1       8.188   0.871  16.319  1.00  0.00     0.293 HD
ENDBRANCH   3  12
TORSDOF 1
ENDMDL
