MODEL 1
REMARK VINA RESULT:    12.429      0.000      0.000
REMARK INTER + INTRA:          20.867
REMARK INTER:                  18.968
REMARK INTRA:                   1.899
REMARK UNBOUND:                 1.899
REMARK SMILES OC[C@@H]1O[C@](CO)(O[C@H]2O[C@@H](CO)[C@@H](O)[C@H](O)[C@H]2O)[C@H](O)[C@@H]1O
REMARK SMILES IDX 8 1 9 2 11 3 14 4 10 5 16 6 18 7 12 8 13 9 15 11 17 13 19 15
REMARK SMILES IDX 5 17 20 18 4 19 22 20 3 21 6 22 7 23 21 25 23 27 2 29 1 30
REMARK H PARENT 13 10 15 12 17 14 19 16 7 24 21 26 23 28 1 31
REMARK Flexibility Score: inf
ROOT
ATOM      1  O   UNL     1      27.207   4.215  41.704  1.00  0.00    -0.313 OA
ENDROOT
BRANCH   1   2
ATOM      2  C   UNL     1      28.624   4.322  41.652  1.00  0.00     0.285 C 
ATOM      3  C   UNL     1      28.783   4.483  39.262  1.00  0.00     0.178 C 
ATOM      4  C   UNL     1      29.121   5.996  39.344  1.00  0.00     0.177 C 
ATOM      5  O   UNL     1      29.124   3.763  40.443  1.00  0.00    -0.341 OA
ATOM      6  C   UNL     1      28.603   6.639  40.640  1.00  0.00     0.179 C 
ATOM      7  C   UNL     1      29.063   5.791  41.830  1.00  0.00     0.202 C 
BRANCH   3   8
ATOM      8  C   UNL     1      27.379   4.121  38.721  1.00  0.00     0.191 C 
BRANCH   8   9
ATOM      9  O   UNL     1      27.431   3.157  37.707  1.00  0.00    -0.394 OA
ATOM     10  H   UNL     1      26.735   3.411  37.047  1.00  0.00     0.210 HD
ENDBRANCH   8   9
ENDBRANCH   3   8
BRANCH   4  11
ATOM     11  O   UNL     1      28.687   6.690  38.199  1.00  0.00    -0.387 OA
ATOM     12  H   UNL     1      27.706   6.568  38.116  1.00  0.00     0.211 HD
ENDBRANCH   4  11
BRANCH   6  13
ATOM     13  O   UNL     1      29.125   7.939  40.745  1.00  0.00    -0.387 OA
ATOM     14  H   UNL     1      29.812   8.034  40.036  1.00  0.00     0.211 HD
ENDBRANCH   6  13
BRANCH   7  15
ATOM     15  O   UNL     1      28.524   6.321  43.014  1.00  0.00    -0.385 OA
ATOM     16  H   UNL     1      27.800   6.944  42.747  1.00  0.00     0.211 HD
ENDBRANCH   7  15
ENDBRANCH   1   2
BRANCH   1  17
ATOM     17  C   UNL     1      26.686   2.947  42.106  1.00  0.00     0.224 C 
ATOM     18  C   UNL     1      25.210   2.994  42.568  1.00  0.00     0.208 C 
ATOM     19  O   UNL     1      27.446   2.542  43.230  1.00  0.00    -0.337 OA
ATOM     20  C   UNL     1      25.168   1.904  43.605  1.00  0.00     0.180 C 
ATOM     21  C   UNL     1      26.591   1.933  44.177  1.00  0.00     0.179 C 
BRANCH  17  22
ATOM     22  C   UNL     1      26.941   1.875  41.008  1.00  0.00     0.225 C 
BRANCH  22  23
ATOM     23  O   UNL     1      28.252   1.917  40.517  1.00  0.00    -0.391 OA
ATOM     24  H   UNL     1      28.654   2.752  40.871  1.00  0.00     0.210 HD
ENDBRANCH  22  23
ENDBRANCH  17  22
BRANCH  18  25
ATOM     25  O   UNL     1      24.922   4.235  43.166  1.00  0.00    -0.385 OA
ATOM     26  H   UNL     1      25.650   4.858  42.904  1.00  0.00     0.211 HD
ENDBRANCH  18  25
BRANCH  20  27
ATOM     27  O   UNL     1      24.166   2.131  44.564  1.00  0.00    -0.387 OA
ATOM     28  H   UNL     1      24.632   2.382  45.403  1.00  0.00     0.211 HD
ENDBRANCH  20  27
BRANCH  21  29
ATOM     29  C   UNL     1      26.722   2.691  45.509  1.00  0.00     0.191 C 
BRANCH  29  30
ATOM     30  O   UNL     1      26.139   1.953  46.548  1.00  0.00    -0.394 OA
ATOM     31  H   UNL     1      26.524   1.041  46.487  1.00  0.00     0.210 HD
ENDBRANCH  29  30
ENDBRANCH  21  29
ENDBRANCH   1  17
TORSDOF 13
ENDMDL
MODEL 2
REMARK VINA RESULT:    15.073      2.913      5.982
REMARK INTER + INTRA:          24.902
REMARK INTER:                  26.141
REMARK INTRA:                  -1.239
REMARK UNBOUND:                 1.899
REMARK SMILES OC[C@@H]1O[C@](CO)(O[C@H]2O[C@@H](CO)[C@@H](O)[C@H](O)[C@H]2O)[C@H](O)[C@@H]1O
REMARK SMILES IDX 8 1 9 2 11 3 14 4 10 5 16 6 18 7 12 8 13 9 15 11 17 13 19 15
REMARK SMILES IDX 5 17 20 18 4 19 22 20 3 21 6 22 7 23 21 25 23 27 2 29 1 30
REMARK H PARENT 13 10 15 12 17 14 19 16 7 24 21 26 23 28 1 31
REMARK Flexibility Score: inf
ROOT
ATOM      1  O   UNL     1      26.794   4.568  38.276  1.00  0.00    -0.313 OA
ENDROOT
BRANCH   1   2
ATOM      2  C   UNL     1      28.170   4.209  38.241  1.00  0.00     0.285 C 
ATOM      3  C   UNL     1      28.819   5.495  40.162  1.00  0.00     0.178 C 
ATOM      4  C   UNL     1      28.969   4.213  41.022  1.00  0.00     0.177 C 
ATOM      5  O   UNL     1      28.974   5.259  38.765  1.00  0.00    -0.341 OA
ATOM      6  C   UNL     1      28.120   3.049  40.487  1.00  0.00     0.179 C 
ATOM      7  C   UNL     1      28.402   2.880  38.991  1.00  0.00     0.202 C 
BRANCH   3   8
ATOM      8  C   UNL     1      27.611   6.405  40.488  1.00  0.00     0.191 C 
BRANCH   8   9
ATOM      9  O   UNL     1      27.767   7.083  41.702  1.00  0.00    -0.394 OA
ATOM     10  H   UNL     1      27.853   8.045  41.474  1.00  0.00     0.210 HD
ENDBRANCH   8   9
ENDBRANCH   3   8
BRANCH   4  11
ATOM     11  O   UNL     1      28.720   4.466  42.384  1.00  0.00    -0.387 OA
ATOM     12  H   UNL     1      29.573   4.368  42.880  1.00  0.00     0.211 HD
ENDBRANCH   4  11
BRANCH   6  13
ATOM     13  O   UNL     1      28.466   1.875  41.177  1.00  0.00    -0.387 OA
ATOM     14  H   UNL     1      29.439   1.737  41.043  1.00  0.00     0.211 HD
ENDBRANCH   6  13
BRANCH   7  15
ATOM     15  O   UNL     1      27.568   1.876  38.471  1.00  0.00    -0.385 OA
ATOM     16  H   UNL     1      26.747   1.866  39.029  1.00  0.00     0.211 HD
ENDBRANCH   7  15
ENDBRANCH   1   2
BRANCH   1  17
ATOM     17  C   UNL     1      26.083   4.454  37.042  1.00  0.00     0.224 C 
ATOM     18  C   UNL     1      25.185   5.673  36.722  1.00  0.00     0.208 C 
ATOM     19  O   UNL     1      25.218   3.342  37.181  1.00  0.00    -0.337 OA
ATOM     20  C   UNL     1      24.055   5.040  35.955  1.00  0.00     0.180 C 
ATOM     21  C   UNL     1      23.976   3.638  36.574  1.00  0.00     0.179 C 
BRANCH  17  22
ATOM     22  C   UNL     1      27.054   4.099  35.879  1.00  0.00     0.225 C 
BRANCH  22  23
ATOM     23  O   UNL     1      27.232   2.716  35.738  1.00  0.00    -0.391 OA
ATOM     24  H   UNL     1      27.870   2.445  36.448  1.00  0.00     0.210 HD
ENDBRANCH  22  23
ENDBRANCH  17  22
BRANCH  18  25
ATOM     25  O   UNL     1      24.696   6.247  37.909  1.00  0.00    -0.385 OA
ATOM     26  H   UNL     1      24.158   5.549  38.368  1.00  0.00     0.211 HD
ENDBRANCH  18  25
BRANCH  20  27
ATOM     27  O   UNL     1      22.865   5.779  36.070  1.00  0.00    -0.387 OA
ATOM     28  H   UNL     1      22.899   6.231  36.953  1.00  0.00     0.211 HD
ENDBRANCH  20  27
BRANCH  21  29
ATOM     29  C   UNL     1      22.868   3.474  37.627  1.00  0.00     0.191 C 
BRANCH  29  30
ATOM     30  O   UNL     1      21.606   3.589  37.028  1.00  0.00    -0.394 OA
ATOM     31  H   UNL     1      21.758   3.518  36.050  1.00  0.00     0.210 HD
ENDBRANCH  29  30
ENDBRANCH  21  29
ENDBRANCH   1  17
TORSDOF 13
ENDMDL
MODEL 3
REMARK VINA RESULT:    15.387     16.657     18.799
REMARK INTER + INTRA:          25.381
REMARK INTER:                  25.503
REMARK INTRA:                  -0.122
REMARK UNBOUND:                 1.899
REMARK SMILES OC[C@@H]1O[C@](CO)(O[C@H]2O[C@@H](CO)[C@@H](O)[C@H](O)[C@H]2O)[C@H](O)[C@@H]1O
REMARK SMILES IDX 8 1 9 2 11 3 14 4 10 5 16 6 18 7 12 8 13 9 15 11 17 13 19 15
REMARK SMILES IDX 5 17 20 18 4 19 22 20 3 21 6 22 7 23 21 25 23 27 2 29 1 30
REMARK H PARENT 13 10 15 12 17 14 19 16 7 24 21 26 23 28 1 31
REMARK Flexibility Score: inf
ROOT
ATOM      1  O   UNL     1      13.985  15.456  46.451  1.00  0.00    -0.313 OA
ENDROOT
BRANCH   1   2
ATOM      2  C   UNL     1      13.120  14.353  46.209  1.00  0.00     0.285 C 
ATOM      3  C   UNL     1      12.086  14.357  48.376  1.00  0.00     0.178 C 
ATOM      4  C   UNL     1      10.771  14.939  47.794  1.00  0.00     0.177 C 
ATOM      5  O   UNL     1      12.863  13.645  47.416  1.00  0.00    -0.341 OA
ATOM      6  C   UNL     1      11.003  15.708  46.484  1.00  0.00     0.179 C 
ATOM      7  C   UNL     1      11.816  14.826  45.532  1.00  0.00     0.202 C 
BRANCH   3   8
ATOM      8  C   UNL     1      12.936  15.314  49.246  1.00  0.00     0.191 C 
BRANCH   8   9
ATOM      9  O   UNL     1      12.236  15.780  50.365  1.00  0.00    -0.394 OA
ATOM     10  H   UNL     1      11.278  15.586  50.193  1.00  0.00     0.210 HD
ENDBRANCH   8   9
ENDBRANCH   3   8
BRANCH   4  11
ATOM     11  O   UNL     1      10.077  15.711  48.744  1.00  0.00    -0.387 OA
ATOM     12  H   UNL     1      10.121  16.662  48.463  1.00  0.00     0.211 HD
ENDBRANCH   4  11
BRANCH   6  13
ATOM     13  O   UNL     1       9.759  16.017  45.908  1.00  0.00    -0.387 OA
ATOM     14  H   UNL     1       9.223  15.183  45.912  1.00  0.00     0.211 HD
ENDBRANCH   6  13
BRANCH   7  15
ATOM     15  O   UNL     1      12.109  15.549  44.363  1.00  0.00    -0.385 OA
ATOM     16  H   UNL     1      12.585  16.373  44.647  1.00  0.00     0.211 HD
ENDBRANCH   7  15
ENDBRANCH   1   2
BRANCH   1  17
ATOM     17  C   UNL     1      15.294  15.365  45.886  1.00  0.00     0.224 C 
ATOM     18  C   UNL     1      15.870  13.929  45.870  1.00  0.00     0.208 C 
ATOM     19  O   UNL     1      16.143  16.130  46.721  1.00  0.00    -0.337 OA
ATOM     20  C   UNL     1      17.346  14.180  46.025  1.00  0.00     0.180 C 
ATOM     21  C   UNL     1      17.381  15.462  46.866  1.00  0.00     0.179 C 
BRANCH  17  22
ATOM     22  C   UNL     1      15.338  16.047  44.488  1.00  0.00     0.225 C 
BRANCH  22  23
ATOM     23  O   UNL     1      16.198  17.153  44.463  1.00  0.00    -0.391 OA
ATOM     24  H   UNL     1      17.080  16.811  44.165  1.00  0.00     0.210 HD
ENDBRANCH  22  23
ENDBRANCH  17  22
BRANCH  18  25
ATOM     25  O   UNL     1      15.391  13.196  46.971  1.00  0.00    -0.385 OA
ATOM     26  H   UNL     1      14.404  13.304  46.984  1.00  0.00     0.211 HD
ENDBRANCH  18  25
BRANCH  20  27
ATOM     27  O   UNL     1      18.003  13.091  46.625  1.00  0.00    -0.387 OA
ATOM     28  H   UNL     1      18.338  12.522  45.885  1.00  0.00     0.211 HD
ENDBRANCH  20  27
BRANCH  21  29
ATOM     29  C   UNL     1      17.634  15.230  48.365  1.00  0.00     0.191 C 
BRANCH  29  30
ATOM     30  O   UNL     1      18.981  15.465  48.672  1.00  0.00    -0.394 OA
ATOM     31  H   UNL     1      19.387  14.574  48.831  1.00  0.00     0.210 HD
ENDBRANCH  29  30
ENDBRANCH  21  29
ENDBRANCH   1  17
TORSDOF 13
ENDMDL
