MODEL 1
REMARK VINA RESULT:    14.957      0.000      0.000
REMARK INTER + INTRA:          17.738
REMARK INTER:                  18.018
REMARK INTRA:                  -0.280
REMARK UNBOUND:                -0.280
REMARK SMILES Oc1cc(O)c2c(c1)O[C@H](c1ccc(O)c(O)c1)[C@@H](O)C2
REMARK SMILES IDX 21 1 19 2 10 3 9 4 7 5 8 6 2 7 3 8 4 9 6 10 20 11 11 13
REMARK SMILES IDX 18 14 12 15 16 16 13 17 14 18 17 19 15 21 5 23 1 25
REMARK H PARENT 20 12 17 20 15 22 5 24 1 26
REMARK Flexibility Score: inf
ROOT
ATOM      1  C   UNL     1      28.449  31.220   0.500  1.00  0.00     0.079 C 
ATOM      2  C   UNL     1      28.228  29.874   1.217  1.00  0.00     0.164 C 
ATOM      3  C   UNL     1      27.048  29.128   0.573  1.00  0.00     0.232 C 
ATOM      4  O   UNL     1      25.879  29.946   0.611  1.00  0.00    -0.482 OA
ATOM      5  C   UNL     1      25.926  31.327   0.390  1.00  0.00     0.131 A 
ATOM      6  C   UNL     1      24.729  32.033   0.254  1.00  0.00     0.093 A 
ATOM      7  C   UNL     1      24.746  33.412   0.018  1.00  0.00     0.122 A 
ATOM      8  C   UNL     1      25.967  34.081  -0.092  1.00  0.00     0.092 A 
ATOM      9  C   UNL     1      27.176  33.389   0.041  1.00  0.00     0.126 A 
ATOM     10  C   UNL     1      27.164  32.003   0.324  1.00  0.00     0.039 A 
ENDROOT
BRANCH   2  11
ATOM     11  O   UNL     1      29.390  29.092   1.127  1.00  0.00    -0.389 OA
ATOM     12  H   UNL     1      29.501  28.853   0.169  1.00  0.00     0.211 HD
ENDBRANCH   2  11
BRANCH   3  13
ATOM     13  C   UNL     1      26.775  27.822   1.283  1.00  0.00    -0.001 A 
ATOM     14  C   UNL     1      26.536  26.651   0.544  1.00  0.00     0.057 A 
ATOM     15  C   UNL     1      26.805  27.752   2.686  1.00  0.00     0.012 A 
ATOM     16  C   UNL     1      26.310  25.432   1.194  1.00  0.00     0.157 A 
ATOM     17  C   UNL     1      26.580  26.537   3.338  1.00  0.00     0.050 A 
ATOM     18  C   UNL     1      26.331  25.373   2.598  1.00  0.00     0.157 A 
BRANCH  16  19
ATOM     19  O   UNL     1      26.070  24.291   0.428  1.00  0.00    -0.504 OA
ATOM     20  H   UNL     1      25.486  24.312  -0.399  1.00  0.00     0.293 HD
ENDBRANCH  16  19
BRANCH  18  21
ATOM     21  O   UNL     1      26.105  24.163   3.251  1.00  0.00    -0.504 OA
ATOM     22  H   UNL     1      25.322  23.566   3.007  1.00  0.00     0.293 HD
ENDBRANCH  18  21
ENDBRANCH   3  13
BRANCH   9  23
ATOM     23  O   UNL     1      28.364  34.106  -0.123  1.00  0.00    -0.507 OA
ATOM     24  H   UNL     1      28.504  35.040   0.239  1.00  0.00     0.293 HD
ENDBRANCH   9  23
BRANCH   7  25
ATOM     25  O   UNL     1      23.557  34.124  -0.119  1.00  0.00    -0.508 OA
ATOM     26  H   UNL     1      23.319  34.596  -0.983  1.00  0.00     0.293 HD
ENDBRANCH   7  25
TORSDOF 6
ENDMDL
MODEL 2
REMARK VINA RESULT:    15.321      1.896      6.692
REMARK INTER + INTRA:          18.176
REMARK INTER:                  17.810
REMARK INTRA:                   0.366
REMARK UNBOUND:                -0.280
REMARK SMILES Oc1cc(O)c2c(c1)O[C@H](c1ccc(O)c(O)c1)[C@@H](O)C2
REMARK SMILES IDX 21 1 19 2 10 3 9 4 7 5 8 6 2 7 3 8 4 9 6 10 20 11 11 13
REMARK SMILES IDX 18 14 12 15 16 16 13 17 14 18 17 19 15 21 5 23 1 25
REMARK H PARENT 20 12 17 20 15 22 5 24 1 26
REMARK Flexibility Score: inf
ROOT
ATOM      1  C   UNL     1      27.789  30.093   0.645  1.00  0.00     0.079 C 
ATOM      2  C   UNL     1      26.544  30.943   0.330  1.00  0.00     0.164 C 
ATOM      3  C   UNL     1      25.662  31.062   1.584  1.00  0.00     0.232 C 
ATOM      4  O   UNL     1      25.310  29.761   2.054  1.00  0.00    -0.482 OA
ATOM      5  C   UNL     1      26.212  28.691   2.036  1.00  0.00     0.131 A 
ATOM      6  C   UNL     1      25.866  27.502   2.682  1.00  0.00     0.093 A 
ATOM      7  C   UNL     1      26.754  26.421   2.694  1.00  0.00     0.122 A 
ATOM      8  C   UNL     1      27.996  26.538   2.065  1.00  0.00     0.092 A 
ATOM      9  C   UNL     1      28.359  27.722   1.413  1.00  0.00     0.126 A 
ATOM     10  C   UNL     1      27.447  28.802   1.361  1.00  0.00     0.039 A 
ENDROOT
BRANCH   2  11
ATOM     11  O   UNL     1      26.937  32.221  -0.096  1.00  0.00    -0.389 OA
ATOM     12  H   UNL     1      27.420  32.100  -0.956  1.00  0.00     0.211 HD
ENDBRANCH   2  11
BRANCH   3  13
ATOM     13  C   UNL     1      24.407  31.852   1.296  1.00  0.00    -0.001 A 
ATOM     14  C   UNL     1      23.350  31.866   2.222  1.00  0.00     0.057 A 
ATOM     15  C   UNL     1      24.300  32.621   0.125  1.00  0.00     0.012 A 
ATOM     16  C   UNL     1      22.196  32.618   1.976  1.00  0.00     0.157 A 
ATOM     17  C   UNL     1      23.149  33.374  -0.124  1.00  0.00     0.050 A 
ATOM     18  C   UNL     1      22.093  33.375   0.797  1.00  0.00     0.157 A 
BRANCH  16  19
ATOM     19  O   UNL     1      21.165  32.603   2.915  1.00  0.00    -0.504 OA
ATOM     20  H   UNL     1      20.997  33.381   3.541  1.00  0.00     0.293 HD
ENDBRANCH  16  19
BRANCH  18  21
ATOM     21  O   UNL     1      20.946  34.125   0.545  1.00  0.00    -0.504 OA
ATOM     22  H   UNL     1      20.182  33.757  -0.012  1.00  0.00     0.293 HD
ENDBRANCH  18  21
ENDBRANCH   3  13
BRANCH   9  23
ATOM     23  O   UNL     1      29.632  27.793   0.841  1.00  0.00    -0.507 OA
ATOM     24  H   UNL     1      30.473  27.500   1.320  1.00  0.00     0.293 HD
ENDBRANCH   9  23
BRANCH   7  25
ATOM     25  O   UNL     1      26.417  25.232   3.335  1.00  0.00    -0.508 OA
ATOM     26  H   UNL     1      27.127  24.608   3.701  1.00  0.00     0.293 HD
ENDBRANCH   7  25
TORSDOF 6
ENDMDL
