MODEL 1
REMARK VINA RESULT:    -4.749      0.000      0.000
REMARK INTER + INTRA:         -10.868
REMARK INTER:                  -8.914
REMARK INTRA:                  -1.954
REMARK UNBOUND:                -1.954
REMARK SMILES O=C([O-])CCCCCCCCCCCCCCC(=O)[O-]
REMARK SMILES IDX 10 1 9 2 8 3 7 4 6 5 5 6 4 7 2 8 1 9 3 10 11 11 12 12 13 13
REMARK SMILES IDX 14 14 15 15 16 16 17 17 18 18 19 19 20 20
REMARK H PARENT
REMARK Flexibility Score: inf
ROOT
ATOM      1  C   UNL     1     206.188 203.404 157.677  1.00  0.00     0.000 C 
ENDROOT
BRANCH   1   2
ATOM      2  C   UNL     1     205.508 204.431 156.756  1.00  0.00     0.000 C 
BRANCH   2   3
ATOM      3  C   UNL     1     204.110 204.833 157.255  1.00  0.00     0.000 C 
BRANCH   3   4
ATOM      4  C   UNL     1     203.620 206.153 156.632  1.00  0.00     0.000 C 
BRANCH   4   5
ATOM      5  C   UNL     1     204.674 206.816 155.727  1.00  0.00     0.000 C 
BRANCH   5   6
ATOM      6  C   UNL     1     205.321 208.087 156.303  1.00  0.00     0.006 C 
BRANCH   6   7
ATOM      7  C   UNL     1     205.237 208.162 157.833  1.00  0.00     0.053 C 
BRANCH   7   8
ATOM      8  C   UNL     1     205.608 209.529 158.311  1.00  0.00     0.041 C 
ATOM      9  O   UNL     1     206.616 210.115 157.835  1.00  0.00    -0.550 OA
ATOM     10  O   UNL     1     204.872 210.137 159.322  1.00  0.00    -0.550 OA
ENDBRANCH   7   8
ENDBRANCH   6   7
ENDBRANCH   5   6
ENDBRANCH   4   5
ENDBRANCH   3   4
ENDBRANCH   2   3
ENDBRANCH   1   2
BRANCH   1  11
ATOM     11  C   UNL     1     206.020 203.745 159.166  1.00  0.00     0.000 C 
BRANCH  11  12
ATOM     12  C   UNL     1     206.485 205.173 159.505  1.00  0.00     0.000 C 
BRANCH  12  13
ATOM     13  C   UNL     1     208.015 205.310 159.514  1.00  0.00     0.000 C 
BRANCH  13  14
ATOM     14  C   UNL     1     208.503 206.565 158.770  1.00  0.00     0.000 C 
BRANCH  14  15
ATOM     15  C   UNL     1     208.593 206.341 157.245  1.00  0.00     0.000 C 
BRANCH  15  16
ATOM     16  C   UNL     1     208.801 207.642 156.446  1.00  0.00     0.006 C 
BRANCH  16  17
ATOM     17  C   UNL     1     209.464 207.432 155.076  1.00  0.00     0.053 C 
BRANCH  17  18
ATOM     18  C   UNL     1     210.922 207.110 155.204  1.00  0.00     0.041 C 
ATOM     19  O   UNL     1     211.357 205.989 154.835  1.00  0.00    -0.550 OA
ATOM     20  O   UNL     1     211.796 208.037 155.756  1.00  0.00    -0.550 OA
ENDBRANCH  17  18
ENDBRANCH  16  17
ENDBRANCH  15  16
ENDBRANCH  14  15
ENDBRANCH  13  14
ENDBRANCH  12  13
ENDBRANCH  11  12
ENDBRANCH   1  11
TORSDOF 15
ENDMDL
MODEL 2
REMARK VINA RESULT:    -4.706      2.180      4.011
REMARK INTER + INTRA:         -10.786
REMARK INTER:                  -8.325
REMARK INTRA:                  -2.461
REMARK UNBOUND:                -1.954
REMARK SMILES O=C([O-])CCCCCCCCCCCCCCC(=O)[O-]
REMARK SMILES IDX 10 1 9 2 8 3 7 4 6 5 5 6 4 7 2 8 1 9 3 10 11 11 12 12 13 13
REMARK SMILES IDX 14 14 15 15 16 16 17 17 18 18 19 19 20 20
REMARK H PARENT
REMARK Flexibility Score: inf
ROOT
ATOM      1  C   UNL     1     208.324 207.132 155.212  1.00  0.00     0.000 C 
ENDROOT
BRANCH   1   2
ATOM      2  C   UNL     1     207.124 206.179 155.072  1.00  0.00     0.000 C 
BRANCH   2   3
ATOM      3  C   UNL     1     205.989 206.783 154.230  1.00  0.00     0.000 C 
BRANCH   3   4
ATOM      4  C   UNL     1     204.769 207.175 155.082  1.00  0.00     0.000 C 
BRANCH   4   5
ATOM      5  C   UNL     1     204.886 206.711 156.545  1.00  0.00     0.000 C 
BRANCH   5   6
ATOM      6  C   UNL     1     204.960 207.843 157.585  1.00  0.00     0.006 C 
BRANCH   6   7
ATOM      7  C   UNL     1     205.671 209.096 157.057  1.00  0.00     0.053 C 
BRANCH   7   8
ATOM      8  C   UNL     1     206.060 209.993 158.188  1.00  0.00     0.041 C 
ATOM      9  O   UNL     1     207.195 210.539 158.202  1.00  0.00    -0.550 OA
ATOM     10  O   UNL     1     205.191 210.183 159.256  1.00  0.00    -0.550 OA
ENDBRANCH   7   8
ENDBRANCH   6   7
ENDBRANCH   5   6
ENDBRANCH   4   5
ENDBRANCH   3   4
ENDBRANCH   2   3
ENDBRANCH   1   2
BRANCH   1  11
ATOM     11  C   UNL     1     208.778 207.297 156.672  1.00  0.00     0.000 C 
BRANCH  11  12
ATOM     12  C   UNL     1     208.531 206.034 157.517  1.00  0.00     0.000 C 
BRANCH  12  13
ATOM     13  C   UNL     1     208.112 206.360 158.958  1.00  0.00     0.000 C 
BRANCH  13  14
ATOM     14  C   UNL     1     207.599 205.126 159.721  1.00  0.00     0.000 C 
BRANCH  14  15
ATOM     15  C   UNL     1     206.153 204.755 159.324  1.00  0.00     0.000 C 
BRANCH  15  16
ATOM     16  C   UNL     1     206.023 203.338 158.734  1.00  0.00     0.006 C 
BRANCH  16  17
ATOM     17  C   UNL     1     205.765 203.316 157.220  1.00  0.00     0.053 C 
BRANCH  17  18
ATOM     18  C   UNL     1     206.735 202.428 156.500  1.00  0.00     0.041 C 
ATOM     19  O   UNL     1     207.846 202.882 156.122  1.00  0.00    -0.550 OA
ATOM     20  O   UNL     1     206.401 201.109 156.224  1.00  0.00    -0.550 OA
ENDBRANCH  17  18
ENDBRANCH  16  17
ENDBRANCH  15  16
ENDBRANCH  14  15
ENDBRANCH  13  14
ENDBRANCH  12  13
ENDBRANCH  11  12
ENDBRANCH   1  11
TORSDOF 15
ENDMDL
MODEL 3
REMARK VINA RESULT:    -4.697      1.982      5.772
REMARK INTER + INTRA:         -10.770
REMARK INTER:                  -8.349
REMARK INTRA:                  -2.421
REMARK UNBOUND:                -1.954
REMARK SMILES O=C([O-])CCCCCCCCCCCCCCC(=O)[O-]
REMARK SMILES IDX 10 1 9 2 8 3 7 4 6 5 5 6 4 7 2 8 1 9 3 10 11 11 12 12 13 13
REMARK SMILES IDX 14 14 15 15 16 16 17 17 18 18 19 19 20 20
REMARK H PARENT
REMARK Flexibility Score: inf
ROOT
ATOM      1  C   UNL     1     208.874 207.199 157.303  1.00  0.00     0.000 C 
ENDROOT
BRANCH   1   2
ATOM      2  C   UNL     1     208.118 206.695 158.545  1.00  0.00     0.000 C 
BRANCH   2   3
ATOM      3  C   UNL     1     207.855 205.181 158.499  1.00  0.00     0.000 C 
BRANCH   3   4
ATOM      4  C   UNL     1     206.759 204.744 159.487  1.00  0.00     0.000 C 
BRANCH   4   5
ATOM      5  C   UNL     1     205.993 203.494 159.018  1.00  0.00     0.000 C 
BRANCH   5   6
ATOM      6  C   UNL     1     205.779 203.394 157.497  1.00  0.00     0.006 C 
BRANCH   6   7
ATOM      7  C   UNL     1     206.470 202.174 156.874  1.00  0.00     0.053 C 
BRANCH   7   8
ATOM      8  C   UNL     1     207.337 202.592 155.730  1.00  0.00     0.041 C 
ATOM      9  O   UNL     1     206.817 202.982 154.650  1.00  0.00    -0.550 OA
ATOM     10  O   UNL     1     208.720 202.501 155.833  1.00  0.00    -0.550 OA
ENDBRANCH   7   8
ENDBRANCH   6   7
ENDBRANCH   5   6
ENDBRANCH   4   5
ENDBRANCH   3   4
ENDBRANCH   2   3
ENDBRANCH   1   2
BRANCH   1  11
ATOM     11  C   UNL     1     208.651 206.303 156.074  1.00  0.00     0.000 C 
BRANCH  11  12
ATOM     12  C   UNL     1     207.916 207.031 154.934  1.00  0.00     0.000 C 
BRANCH  12  13
ATOM     13  C   UNL     1     206.589 206.355 154.560  1.00  0.00     0.000 C 
BRANCH  13  14
ATOM     14  C   UNL     1     205.362 207.133 155.067  1.00  0.00     0.000 C 
BRANCH  14  15
ATOM     15  C   UNL     1     204.920 206.673 156.474  1.00  0.00     0.000 C 
BRANCH  15  16
ATOM     16  C   UNL     1     204.950 207.799 157.525  1.00  0.00     0.006 C 
BRANCH  16  17
ATOM     17  C   UNL     1     205.627 209.088 157.037  1.00  0.00     0.053 C 
BRANCH  17  18
ATOM     18  C   UNL     1     206.019 209.980 158.175  1.00  0.00     0.041 C 
ATOM     19  O   UNL     1     207.149 210.533 158.183  1.00  0.00    -0.550 OA
ATOM     20  O   UNL     1     205.149 210.179 159.239  1.00  0.00    -0.550 OA
ENDBRANCH  17  18
ENDBRANCH  16  17
ENDBRANCH  15  16
ENDBRANCH  14  15
ENDBRANCH  13  14
ENDBRANCH  12  13
ENDBRANCH  11  12
ENDBRANCH   1  11
TORSDOF 15
ENDMDL
MODEL 4
REMARK VINA RESULT:    -4.685      2.099      5.655
REMARK INTER + INTRA:         -10.747
REMARK INTER:                  -8.381
REMARK INTRA:                  -2.366
REMARK UNBOUND:                -1.954
REMARK SMILES O=C([O-])CCCCCCCCCCCCCCC(=O)[O-]
REMARK SMILES IDX 10 1 9 2 8 3 7 4 6 5 5 6 4 7 2 8 1 9 3 10 11 11 12 12 13 13
REMARK SMILES IDX 14 14 15 15 16 16 17 17 18 18 19 19 20 20
REMARK H PARENT
REMARK Flexibility Score: inf
ROOT
ATOM      1  C   UNL     1     206.362 203.978 159.731  1.00  0.00     0.000 C 
ENDROOT
BRANCH   1   2
ATOM      2  C   UNL     1     206.848 205.436 159.679  1.00  0.00     0.000 C 
BRANCH   2   3
ATOM      3  C   UNL     1     208.287 205.558 159.150  1.00  0.00     0.000 C 
BRANCH   3   4
ATOM      4  C   UNL     1     208.429 206.653 158.078  1.00  0.00     0.000 C 
BRANCH   4   5
ATOM      5  C   UNL     1     208.411 206.095 156.644  1.00  0.00     0.000 C 
BRANCH   5   6
ATOM      6  C   UNL     1     208.512 204.562 156.540  1.00  0.00     0.006 C 
BRANCH   6   7
ATOM      7  C   UNL     1     207.488 203.959 155.571  1.00  0.00     0.053 C 
BRANCH   7   8
ATOM      8  C   UNL     1     207.663 202.476 155.482  1.00  0.00     0.041 C 
ATOM      9  O   UNL     1     208.659 201.990 154.883  1.00  0.00    -0.550 OA
ATOM     10  O   UNL     1     206.698 201.629 156.014  1.00  0.00    -0.550 OA
ENDBRANCH   7   8
ENDBRANCH   6   7
ENDBRANCH   5   6
ENDBRANCH   4   5
ENDBRANCH   3   4
ENDBRANCH   2   3
ENDBRANCH   1   2
BRANCH   1  11
ATOM     11  C   UNL     1     205.539 203.587 158.493  1.00  0.00     0.000 C 
BRANCH  11  12
ATOM     12  C   UNL     1     204.369 204.551 158.228  1.00  0.00     0.000 C 
BRANCH  12  13
ATOM     13  C   UNL     1     204.219 204.905 156.741  1.00  0.00     0.000 C 
BRANCH  13  14
ATOM     14  C   UNL     1     203.919 206.396 156.513  1.00  0.00     0.000 C 
BRANCH  14  15
ATOM     15  C   UNL     1     205.046 207.105 155.729  1.00  0.00     0.000 C 
BRANCH  15  16
ATOM     16  C   UNL     1     205.503 208.427 156.374  1.00  0.00     0.006 C 
BRANCH  16  17
ATOM     17  C   UNL     1     205.367 208.453 157.904  1.00  0.00     0.053 C 
BRANCH  17  18
ATOM     18  C   UNL     1     205.479 209.844 158.452  1.00  0.00     0.041 C 
ATOM     19  O   UNL     1     206.573 210.462 158.388  1.00  0.00    -0.550 OA
ATOM     20  O   UNL     1     204.383 210.446 159.056  1.00  0.00    -0.550 OA
ENDBRANCH  17  18
ENDBRANCH  16  17
ENDBRANCH  15  16
ENDBRANCH  14  15
ENDBRANCH  13  14
ENDBRANCH  12  13
ENDBRANCH  11  12
ENDBRANCH   1  11
TORSDOF 15
ENDMDL
MODEL 5
REMARK VINA RESULT:    -4.623      2.330      2.884
REMARK INTER + INTRA:         -10.631
REMARK INTER:                  -8.232
REMARK INTRA:                  -2.399
REMARK UNBOUND:                -1.954
REMARK SMILES O=C([O-])CCCCCCCCCCCCCCC(=O)[O-]
REMARK SMILES IDX 10 1 9 2 8 3 7 4 6 5 5 6 4 7 2 8 1 9 3 10 11 11 12 12 13 13
REMARK SMILES IDX 14 14 15 15 16 16 17 17 18 18 19 19 20 20
REMARK H PARENT
REMARK Flexibility Score: inf
ROOT
ATOM      1  C   UNL     1     204.892 204.143 158.431  1.00  0.00     0.000 C 
ENDROOT
BRANCH   1   2
ATOM      2  C   UNL     1     204.725 205.584 157.920  1.00  0.00     0.000 C 
BRANCH   2   3
ATOM      3  C   UNL     1     203.816 205.668 156.683  1.00  0.00     0.000 C 
BRANCH   3   4
ATOM      4  C   UNL     1     204.158 206.868 155.782  1.00  0.00     0.000 C 
BRANCH   4   5
ATOM      5  C   UNL     1     205.458 207.579 156.199  1.00  0.00     0.000 C 
BRANCH   5   6
ATOM      6  C   UNL     1     205.320 209.091 156.454  1.00  0.00     0.006 C 
BRANCH   6   7
ATOM      7  C   UNL     1     205.958 209.535 157.776  1.00  0.00     0.053 C 
BRANCH   7   8
ATOM      8  C   UNL     1     204.934 209.569 158.866  1.00  0.00     0.041 C 
ATOM      9  O   UNL     1     204.740 208.553 159.585  1.00  0.00    -0.550 OA
ATOM     10  O   UNL     1     204.154 210.704 159.053  1.00  0.00    -0.550 OA
ENDBRANCH   7   8
ENDBRANCH   6   7
ENDBRANCH   5   6
ENDBRANCH   4   5
ENDBRANCH   3   4
ENDBRANCH   2   3
ENDBRANCH   1   2
BRANCH   1  11
ATOM     11  C   UNL     1     206.237 203.921 159.140  1.00  0.00     0.000 C 
BRANCH  11  12
ATOM     12  C   UNL     1     206.808 205.213 159.750  1.00  0.00     0.000 C 
BRANCH  12  13
ATOM     13  C   UNL     1     208.207 205.554 159.214  1.00  0.00     0.000 C 
BRANCH  13  14
ATOM     14  C   UNL     1     208.184 206.684 158.171  1.00  0.00     0.000 C 
BRANCH  14  15
ATOM     15  C   UNL     1     208.900 206.285 156.862  1.00  0.00     0.000 C 
BRANCH  15  16
ATOM     16  C   UNL     1     208.694 204.808 156.476  1.00  0.00     0.006 C 
BRANCH  16  17
ATOM     17  C   UNL     1     207.397 204.545 155.696  1.00  0.00     0.053 C 
BRANCH  17  18
ATOM     18  C   UNL     1     207.104 203.080 155.576  1.00  0.00     0.041 C 
ATOM     19  O   UNL     1     205.918 202.682 155.438  1.00  0.00    -0.550 OA
ATOM     20  O   UNL     1     208.136 202.153 155.644  1.00  0.00    -0.550 OA
ENDBRANCH  17  18
ENDBRANCH  16  17
ENDBRANCH  15  16
ENDBRANCH  14  15
ENDBRANCH  13  14
ENDBRANCH  12  13
ENDBRANCH  11  12
ENDBRANCH   1  11
TORSDOF 15
ENDMDL
MODEL 6
REMARK VINA RESULT:    -4.605      2.850      6.146
REMARK INTER + INTRA:         -10.598
REMARK INTER:                  -8.205
REMARK INTRA:                  -2.392
REMARK UNBOUND:                -1.954
REMARK SMILES O=C([O-])CCCCCCCCCCCCCCC(=O)[O-]
REMARK SMILES IDX 10 1 9 2 8 3 7 4 6 5 5 6 4 7 2 8 1 9 3 10 11 11 12 12 13 13
REMARK SMILES IDX 14 14 15 15 16 16 17 17 18 18 19 19 20 20
REMARK H PARENT
REMARK Flexibility Score: inf
ROOT
ATOM      1  C   UNL     1     205.901 203.762 158.588  1.00  0.00     0.000 C 
ENDROOT
BRANCH   1   2
ATOM      2  C   UNL     1     205.984 202.228 158.672  1.00  0.00     0.000 C 
BRANCH   2   3
ATOM      3  C   UNL     1     206.350 201.585 157.324  1.00  0.00     0.000 C 
BRANCH   3   4
ATOM      4  C   UNL     1     206.183 202.557 156.143  1.00  0.00     0.000 C 
BRANCH   4   5
ATOM      5  C   UNL     1     207.469 202.718 155.313  1.00  0.00     0.000 C 
BRANCH   5   6
ATOM      6  C   UNL     1     208.702 201.987 155.873  1.00  0.00     0.006 C 
BRANCH   6   7
ATOM      7  C   UNL     1     210.020 202.706 155.557  1.00  0.00     0.053 C 
BRANCH   7   8
ATOM      8  C   UNL     1     210.872 201.867 154.660  1.00  0.00     0.041 C 
ATOM      9  O   UNL     1     210.339 201.132 153.786  1.00  0.00    -0.550 OA
ATOM     10  O   UNL     1     212.252 201.853 154.823  1.00  0.00    -0.550 OA
ENDBRANCH   7   8
ENDBRANCH   6   7
ENDBRANCH   5   6
ENDBRANCH   4   5
ENDBRANCH   3   4
ENDBRANCH   2   3
ENDBRANCH   1   2
BRANCH   1  11
ATOM     11  C   UNL     1     206.617 204.456 159.758  1.00  0.00     0.000 C 
BRANCH  11  12
ATOM     12  C   UNL     1     207.635 205.511 159.290  1.00  0.00     0.000 C 
BRANCH  12  13
ATOM     13  C   UNL     1     208.241 205.181 157.917  1.00  0.00     0.000 C 
BRANCH  13  14
ATOM     14  C   UNL     1     208.342 206.413 157.001  1.00  0.00     0.000 C 
BRANCH  14  15
ATOM     15  C   UNL     1     207.438 206.288 155.754  1.00  0.00     0.000 C 
BRANCH  15  16
ATOM     16  C   UNL     1     206.169 207.159 155.827  1.00  0.00     0.006 C 
BRANCH  16  17
ATOM     17  C   UNL     1     204.862 206.353 155.845  1.00  0.00     0.053 C 
BRANCH  17  18
ATOM     18  C   UNL     1     204.155 206.462 157.162  1.00  0.00     0.041 C 
ATOM     19  O   UNL     1     203.028 205.924 157.320  1.00  0.00    -0.550 OA
ATOM     20  O   UNL     1     204.727 207.178 158.205  1.00  0.00    -0.550 OA
ENDBRANCH  17  18
ENDBRANCH  16  17
ENDBRANCH  15  16
ENDBRANCH  14  15
ENDBRANCH  13  14
ENDBRANCH  12  13
ENDBRANCH  11  12
ENDBRANCH   1  11
TORSDOF 15
ENDMDL
MODEL 7
REMARK VINA RESULT:    -4.593      2.853      4.394
REMARK INTER + INTRA:         -10.574
REMARK INTER:                  -7.985
REMARK INTRA:                  -2.588
REMARK UNBOUND:                -1.954
REMARK SMILES O=C([O-])CCCCCCCCCCCCCCC(=O)[O-]
REMARK SMILES IDX 10 1 9 2 8 3 7 4 6 5 5 6 4 7 2 8 1 9 3 10 11 11 12 12 13 13
REMARK SMILES IDX 14 14 15 15 16 16 17 17 18 18 19 19 20 20
REMARK H PARENT
REMARK Flexibility Score: inf
ROOT
ATOM      1  C   UNL     1     207.888 206.761 154.750  1.00  0.00     0.000 C 
ENDROOT
BRANCH   1   2
ATOM      2  C   UNL     1     206.448 206.249 154.922  1.00  0.00     0.000 C 
BRANCH   2   3
ATOM      3  C   UNL     1     205.439 207.390 155.130  1.00  0.00     0.000 C 
BRANCH   3   4
ATOM      4  C   UNL     1     205.255 207.749 156.615  1.00  0.00     0.000 C 
BRANCH   4   5
ATOM      5  C   UNL     1     205.675 209.194 156.939  1.00  0.00     0.000 C 
BRANCH   5   6
ATOM      6  C   UNL     1     205.727 209.538 158.438  1.00  0.00     0.006 C 
BRANCH   6   7
ATOM      7  C   UNL     1     204.606 208.870 159.245  1.00  0.00     0.053 C 
BRANCH   7   8
ATOM      8  C   UNL     1     203.543 209.865 159.585  1.00  0.00     0.041 C 
ATOM      9  O   UNL     1     202.527 209.507 160.239  1.00  0.00    -0.550 OA
ATOM     10  O   UNL     1     203.644 211.175 159.133  1.00  0.00    -0.550 OA
ENDBRANCH   7   8
ENDBRANCH   6   7
ENDBRANCH   5   6
ENDBRANCH   4   5
ENDBRANCH   3   4
ENDBRANCH   2   3
ENDBRANCH   1   2
BRANCH   1  11
ATOM     11  C   UNL     1     208.797 206.371 155.926  1.00  0.00     0.000 C 
BRANCH  11  12
ATOM     12  C   UNL     1     209.079 207.549 156.876  1.00  0.00     0.000 C 
BRANCH  12  13
ATOM     13  C   UNL     1     208.613 207.274 158.314  1.00  0.00     0.000 C 
BRANCH  13  14
ATOM     14  C   UNL     1     208.189 205.811 158.531  1.00  0.00     0.000 C 
BRANCH  14  15
ATOM     15  C   UNL     1     206.769 205.698 159.129  1.00  0.00     0.000 C 
BRANCH  15  16
ATOM     16  C   UNL     1     205.895 204.634 158.438  1.00  0.00     0.006 C 
BRANCH  16  17
ATOM     17  C   UNL     1     206.649 203.787 157.402  1.00  0.00     0.053 C 
BRANCH  17  18
ATOM     18  C   UNL     1     206.301 202.334 157.507  1.00  0.00     0.041 C 
ATOM     19  O   UNL     1     205.944 201.848 158.612  1.00  0.00    -0.550 OA
ATOM     20  O   UNL     1     206.398 201.510 156.394  1.00  0.00    -0.550 OA
ENDBRANCH  17  18
ENDBRANCH  16  17
ENDBRANCH  15  16
ENDBRANCH  14  15
ENDBRANCH  13  14
ENDBRANCH  12  13
ENDBRANCH  11  12
ENDBRANCH   1  11
TORSDOF 15
ENDMDL
MODEL 8
REMARK VINA RESULT:    -4.578      2.730      4.152
REMARK INTER + INTRA:         -10.546
REMARK INTER:                  -8.093
REMARK INTRA:                  -2.453
REMARK UNBOUND:                -1.954
REMARK SMILES O=C([O-])CCCCCCCCCCCCCCC(=O)[O-]
REMARK SMILES IDX 10 1 9 2 8 3 7 4 6 5 5 6 4 7 2 8 1 9 3 10 11 11 12 12 13 13
REMARK SMILES IDX 14 14 15 15 16 16 17 17 18 18 19 19 20 20
REMARK H PARENT
REMARK Flexibility Score: inf
ROOT
ATOM      1  C   UNL     1     206.685 204.525 159.438  1.00  0.00     0.000 C 
ENDROOT
BRANCH   1   2
ATOM      2  C   UNL     1     207.879 204.956 158.569  1.00  0.00     0.000 C 
BRANCH   2   3
ATOM      3  C   UNL     1     208.065 206.482 158.541  1.00  0.00     0.000 C 
BRANCH   3   4
ATOM      4  C   UNL     1     208.707 206.972 157.231  1.00  0.00     0.000 C 
BRANCH   4   5
ATOM      5  C   UNL     1     208.150 206.258 155.987  1.00  0.00     0.000 C 
BRANCH   5   6
ATOM      6  C   UNL     1     206.865 206.872 155.403  1.00  0.00     0.006 C 
BRANCH   6   7
ATOM      7  C   UNL     1     205.599 206.104 155.802  1.00  0.00     0.053 C 
BRANCH   7   8
ATOM      8  C   UNL     1     204.836 206.859 156.843  1.00  0.00     0.041 C 
ATOM      9  O   UNL     1     203.834 206.335 157.398  1.00  0.00    -0.550 OA
ATOM     10  O   UNL     1     205.198 208.162 157.164  1.00  0.00    -0.550 OA
ENDBRANCH   7   8
ENDBRANCH   6   7
ENDBRANCH   5   6
ENDBRANCH   4   5
ENDBRANCH   3   4
ENDBRANCH   2   3
ENDBRANCH   1   2
BRANCH   1  11
ATOM     11  C   UNL     1     205.675 203.662 158.665  1.00  0.00     0.000 C 
BRANCH  11  12
ATOM     12  C   UNL     1     206.000 202.159 158.736  1.00  0.00     0.000 C 
BRANCH  12  13
ATOM     13  C   UNL     1     206.385 201.572 157.370  1.00  0.00     0.000 C 
BRANCH  13  14
ATOM     14  C   UNL     1     206.188 202.572 156.217  1.00  0.00     0.000 C 
BRANCH  14  15
ATOM     15  C   UNL     1     207.494 202.819 155.430  1.00  0.00     0.000 C 
BRANCH  15  16
ATOM     16  C   UNL     1     208.728 202.150 156.064  1.00  0.00     0.006 C 
BRANCH  16  17
ATOM     17  C   UNL     1     210.060 202.810 155.679  1.00  0.00     0.053 C 
BRANCH  17  18
ATOM     18  C   UNL     1     210.838 201.976 154.707  1.00  0.00     0.041 C 
ATOM     19  O   UNL     1     210.237 201.212 153.908  1.00  0.00    -0.550 OA
ATOM     20  O   UNL     1     212.226 202.022 154.701  1.00  0.00    -0.550 OA
ENDBRANCH  17  18
ENDBRANCH  16  17
ENDBRANCH  15  16
ENDBRANCH  14  15
ENDBRANCH  13  14
ENDBRANCH  12  13
ENDBRANCH  11  12
ENDBRANCH   1  11
TORSDOF 15
ENDMDL
MODEL 9
REMARK VINA RESULT:    -4.539      2.471      4.579
REMARK INTER + INTRA:         -10.472
REMARK INTER:                  -8.600
REMARK INTRA:                  -1.872
REMARK UNBOUND:                -1.954
REMARK SMILES O=C([O-])CCCCCCCCCCCCCCC(=O)[O-]
REMARK SMILES IDX 10 1 9 2 8 3 7 4 6 5 5 6 4 7 2 8 1 9 3 10 11 11 12 12 13 13
REMARK SMILES IDX 14 14 15 15 16 16 17 17 18 18 19 19 20 20
REMARK H PARENT
REMARK Flexibility Score: inf
ROOT
ATOM      1  C   UNL     1     204.983 206.383 155.957  1.00  0.00     0.000 C 
ENDROOT
BRANCH   1   2
ATOM      2  C   UNL     1     203.779 205.957 156.816  1.00  0.00     0.000 C 
BRANCH   2   3
ATOM      3  C   UNL     1     204.058 204.682 157.628  1.00  0.00     0.000 C 
BRANCH   3   4
ATOM      4  C   UNL     1     205.558 204.472 157.898  1.00  0.00     0.000 C 
BRANCH   4   5
ATOM      5  C   UNL     1     205.919 203.000 158.165  1.00  0.00     0.000 C 
BRANCH   5   6
ATOM      6  C   UNL     1     206.351 202.199 156.923  1.00  0.00     0.006 C 
BRANCH   6   7
ATOM      7  C   UNL     1     206.927 203.084 155.811  1.00  0.00     0.053 C 
BRANCH   7   8
ATOM      8  C   UNL     1     208.309 202.639 155.451  1.00  0.00     0.041 C 
ATOM      9  O   UNL     1     208.485 201.815 154.514  1.00  0.00    -0.550 OA
ATOM     10  O   UNL     1     209.399 203.089 156.185  1.00  0.00    -0.550 OA
ENDBRANCH   7   8
ENDBRANCH   6   7
ENDBRANCH   5   6
ENDBRANCH   4   5
ENDBRANCH   3   4
ENDBRANCH   2   3
ENDBRANCH   1   2
BRANCH   1  11
ATOM     11  C   UNL     1     205.216 207.902 155.980  1.00  0.00     0.000 C 
BRANCH  11  12
ATOM     12  C   UNL     1     205.674 208.412 157.358  1.00  0.00     0.000 C 
BRANCH  12  13
ATOM     13  C   UNL     1     206.883 209.356 157.267  1.00  0.00     0.000 C 
BRANCH  13  14
ATOM     14  C   UNL     1     208.208 208.660 157.624  1.00  0.00     0.000 C 
BRANCH  14  15
ATOM     15  C   UNL     1     208.068 207.122 157.663  1.00  0.00     0.000 C 
BRANCH  15  16
ATOM     16  C   UNL     1     208.729 206.415 156.465  1.00  0.00     0.006 C 
BRANCH  16  17
ATOM     17  C   UNL     1     209.412 207.373 155.477  1.00  0.00     0.053 C 
BRANCH  17  18
ATOM     18  C   UNL     1     210.880 207.096 155.353  1.00  0.00     0.041 C 
ATOM     19  O   UNL     1     211.278 205.987 154.911  1.00  0.00    -0.550 OA
ATOM     20  O   UNL     1     211.807 208.050 155.750  1.00  0.00    -0.550 OA
ENDBRANCH  17  18
ENDBRANCH  16  17
ENDBRANCH  15  16
ENDBRANCH  14  15
ENDBRANCH  13  14
ENDBRANCH  12  13
ENDBRANCH  11  12
ENDBRANCH   1  11
TORSDOF 15
ENDMDL
