MODEL 1
REMARK VINA RESULT:    -4.384      0.000      0.000
REMARK INTER + INTRA:         -15.805
REMARK INTER:                 -11.432
REMARK INTRA:                  -4.374
REMARK UNBOUND:                -4.374
REMARK SMILES CCCCCCCCCCCCCCCCCCCCCCCCCCCCCO
REMARK SMILES IDX 16 1 15 2 14 3 13 4 12 5 11 6 10 7 9 8 8 9 7 10 6 11 5 12
REMARK SMILES IDX 4 13 3 14 2 15 1 16 17 17 18 18 19 19 20 20 21 21 22 22
REMARK SMILES IDX 23 23 24 24 25 25 26 26 27 27 28 28 29 29 30 30
REMARK H PARENT 30 31
REMARK Flexibility Score: inf
ROOT
ATOM      1  C   UNL     1     172.020 175.406 179.888  1.00  0.00     0.000 C 
ENDROOT
BRANCH   1   2
ATOM      2  C   UNL     1     171.274 175.128 181.202  1.00  0.00     0.000 C 
BRANCH   2   3
ATOM      3  C   UNL     1     171.504 176.211 182.272  1.00  0.00     0.000 C 
BRANCH   3   4
ATOM      4  C   UNL     1     170.244 176.964 182.755  1.00  0.00     0.000 C 
BRANCH   4   5
ATOM      5  C   UNL     1     170.133 178.445 182.330  1.00  0.00     0.000 C 
BRANCH   5   6
ATOM      6  C   UNL     1     169.236 178.698 181.105  1.00  0.00     0.000 C 
BRANCH   6   7
ATOM      7  C   UNL     1     168.283 177.536 180.797  1.00  0.00     0.000 C 
BRANCH   7   8
ATOM      8  C   UNL     1     167.163 177.971 179.844  1.00  0.00    -0.000 C 
BRANCH   8   9
ATOM      9  C   UNL     1     165.815 178.041 180.573  1.00  0.00    -0.000 C 
BRANCH   9  10
ATOM     10  C   UNL     1     165.251 179.469 180.552  1.00  0.00    -0.000 C 
BRANCH  10  11
ATOM     11  C   UNL     1     163.945 179.581 179.747  1.00  0.00    -0.000 C 
BRANCH  11  12
ATOM     12  C   UNL     1     162.722 179.856 180.638  1.00  0.00    -0.000 C 
BRANCH  12  13
ATOM     13  C   UNL     1     162.281 178.623 181.449  1.00  0.00    -0.000 C 
BRANCH  13  14
ATOM     14  C   UNL     1     161.962 177.370 180.613  1.00  0.00    -0.000 C 
BRANCH  14  15
ATOM     15  C   UNL     1     162.695 176.116 181.108  1.00  0.00    -0.003 C 
ATOM     16  C   UNL     1     163.046 175.188 179.948  1.00  0.00     0.004 C 
ENDBRANCH  14  15
ENDBRANCH  13  14
ENDBRANCH  12  13
ENDBRANCH  11  12
ENDBRANCH  10  11
ENDBRANCH   9  10
ENDBRANCH   8   9
ENDBRANCH   7   8
ENDBRANCH   6   7
ENDBRANCH   5   6
ENDBRANCH   4   5
ENDBRANCH   3   4
ENDBRANCH   2   3
ENDBRANCH   1   2
BRANCH   1  17
ATOM     17  C   UNL     1     171.108 176.132 178.887  1.00  0.00     0.000 C 
BRANCH  17  18
ATOM     18  C   UNL     1     171.576 177.563 178.580  1.00  0.00     0.000 C 
BRANCH  18  19
ATOM     19  C   UNL     1     173.067 177.777 178.896  1.00  0.00     0.000 C 
BRANCH  19  20
ATOM     20  C   UNL     1     173.326 179.052 179.720  1.00  0.00     0.000 C 
BRANCH  20  21
ATOM     21  C   UNL     1     173.791 178.811 181.171  1.00  0.00     0.000 C 
BRANCH  21  22
ATOM     22  C   UNL     1     174.759 177.626 181.364  1.00  0.00     0.000 C 
BRANCH  22  23
ATOM     23  C   UNL     1     176.227 178.020 181.600  1.00  0.00     0.000 C 
BRANCH  23  24
ATOM     24  C   UNL     1     176.424 179.539 181.724  1.00  0.00     0.000 C 
BRANCH  24  25
ATOM     25  C   UNL     1     177.157 180.098 180.496  1.00  0.00     0.000 C 
BRANCH  25  26
ATOM     26  C   UNL     1     177.483 179.018 179.448  1.00  0.00     0.000 C 
BRANCH  26  27
ATOM     27  C   UNL     1     176.670 179.111 178.144  1.00  0.00     0.002 C 
BRANCH  27  28
ATOM     28  C   UNL     1     176.730 177.824 177.309  1.00  0.00     0.028 C 
BRANCH  28  29
ATOM     29  C   UNL     1     176.530 176.586 178.189  1.00  0.00     0.156 C 
BRANCH  29  30
ATOM     30  O   UNL     1     177.228 175.495 177.655  1.00  0.00    -0.396 OA
ATOM     31  H   UNL     1     178.181 175.766 177.601  1.00  0.00     0.210 HD
ENDBRANCH  29  30
ENDBRANCH  28  29
ENDBRANCH  27  28
ENDBRANCH  26  27
ENDBRANCH  25  26
ENDBRANCH  24  25
ENDBRANCH  23  24
ENDBRANCH  22  23
ENDBRANCH  21  22
ENDBRANCH  20  21
ENDBRANCH  19  20
ENDBRANCH  18  19
ENDBRANCH  17  18
ENDBRANCH   1  17
TORSDOF 28
ENDMDL
MODEL 2
REMARK VINA RESULT:    -4.338      4.461     10.765
REMARK INTER + INTRA:         -15.685
REMARK INTER:                 -10.426
REMARK INTRA:                  -5.259
REMARK UNBOUND:                -4.374
REMARK SMILES CCCCCCCCCCCCCCCCCCCCCCCCCCCCCO
REMARK SMILES IDX 16 1 15 2 14 3 13 4 12 5 11 6 10 7 9 8 8 9 7 10 6 11 5 12
REMARK SMILES IDX 4 13 3 14 2 15 1 16 17 17 18 18 19 19 20 20 21 21 22 22
REMARK SMILES IDX 23 23 24 24 25 25 26 26 27 27 28 28 29 29 30 30
REMARK H PARENT 30 31
REMARK Flexibility Score: inf
ROOT
ATOM      1  C   UNL     1     163.636 175.956 181.455  1.00  0.00     0.000 C 
ENDROOT
BRANCH   1   2
ATOM      2  C   UNL     1     162.221 176.464 181.137  1.00  0.00     0.000 C 
BRANCH   2   3
ATOM      3  C   UNL     1     162.104 177.999 181.178  1.00  0.00     0.000 C 
BRANCH   3   4
ATOM      4  C   UNL     1     163.378 178.764 181.603  1.00  0.00     0.000 C 
BRANCH   4   5
ATOM      5  C   UNL     1     163.928 179.785 180.583  1.00  0.00     0.000 C 
BRANCH   5   6
ATOM      6  C   UNL     1     165.462 179.921 180.570  1.00  0.00     0.000 C 
BRANCH   6   7
ATOM      7  C   UNL     1     166.193 178.572 180.534  1.00  0.00     0.000 C 
BRANCH   7   8
ATOM      8  C   UNL     1     166.620 178.207 179.107  1.00  0.00    -0.000 C 
BRANCH   8   9
ATOM      9  C   UNL     1     166.985 176.721 179.006  1.00  0.00    -0.000 C 
BRANCH   9  10
ATOM     10  C   UNL     1     167.146 176.097 180.400  1.00  0.00    -0.000 C 
BRANCH  10  11
ATOM     11  C   UNL     1     168.495 175.380 180.579  1.00  0.00    -0.000 C 
BRANCH  11  12
ATOM     12  C   UNL     1     169.608 175.987 179.708  1.00  0.00    -0.000 C 
BRANCH  12  13
ATOM     13  C   UNL     1     170.547 176.917 180.497  1.00  0.00    -0.000 C 
BRANCH  13  14
ATOM     14  C   UNL     1     170.051 178.365 180.657  1.00  0.00    -0.000 C 
BRANCH  14  15
ATOM     15  C   UNL     1     169.652 178.707 182.100  1.00  0.00    -0.003 C 
ATOM     16  C   UNL     1     170.051 177.591 183.062  1.00  0.00     0.004 C 
ENDBRANCH  14  15
ENDBRANCH  13  14
ENDBRANCH  12  13
ENDBRANCH  11  12
ENDBRANCH  10  11
ENDBRANCH   9  10
ENDBRANCH   8   9
ENDBRANCH   7   8
ENDBRANCH   6   7
ENDBRANCH   5   6
ENDBRANCH   4   5
ENDBRANCH   3   4
ENDBRANCH   2   3
ENDBRANCH   1   2
BRANCH   1  17
ATOM     17  C   UNL     1     163.724 174.434 181.266  1.00  0.00     0.000 C 
BRANCH  17  18
ATOM     18  C   UNL     1     163.656 173.662 182.593  1.00  0.00     0.000 C 
BRANCH  18  19
ATOM     19  C   UNL     1     162.766 172.409 182.503  1.00  0.00     0.000 C 
BRANCH  19  20
ATOM     20  C   UNL     1     161.292 172.744 182.206  1.00  0.00     0.000 C 
BRANCH  20  21
ATOM     21  C   UNL     1     160.664 171.954 181.039  1.00  0.00     0.000 C 
BRANCH  21  22
ATOM     22  C   UNL     1     161.132 172.375 179.632  1.00  0.00     0.000 C 
BRANCH  22  23
ATOM     23  C   UNL     1     160.592 173.733 179.148  1.00  0.00     0.000 C 
BRANCH  23  24
ATOM     24  C   UNL     1     161.127 174.127 177.763  1.00  0.00     0.000 C 
BRANCH  24  25
ATOM     25  C   UNL     1     161.503 175.616 177.724  1.00  0.00     0.000 C 
BRANCH  25  26
ATOM     26  C   UNL     1     162.986 175.852 177.380  1.00  0.00     0.000 C 
BRANCH  26  27
ATOM     27  C   UNL     1     163.536 177.230 177.790  1.00  0.00     0.002 C 
BRANCH  27  28
ATOM     28  C   UNL     1     162.563 178.377 177.483  1.00  0.00     0.028 C 
BRANCH  28  29
ATOM     29  C   UNL     1     163.138 179.319 176.420  1.00  0.00     0.156 C 
BRANCH  29  30
ATOM     30  O   UNL     1     164.399 179.784 176.816  1.00  0.00    -0.396 OA
ATOM     31  H   UNL     1     165.032 179.030 176.693  1.00  0.00     0.210 HD
ENDBRANCH  29  30
ENDBRANCH  28  29
ENDBRANCH  27  28
ENDBRANCH  26  27
ENDBRANCH  25  26
ENDBRANCH  24  25
ENDBRANCH  23  24
ENDBRANCH  22  23
ENDBRANCH  21  22
ENDBRANCH  20  21
ENDBRANCH  19  20
ENDBRANCH  18  19
ENDBRANCH  17  18
ENDBRANCH   1  17
TORSDOF 28
ENDMDL
MODEL 3
REMARK VINA RESULT:    -4.259      8.396     11.279
REMARK INTER + INTRA:         -15.480
REMARK INTER:                  -9.794
REMARK INTRA:                  -5.686
REMARK UNBOUND:                -4.374
REMARK SMILES CCCCCCCCCCCCCCCCCCCCCCCCCCCCCO
REMARK SMILES IDX 16 1 15 2 14 3 13 4 12 5 11 6 10 7 9 8 8 9 7 10 6 11 5 12
REMARK SMILES IDX 4 13 3 14 2 15 1 16 17 17 18 18 19 19 20 20 21 21 22 22
REMARK SMILES IDX 23 23 24 24 25 25 26 26 27 27 28 28 29 29 30 30
REMARK H PARENT 30 31
REMARK Flexibility Score: inf
ROOT
ATOM      1  C   UNL     1     162.813 176.243 180.444  1.00  0.00     0.000 C 
ENDROOT
BRANCH   1   2
ATOM      2  C   UNL     1     161.328 176.456 180.774  1.00  0.00     0.000 C 
BRANCH   2   3
ATOM      3  C   UNL     1     160.633 175.183 181.292  1.00  0.00     0.000 C 
BRANCH   3   4
ATOM      4  C   UNL     1     160.787 173.922 180.412  1.00  0.00     0.000 C 
BRANCH   4   5
ATOM      5  C   UNL     1     160.951 172.584 181.166  1.00  0.00     0.000 C 
BRANCH   5   6
ATOM      6  C   UNL     1     161.355 172.723 182.645  1.00  0.00     0.000 C 
BRANCH   6   7
ATOM      7  C   UNL     1     162.792 172.269 182.929  1.00  0.00     0.000 C 
BRANCH   7   8
ATOM      8  C   UNL     1     163.814 173.250 182.340  1.00  0.00    -0.000 C 
BRANCH   8   9
ATOM      9  C   UNL     1     164.852 172.516 181.483  1.00  0.00    -0.000 C 
BRANCH   9  10
ATOM     10  C   UNL     1     165.440 173.446 180.412  1.00  0.00    -0.000 C 
BRANCH  10  11
ATOM     11  C   UNL     1     164.521 173.603 179.190  1.00  0.00    -0.000 C 
BRANCH  11  12
ATOM     12  C   UNL     1     164.408 172.310 178.364  1.00  0.00    -0.000 C 
BRANCH  12  13
ATOM     13  C   UNL     1     162.959 171.980 177.962  1.00  0.00    -0.000 C 
BRANCH  13  14
ATOM     14  C   UNL     1     162.452 170.600 178.417  1.00  0.00    -0.000 C 
BRANCH  14  15
ATOM     15  C   UNL     1     163.376 169.929 179.444  1.00  0.00    -0.003 C 
ATOM     16  C   UNL     1     162.572 169.249 180.549  1.00  0.00     0.004 C 
ENDBRANCH  14  15
ENDBRANCH  13  14
ENDBRANCH  12  13
ENDBRANCH  11  12
ENDBRANCH  10  11
ENDBRANCH   9  10
ENDBRANCH   8   9
ENDBRANCH   7   8
ENDBRANCH   6   7
ENDBRANCH   5   6
ENDBRANCH   4   5
ENDBRANCH   3   4
ENDBRANCH   2   3
ENDBRANCH   1   2
BRANCH   1  17
ATOM     17  C   UNL     1     163.704 176.750 181.588  1.00  0.00     0.000 C 
BRANCH  17  18
ATOM     18  C   UNL     1     164.209 178.184 181.363  1.00  0.00     0.000 C 
BRANCH  18  19
ATOM     19  C   UNL     1     163.237 179.245 181.908  1.00  0.00     0.000 C 
BRANCH  19  20
ATOM     20  C   UNL     1     162.454 179.967 180.796  1.00  0.00     0.000 C 
BRANCH  20  21
ATOM     21  C   UNL     1     163.059 179.841 179.383  1.00  0.00     0.000 C 
BRANCH  21  22
ATOM     22  C   UNL     1     162.034 179.774 178.232  1.00  0.00     0.000 C 
BRANCH  22  23
ATOM     23  C   UNL     1     161.698 178.353 177.746  1.00  0.00     0.000 C 
BRANCH  23  24
ATOM     24  C   UNL     1     162.834 177.718 176.929  1.00  0.00     0.000 C 
BRANCH  24  25
ATOM     25  C   UNL     1     162.554 176.231 176.667  1.00  0.00     0.000 C 
BRANCH  25  26
ATOM     26  C   UNL     1     161.160 175.789 177.148  1.00  0.00     0.000 C 
BRANCH  26  27
ATOM     27  C   UNL     1     160.676 174.440 176.585  1.00  0.00     0.002 C 
BRANCH  27  28
ATOM     28  C   UNL     1     160.286 174.516 175.102  1.00  0.00     0.028 C 
BRANCH  28  29
ATOM     29  C   UNL     1     160.870 173.338 174.316  1.00  0.00     0.156 C 
BRANCH  29  30
ATOM     30  O   UNL     1     161.001 172.218 175.149  1.00  0.00    -0.396 OA
ATOM     31  H   UNL     1     161.623 171.595 174.692  1.00  0.00     0.210 HD
ENDBRANCH  29  30
ENDBRANCH  28  29
ENDBRANCH  27  28
ENDBRANCH  26  27
ENDBRANCH  25  26
ENDBRANCH  24  25
ENDBRANCH  23  24
ENDBRANCH  22  23
ENDBRANCH  21  22
ENDBRANCH  20  21
ENDBRANCH  19  20
ENDBRANCH  18  19
ENDBRANCH  17  18
ENDBRANCH   1  17
TORSDOF 28
ENDMDL
MODEL 4
REMARK VINA RESULT:    -4.200      3.282     10.350
REMARK INTER + INTRA:         -15.325
REMARK INTER:                 -11.217
REMARK INTRA:                  -4.108
REMARK UNBOUND:                -4.374
REMARK SMILES CCCCCCCCCCCCCCCCCCCCCCCCCCCCCO
REMARK SMILES IDX 16 1 15 2 14 3 13 4 12 5 11 6 10 7 9 8 8 9 7 10 6 11 5 12
REMARK SMILES IDX 4 13 3 14 2 15 1 16 17 17 18 18 19 19 20 20 21 21 22 22
REMARK SMILES IDX 23 23 24 24 25 25 26 26 27 27 28 28 29 29 30 30
REMARK H PARENT 30 31
REMARK Flexibility Score: inf
ROOT
ATOM      1  C   UNL     1     171.873 175.904 181.791  1.00  0.00     0.000 C 
ENDROOT
BRANCH   1   2
ATOM      2  C   UNL     1     173.200 176.675 181.861  1.00  0.00     0.000 C 
BRANCH   2   3
ATOM      3  C   UNL     1     173.363 177.707 180.730  1.00  0.00     0.000 C 
BRANCH   3   4
ATOM      4  C   UNL     1     172.622 179.049 180.925  1.00  0.00     0.000 C 
BRANCH   4   5
ATOM      5  C   UNL     1     171.541 179.387 179.876  1.00  0.00     0.000 C 
BRANCH   5   6
ATOM      6  C   UNL     1     171.160 178.221 178.945  1.00  0.00     0.000 C 
BRANCH   6   7
ATOM      7  C   UNL     1     171.696 178.383 177.516  1.00  0.00     0.000 C 
BRANCH   7   8
ATOM      8  C   UNL     1     172.886 177.450 177.258  1.00  0.00    -0.000 C 
BRANCH   8   9
ATOM      9  C   UNL     1     174.014 178.188 176.526  1.00  0.00    -0.000 C 
BRANCH   9  10
ATOM     10  C   UNL     1     174.138 179.636 177.023  1.00  0.00    -0.000 C 
BRANCH  10  11
ATOM     11  C   UNL     1     175.068 179.770 178.240  1.00  0.00    -0.000 C 
BRANCH  11  12
ATOM     12  C   UNL     1     176.336 178.907 178.115  1.00  0.00    -0.000 C 
BRANCH  12  13
ATOM     13  C   UNL     1     177.279 179.048 179.324  1.00  0.00    -0.000 C 
BRANCH  13  14
ATOM     14  C   UNL     1     176.725 179.884 180.492  1.00  0.00    -0.000 C 
BRANCH  14  15
ATOM     15  C   UNL     1     176.635 179.095 181.806  1.00  0.00    -0.003 C 
ATOM     16  C   UNL     1     176.983 177.624 181.591  1.00  0.00     0.004 C 
ENDBRANCH  14  15
ENDBRANCH  13  14
ENDBRANCH  12  13
ENDBRANCH  11  12
ENDBRANCH  10  11
ENDBRANCH   9  10
ENDBRANCH   8   9
ENDBRANCH   7   8
ENDBRANCH   6   7
ENDBRANCH   5   6
ENDBRANCH   4   5
ENDBRANCH   3   4
ENDBRANCH   2   3
ENDBRANCH   1   2
BRANCH   1  17
ATOM     17  C   UNL     1     170.881 176.429 182.840  1.00  0.00     0.000 C 
BRANCH  17  18
ATOM     18  C   UNL     1     169.657 177.117 182.215  1.00  0.00     0.000 C 
BRANCH  18  19
ATOM     19  C   UNL     1     168.933 176.221 181.195  1.00  0.00     0.000 C 
BRANCH  19  20
ATOM     20  C   UNL     1     167.786 176.949 180.469  1.00  0.00     0.000 C 
BRANCH  20  21
ATOM     21  C   UNL     1     167.792 178.485 180.610  1.00  0.00     0.000 C 
BRANCH  21  22
ATOM     22  C   UNL     1     166.738 179.228 179.764  1.00  0.00     0.000 C 
BRANCH  22  23
ATOM     23  C   UNL     1     165.765 180.109 180.567  1.00  0.00     0.000 C 
BRANCH  23  24
ATOM     24  C   UNL     1     164.293 179.743 180.326  1.00  0.00     0.000 C 
BRANCH  24  25
ATOM     25  C   UNL     1     163.696 179.041 181.554  1.00  0.00     0.000 C 
BRANCH  25  26
ATOM     26  C   UNL     1     164.031 177.539 181.610  1.00  0.00     0.000 C 
BRANCH  26  27
ATOM     27  C   UNL     1     162.964 176.612 181.001  1.00  0.00     0.002 C 
BRANCH  27  28
ATOM     28  C   UNL     1     161.877 177.376 180.232  1.00  0.00     0.028 C 
BRANCH  28  29
ATOM     29  C   UNL     1     162.009 177.155 178.722  1.00  0.00     0.156 C 
BRANCH  29  30
ATOM     30  O   UNL     1     160.970 177.805 178.044  1.00  0.00    -0.396 OA
ATOM     31  H   UNL     1     161.203 178.770 178.025  1.00  0.00     0.210 HD
ENDBRANCH  29  30
ENDBRANCH  28  29
ENDBRANCH  27  28
ENDBRANCH  26  27
ENDBRANCH  25  26
ENDBRANCH  24  25
ENDBRANCH  23  24
ENDBRANCH  22  23
ENDBRANCH  21  22
ENDBRANCH  20  21
ENDBRANCH  19  20
ENDBRANCH  18  19
ENDBRANCH  17  18
ENDBRANCH   1  17
TORSDOF 28
ENDMDL
MODEL 5
REMARK VINA RESULT:    -4.148      1.715      4.134
REMARK INTER + INTRA:         -15.191
REMARK INTER:                 -12.045
REMARK INTRA:                  -3.146
REMARK UNBOUND:                -4.374
REMARK SMILES CCCCCCCCCCCCCCCCCCCCCCCCCCCCCO
REMARK SMILES IDX 16 1 15 2 14 3 13 4 12 5 11 6 10 7 9 8 8 9 7 10 6 11 5 12
REMARK SMILES IDX 4 13 3 14 2 15 1 16 17 17 18 18 19 19 20 20 21 21 22 22
REMARK SMILES IDX 23 23 24 24 25 25 26 26 27 27 28 28 29 29 30 30
REMARK H PARENT 30 31
REMARK Flexibility Score: inf
ROOT
ATOM      1  C   UNL     1     168.343 177.199 180.415  1.00  0.00     0.000 C 
ENDROOT
BRANCH   1   2
ATOM      2  C   UNL     1     166.843 177.522 180.344  1.00  0.00     0.000 C 
BRANCH   2   3
ATOM      3  C   UNL     1     166.555 179.004 180.045  1.00  0.00     0.000 C 
BRANCH   3   4
ATOM      4  C   UNL     1     165.226 179.562 180.603  1.00  0.00     0.000 C 
BRANCH   4   5
ATOM      5  C   UNL     1     164.432 178.619 181.534  1.00  0.00     0.000 C 
BRANCH   5   6
ATOM      6  C   UNL     1     162.955 179.005 181.734  1.00  0.00     0.000 C 
BRANCH   6   7
ATOM      7  C   UNL     1     162.012 178.359 180.710  1.00  0.00     0.000 C 
BRANCH   7   8
ATOM      8  C   UNL     1     161.447 177.031 181.233  1.00  0.00    -0.000 C 
BRANCH   8   9
ATOM      9  C   UNL     1     161.613 175.916 180.193  1.00  0.00    -0.000 C 
BRANCH   9  10
ATOM     10  C   UNL     1     162.922 176.085 179.407  1.00  0.00    -0.000 C 
BRANCH  10  11
ATOM     11  C   UNL     1     163.732 174.781 179.313  1.00  0.00    -0.000 C 
BRANCH  11  12
ATOM     12  C   UNL     1     164.717 174.610 180.482  1.00  0.00    -0.000 C 
BRANCH  12  13
ATOM     13  C   UNL     1     164.453 173.338 181.308  1.00  0.00    -0.000 C 
BRANCH  13  14
ATOM     14  C   UNL     1     163.679 173.559 182.620  1.00  0.00    -0.000 C 
BRANCH  14  15
ATOM     15  C   UNL     1     162.512 172.578 182.801  1.00  0.00    -0.003 C 
ATOM     16  C   UNL     1     161.675 172.477 181.529  1.00  0.00     0.004 C 
ENDBRANCH  14  15
ENDBRANCH  13  14
ENDBRANCH  12  13
ENDBRANCH  11  12
ENDBRANCH  10  11
ENDBRANCH   9  10
ENDBRANCH   8   9
ENDBRANCH   7   8
ENDBRANCH   6   7
ENDBRANCH   5   6
ENDBRANCH   4   5
ENDBRANCH   3   4
ENDBRANCH   2   3
ENDBRANCH   1   2
BRANCH   1  17
ATOM     17  C   UNL     1     169.156 178.455 180.766  1.00  0.00     0.000 C 
BRANCH  17  18
ATOM     18  C   UNL     1     169.993 178.287 182.043  1.00  0.00     0.000 C 
BRANCH  18  19
ATOM     19  C   UNL     1     171.045 179.399 182.210  1.00  0.00     0.000 C 
BRANCH  19  20
ATOM     20  C   UNL     1     171.826 179.682 180.913  1.00  0.00     0.000 C 
BRANCH  20  21
ATOM     21  C   UNL     1     173.353 179.483 181.012  1.00  0.00     0.000 C 
BRANCH  21  22
ATOM     22  C   UNL     1     173.842 178.033 180.825  1.00  0.00     0.000 C 
BRANCH  22  23
ATOM     23  C   UNL     1     175.189 177.710 181.496  1.00  0.00     0.000 C 
BRANCH  23  24
ATOM     24  C   UNL     1     176.162 178.899 181.479  1.00  0.00     0.000 C 
BRANCH  24  25
ATOM     25  C   UNL     1     177.194 178.745 180.353  1.00  0.00     0.000 C 
BRANCH  25  26
ATOM     26  C   UNL     1     177.200 179.937 179.377  1.00  0.00     0.000 C 
BRANCH  26  27
ATOM     27  C   UNL     1     175.963 180.038 178.467  1.00  0.00     0.002 C 
BRANCH  27  28
ATOM     28  C   UNL     1     175.748 178.782 177.609  1.00  0.00     0.028 C 
BRANCH  28  29
ATOM     29  C   UNL     1     176.908 178.578 176.630  1.00  0.00     0.156 C 
BRANCH  29  30
ATOM     30  O   UNL     1     177.687 177.482 177.024  1.00  0.00    -0.396 OA
ATOM     31  H   UNL     1     177.131 176.672 176.883  1.00  0.00     0.210 HD
ENDBRANCH  29  30
ENDBRANCH  28  29
ENDBRANCH  27  28
ENDBRANCH  26  27
ENDBRANCH  25  26
ENDBRANCH  24  25
ENDBRANCH  23  24
ENDBRANCH  22  23
ENDBRANCH  21  22
ENDBRANCH  20  21
ENDBRANCH  19  20
ENDBRANCH  18  19
ENDBRANCH  17  18
ENDBRANCH   1  17
TORSDOF 28
ENDMDL
MODEL 6
REMARK VINA RESULT:    -4.147      1.760      3.633
REMARK INTER + INTRA:         -15.187
REMARK INTER:                 -11.525
REMARK INTRA:                  -3.662
REMARK UNBOUND:                -4.374
REMARK SMILES CCCCCCCCCCCCCCCCCCCCCCCCCCCCCO
REMARK SMILES IDX 16 1 15 2 14 3 13 4 12 5 11 6 10 7 9 8 8 9 7 10 6 11 5 12
REMARK SMILES IDX 4 13 3 14 2 15 1 16 17 17 18 18 19 19 20 20 21 21 22 22
REMARK SMILES IDX 23 23 24 24 25 25 26 26 27 27 28 28 29 29 30 30
REMARK H PARENT 30 31
REMARK Flexibility Score: inf
ROOT
ATOM      1  C   UNL     1     169.597 177.292 181.505  1.00  0.00     0.000 C 
ENDROOT
BRANCH   1   2
ATOM      2  C   UNL     1     168.375 177.223 180.576  1.00  0.00     0.000 C 
BRANCH   2   3
ATOM      3  C   UNL     1     167.820 178.610 180.200  1.00  0.00     0.000 C 
BRANCH   3   4
ATOM      4  C   UNL     1     166.287 178.776 180.305  1.00  0.00     0.000 C 
BRANCH   4   5
ATOM      5  C   UNL     1     165.479 177.484 180.558  1.00  0.00     0.000 C 
BRANCH   5   6
ATOM      6  C   UNL     1     164.300 177.643 181.534  1.00  0.00     0.000 C 
BRANCH   6   7
ATOM      7  C   UNL     1     163.778 179.083 181.632  1.00  0.00     0.000 C 
BRANCH   7   8
ATOM      8  C   UNL     1     162.245 179.124 181.599  1.00  0.00    -0.000 C 
BRANCH   8   9
ATOM      9  C   UNL     1     161.738 179.650 180.250  1.00  0.00    -0.000 C 
BRANCH   9  10
ATOM     10  C   UNL     1     162.906 179.919 179.289  1.00  0.00    -0.000 C 
BRANCH  10  11
ATOM     11  C   UNL     1     162.634 179.408 177.865  1.00  0.00    -0.000 C 
BRANCH  11  12
ATOM     12  C   UNL     1     161.768 178.137 177.847  1.00  0.00    -0.000 C 
BRANCH  12  13
ATOM     13  C   UNL     1     162.516 176.893 178.361  1.00  0.00    -0.000 C 
BRANCH  13  14
ATOM     14  C   UNL     1     161.616 175.735 178.829  1.00  0.00    -0.000 C 
BRANCH  14  15
ATOM     15  C   UNL     1     161.905 175.294 180.270  1.00  0.00    -0.003 C 
ATOM     16  C   UNL     1     160.767 175.688 181.207  1.00  0.00     0.004 C 
ENDBRANCH  14  15
ENDBRANCH  13  14
ENDBRANCH  12  13
ENDBRANCH  11  12
ENDBRANCH  10  11
ENDBRANCH   9  10
ENDBRANCH   8   9
ENDBRANCH   7   8
ENDBRANCH   6   7
ENDBRANCH   5   6
ENDBRANCH   4   5
ENDBRANCH   3   4
ENDBRANCH   2   3
ENDBRANCH   1   2
BRANCH   1  17
ATOM     17  C   UNL     1     169.640 178.634 182.252  1.00  0.00     0.000 C 
BRANCH  17  18
ATOM     18  C   UNL     1     170.978 179.370 182.082  1.00  0.00     0.000 C 
BRANCH  18  19
ATOM     19  C   UNL     1     171.934 178.643 181.120  1.00  0.00     0.000 C 
BRANCH  19  20
ATOM     20  C   UNL     1     173.313 179.321 181.021  1.00  0.00     0.000 C 
BRANCH  20  21
ATOM     21  C   UNL     1     174.031 179.151 179.667  1.00  0.00     0.000 C 
BRANCH  21  22
ATOM     22  C   UNL     1     175.564 179.320 179.708  1.00  0.00     0.000 C 
BRANCH  22  23
ATOM     23  C   UNL     1     176.157 179.517 181.114  1.00  0.00     0.000 C 
BRANCH  23  24
ATOM     24  C   UNL     1     177.131 178.397 181.512  1.00  0.00     0.000 C 
BRANCH  24  25
ATOM     25  C   UNL     1     177.433 177.484 180.315  1.00  0.00     0.000 C 
BRANCH  25  26
ATOM     26  C   UNL     1     177.049 176.014 180.570  1.00  0.00     0.000 C 
BRANCH  26  27
ATOM     27  C   UNL     1     175.704 175.578 179.960  1.00  0.00     0.002 C 
BRANCH  27  28
ATOM     28  C   UNL     1     174.531 175.717 180.941  1.00  0.00     0.028 C 
BRANCH  28  29
ATOM     29  C   UNL     1     173.207 175.326 180.277  1.00  0.00     0.156 C 
BRANCH  29  30
ATOM     30  O   UNL     1     173.330 175.381 178.882  1.00  0.00    -0.396 OA
ATOM     31  H   UNL     1     172.642 176.019 178.561  1.00  0.00     0.210 HD
ENDBRANCH  29  30
ENDBRANCH  28  29
ENDBRANCH  27  28
ENDBRANCH  26  27
ENDBRANCH  25  26
ENDBRANCH  24  25
ENDBRANCH  23  24
ENDBRANCH  22  23
ENDBRANCH  21  22
ENDBRANCH  20  21
ENDBRANCH  19  20
ENDBRANCH  18  19
ENDBRANCH  17  18
ENDBRANCH   1  17
TORSDOF 28
ENDMDL
MODEL 7
REMARK VINA RESULT:    -4.143      1.828      3.088
REMARK INTER + INTRA:         -15.178
REMARK INTER:                 -11.643
REMARK INTRA:                  -3.535
REMARK UNBOUND:                -4.374
REMARK SMILES CCCCCCCCCCCCCCCCCCCCCCCCCCCCCO
REMARK SMILES IDX 16 1 15 2 14 3 13 4 12 5 11 6 10 7 9 8 8 9 7 10 6 11 5 12
REMARK SMILES IDX 4 13 3 14 2 15 1 16 17 17 18 18 19 19 20 20 21 21 22 22
REMARK SMILES IDX 23 23 24 24 25 25 26 26 27 27 28 28 29 29 30 30
REMARK H PARENT 30 31
REMARK Flexibility Score: inf
ROOT
ATOM      1  C   UNL     1     169.522 178.622 181.714  1.00  0.00     0.000 C 
ENDROOT
BRANCH   1   2
ATOM      2  C   UNL     1     169.254 177.223 181.139  1.00  0.00     0.000 C 
BRANCH   2   3
ATOM      3  C   UNL     1     168.263 177.231 179.961  1.00  0.00     0.000 C 
BRANCH   3   4
ATOM      4  C   UNL     1     167.710 178.614 179.551  1.00  0.00     0.000 C 
BRANCH   4   5
ATOM      5  C   UNL     1     166.235 178.892 179.918  1.00  0.00     0.000 C 
BRANCH   5   6
ATOM      6  C   UNL     1     165.469 177.676 180.469  1.00  0.00     0.000 C 
BRANCH   6   7
ATOM      7  C   UNL     1     164.349 178.054 181.449  1.00  0.00     0.000 C 
BRANCH   7   8
ATOM      8  C   UNL     1     163.911 179.511 181.259  1.00  0.00    -0.000 C 
BRANCH   8   9
ATOM      9  C   UNL     1     162.486 179.730 181.782  1.00  0.00    -0.000 C 
BRANCH   9  10
ATOM     10  C   UNL     1     161.534 180.117 180.641  1.00  0.00    -0.000 C 
BRANCH  10  11
ATOM     11  C   UNL     1     162.125 179.832 179.250  1.00  0.00    -0.000 C 
BRANCH  11  12
ATOM     12  C   UNL     1     161.426 178.660 178.539  1.00  0.00    -0.000 C 
BRANCH  12  13
ATOM     13  C   UNL     1     162.362 177.462 178.297  1.00  0.00    -0.000 C 
BRANCH  13  14
ATOM     14  C   UNL     1     161.996 176.180 179.067  1.00  0.00    -0.000 C 
BRANCH  14  15
ATOM     15  C   UNL     1     161.434 176.460 180.468  1.00  0.00    -0.003 C 
ATOM     16  C   UNL     1     160.632 175.271 180.989  1.00  0.00     0.004 C 
ENDBRANCH  14  15
ENDBRANCH  13  14
ENDBRANCH  12  13
ENDBRANCH  11  12
ENDBRANCH  10  11
ENDBRANCH   9  10
ENDBRANCH   8   9
ENDBRANCH   7   8
ENDBRANCH   6   7
ENDBRANCH   5   6
ENDBRANCH   4   5
ENDBRANCH   3   4
ENDBRANCH   2   3
ENDBRANCH   1   2
BRANCH   1  17
ATOM     17  C   UNL     1     171.003 179.002 181.557  1.00  0.00     0.000 C 
BRANCH  17  18
ATOM     18  C   UNL     1     171.378 179.360 180.111  1.00  0.00     0.000 C 
BRANCH  18  19
ATOM     19  C   UNL     1     172.839 179.010 179.776  1.00  0.00     0.000 C 
BRANCH  19  20
ATOM     20  C   UNL     1     173.675 178.676 181.025  1.00  0.00     0.000 C 
BRANCH  20  21
ATOM     21  C   UNL     1     174.984 179.480 181.172  1.00  0.00     0.000 C 
BRANCH  21  22
ATOM     22  C   UNL     1     176.215 178.659 181.605  1.00  0.00     0.000 C 
BRANCH  22  23
ATOM     23  C   UNL     1     176.036 177.133 181.533  1.00  0.00     0.000 C 
BRANCH  23  24
ATOM     24  C   UNL     1     176.938 176.476 180.477  1.00  0.00     0.000 C 
BRANCH  24  25
ATOM     25  C   UNL     1     177.545 177.533 179.542  1.00  0.00     0.000 C 
BRANCH  25  26
ATOM     26  C   UNL     1     176.897 177.541 178.145  1.00  0.00     0.000 C 
BRANCH  26  27
ATOM     27  C   UNL     1     176.192 178.855 177.763  1.00  0.00     0.002 C 
BRANCH  27  28
ATOM     28  C   UNL     1     175.174 178.678 176.627  1.00  0.00     0.028 C 
BRANCH  28  29
ATOM     29  C   UNL     1     174.412 177.357 176.769  1.00  0.00     0.156 C 
BRANCH  29  30
ATOM     30  O   UNL     1     173.050 177.552 176.506  1.00  0.00    -0.396 OA
ATOM     31  H   UNL     1     172.923 178.527 176.372  1.00  0.00     0.210 HD
ENDBRANCH  29  30
ENDBRANCH  28  29
ENDBRANCH  27  28
ENDBRANCH  26  27
ENDBRANCH  25  26
ENDBRANCH  24  25
ENDBRANCH  23  24
ENDBRANCH  22  23
ENDBRANCH  21  22
ENDBRANCH  20  21
ENDBRANCH  19  20
ENDBRANCH  18  19
ENDBRANCH  17  18
ENDBRANCH   1  17
TORSDOF 28
ENDMDL
MODEL 8
REMARK VINA RESULT:    -4.143      1.719      4.312
REMARK INTER + INTRA:         -15.177
REMARK INTER:                 -11.853
REMARK INTRA:                  -3.324
REMARK UNBOUND:                -4.374
REMARK SMILES CCCCCCCCCCCCCCCCCCCCCCCCCCCCCO
REMARK SMILES IDX 16 1 15 2 14 3 13 4 12 5 11 6 10 7 9 8 8 9 7 10 6 11 5 12
REMARK SMILES IDX 4 13 3 14 2 15 1 16 17 17 18 18 19 19 20 20 21 21 22 22
REMARK SMILES IDX 23 23 24 24 25 25 26 26 27 27 28 28 29 29 30 30
REMARK H PARENT 30 31
REMARK Flexibility Score: inf
ROOT
ATOM      1  C   UNL     1     167.303 177.573 178.250  1.00  0.00     0.000 C 
ENDROOT
BRANCH   1   2
ATOM      2  C   UNL     1     165.886 178.060 178.589  1.00  0.00     0.000 C 
BRANCH   2   3
ATOM      3  C   UNL     1     164.950 176.929 179.052  1.00  0.00     0.000 C 
BRANCH   3   4
ATOM      4  C   UNL     1     164.454 177.016 180.513  1.00  0.00     0.000 C 
BRANCH   4   5
ATOM      5  C   UNL     1     164.560 178.403 181.184  1.00  0.00     0.000 C 
BRANCH   5   6
ATOM      6  C   UNL     1     163.270 178.886 181.873  1.00  0.00     0.000 C 
BRANCH   6   7
ATOM      7  C   UNL     1     162.134 179.197 180.889  1.00  0.00     0.000 C 
BRANCH   7   8
ATOM      8  C   UNL     1     162.613 180.111 179.755  1.00  0.00    -0.000 C 
BRANCH   8   9
ATOM      9  C   UNL     1     161.894 179.779 178.441  1.00  0.00    -0.000 C 
BRANCH   9  10
ATOM     10  C   UNL     1     161.409 178.322 178.430  1.00  0.00    -0.000 C 
BRANCH  10  11
ATOM     11  C   UNL     1     161.820 177.568 177.155  1.00  0.00    -0.000 C 
BRANCH  11  12
ATOM     12  C   UNL     1     161.374 176.095 177.168  1.00  0.00    -0.000 C 
BRANCH  12  13
ATOM     13  C   UNL     1     161.882 175.326 178.401  1.00  0.00    -0.000 C 
BRANCH  13  14
ATOM     14  C   UNL     1     160.807 174.534 179.167  1.00  0.00    -0.000 C 
BRANCH  14  15
ATOM     15  C   UNL     1     161.058 174.490 180.681  1.00  0.00    -0.003 C 
ATOM     16  C   UNL     1     160.548 175.758 181.362  1.00  0.00     0.004 C 
ENDBRANCH  14  15
ENDBRANCH  13  14
ENDBRANCH  12  13
ENDBRANCH  11  12
ENDBRANCH  10  11
ENDBRANCH   9  10
ENDBRANCH   8   9
ENDBRANCH   7   8
ENDBRANCH   6   7
ENDBRANCH   5   6
ENDBRANCH   4   5
ENDBRANCH   3   4
ENDBRANCH   2   3
ENDBRANCH   1   2
BRANCH   1  17
ATOM     17  C   UNL     1     168.321 178.103 179.271  1.00  0.00     0.000 C 
BRANCH  17  18
ATOM     18  C   UNL     1     168.177 177.449 180.654  1.00  0.00     0.000 C 
BRANCH  18  19
ATOM     19  C   UNL     1     169.511 176.902 181.191  1.00  0.00     0.000 C 
BRANCH  19  20
ATOM     20  C   UNL     1     170.027 177.681 182.415  1.00  0.00     0.000 C 
BRANCH  20  21
ATOM     21  C   UNL     1     170.728 179.017 182.093  1.00  0.00     0.000 C 
BRANCH  21  22
ATOM     22  C   UNL     1     171.684 178.984 180.884  1.00  0.00     0.000 C 
BRANCH  22  23
ATOM     23  C   UNL     1     173.011 179.736 181.086  1.00  0.00     0.000 C 
BRANCH  23  24
ATOM     24  C   UNL     1     174.205 179.023 180.432  1.00  0.00     0.000 C 
BRANCH  24  25
ATOM     25  C   UNL     1     175.329 178.790 181.453  1.00  0.00     0.000 C 
BRANCH  25  26
ATOM     26  C   UNL     1     176.697 179.304 180.966  1.00  0.00     0.000 C 
BRANCH  26  27
ATOM     27  C   UNL     1     176.973 179.098 179.466  1.00  0.00     0.002 C 
BRANCH  27  28
ATOM     28  C   UNL     1     177.535 177.705 179.148  1.00  0.00     0.028 C 
BRANCH  28  29
ATOM     29  C   UNL     1     176.923 177.143 177.861  1.00  0.00     0.156 C 
BRANCH  29  30
ATOM     30  O   UNL     1     177.201 175.774 177.750  1.00  0.00    -0.396 OA
ATOM     31  H   UNL     1     178.099 175.633 178.149  1.00  0.00     0.210 HD
ENDBRANCH  29  30
ENDBRANCH  28  29
ENDBRANCH  27  28
ENDBRANCH  26  27
ENDBRANCH  25  26
ENDBRANCH  24  25
ENDBRANCH  23  24
ENDBRANCH  22  23
ENDBRANCH  21  22
ENDBRANCH  20  21
ENDBRANCH  19  20
ENDBRANCH  18  19
ENDBRANCH  17  18
ENDBRANCH   1  17
TORSDOF 28
ENDMDL
MODEL 9
REMARK VINA RESULT:    -4.123      5.863      9.933
REMARK INTER + INTRA:         -15.125
REMARK INTER:                  -9.821
REMARK INTRA:                  -5.304
REMARK UNBOUND:                -4.374
REMARK SMILES CCCCCCCCCCCCCCCCCCCCCCCCCCCCCO
REMARK SMILES IDX 16 1 15 2 14 3 13 4 12 5 11 6 10 7 9 8 8 9 7 10 6 11 5 12
REMARK SMILES IDX 4 13 3 14 2 15 1 16 17 17 18 18 19 19 20 20 21 21 22 22
REMARK SMILES IDX 23 23 24 24 25 25 26 26 27 27 28 28 29 29 30 30
REMARK H PARENT 30 31
REMARK Flexibility Score: inf
ROOT
ATOM      1  C   UNL     1     163.355 175.550 180.268  1.00  0.00     0.000 C 
ENDROOT
BRANCH   1   2
ATOM      2  C   UNL     1     164.144 174.402 180.914  1.00  0.00     0.000 C 
BRANCH   2   3
ATOM      3  C   UNL     1     163.612 174.007 182.305  1.00  0.00     0.000 C 
BRANCH   3   4
ATOM      4  C   UNL     1     162.433 173.008 182.320  1.00  0.00     0.000 C 
BRANCH   4   5
ATOM      5  C   UNL     1     162.355 172.032 181.125  1.00  0.00     0.000 C 
BRANCH   5   6
ATOM      6  C   UNL     1     160.926 171.691 180.664  1.00  0.00     0.000 C 
BRANCH   6   7
ATOM      7  C   UNL     1     160.619 172.156 179.235  1.00  0.00     0.000 C 
BRANCH   7   8
ATOM      8  C   UNL     1     160.553 173.686 179.148  1.00  0.00    -0.000 C 
BRANCH   8   9
ATOM      9  C   UNL     1     160.991 174.178 177.763  1.00  0.00    -0.000 C 
BRANCH   9  10
ATOM     10  C   UNL     1     162.417 173.710 177.437  1.00  0.00    -0.000 C 
BRANCH  10  11
ATOM     11  C   UNL     1     162.756 173.829 175.942  1.00  0.00    -0.000 C 
BRANCH  11  12
ATOM     12  C   UNL     1     161.532 173.605 175.038  1.00  0.00    -0.000 C 
BRANCH  12  13
ATOM     13  C   UNL     1     161.387 174.683 173.948  1.00  0.00    -0.000 C 
BRANCH  13  14
ATOM     14  C   UNL     1     161.086 176.101 174.466  1.00  0.00    -0.000 C 
BRANCH  14  15
ATOM     15  C   UNL     1     162.165 177.122 174.079  1.00  0.00    -0.003 C 
ATOM     16  C   UNL     1     163.334 176.447 173.367  1.00  0.00     0.004 C 
ENDBRANCH  14  15
ENDBRANCH  13  14
ENDBRANCH  12  13
ENDBRANCH  11  12
ENDBRANCH  10  11
ENDBRANCH   9  10
ENDBRANCH   8   9
ENDBRANCH   7   8
ENDBRANCH   6   7
ENDBRANCH   5   6
ENDBRANCH   4   5
ENDBRANCH   3   4
ENDBRANCH   2   3
ENDBRANCH   1   2
BRANCH   1  17
ATOM     17  C   UNL     1     163.114 176.683 181.278  1.00  0.00     0.000 C 
BRANCH  17  18
ATOM     18  C   UNL     1     164.342 177.587 181.466  1.00  0.00     0.000 C 
BRANCH  18  19
ATOM     19  C   UNL     1     164.010 179.079 181.287  1.00  0.00     0.000 C 
BRANCH  19  20
ATOM     20  C   UNL     1     162.589 179.436 181.760  1.00  0.00     0.000 C 
BRANCH  20  21
ATOM     21  C   UNL     1     161.695 180.111 180.699  1.00  0.00     0.000 C 
BRANCH  21  22
ATOM     22  C   UNL     1     162.144 179.910 179.237  1.00  0.00     0.000 C 
BRANCH  22  23
ATOM     23  C   UNL     1     161.287 178.924 178.425  1.00  0.00     0.000 C 
BRANCH  23  24
ATOM     24  C   UNL     1     162.114 177.788 177.803  1.00  0.00     0.000 C 
BRANCH  24  25
ATOM     25  C   UNL     1     163.429 178.325 177.219  1.00  0.00     0.000 C 
BRANCH  25  26
ATOM     26  C   UNL     1     164.648 177.462 177.592  1.00  0.00     0.000 C 
BRANCH  26  27
ATOM     27  C   UNL     1     165.898 178.254 178.020  1.00  0.00     0.002 C 
BRANCH  27  28
ATOM     28  C   UNL     1     166.910 177.399 178.796  1.00  0.00     0.028 C 
BRANCH  28  29
ATOM     29  C   UNL     1     167.630 178.229 179.863  1.00  0.00     0.156 C 
BRANCH  29  30
ATOM     30  O   UNL     1     168.094 179.430 179.310  1.00  0.00    -0.396 OA
ATOM     31  H   UNL     1     167.299 179.908 178.959  1.00  0.00     0.210 HD
ENDBRANCH  29  30
ENDBRANCH  28  29
ENDBRANCH  27  28
ENDBRANCH  26  27
ENDBRANCH  25  26
ENDBRANCH  24  25
ENDBRANCH  23  24
ENDBRANCH  22  23
ENDBRANCH  21  22
ENDBRANCH  20  21
ENDBRANCH  19  20
ENDBRANCH  18  19
ENDBRANCH  17  18
ENDBRANCH   1  17
TORSDOF 28
ENDMDL
