MODEL 1
REMARK VINA RESULT:    -2.454      0.000      0.000
REMARK INTER + INTRA:          -2.753
REMARK INTER:                  -2.741
REMARK INTRA:                  -0.012
REMARK UNBOUND:                -0.012
REMARK SMILES CCCC(=O)[O-]
REMARK SMILES IDX 3 1 4 2 5 3 6 4 2 5 1 6
REMARK H PARENT
REMARK Flexibility Score: inf
ROOT
ATOM      1  C   UNL     1      54.888  27.639  50.184  1.00  0.00     0.052 C 
ENDROOT
BRANCH   1   2
ATOM      2  C   UNL     1      55.339  26.281  49.749  1.00  0.00     0.041 C 
ATOM      3  O   UNL     1      54.581  25.555  49.054  1.00  0.00    -0.550 OA
ATOM      4  O   UNL     1      56.615  25.836  50.071  1.00  0.00    -0.550 OA
ENDBRANCH   1   2
BRANCH   1   5
ATOM      5  C   UNL     1      53.463  27.913  49.695  1.00  0.00     0.003 C 
ATOM      6  C   UNL     1      53.005  29.314  50.089  1.00  0.00     0.004 C 
ENDBRANCH   1   5
TORSDOF 2
ENDMDL
MODEL 2
REMARK VINA RESULT:    -2.428     15.500     16.108
REMARK INTER + INTRA:          -2.724
REMARK INTER:                  -2.713
REMARK INTRA:                  -0.012
REMARK UNBOUND:                -0.012
REMARK SMILES CCCC(=O)[O-]
REMARK SMILES IDX 3 1 4 2 5 3 6 4 2 5 1 6
REMARK H PARENT
REMARK Flexibility Score: inf
ROOT
ATOM      1  C   UNL     1      62.645  34.548  60.657  1.00  0.00     0.052 C 
ENDROOT
BRANCH   1   2
ATOM      2  C   UNL     1      64.025  34.097  61.019  1.00  0.00     0.041 C 
ATOM      3  O   UNL     1      64.761  34.826  61.735  1.00  0.00    -0.550 OA
ATOM      4  O   UNL     1      64.481  32.852  60.606  1.00  0.00    -0.550 OA
ENDBRANCH   1   2
BRANCH   1   5
ATOM      5  C   UNL     1      62.432  36.007  61.067  1.00  0.00     0.003 C 
ATOM      6  C   UNL     1      61.050  36.501  60.649  1.00  0.00     0.004 C 
ENDBRANCH   1   5
TORSDOF 2
ENDMDL
MODEL 3
REMARK VINA RESULT:    -2.410      4.067      4.916
REMARK INTER + INTRA:          -2.704
REMARK INTER:                  -2.667
REMARK INTRA:                  -0.038
REMARK UNBOUND:                -0.012
REMARK SMILES CCCC(=O)[O-]
REMARK SMILES IDX 3 1 4 2 5 3 6 4 2 5 1 6
REMARK H PARENT
REMARK Flexibility Score: inf
ROOT
ATOM      1  C   UNL     1      59.072  28.930  49.067  1.00  0.00     0.052 C 
ENDROOT
BRANCH   1   2
ATOM      2  C   UNL     1      59.961  27.735  49.207  1.00  0.00     0.041 C 
ATOM      3  O   UNL     1      61.203  27.883  49.346  1.00  0.00    -0.550 OA
ATOM      4  O   UNL     1      59.412  26.459  49.230  1.00  0.00    -0.550 OA
ENDBRANCH   1   2
BRANCH   1   5
ATOM      5  C   UNL     1      58.386  29.246  50.399  1.00  0.00     0.003 C 
ATOM      6  C   UNL     1      56.948  28.734  50.412  1.00  0.00     0.004 C 
ENDBRANCH   1   5
TORSDOF 2
ENDMDL
MODEL 4
REMARK VINA RESULT:    -2.403     13.492     14.166
REMARK INTER + INTRA:          -2.696
REMARK INTER:                  -2.671
REMARK INTRA:                  -0.025
REMARK UNBOUND:                -0.012
REMARK SMILES CCCC(=O)[O-]
REMARK SMILES IDX 3 1 4 2 5 3 6 4 2 5 1 6
REMARK H PARENT
REMARK Flexibility Score: inf
ROOT
ATOM      1  C   UNL     1      61.182  30.723  61.771  1.00  0.00     0.052 C 
ENDROOT
BRANCH   1   2
ATOM      2  C   UNL     1      62.323  29.756  61.733  1.00  0.00     0.041 C 
ATOM      3  O   UNL     1      63.509  30.176  61.717  1.00  0.00    -0.550 OA
ATOM      4  O   UNL     1      62.076  28.389  61.763  1.00  0.00    -0.550 OA
ENDBRANCH   1   2
BRANCH   1   5
ATOM      5  C   UNL     1      61.058  31.458  60.434  1.00  0.00     0.003 C 
ATOM      6  C   UNL     1      61.640  32.866  60.523  1.00  0.00     0.004 C 
ENDBRANCH   1   5
TORSDOF 2
ENDMDL
MODEL 5
REMARK VINA RESULT:    -2.352     20.363     21.162
REMARK INTER + INTRA:          -2.639
REMARK INTER:                  -2.568
REMARK INTRA:                  -0.071
REMARK UNBOUND:                -0.012
REMARK SMILES CCCC(=O)[O-]
REMARK SMILES IDX 3 1 4 2 5 3 6 4 2 5 1 6
REMARK H PARENT
REMARK Flexibility Score: inf
ROOT
ATOM      1  C   UNL     1      72.761  30.771  60.205  1.00  0.00     0.052 C 
ENDROOT
BRANCH   1   2
ATOM      2  C   UNL     1      72.319  30.259  61.540  1.00  0.00     0.041 C 
ATOM      3  O   UNL     1      71.256  29.593  61.642  1.00  0.00    -0.550 OA
ATOM      4  O   UNL     1      73.107  30.477  62.663  1.00  0.00    -0.550 OA
ENDBRANCH   1   2
BRANCH   1   5
ATOM      5  C   UNL     1      71.698  31.697  59.608  1.00  0.00     0.003 C 
ATOM      6  C   UNL     1      71.544  32.968  60.438  1.00  0.00     0.004 C 
ENDBRANCH   1   5
TORSDOF 2
ENDMDL
MODEL 6
REMARK VINA RESULT:    -2.342     14.086     14.312
REMARK INTER + INTRA:          -2.628
REMARK INTER:                  -2.605
REMARK INTRA:                  -0.023
REMARK UNBOUND:                -0.012
REMARK SMILES CCCC(=O)[O-]
REMARK SMILES IDX 3 1 4 2 5 3 6 4 2 5 1 6
REMARK H PARENT
REMARK Flexibility Score: inf
ROOT
ATOM      1  C   UNL     1      62.417  31.623  60.628  1.00  0.00     0.052 C 
ENDROOT
BRANCH   1   2
ATOM      2  C   UNL     1      61.676  30.703  61.546  1.00  0.00     0.041 C 
ATOM      3  O   UNL     1      60.513  30.994  61.930  1.00  0.00    -0.550 OA
ATOM      4  O   UNL     1      62.252  29.502  61.939  1.00  0.00    -0.550 OA
ENDBRANCH   1   2
BRANCH   1   5
ATOM      5  C   UNL     1      61.640  32.927  60.435  1.00  0.00     0.003 C 
ATOM      6  C   UNL     1      62.554  34.140  60.581  1.00  0.00     0.004 C 
ENDBRANCH   1   5
TORSDOF 2
ENDMDL
MODEL 7
REMARK VINA RESULT:    -2.327      8.786      9.690
REMARK INTER + INTRA:          -2.611
REMARK INTER:                  -2.581
REMARK INTRA:                  -0.030
REMARK UNBOUND:                -0.012
REMARK SMILES CCCC(=O)[O-]
REMARK SMILES IDX 3 1 4 2 5 3 6 4 2 5 1 6
REMARK H PARENT
REMARK Flexibility Score: inf
ROOT
ATOM      1  C   UNL     1      57.752  17.528  50.521  1.00  0.00     0.052 C 
ENDROOT
BRANCH   1   2
ATOM      2  C   UNL     1      58.644  17.855  49.365  1.00  0.00     0.041 C 
ATOM      3  O   UNL     1      59.290  18.935  49.349  1.00  0.00    -0.550 OA
ATOM      4  O   UNL     1      58.799  16.945  48.327  1.00  0.00    -0.550 OA
ENDBRANCH   1   2
BRANCH   1   5
ATOM      5  C   UNL     1      56.521  18.436  50.521  1.00  0.00     0.003 C 
ATOM      6  C   UNL     1      56.353  19.138  51.866  1.00  0.00     0.004 C 
ENDBRANCH   1   5
TORSDOF 2
ENDMDL
MODEL 8
REMARK VINA RESULT:    -2.325      2.692      3.538
REMARK INTER + INTRA:          -2.609
REMARK INTER:                  -2.597
REMARK INTRA:                  -0.012
REMARK UNBOUND:                -0.012
REMARK SMILES CCCC(=O)[O-]
REMARK SMILES IDX 3 1 4 2 5 3 6 4 2 5 1 6
REMARK H PARENT
REMARK Flexibility Score: inf
ROOT
ATOM      1  C   UNL     1      53.811  27.985  49.764  1.00  0.00     0.052 C 
ENDROOT
BRANCH   1   2
ATOM      2  C   UNL     1      54.471  29.146  50.439  1.00  0.00     0.041 C 
ATOM      3  O   UNL     1      55.711  29.130  50.655  1.00  0.00    -0.550 OA
ATOM      4  O   UNL     1      53.725  30.265  50.785  1.00  0.00    -0.550 OA
ENDBRANCH   1   2
BRANCH   1   5
ATOM      5  C   UNL     1      54.733  26.764  49.773  1.00  0.00     0.003 C 
ATOM      6  C   UNL     1      54.071  25.567  49.096  1.00  0.00     0.004 C 
ENDBRANCH   1   5
TORSDOF 2
ENDMDL
MODEL 9
REMARK VINA RESULT:    -2.291      1.840      2.707
REMARK INTER + INTRA:          -2.571
REMARK INTER:                  -2.552
REMARK INTRA:                  -0.019
REMARK UNBOUND:                -0.012
REMARK SMILES CCCC(=O)[O-]
REMARK SMILES IDX 3 1 4 2 5 3 6 4 2 5 1 6
REMARK H PARENT
REMARK Flexibility Score: inf
ROOT
ATOM      1  C   UNL     1      56.068  27.003  50.245  1.00  0.00     0.052 C 
ENDROOT
BRANCH   1   2
ATOM      2  C   UNL     1      54.723  26.740  49.644  1.00  0.00     0.041 C 
ATOM      3  O   UNL     1      53.877  27.668  49.557  1.00  0.00    -0.550 OA
ATOM      4  O   UNL     1      54.422  25.483  49.137  1.00  0.00    -0.550 OA
ENDBRANCH   1   2
BRANCH   1   5
ATOM      5  C   UNL     1      56.238  28.493  50.548  1.00  0.00     0.003 C 
ATOM      6  C   UNL     1      57.656  28.962  50.232  1.00  0.00     0.004 C 
ENDBRANCH   1   5
TORSDOF 2
ENDMDL
