MODEL 1
REMARK VINA RESULT:    -2.863      0.000      0.000
REMARK INTER + INTRA:          -3.114
REMARK INTER:                  -3.114
REMARK INTRA:                   0.000
REMARK UNBOUND:                 0.000
REMARK SMILES [NH3+]CC(=O)[O-]
REMARK SMILES IDX 2 1 1 2 3 6 4 7 5 8
REMARK H PARENT 1 3 1 4 1 5
REMARK Flexibility Score: inf
ROOT
ATOM      1  C   UNL     1      37.257 107.636  72.204  1.00  0.00     0.312 C 
ENDROOT
BRANCH   1   2
ATOM      2  N   UNL     1      37.520 108.639  73.235  1.00  0.00    -0.353 N 
ATOM      3  H   UNL     1      38.120 109.403  72.846  1.00  0.00     0.344 HD
ATOM      4  H   UNL     1      37.997 108.196  74.054  1.00  0.00     0.344 HD
ATOM      5  H   UNL     1      36.613 109.049  73.552  1.00  0.00     0.344 HD
ENDBRANCH   1   2
BRANCH   1   6
ATOM      6  C   UNL     1      36.936 106.312  72.826  1.00  0.00     0.096 C 
ATOM      7  O   UNL     1      36.525 106.253  74.014  1.00  0.00    -0.544 OA
ATOM      8  O   UNL     1      37.043 105.148  72.076  1.00  0.00    -0.544 OA
ENDBRANCH   1   6
TORSDOF 2
ENDMDL
MODEL 2
REMARK VINA RESULT:    -2.828      2.343      2.668
REMARK INTER + INTRA:          -3.076
REMARK INTER:                  -3.076
REMARK INTRA:                   0.000
REMARK UNBOUND:                 0.000
REMARK SMILES [NH3+]CC(=O)[O-]
REMARK SMILES IDX 2 1 1 2 3 6 4 7 5 8
REMARK H PARENT 1 3 1 4 1 5
REMARK Flexibility Score: inf
ROOT
ATOM      1  C   UNL     1      36.906 107.372  73.739  1.00  0.00     0.312 C 
ENDROOT
BRANCH   1   2
ATOM      2  N   UNL     1      37.434 108.651  73.268  1.00  0.00    -0.353 N 
ATOM      3  H   UNL     1      38.118 108.493  72.492  1.00  0.00     0.344 HD
ATOM      4  H   UNL     1      37.904 109.157  74.055  1.00  0.00     0.344 HD
ATOM      5  H   UNL     1      36.646 109.236  72.911  1.00  0.00     0.344 HD
ENDBRANCH   1   2
BRANCH   1   6
ATOM      6  C   UNL     1      36.310 107.518  75.104  1.00  0.00     0.096 C 
ATOM      7  O   UNL     1      36.935 108.134  76.006  1.00  0.00    -0.544 OA
ATOM      8  O   UNL     1      35.042 107.015  75.366  1.00  0.00    -0.544 OA
ENDBRANCH   1   6
TORSDOF 2
ENDMDL
MODEL 3
REMARK VINA RESULT:    -2.826      1.561      2.126
REMARK INTER + INTRA:          -3.074
REMARK INTER:                  -3.074
REMARK INTRA:                   0.000
REMARK UNBOUND:                 0.000
REMARK SMILES [NH3+]CC(=O)[O-]
REMARK SMILES IDX 2 1 1 2 3 6 4 7 5 8
REMARK H PARENT 1 3 1 4 1 5
REMARK Flexibility Score: inf
ROOT
ATOM      1  C   UNL     1      36.937 107.872  74.718  1.00  0.00     0.312 C 
ENDROOT
BRANCH   1   2
ATOM      2  N   UNL     1      37.344 108.598  73.517  1.00  0.00    -0.353 N 
ATOM      3  H   UNL     1      38.333 108.362  73.273  1.00  0.00     0.344 HD
ATOM      4  H   UNL     1      37.253 109.629  73.673  1.00  0.00     0.344 HD
ATOM      5  H   UNL     1      36.724 108.320  72.723  1.00  0.00     0.344 HD
ENDBRANCH   1   2
BRANCH   1   6
ATOM      6  C   UNL     1      36.411 106.516  74.364  1.00  0.00     0.096 C 
ATOM      7  O   UNL     1      36.679 106.005  73.245  1.00  0.00    -0.544 OA
ATOM      8  O   UNL     1      35.665 105.796  75.288  1.00  0.00    -0.544 OA
ENDBRANCH   1   6
TORSDOF 2
ENDMDL
MODEL 4
REMARK VINA RESULT:    -2.797      3.486      3.872
REMARK INTER + INTRA:          -3.042
REMARK INTER:                  -3.042
REMARK INTRA:                   0.000
REMARK UNBOUND:                 0.000
REMARK SMILES [NH3+]CC(=O)[O-]
REMARK SMILES IDX 2 1 1 2 3 6 4 7 5 8
REMARK H PARENT 1 3 1 4 1 5
REMARK Flexibility Score: inf
ROOT
ATOM      1  C   UNL     1      36.410 107.550  75.230  1.00  0.00     0.312 C 
ENDROOT
BRANCH   1   2
ATOM      2  N   UNL     1      37.310 108.357  74.406  1.00  0.00    -0.353 N 
ATOM      3  H   UNL     1      36.759 108.905  73.706  1.00  0.00     0.344 HD
ATOM      4  H   UNL     1      37.995 107.739  73.913  1.00  0.00     0.344 HD
ATOM      5  H   UNL     1      37.832 109.021  75.021  1.00  0.00     0.344 HD
ENDBRANCH   1   2
BRANCH   1   6
ATOM      6  C   UNL     1      36.767 107.674  76.679  1.00  0.00     0.096 C 
ATOM      7  O   UNL     1      36.423 108.694  77.331  1.00  0.00    -0.544 OA
ATOM      8  O   UNL     1      37.436 106.640  77.320  1.00  0.00    -0.544 OA
ENDBRANCH   1   6
TORSDOF 2
ENDMDL
MODEL 5
REMARK VINA RESULT:    -2.612      4.074      4.688
REMARK INTER + INTRA:          -2.841
REMARK INTER:                  -2.841
REMARK INTRA:                   0.000
REMARK UNBOUND:                 0.000
REMARK SMILES [NH3+]CC(=O)[O-]
REMARK SMILES IDX 2 1 1 2 3 6 4 7 5 8
REMARK H PARENT 1 3 1 4 1 5
REMARK Flexibility Score: inf
ROOT
ATOM      1  C   UNL     1      35.308 106.746  76.388  1.00  0.00     0.312 C 
ENDROOT
BRANCH   1   2
ATOM      2  N   UNL     1      34.007 107.301  76.758  1.00  0.00    -0.353 N 
ATOM      3  H   UNL     1      34.095 108.326  76.947  1.00  0.00     0.344 HD
ATOM      4  H   UNL     1      33.639 106.814  77.609  1.00  0.00     0.344 HD
ATOM      5  H   UNL     1      33.337 107.158  75.969  1.00  0.00     0.344 HD
ENDBRANCH   1   2
BRANCH   1   6
ATOM      6  C   UNL     1      36.347 107.823  76.342  1.00  0.00     0.096 C 
ATOM      7  O   UNL     1      37.029 108.001  75.299  1.00  0.00    -0.544 OA
ATOM      8  O   UNL     1      36.528 108.661  77.434  1.00  0.00    -0.544 OA
ENDBRANCH   1   6
TORSDOF 2
ENDMDL
MODEL 6
REMARK VINA RESULT:    -2.562      3.573      3.959
REMARK INTER + INTRA:          -2.786
REMARK INTER:                  -2.786
REMARK INTRA:                   0.000
REMARK UNBOUND:                 0.000
REMARK SMILES [NH3+]CC(=O)[O-]
REMARK SMILES IDX 2 1 1 2 3 6 4 7 5 8
REMARK H PARENT 1 3 1 4 1 5
REMARK Flexibility Score: inf
ROOT
ATOM      1  C   UNL     1      35.164 107.173  76.844  1.00  0.00     0.312 C 
ENDROOT
BRANCH   1   2
ATOM      2  N   UNL     1      33.715 107.248  76.668  1.00  0.00    -0.353 N 
ATOM      3  H   UNL     1      33.455 106.939  75.703  1.00  0.00     0.344 HD
ATOM      4  H   UNL     1      33.385 108.229  76.827  1.00  0.00     0.344 HD
ATOM      5  H   UNL     1      33.253 106.618  77.361  1.00  0.00     0.344 HD
ENDBRANCH   1   2
BRANCH   1   6
ATOM      6  C   UNL     1      35.861 107.234  75.520  1.00  0.00     0.096 C 
ATOM      7  O   UNL     1      36.806 108.045  75.338  1.00  0.00    -0.544 OA
ATOM      8  O   UNL     1      35.499 106.360  74.503  1.00  0.00    -0.544 OA
ENDBRANCH   1   6
TORSDOF 2
ENDMDL
MODEL 7
REMARK VINA RESULT:    -2.481      5.363      5.872
REMARK INTER + INTRA:          -2.699
REMARK INTER:                  -2.699
REMARK INTRA:                   0.000
REMARK UNBOUND:                 0.000
REMARK SMILES [NH3+]CC(=O)[O-]
REMARK SMILES IDX 2 1 1 2 3 6 4 7 5 8
REMARK H PARENT 1 3 1 4 1 5
REMARK Flexibility Score: inf
ROOT
ATOM      1  C   UNL     1      33.383 106.712  75.530  1.00  0.00     0.312 C 
ENDROOT
BRANCH   1   2
ATOM      2  N   UNL     1      33.966 107.242  76.762  1.00  0.00    -0.353 N 
ATOM      3  H   UNL     1      33.295 107.900  77.221  1.00  0.00     0.344 HD
ATOM      4  H   UNL     1      34.862 107.741  76.549  1.00  0.00     0.344 HD
ATOM      5  H   UNL     1      34.165 106.451  77.414  1.00  0.00     0.344 HD
ENDBRANCH   1   2
BRANCH   1   6
ATOM      6  C   UNL     1      31.957 107.145  75.392  1.00  0.00     0.096 C 
ATOM      7  O   UNL     1      31.254 106.715  74.441  1.00  0.00    -0.544 OA
ATOM      8  O   UNL     1      31.390 107.985  76.342  1.00  0.00    -0.544 OA
ENDBRANCH   1   6
TORSDOF 2
ENDMDL
MODEL 8
REMARK VINA RESULT:    -2.464      3.941      4.426
REMARK INTER + INTRA:          -2.680
REMARK INTER:                  -2.680
REMARK INTRA:                   0.000
REMARK UNBOUND:                 0.000
REMARK SMILES [NH3+]CC(=O)[O-]
REMARK SMILES IDX 2 1 1 2 3 6 4 7 5 8
REMARK H PARENT 1 3 1 4 1 5
REMARK Flexibility Score: inf
ROOT
ATOM      1  C   UNL     1      33.011 106.756  75.535  1.00  0.00     0.312 C 
ENDROOT
BRANCH   1   2
ATOM      2  N   UNL     1      33.030 107.574  76.747  1.00  0.00    -0.353 N 
ATOM      3  H   UNL     1      33.087 108.587  76.494  1.00  0.00     0.344 HD
ATOM      4  H   UNL     1      33.850 107.312  77.343  1.00  0.00     0.344 HD
ATOM      5  H   UNL     1      32.151 107.407  77.286  1.00  0.00     0.344 HD
ENDBRANCH   1   2
BRANCH   1   6
ATOM      6  C   UNL     1      34.405 106.469  75.069  1.00  0.00     0.096 C 
ATOM      7  O   UNL     1      34.618 105.552  74.235  1.00  0.00    -0.544 OA
ATOM      8  O   UNL     1      35.462 107.249  75.519  1.00  0.00    -0.544 OA
ENDBRANCH   1   6
TORSDOF 2
ENDMDL
MODEL 9
REMARK VINA RESULT:    -2.424      4.756      5.204
REMARK INTER + INTRA:          -2.637
REMARK INTER:                  -2.637
REMARK INTRA:                   0.000
REMARK UNBOUND:                 0.000
REMARK SMILES [NH3+]CC(=O)[O-]
REMARK SMILES IDX 2 1 1 2 3 6 4 7 5 8
REMARK H PARENT 1 3 1 4 1 5
REMARK Flexibility Score: inf
ROOT
ATOM      1  C   UNL     1      36.617 107.864  76.288  1.00  0.00     0.312 C 
ENDROOT
BRANCH   1   2
ATOM      2  N   UNL     1      35.323 107.422  75.770  1.00  0.00    -0.353 N 
ATOM      3  H   UNL     1      35.300 106.379  75.708  1.00  0.00     0.344 HD
ATOM      4  H   UNL     1      35.155 107.837  74.824  1.00  0.00     0.344 HD
ATOM      5  H   UNL     1      34.568 107.741  76.418  1.00  0.00     0.344 HD
ENDBRANCH   1   2
BRANCH   1   6
ATOM      6  C   UNL     1      36.532 108.135  77.758  1.00  0.00     0.096 C 
ATOM      7  O   UNL     1      36.136 107.237  78.546  1.00  0.00    -0.544 OA
ATOM      8  O   UNL     1      36.939 109.363  78.263  1.00  0.00    -0.544 OA
ENDBRANCH   1   6
TORSDOF 2
ENDMDL
