MODEL 1
REMARK VINA RESULT:    -3.749      0.000      0.000
REMARK INTER + INTRA:          -6.349
REMARK INTER:                  -5.721
REMARK INTRA:                  -0.628
REMARK UNBOUND:                -0.628
REMARK SMILES O=C([O-])CCCCCCCCC(=O)[O-]
REMARK SMILES IDX 7 1 6 2 5 3 4 4 2 5 1 6 3 7 8 8 9 9 10 10 11 11 12 12 13 13
REMARK SMILES IDX 14 14
REMARK H PARENT
REMARK Flexibility Score: inf
ROOT
ATOM      1  C   UNL     1       7.340   8.486  33.466  1.00  0.00     0.000 C 
ENDROOT
BRANCH   1   2
ATOM      2  C   UNL     1       6.873   9.797  32.808  1.00  0.00     0.000 C 
BRANCH   2   3
ATOM      3  C   UNL     1       5.875  10.580  33.674  1.00  0.00     0.006 C 
BRANCH   3   4
ATOM      4  C   UNL     1       6.178  10.392  35.165  1.00  0.00     0.053 C 
BRANCH   4   5
ATOM      5  C   UNL     1       6.187  11.712  35.869  1.00  0.00     0.041 C 
ATOM      6  O   UNL     1       6.279  11.759  37.124  1.00  0.00    -0.550 OA
ATOM      7  O   UNL     1       6.043  12.887  35.144  1.00  0.00    -0.550 OA
ENDBRANCH   4   5
ENDBRANCH   3   4
ENDBRANCH   2   3
ENDBRANCH   1   2
BRANCH   1   8
ATOM      8  C   UNL     1       6.443   7.264  33.193  1.00  0.00     0.000 C 
BRANCH   8   9
ATOM      9  C   UNL     1       5.905   6.614  34.477  1.00  0.00     0.000 C 
BRANCH   9  10
ATOM     10  C   UNL     1       7.002   6.525  35.548  1.00  0.00     0.006 C 
BRANCH  10  11
ATOM     11  C   UNL     1       7.884   5.282  35.374  1.00  0.00     0.053 C 
BRANCH  11  12
ATOM     12  C   UNL     1       9.170   5.404  36.131  1.00  0.00     0.041 C 
ATOM     13  O   UNL     1       9.268   6.213  37.091  1.00  0.00    -0.550 OA
ATOM     14  O   UNL     1      10.273   4.647  35.755  1.00  0.00    -0.550 OA
ENDBRANCH  11  12
ENDBRANCH  10  11
ENDBRANCH   9  10
ENDBRANCH   8   9
ENDBRANCH   1   8
TORSDOF 9
ENDMDL
MODEL 2
REMARK VINA RESULT:    -3.497      1.916      3.097
REMARK INTER + INTRA:          -5.965
REMARK INTER:                  -5.431
REMARK INTRA:                  -0.534
REMARK UNBOUND:                -0.628
REMARK SMILES O=C([O-])CCCCCCCCC(=O)[O-]
REMARK SMILES IDX 7 1 6 2 5 3 4 4 2 5 1 6 3 7 8 8 9 9 10 10 11 11 12 12 13 13
REMARK SMILES IDX 14 14
REMARK H PARENT
REMARK Flexibility Score: inf
ROOT
ATOM      1  C   UNL     1       6.476   5.863  35.458  1.00  0.00     0.000 C 
ENDROOT
BRANCH   1   2
ATOM      2  C   UNL     1       7.320   6.894  34.687  1.00  0.00     0.000 C 
BRANCH   2   3
ATOM      3  C   UNL     1       6.574   7.508  33.493  1.00  0.00     0.006 C 
BRANCH   3   4
ATOM      4  C   UNL     1       7.282   8.772  32.996  1.00  0.00     0.053 C 
BRANCH   4   5
ATOM      5  C   UNL     1       6.512   9.993  33.387  1.00  0.00     0.041 C 
ATOM      6  O   UNL     1       6.230  10.867  32.525  1.00  0.00    -0.550 OA
ATOM      7  O   UNL     1       6.149  10.191  34.712  1.00  0.00    -0.550 OA
ENDBRANCH   4   5
ENDBRANCH   3   4
ENDBRANCH   2   3
ENDBRANCH   1   2
BRANCH   1   8
ATOM      8  C   UNL     1       6.139   4.580  34.674  1.00  0.00     0.000 C 
BRANCH   8   9
ATOM      9  C   UNL     1       6.526   3.298  35.427  1.00  0.00     0.000 C 
BRANCH   9  10
ATOM     10  C   UNL     1       7.591   3.588  36.495  1.00  0.00     0.006 C 
BRANCH  10  11
ATOM     11  C   UNL     1       8.828   2.695  36.338  1.00  0.00     0.053 C 
BRANCH  11  12
ATOM     12  C   UNL     1      10.052   3.496  36.012  1.00  0.00     0.041 C 
ATOM     13  O   UNL     1       9.953   4.716  35.716  1.00  0.00    -0.550 OA
ATOM     14  O   UNL     1      11.300   2.885  36.003  1.00  0.00    -0.550 OA
ENDBRANCH  11  12
ENDBRANCH  10  11
ENDBRANCH   9  10
ENDBRANCH   8   9
ENDBRANCH   1   8
TORSDOF 9
ENDMDL
MODEL 3
REMARK VINA RESULT:    -3.484      1.357      2.095
REMARK INTER + INTRA:          -5.945
REMARK INTER:                  -5.552
REMARK INTRA:                  -0.393
REMARK UNBOUND:                -0.628
REMARK SMILES O=C([O-])CCCCCCCCC(=O)[O-]
REMARK SMILES IDX 7 1 6 2 5 3 4 4 2 5 1 6 3 7 8 8 9 9 10 10 11 11 12 12 13 13
REMARK SMILES IDX 14 14
REMARK H PARENT
REMARK Flexibility Score: inf
ROOT
ATOM      1  C   UNL     1       7.296   6.459  34.166  1.00  0.00     0.000 C 
ENDROOT
BRANCH   1   2
ATOM      2  C   UNL     1       6.470   7.539  33.444  1.00  0.00     0.000 C 
BRANCH   2   3
ATOM      3  C   UNL     1       7.215   8.876  33.313  1.00  0.00     0.006 C 
BRANCH   3   4
ATOM      4  C   UNL     1       6.232  10.051  33.295  1.00  0.00     0.053 C 
BRANCH   4   5
ATOM      5  C   UNL     1       6.183  10.714  34.635  1.00  0.00     0.041 C 
ATOM      6  O   UNL     1       6.374  10.041  35.682  1.00  0.00    -0.550 OA
ATOM      7  O   UNL     1       5.876  12.065  34.731  1.00  0.00    -0.550 OA
ENDBRANCH   4   5
ENDBRANCH   3   4
ENDBRANCH   2   3
ENDBRANCH   1   2
BRANCH   1   8
ATOM      8  C   UNL     1       6.472   5.445  34.982  1.00  0.00     0.000 C 
BRANCH   8   9
ATOM      9  C   UNL     1       6.660   5.600  36.498  1.00  0.00     0.000 C 
BRANCH   9  10
ATOM     10  C   UNL     1       8.103   5.269  36.910  1.00  0.00     0.006 C 
BRANCH  10  11
ATOM     11  C   UNL     1       8.557   3.901  36.386  1.00  0.00     0.053 C 
BRANCH  11  12
ATOM     12  C   UNL     1      10.004   3.907  36.002  1.00  0.00     0.041 C 
ATOM     13  O   UNL     1      10.433   4.732  35.152  1.00  0.00    -0.550 OA
ATOM     14  O   UNL     1      10.875   2.978  36.558  1.00  0.00    -0.550 OA
ENDBRANCH  11  12
ENDBRANCH  10  11
ENDBRANCH   9  10
ENDBRANCH   8   9
ENDBRANCH   1   8
TORSDOF 9
ENDMDL
MODEL 4
REMARK VINA RESULT:    -3.435      1.156      6.323
REMARK INTER + INTRA:          -5.870
REMARK INTER:                  -5.446
REMARK INTRA:                  -0.424
REMARK UNBOUND:                -0.628
REMARK SMILES O=C([O-])CCCCCCCCC(=O)[O-]
REMARK SMILES IDX 7 1 6 2 5 3 4 4 2 5 1 6 3 7 8 8 9 9 10 10 11 11 12 12 13 13
REMARK SMILES IDX 14 14
REMARK H PARENT
REMARK Flexibility Score: inf
ROOT
ATOM      1  C   UNL     1       7.035   6.569  34.023  1.00  0.00     0.000 C 
ENDROOT
BRANCH   1   2
ATOM      2  C   UNL     1       6.482   5.501  34.985  1.00  0.00     0.000 C 
BRANCH   2   3
ATOM      3  C   UNL     1       7.331   5.342  36.255  1.00  0.00     0.006 C 
BRANCH   3   4
ATOM      4  C   UNL     1       8.799   5.683  35.979  1.00  0.00     0.053 C 
BRANCH   4   5
ATOM      5  C   UNL     1       9.580   4.441  35.686  1.00  0.00     0.041 C 
ATOM      6  O   UNL     1       9.193   3.329  36.133  1.00  0.00    -0.550 OA
ATOM      7  O   UNL     1      10.761   4.518  34.961  1.00  0.00    -0.550 OA
ENDBRANCH   4   5
ENDBRANCH   3   4
ENDBRANCH   2   3
ENDBRANCH   1   2
BRANCH   1   8
ATOM      8  C   UNL     1       6.196   7.857  33.928  1.00  0.00     0.000 C 
BRANCH   8   9
ATOM      9  C   UNL     1       7.040   9.100  33.609  1.00  0.00     0.000 C 
BRANCH   9  10
ATOM     10  C   UNL     1       6.252  10.388  33.893  1.00  0.00     0.006 C 
BRANCH  10  11
ATOM     11  C   UNL     1       5.875  10.524  35.373  1.00  0.00     0.053 C 
BRANCH  11  12
ATOM     12  C   UNL     1       6.345  11.824  35.948  1.00  0.00     0.041 C 
ATOM     13  O   UNL     1       5.936  12.915  35.471  1.00  0.00    -0.550 OA
ATOM     14  O   UNL     1       7.263  11.832  36.991  1.00  0.00    -0.550 OA
ENDBRANCH  11  12
ENDBRANCH  10  11
ENDBRANCH   9  10
ENDBRANCH   8   9
ENDBRANCH   1   8
TORSDOF 9
ENDMDL
MODEL 5
REMARK VINA RESULT:    -3.318      1.911      6.901
REMARK INTER + INTRA:          -5.691
REMARK INTER:                  -5.314
REMARK INTRA:                  -0.377
REMARK UNBOUND:                -0.628
REMARK SMILES O=C([O-])CCCCCCCCC(=O)[O-]
REMARK SMILES IDX 7 1 6 2 5 3 4 4 2 5 1 6 3 7 8 8 9 9 10 10 11 11 12 12 13 13
REMARK SMILES IDX 14 14
REMARK H PARENT
REMARK Flexibility Score: inf
ROOT
ATOM      1  C   UNL     1       6.338   4.201  34.929  1.00  0.00     0.000 C 
ENDROOT
BRANCH   1   2
ATOM      2  C   UNL     1       6.835   3.847  36.343  1.00  0.00     0.000 C 
BRANCH   2   3
ATOM      3  C   UNL     1       8.012   2.860  36.335  1.00  0.00     0.006 C 
BRANCH   3   4
ATOM      4  C   UNL     1       9.232   3.457  37.045  1.00  0.00     0.053 C 
BRANCH   4   5
ATOM      5  C   UNL     1      10.361   3.641  36.082  1.00  0.00     0.041 C 
ATOM      6  O   UNL     1      10.346   4.600  35.265  1.00  0.00    -0.550 OA
ATOM      7  O   UNL     1      11.406   2.727  36.052  1.00  0.00    -0.550 OA
ENDBRANCH   4   5
ENDBRANCH   3   4
ENDBRANCH   2   3
ENDBRANCH   1   2
BRANCH   1   8
ATOM      8  C   UNL     1       5.948   5.677  34.726  1.00  0.00     0.000 C 
BRANCH   8   9
ATOM      9  C   UNL     1       7.154   6.580  34.428  1.00  0.00     0.000 C 
BRANCH   9  10
ATOM     10  C   UNL     1       6.738   7.789  33.576  1.00  0.00     0.006 C 
BRANCH  10  11
ATOM     11  C   UNL     1       6.109   8.905  34.420  1.00  0.00     0.053 C 
BRANCH  11  12
ATOM     12  C   UNL     1       6.203  10.236  33.738  1.00  0.00     0.041 C 
ATOM     13  O   UNL     1       6.606  10.312  32.547  1.00  0.00    -0.550 OA
ATOM     14  O   UNL     1       5.876  11.395  34.429  1.00  0.00    -0.550 OA
ENDBRANCH  11  12
ENDBRANCH  10  11
ENDBRANCH   9  10
ENDBRANCH   8   9
ENDBRANCH   1   8
TORSDOF 9
ENDMDL
MODEL 6
REMARK VINA RESULT:    -3.296      2.252      6.834
REMARK INTER + INTRA:          -5.658
REMARK INTER:                  -5.140
REMARK INTRA:                  -0.518
REMARK UNBOUND:                -0.628
REMARK SMILES O=C([O-])CCCCCCCCC(=O)[O-]
REMARK SMILES IDX 7 1 6 2 5 3 4 4 2 5 1 6 3 7 8 8 9 9 10 10 11 11 12 12 13 13
REMARK SMILES IDX 14 14
REMARK H PARENT
REMARK Flexibility Score: inf
ROOT
ATOM      1  C   UNL     1       6.666   5.077  35.306  1.00  0.00     0.000 C 
ENDROOT
BRANCH   1   2
ATOM      2  C   UNL     1       6.957   3.588  35.572  1.00  0.00     0.000 C 
BRANCH   2   3
ATOM      3  C   UNL     1       7.938   3.366  36.732  1.00  0.00     0.006 C 
BRANCH   3   4
ATOM      4  C   UNL     1       9.083   2.438  36.312  1.00  0.00     0.053 C 
BRANCH   4   5
ATOM      5  C   UNL     1      10.369   3.198  36.225  1.00  0.00     0.041 C 
ATOM      6  O   UNL     1      11.386   2.794  36.848  1.00  0.00    -0.550 OA
ATOM      7  O   UNL     1      10.430   4.378  35.497  1.00  0.00    -0.550 OA
ENDBRANCH   4   5
ENDBRANCH   3   4
ENDBRANCH   2   3
ENDBRANCH   1   2
BRANCH   1   8
ATOM      8  C   UNL     1       7.355   6.058  36.274  1.00  0.00     0.000 C 
BRANCH   8   9
ATOM      9  C   UNL     1       6.807   7.488  36.169  1.00  0.00     0.000 C 
BRANCH   9  10
ATOM     10  C   UNL     1       6.245   7.761  34.766  1.00  0.00     0.006 C 
BRANCH  10  11
ATOM     11  C   UNL     1       6.025   9.257  34.509  1.00  0.00     0.053 C 
BRANCH  11  12
ATOM     12  C   UNL     1       6.715   9.713  33.260  1.00  0.00     0.041 C 
ATOM     13  O   UNL     1       7.657   9.035  32.771  1.00  0.00    -0.550 OA
ATOM     14  O   UNL     1       6.341  10.905  32.655  1.00  0.00    -0.550 OA
ENDBRANCH  11  12
ENDBRANCH  10  11
ENDBRANCH   9  10
ENDBRANCH   8   9
ENDBRANCH   1   8
TORSDOF 9
ENDMDL
MODEL 7
REMARK VINA RESULT:    -2.738     22.246     24.148
REMARK INTER + INTRA:          -4.806
REMARK INTER:                  -4.398
REMARK INTRA:                  -0.408
REMARK UNBOUND:                -0.628
REMARK SMILES O=C([O-])CCCCCCCCC(=O)[O-]
REMARK SMILES IDX 7 1 6 2 5 3 4 4 2 5 1 6 3 7 8 8 9 9 10 10 11 11 12 12 13 13
REMARK SMILES IDX 14 14
REMARK H PARENT
REMARK Flexibility Score: inf
ROOT
ATOM      1  C   UNL     1      21.246  20.697  20.645  1.00  0.00     0.000 C 
ENDROOT
BRANCH   1   2
ATOM      2  C   UNL     1      22.287  21.832  20.669  1.00  0.00     0.000 C 
BRANCH   2   3
ATOM      3  C   UNL     1      23.717  21.338  20.406  1.00  0.00     0.006 C 
BRANCH   3   4
ATOM      4  C   UNL     1      23.731  19.837  20.100  1.00  0.00     0.053 C 
BRANCH   4   5
ATOM      5  C   UNL     1      24.973  19.203  20.643  1.00  0.00     0.041 C 
ATOM      6  O   UNL     1      25.644  19.786  21.534  1.00  0.00    -0.550 OA
ATOM      7  O   UNL     1      25.416  17.992  20.128  1.00  0.00    -0.550 OA
ENDBRANCH   4   5
ENDBRANCH   3   4
ENDBRANCH   2   3
ENDBRANCH   1   2
BRANCH   1   8
ATOM      8  C   UNL     1      19.850  21.082  21.172  1.00  0.00     0.000 C 
BRANCH   8   9
ATOM      9  C   UNL     1      19.015  21.861  20.145  1.00  0.00     0.000 C 
BRANCH   9  10
ATOM     10  C   UNL     1      18.434  20.918  19.080  1.00  0.00     0.006 C 
BRANCH  10  11
ATOM     11  C   UNL     1      17.908  19.611  19.687  1.00  0.00     0.053 C 
BRANCH  11  12
ATOM     12  C   UNL     1      17.486  18.639  18.629  1.00  0.00     0.041 C 
ATOM     13  O   UNL     1      16.528  18.915  17.858  1.00  0.00    -0.550 OA
ATOM     14  O   UNL     1      18.128  17.413  18.515  1.00  0.00    -0.550 OA
ENDBRANCH  11  12
ENDBRANCH  10  11
ENDBRANCH   9  10
ENDBRANCH   8   9
ENDBRANCH   1   8
TORSDOF 9
ENDMDL
MODEL 8
REMARK VINA RESULT:    -2.737     22.489     24.116
REMARK INTER + INTRA:          -4.805
REMARK INTER:                  -4.184
REMARK INTRA:                  -0.621
REMARK UNBOUND:                -0.628
REMARK SMILES O=C([O-])CCCCCCCCC(=O)[O-]
REMARK SMILES IDX 7 1 6 2 5 3 4 4 2 5 1 6 3 7 8 8 9 9 10 10 11 11 12 12 13 13
REMARK SMILES IDX 14 14
REMARK H PARENT
REMARK Flexibility Score: inf
ROOT
ATOM      1  C   UNL     1      20.763  20.623  20.796  1.00  0.00     0.000 C 
ENDROOT
BRANCH   1   2
ATOM      2  C   UNL     1      19.505  21.508  20.720  1.00  0.00     0.000 C 
BRANCH   2   3
ATOM      3  C   UNL     1      18.628  21.200  19.497  1.00  0.00     0.006 C 
BRANCH   3   4
ATOM      4  C   UNL     1      19.048  19.881  18.840  1.00  0.00     0.053 C 
BRANCH   4   5
ATOM      5  C   UNL     1      18.024  18.821  19.091  1.00  0.00     0.041 C 
ATOM      6  O   UNL     1      17.077  19.033  19.893  1.00  0.00    -0.550 OA
ATOM      7  O   UNL     1      18.143  17.581  18.479  1.00  0.00    -0.550 OA
ENDBRANCH   4   5
ENDBRANCH   3   4
ENDBRANCH   2   3
ENDBRANCH   1   2
BRANCH   1   8
ATOM      8  C   UNL     1      22.094  21.361  20.561  1.00  0.00     0.000 C 
BRANCH   8   9
ATOM      9  C   UNL     1      22.607  21.230  19.120  1.00  0.00     0.000 C 
BRANCH   9  10
ATOM     10  C   UNL     1      24.060  20.733  19.096  1.00  0.00     0.006 C 
BRANCH  10  11
ATOM     11  C   UNL     1      24.159  19.218  19.316  1.00  0.00     0.053 C 
BRANCH  11  12
ATOM     12  C   UNL     1      25.113  18.878  20.419  1.00  0.00     0.041 C 
ATOM     13  O   UNL     1      25.381  19.726  21.311  1.00  0.00    -0.550 OA
ATOM     14  O   UNL     1      25.733  17.636  20.444  1.00  0.00    -0.550 OA
ENDBRANCH  11  12
ENDBRANCH  10  11
ENDBRANCH   9  10
ENDBRANCH   8   9
ENDBRANCH   1   8
TORSDOF 9
ENDMDL
MODEL 9
REMARK VINA RESULT:    -2.700     22.297     23.881
REMARK INTER + INTRA:          -4.748
REMARK INTER:                  -4.292
REMARK INTRA:                  -0.456
REMARK UNBOUND:                -0.628
REMARK SMILES O=C([O-])CCCCCCCCC(=O)[O-]
REMARK SMILES IDX 7 1 6 2 5 3 4 4 2 5 1 6 3 7 8 8 9 9 10 10 11 11 12 12 13 13
REMARK SMILES IDX 14 14
REMARK H PARENT
REMARK Flexibility Score: inf
ROOT
ATOM      1  C   UNL     1      18.461  19.743  19.454  1.00  0.00     0.000 C 
ENDROOT
BRANCH   1   2
ATOM      2  C   UNL     1      18.394  19.739  17.915  1.00  0.00     0.000 C 
BRANCH   2   3
ATOM      3  C   UNL     1      18.895  18.425  17.297  1.00  0.00     0.006 C 
BRANCH   3   4
ATOM      4  C   UNL     1      18.425  17.220  18.118  1.00  0.00     0.053 C 
BRANCH   4   5
ATOM      5  C   UNL     1      18.834  15.942  17.456  1.00  0.00     0.041 C 
ATOM      6  O   UNL     1      18.018  14.989  17.360  1.00  0.00    -0.550 OA
ATOM      7  O   UNL     1      20.133  15.787  16.989  1.00  0.00    -0.550 OA
ENDBRANCH   4   5
ENDBRANCH   3   4
ENDBRANCH   2   3
ENDBRANCH   1   2
BRANCH   1   8
ATOM      8  C   UNL     1      18.873  21.087  20.085  1.00  0.00     0.000 C 
BRANCH   8   9
ATOM      9  C   UNL     1      19.969  20.938  21.150  1.00  0.00     0.000 C 
BRANCH   9  10
ATOM     10  C   UNL     1      21.253  21.664  20.724  1.00  0.00     0.006 C 
BRANCH  10  11
ATOM     11  C   UNL     1      22.067  20.855  19.706  1.00  0.00     0.053 C 
BRANCH  11  12
ATOM     12  C   UNL     1      23.447  20.559  20.209  1.00  0.00     0.041 C 
ATOM     13  O   UNL     1      24.000  19.460  19.937  1.00  0.00    -0.550 OA
ATOM     14  O   UNL     1      24.109  21.483  21.007  1.00  0.00    -0.550 OA
ENDBRANCH  11  12
ENDBRANCH  10  11
ENDBRANCH   9  10
ENDBRANCH   8   9
ENDBRANCH   1   8
TORSDOF 9
ENDMDL
