MODEL 1
REMARK VINA RESULT:    -3.386      0.000      0.000
REMARK INTER + INTRA:          -6.831
REMARK INTER:                  -5.761
REMARK INTRA:                  -1.070
REMARK UNBOUND:                -1.070
REMARK SMILES CCCCCCCCCCCCCC(=O)[O-]
REMARK SMILES IDX 8 1 9 2 10 3 11 4 12 5 13 6 14 7 15 8 16 9 7 10 6 11 5 12
REMARK SMILES IDX 4 13 3 14 2 15 1 16
REMARK H PARENT
REMARK Flexibility Score: inf
ROOT
ATOM      1  C   UNL     1      26.272  19.927  57.632  1.00  0.00     0.000 C 
ENDROOT
BRANCH   1   2
ATOM      2  C   UNL     1      26.787  20.642  58.895  1.00  0.00     0.000 C 
BRANCH   2   3
ATOM      3  C   UNL     1      25.846  21.757  59.380  1.00  0.00     0.000 C 
BRANCH   3   4
ATOM      4  C   UNL     1      25.603  21.721  60.901  1.00  0.00     0.000 C 
BRANCH   4   5
ATOM      5  C   UNL     1      26.838  21.374  61.758  1.00  0.00     0.006 C 
BRANCH   5   6
ATOM      6  C   UNL     1      26.589  21.390  63.274  1.00  0.00     0.053 C 
BRANCH   6   7
ATOM      7  C   UNL     1      25.444  20.506  63.664  1.00  0.00     0.041 C 
ATOM      8  O   UNL     1      24.381  21.008  64.113  1.00  0.00    -0.550 OA
ATOM      9  O   UNL     1      25.564  19.126  63.562  1.00  0.00    -0.550 OA
ENDBRANCH   6   7
ENDBRANCH   5   6
ENDBRANCH   4   5
ENDBRANCH   3   4
ENDBRANCH   2   3
ENDBRANCH   1   2
BRANCH   1  10
ATOM     10  C   UNL     1      27.001  20.289  56.326  1.00  0.00     0.000 C 
BRANCH  10  11
ATOM     11  C   UNL     1      26.052  20.796  55.226  1.00  0.00    -0.000 C 
BRANCH  11  12
ATOM     12  C   UNL     1      24.761  21.405  55.796  1.00  0.00    -0.000 C 
BRANCH  12  13
ATOM     13  C   UNL     1      23.521  20.547  55.505  1.00  0.00    -0.000 C 
BRANCH  13  14
ATOM     14  C   UNL     1      23.881  19.350  54.611  1.00  0.00    -0.000 C 
BRANCH  14  15
ATOM     15  C   UNL     1      23.690  18.002  55.324  1.00  0.00    -0.003 C 
ATOM     16  C   UNL     1      22.917  18.130  56.635  1.00  0.00     0.004 C 
ENDBRANCH  14  15
ENDBRANCH  13  14
ENDBRANCH  12  13
ENDBRANCH  11  12
ENDBRANCH  10  11
ENDBRANCH   1  10
TORSDOF 12
ENDMDL
MODEL 2
REMARK VINA RESULT:    -3.374      2.602      6.311
REMARK INTER + INTRA:          -6.810
REMARK INTER:                  -5.483
REMARK INTRA:                  -1.327
REMARK UNBOUND:                -1.070
REMARK SMILES CCCCCCCCCCCCCC(=O)[O-]
REMARK SMILES IDX 8 1 9 2 10 3 11 4 12 5 13 6 14 7 15 8 16 9 7 10 6 11 5 12
REMARK SMILES IDX 4 13 3 14 2 15 1 16
REMARK H PARENT
REMARK Flexibility Score: inf
ROOT
ATOM      1  C   UNL     1      26.531  20.157  58.267  1.00  0.00     0.000 C 
ENDROOT
BRANCH   1   2
ATOM      2  C   UNL     1      26.952  20.423  56.809  1.00  0.00     0.000 C 
BRANCH   2   3
ATOM      3  C   UNL     1      26.342  21.712  56.233  1.00  0.00     0.000 C 
BRANCH   3   4
ATOM      4  C   UNL     1      24.872  21.543  55.807  1.00  0.00     0.000 C 
BRANCH   4   5
ATOM      5  C   UNL     1      24.585  20.338  54.888  1.00  0.00     0.006 C 
BRANCH   5   6
ATOM      6  C   UNL     1      23.361  19.501  55.294  1.00  0.00     0.053 C 
BRANCH   6   7
ATOM      7  C   UNL     1      23.599  18.738  56.561  1.00  0.00     0.041 C 
ATOM      8  O   UNL     1      24.375  17.746  56.567  1.00  0.00    -0.550 OA
ATOM      9  O   UNL     1      22.940  19.103  57.727  1.00  0.00    -0.550 OA
ENDBRANCH   6   7
ENDBRANCH   5   6
ENDBRANCH   4   5
ENDBRANCH   3   4
ENDBRANCH   2   3
ENDBRANCH   1   2
BRANCH   1  10
ATOM     10  C   UNL     1      27.353  20.900  59.336  1.00  0.00     0.000 C 
BRANCH  10  11
ATOM     11  C   UNL     1      26.499  21.834  60.210  1.00  0.00    -0.000 C 
BRANCH  11  12
ATOM     12  C   UNL     1      24.990  21.610  60.015  1.00  0.00    -0.000 C 
BRANCH  12  13
ATOM     13  C   UNL     1      24.224  21.543  61.344  1.00  0.00    -0.000 C 
BRANCH  13  14
ATOM     14  C   UNL     1      25.189  21.620  62.536  1.00  0.00    -0.000 C 
BRANCH  14  15
ATOM     15  C   UNL     1      25.096  20.388  63.452  1.00  0.00    -0.003 C 
ATOM     16  C   UNL     1      26.464  19.798  63.791  1.00  0.00     0.004 C 
ENDBRANCH  14  15
ENDBRANCH  13  14
ENDBRANCH  12  13
ENDBRANCH  11  12
ENDBRANCH  10  11
ENDBRANCH   1  10
TORSDOF 12
ENDMDL
MODEL 3
REMARK VINA RESULT:    -3.325      1.043      1.507
REMARK INTER + INTRA:          -6.728
REMARK INTER:                  -5.484
REMARK INTRA:                  -1.244
REMARK UNBOUND:                -1.070
REMARK SMILES CCCCCCCCCCCCCC(=O)[O-]
REMARK SMILES IDX 8 1 9 2 10 3 11 4 12 5 13 6 14 7 15 8 16 9 7 10 6 11 5 12
REMARK SMILES IDX 4 13 3 14 2 15 1 16
REMARK H PARENT
REMARK Flexibility Score: inf
ROOT
ATOM      1  C   UNL     1      26.990  20.515  58.963  1.00  0.00     0.000 C 
ENDROOT
BRANCH   1   2
ATOM      2  C   UNL     1      26.189  21.684  59.566  1.00  0.00     0.000 C 
BRANCH   2   3
ATOM      3  C   UNL     1      24.689  21.622  59.230  1.00  0.00     0.000 C 
BRANCH   3   4
ATOM      4  C   UNL     1      23.801  21.438  60.475  1.00  0.00     0.000 C 
BRANCH   4   5
ATOM      5  C   UNL     1      24.374  22.015  61.785  1.00  0.00     0.006 C 
BRANCH   5   6
ATOM      6  C   UNL     1      24.244  21.088  63.004  1.00  0.00     0.053 C 
BRANCH   6   7
ATOM      7  C   UNL     1      25.557  20.473  63.383  1.00  0.00     0.041 C 
ATOM      8  O   UNL     1      26.620  21.139  63.281  1.00  0.00    -0.550 OA
ATOM      9  O   UNL     1      25.609  19.155  63.818  1.00  0.00    -0.550 OA
ENDBRANCH   6   7
ENDBRANCH   5   6
ENDBRANCH   4   5
ENDBRANCH   3   4
ENDBRANCH   2   3
ENDBRANCH   1   2
BRANCH   1  10
ATOM     10  C   UNL     1      26.335  19.820  57.756  1.00  0.00     0.000 C 
BRANCH  10  11
ATOM     11  C   UNL     1      26.992  20.195  56.416  1.00  0.00    -0.000 C 
BRANCH  11  12
ATOM     12  C   UNL     1      25.993  20.804  55.419  1.00  0.00    -0.000 C 
BRANCH  12  13
ATOM     13  C   UNL     1      24.558  20.303  55.636  1.00  0.00    -0.000 C 
BRANCH  13  14
ATOM     14  C   UNL     1      24.202  19.203  54.624  1.00  0.00    -0.000 C 
BRANCH  14  15
ATOM     15  C   UNL     1      23.342  18.089  55.241  1.00  0.00    -0.003 C 
ATOM     16  C   UNL     1      23.119  18.275  56.741  1.00  0.00     0.004 C 
ENDBRANCH  14  15
ENDBRANCH  13  14
ENDBRANCH  12  13
ENDBRANCH  11  12
ENDBRANCH  10  11
ENDBRANCH   1  10
TORSDOF 12
ENDMDL
MODEL 4
REMARK VINA RESULT:    -3.152      3.692      7.005
REMARK INTER + INTRA:          -6.434
REMARK INTER:                  -5.253
REMARK INTRA:                  -1.181
REMARK UNBOUND:                -1.070
REMARK SMILES CCCCCCCCCCCCCC(=O)[O-]
REMARK SMILES IDX 8 1 9 2 10 3 11 4 12 5 13 6 14 7 15 8 16 9 7 10 6 11 5 12
REMARK SMILES IDX 4 13 3 14 2 15 1 16
REMARK H PARENT
REMARK Flexibility Score: inf
ROOT
ATOM      1  C   UNL     1      26.996  21.079  58.890  1.00  0.00     0.000 C 
ENDROOT
BRANCH   1   2
ATOM      2  C   UNL     1      26.841  21.717  57.497  1.00  0.00     0.000 C 
BRANCH   2   3
ATOM      3  C   UNL     1      26.534  20.689  56.395  1.00  0.00     0.000 C 
BRANCH   3   4
ATOM      4  C   UNL     1      25.991  19.358  56.948  1.00  0.00     0.000 C 
BRANCH   4   5
ATOM      5  C   UNL     1      24.468  19.157  56.806  1.00  0.00     0.006 C 
BRANCH   5   6
ATOM      6  C   UNL     1      24.035  18.434  55.521  1.00  0.00     0.053 C 
BRANCH   6   7
ATOM      7  C   UNL     1      23.576  19.393  54.466  1.00  0.00     0.041 C 
ATOM      8  O   UNL     1      23.239  20.565  54.779  1.00  0.00    -0.550 OA
ATOM      9  O   UNL     1      23.489  18.982  53.142  1.00  0.00    -0.550 OA
ENDBRANCH   6   7
ENDBRANCH   5   6
ENDBRANCH   4   5
ENDBRANCH   3   4
ENDBRANCH   2   3
ENDBRANCH   1   2
BRANCH   1  10
ATOM     10  C   UNL     1      26.089  21.664  59.988  1.00  0.00     0.000 C 
BRANCH  10  11
ATOM     11  C   UNL     1      24.615  21.250  59.836  1.00  0.00    -0.000 C 
BRANCH  11  12
ATOM     12  C   UNL     1      23.769  21.617  61.066  1.00  0.00    -0.000 C 
BRANCH  12  13
ATOM     13  C   UNL     1      24.619  22.125  62.240  1.00  0.00    -0.000 C 
BRANCH  13  14
ATOM     14  C   UNL     1      24.294  21.349  63.526  1.00  0.00    -0.000 C 
BRANCH  14  15
ATOM     15  C   UNL     1      25.203  20.124  63.722  1.00  0.00    -0.003 C 
ATOM     16  C   UNL     1      26.683  20.446  63.519  1.00  0.00     0.004 C 
ENDBRANCH  14  15
ENDBRANCH  13  14
ENDBRANCH  12  13
ENDBRANCH  11  12
ENDBRANCH  10  11
ENDBRANCH   1  10
TORSDOF 12
ENDMDL
MODEL 5
REMARK VINA RESULT:    -3.103      2.786      6.532
REMARK INTER + INTRA:          -6.349
REMARK INTER:                  -5.117
REMARK INTRA:                  -1.232
REMARK UNBOUND:                -1.070
REMARK SMILES CCCCCCCCCCCCCC(=O)[O-]
REMARK SMILES IDX 8 1 9 2 10 3 11 4 12 5 13 6 14 7 15 8 16 9 7 10 6 11 5 12
REMARK SMILES IDX 4 13 3 14 2 15 1 16
REMARK H PARENT
REMARK Flexibility Score: inf
ROOT
ATOM      1  C   UNL     1      25.070  21.382  59.693  1.00  0.00     0.000 C 
ENDROOT
BRANCH   1   2
ATOM      2  C   UNL     1      24.046  22.125  58.815  1.00  0.00     0.000 C 
BRANCH   2   3
ATOM      3  C   UNL     1      23.206  21.179  57.941  1.00  0.00     0.000 C 
BRANCH   3   4
ATOM      4  C   UNL     1      23.191  21.586  56.456  1.00  0.00     0.000 C 
BRANCH   4   5
ATOM      5  C   UNL     1      24.162  20.805  55.547  1.00  0.00     0.006 C 
BRANCH   5   6
ATOM      6  C   UNL     1      24.622  19.452  56.115  1.00  0.00     0.053 C 
BRANCH   6   7
ATOM      7  C   UNL     1      26.022  19.512  56.644  1.00  0.00     0.041 C 
ATOM      8  O   UNL     1      26.894  20.198  56.049  1.00  0.00    -0.550 OA
ATOM      9  O   UNL     1      26.371  18.786  57.774  1.00  0.00    -0.550 OA
ENDBRANCH   6   7
ENDBRANCH   5   6
ENDBRANCH   4   5
ENDBRANCH   3   4
ENDBRANCH   2   3
ENDBRANCH   1   2
BRANCH   1  10
ATOM     10  C   UNL     1      26.537  21.811  59.502  1.00  0.00     0.000 C 
BRANCH  10  11
ATOM     11  C   UNL     1      27.383  21.648  60.777  1.00  0.00    -0.000 C 
BRANCH  11  12
ATOM     12  C   UNL     1      26.556  21.829  62.061  1.00  0.00    -0.000 C 
BRANCH  12  13
ATOM     13  C   UNL     1      26.550  20.572  62.944  1.00  0.00    -0.000 C 
BRANCH  13  14
ATOM     14  C   UNL     1      25.214  20.434  63.689  1.00  0.00    -0.000 C 
BRANCH  14  15
ATOM     15  C   UNL     1      24.331  21.686  63.557  1.00  0.00    -0.003 C 
ATOM     16  C   UNL     1      23.067  21.435  62.735  1.00  0.00     0.004 C 
ENDBRANCH  14  15
ENDBRANCH  13  14
ENDBRANCH  12  13
ENDBRANCH  11  12
ENDBRANCH  10  11
ENDBRANCH   1  10
TORSDOF 12
ENDMDL
MODEL 6
REMARK VINA RESULT:    -3.019      3.409      7.037
REMARK INTER + INTRA:          -6.208
REMARK INTER:                  -5.440
REMARK INTRA:                  -0.768
REMARK UNBOUND:                -1.070
REMARK SMILES CCCCCCCCCCCCCC(=O)[O-]
REMARK SMILES IDX 8 1 9 2 10 3 11 4 12 5 13 6 14 7 15 8 16 9 7 10 6 11 5 12
REMARK SMILES IDX 4 13 3 14 2 15 1 16
REMARK H PARENT
REMARK Flexibility Score: inf
ROOT
ATOM      1  C   UNL     1      24.971  21.491  59.027  1.00  0.00     0.000 C 
ENDROOT
BRANCH   1   2
ATOM      2  C   UNL     1      26.407  20.952  58.881  1.00  0.00     0.000 C 
BRANCH   2   3
ATOM      3  C   UNL     1      26.511  19.780  57.892  1.00  0.00     0.000 C 
BRANCH   3   4
ATOM      4  C   UNL     1      26.754  20.236  56.441  1.00  0.00     0.000 C 
BRANCH   4   5
ATOM      5  C   UNL     1      25.482  20.513  55.614  1.00  0.00     0.006 C 
BRANCH   5   6
ATOM      6  C   UNL     1      24.234  19.750  56.085  1.00  0.00     0.053 C 
BRANCH   6   7
ATOM      7  C   UNL     1      23.971  18.535  55.250  1.00  0.00     0.041 C 
ATOM      8  O   UNL     1      24.577  18.374  54.158  1.00  0.00    -0.550 OA
ATOM      9  O   UNL     1      23.033  17.597  55.661  1.00  0.00    -0.550 OA
ENDBRANCH   6   7
ENDBRANCH   5   6
ENDBRANCH   4   5
ENDBRANCH   3   4
ENDBRANCH   2   3
ENDBRANCH   1   2
BRANCH   1  10
ATOM     10  C   UNL     1      24.611  22.042  60.419  1.00  0.00     0.000 C 
BRANCH  10  11
ATOM     11  C   UNL     1      23.207  21.623  60.888  1.00  0.00    -0.000 C 
BRANCH  11  12
ATOM     12  C   UNL     1      23.061  21.656  62.418  1.00  0.00    -0.000 C 
BRANCH  12  13
ATOM     13  C   UNL     1      24.404  21.847  63.138  1.00  0.00    -0.000 C 
BRANCH  13  14
ATOM     14  C   UNL     1      24.771  20.598  63.953  1.00  0.00    -0.000 C 
BRANCH  14  15
ATOM     15  C   UNL     1      26.223  20.148  63.725  1.00  0.00    -0.003 C 
ATOM     16  C   UNL     1      26.844  20.767  62.472  1.00  0.00     0.004 C 
ENDBRANCH  14  15
ENDBRANCH  13  14
ENDBRANCH  12  13
ENDBRANCH  11  12
ENDBRANCH  10  11
ENDBRANCH   1  10
TORSDOF 12
ENDMDL
MODEL 7
REMARK VINA RESULT:    -2.989      1.025      2.358
REMARK INTER + INTRA:          -6.155
REMARK INTER:                  -4.977
REMARK INTRA:                  -1.178
REMARK UNBOUND:                -1.070
REMARK SMILES CCCCCCCCCCCCCC(=O)[O-]
REMARK SMILES IDX 8 1 9 2 10 3 11 4 12 5 13 6 14 7 15 8 16 9 7 10 6 11 5 12
REMARK SMILES IDX 4 13 3 14 2 15 1 16
REMARK H PARENT
REMARK Flexibility Score: inf
ROOT
ATOM      1  C   UNL     1      25.967  19.744  57.745  1.00  0.00     0.000 C 
ENDROOT
BRANCH   1   2
ATOM      2  C   UNL     1      27.031  20.613  58.443  1.00  0.00     0.000 C 
BRANCH   2   3
ATOM      3  C   UNL     1      26.456  21.915  59.026  1.00  0.00     0.000 C 
BRANCH   3   4
ATOM      4  C   UNL     1      26.824  22.125  60.506  1.00  0.00     0.000 C 
BRANCH   4   5
ATOM      5  C   UNL     1      26.581  20.910  61.425  1.00  0.00     0.006 C 
BRANCH   5   6
ATOM      6  C   UNL     1      26.563  21.237  62.927  1.00  0.00     0.053 C 
BRANCH   6   7
ATOM      7  C   UNL     1      25.576  20.393  63.673  1.00  0.00     0.041 C 
ATOM      8  O   UNL     1      25.844  19.192  63.940  1.00  0.00    -0.550 OA
ATOM      9  O   UNL     1      24.347  20.922  64.044  1.00  0.00    -0.550 OA
ENDBRANCH   6   7
ENDBRANCH   5   6
ENDBRANCH   4   5
ENDBRANCH   3   4
ENDBRANCH   2   3
ENDBRANCH   1   2
BRANCH   1  10
ATOM     10  C   UNL     1      24.511  20.209  57.931  1.00  0.00     0.000 C 
BRANCH  10  11
ATOM     11  C   UNL     1      23.539  19.560  56.931  1.00  0.00    -0.000 C 
BRANCH  11  12
ATOM     12  C   UNL     1      24.265  18.759  55.838  1.00  0.00    -0.000 C 
BRANCH  12  13
ATOM     13  C   UNL     1      24.143  19.405  54.450  1.00  0.00    -0.000 C 
BRANCH  13  14
ATOM     14  C   UNL     1      23.437  20.766  54.540  1.00  0.00    -0.000 C 
BRANCH  14  15
ATOM     15  C   UNL     1      24.319  21.923  54.042  1.00  0.00    -0.003 C 
ATOM     16  C   UNL     1      25.714  21.915  54.666  1.00  0.00     0.004 C 
ENDBRANCH  14  15
ENDBRANCH  13  14
ENDBRANCH  12  13
ENDBRANCH  11  12
ENDBRANCH  10  11
ENDBRANCH   1  10
TORSDOF 12
ENDMDL
MODEL 8
REMARK VINA RESULT:    -2.925      1.430      2.217
REMARK INTER + INTRA:          -6.047
REMARK INTER:                  -5.063
REMARK INTRA:                  -0.984
REMARK UNBOUND:                -1.070
REMARK SMILES CCCCCCCCCCCCCC(=O)[O-]
REMARK SMILES IDX 8 1 9 2 10 3 11 4 12 5 13 6 14 7 15 8 16 9 7 10 6 11 5 12
REMARK SMILES IDX 4 13 3 14 2 15 1 16
REMARK H PARENT
REMARK Flexibility Score: inf
ROOT
ATOM      1  C   UNL     1      26.821  20.902  58.563  1.00  0.00     0.000 C 
ENDROOT
BRANCH   1   2
ATOM      2  C   UNL     1      27.432  20.681  59.959  1.00  0.00     0.000 C 
BRANCH   2   3
ATOM      3  C   UNL     1      26.892  21.662  61.013  1.00  0.00     0.000 C 
BRANCH   3   4
ATOM      4  C   UNL     1      25.364  21.582  61.183  1.00  0.00     0.000 C 
BRANCH   4   5
ATOM      5  C   UNL     1      24.820  22.120  62.523  1.00  0.00     0.006 C 
BRANCH   5   6
ATOM      6  C   UNL     1      24.518  21.039  63.572  1.00  0.00     0.053 C 
BRANCH   6   7
ATOM      7  C   UNL     1      25.683  20.120  63.781  1.00  0.00     0.041 C 
ATOM      8  O   UNL     1      25.543  18.878  63.636  1.00  0.00    -0.550 OA
ATOM      9  O   UNL     1      26.914  20.634  64.168  1.00  0.00    -0.550 OA
ENDBRANCH   6   7
ENDBRANCH   5   6
ENDBRANCH   4   5
ENDBRANCH   3   4
ENDBRANCH   2   3
ENDBRANCH   1   2
BRANCH   1  10
ATOM     10  C   UNL     1      26.680  19.637  57.697  1.00  0.00     0.000 C 
BRANCH  10  11
ATOM     11  C   UNL     1      25.957  19.896  56.364  1.00  0.00    -0.000 C 
BRANCH  11  12
ATOM     12  C   UNL     1      24.779  18.935  56.135  1.00  0.00    -0.000 C 
BRANCH  12  13
ATOM     13  C   UNL     1      23.417  19.641  56.199  1.00  0.00    -0.000 C 
BRANCH  13  14
ATOM     14  C   UNL     1      23.591  21.167  56.224  1.00  0.00    -0.000 C 
BRANCH  14  15
ATOM     15  C   UNL     1      22.876  21.824  57.416  1.00  0.00    -0.003 C 
ATOM     16  C   UNL     1      23.053  21.041  58.717  1.00  0.00     0.004 C 
ENDBRANCH  14  15
ENDBRANCH  13  14
ENDBRANCH  12  13
ENDBRANCH  11  12
ENDBRANCH  10  11
ENDBRANCH   1  10
TORSDOF 12
ENDMDL
