MODEL 1
REMARK VINA RESULT:    -4.051      0.000      0.000
REMARK INTER + INTRA:          -6.716
REMARK INTER:                  -5.945
REMARK INTRA:                  -0.771
REMARK UNBOUND:                -0.771
REMARK SMILES CC(C)COC(=O)c1ccccc1C(=O)OCC(C)C
REMARK SMILES IDX 8 1 9 2 10 3 11 4 12 5 13 6 6 7 7 8 5 9 4 10 2 11 1 12 3 13
REMARK SMILES IDX 14 14 15 15 16 16 17 17 18 18 19 19 20 20
REMARK H PARENT
REMARK Flexibility Score: inf
ROOT
ATOM      1  C   UNL     1      86.887  30.505  65.530  1.00  0.00     0.074 A 
ATOM      2  C   UNL     1      86.405  31.323  66.567  1.00  0.00     0.016 A 
ATOM      3  C   UNL     1      87.270  32.149  67.286  1.00  0.00     0.001 A 
ATOM      4  C   UNL     1      88.629  32.170  66.982  1.00  0.00     0.001 A 
ATOM      5  C   UNL     1      89.125  31.384  65.941  1.00  0.00     0.016 A 
ATOM      6  C   UNL     1      88.267  30.562  65.188  1.00  0.00     0.074 A 
ENDROOT
BRANCH   1   7
ATOM      7  C   UNL     1      85.934  29.573  64.886  1.00  0.00     0.339 C 
ATOM      8  O   UNL     1      86.107  28.325  64.968  1.00  0.00    -0.246 OA
BRANCH   7   9
ATOM      9  O   UNL     1      84.807  30.082  64.234  1.00  0.00    -0.462 OA
BRANCH   9  10
ATOM     10  C   UNL     1      83.511  30.092  64.827  1.00  0.00     0.236 C 
BRANCH  10  11
ATOM     11  C   UNL     1      83.070  31.536  65.104  1.00  0.00     0.021 C 
ATOM     12  C   UNL     1      83.999  32.525  64.390  1.00  0.00     0.011 C 
ATOM     13  C   UNL     1      83.044  31.825  66.612  1.00  0.00     0.011 C 
ENDBRANCH  10  11
ENDBRANCH   9  10
ENDBRANCH   7   9
ENDBRANCH   1   7
BRANCH   6  14
ATOM     14  C   UNL     1      88.841  29.844  64.027  1.00  0.00     0.339 C 
ATOM     15  O   UNL     1      89.125  30.468  62.968  1.00  0.00    -0.246 OA
BRANCH  14  16
ATOM     16  O   UNL     1      89.125  28.479  64.136  1.00  0.00    -0.462 OA
BRANCH  16  17
ATOM     17  C   UNL     1      89.051  27.586  63.028  1.00  0.00     0.236 C 
BRANCH  17  18
ATOM     18  C   UNL     1      88.974  26.136  63.529  1.00  0.00     0.021 C 
ATOM     19  C   UNL     1      87.818  25.382  62.857  1.00  0.00     0.011 C 
ATOM     20  C   UNL     1      88.816  26.103  65.053  1.00  0.00     0.011 C 
ENDBRANCH  17  18
ENDBRANCH  16  17
ENDBRANCH  14  16
ENDBRANCH   6  14
TORSDOF 8
ENDMDL
MODEL 2
REMARK VINA RESULT:    -3.666      1.339      5.396
REMARK INTER + INTRA:          -6.152
REMARK INTER:                  -5.874
REMARK INTRA:                  -0.278
REMARK UNBOUND:                -0.771
REMARK SMILES CC(C)COC(=O)c1ccccc1C(=O)OCC(C)C
REMARK SMILES IDX 8 1 9 2 10 3 11 4 12 5 13 6 6 7 7 8 5 9 4 10 2 11 1 12 3 13
REMARK SMILES IDX 14 14 15 15 16 16 17 17 18 18 19 19 20 20
REMARK H PARENT
REMARK Flexibility Score: inf
ROOT
ATOM      1  C   UNL     1      85.207  29.475  64.771  1.00  0.00     0.074 A 
ATOM      2  C   UNL     1      83.811  29.487  64.606  1.00  0.00     0.016 A 
ATOM      3  C   UNL     1      83.088  30.675  64.724  1.00  0.00     0.001 A 
ATOM      4  C   UNL     1      83.747  31.868  65.010  1.00  0.00     0.001 A 
ATOM      5  C   UNL     1      85.135  31.883  65.155  1.00  0.00     0.016 A 
ATOM      6  C   UNL     1      85.886  30.702  65.016  1.00  0.00     0.074 A 
ENDROOT
BRANCH   1   7
ATOM      7  C   UNL     1      85.895  28.164  64.744  1.00  0.00     0.339 C 
ATOM      8  O   UNL     1      85.227  27.094  64.701  1.00  0.00    -0.246 OA
BRANCH   7   9
ATOM      9  O   UNL     1      87.291  28.121  64.708  1.00  0.00    -0.462 OA
BRANCH   9  10
ATOM     10  C   UNL     1      88.030  26.911  64.855  1.00  0.00     0.236 C 
BRANCH  10  11
ATOM     11  C   UNL     1      88.976  26.724  63.660  1.00  0.00     0.021 C 
ATOM     12  C   UNL     1      89.125  28.038  62.885  1.00  0.00     0.011 C 
ATOM     13  C   UNL     1      88.474  25.612  62.728  1.00  0.00     0.011 C 
ENDBRANCH  10  11
ENDBRANCH   9  10
ENDBRANCH   7   9
ENDBRANCH   1   7
BRANCH   6  14
ATOM     14  C   UNL     1      87.361  30.811  65.069  1.00  0.00     0.339 C 
ATOM     15  O   UNL     1      88.025  31.006  64.013  1.00  0.00    -0.246 OA
BRANCH  14  16
ATOM     16  O   UNL     1      88.010  30.760  66.307  1.00  0.00    -0.462 OA
BRANCH  16  17
ATOM     17  C   UNL     1      89.125  31.587  66.627  1.00  0.00     0.236 C 
BRANCH  17  18
ATOM     18  C   UNL     1      88.637  32.913  67.231  1.00  0.00     0.021 C 
ATOM     19  C   UNL     1      87.307  32.724  67.973  1.00  0.00     0.011 C 
ATOM     20  C   UNL     1      88.489  33.976  66.136  1.00  0.00     0.011 C 
ENDBRANCH  17  18
ENDBRANCH  16  17
ENDBRANCH  14  16
ENDBRANCH   6  14
TORSDOF 8
ENDMDL
MODEL 3
REMARK VINA RESULT:    -3.491      2.372      5.359
REMARK INTER + INTRA:          -5.894
REMARK INTER:                  -4.974
REMARK INTRA:                  -0.920
REMARK UNBOUND:                -0.771
REMARK SMILES CC(C)COC(=O)c1ccccc1C(=O)OCC(C)C
REMARK SMILES IDX 8 1 9 2 10 3 11 4 12 5 13 6 6 7 7 8 5 9 4 10 2 11 1 12 3 13
REMARK SMILES IDX 14 14 15 15 16 16 17 17 18 18 19 19 20 20
REMARK H PARENT
REMARK Flexibility Score: inf
ROOT
ATOM      1  C   UNL     1      88.207  33.195  66.151  1.00  0.00     0.074 A 
ATOM      2  C   UNL     1      89.054  34.133  66.767  1.00  0.00     0.016 A 
ATOM      3  C   UNL     1      89.125  35.446  66.300  1.00  0.00     0.001 A 
ATOM      4  C   UNL     1      88.353  35.842  65.210  1.00  0.00     0.001 A 
ATOM      5  C   UNL     1      87.489  34.934  64.598  1.00  0.00     0.016 A 
ATOM      6  C   UNL     1      87.384  33.611  65.068  1.00  0.00     0.074 A 
ENDROOT
BRANCH   1   7
ATOM      7  C   UNL     1      88.267  31.793  66.626  1.00  0.00     0.339 C 
ATOM      8  O   UNL     1      87.512  31.404  67.560  1.00  0.00    -0.246 OA
BRANCH   7   9
ATOM      9  O   UNL     1      89.125  30.889  65.994  1.00  0.00    -0.462 OA
BRANCH   9  10
ATOM     10  C   UNL     1      88.965  29.476  66.093  1.00  0.00     0.236 C 
BRANCH  10  11
ATOM     11  C   UNL     1      88.229  28.943  64.856  1.00  0.00     0.021 C 
ATOM     12  C   UNL     1      86.712  29.077  65.037  1.00  0.00     0.011 C 
ATOM     13  C   UNL     1      88.603  27.480  64.580  1.00  0.00     0.011 C 
ENDBRANCH  10  11
ENDBRANCH   9  10
ENDBRANCH   7   9
ENDBRANCH   1   7
BRANCH   6  14
ATOM     14  C   UNL     1      86.365  32.737  64.445  1.00  0.00     0.339 C 
ATOM     15  O   UNL     1      86.498  32.351  63.251  1.00  0.00    -0.246 OA
BRANCH  14  16
ATOM     16  O   UNL     1      85.283  32.289  65.210  1.00  0.00    -0.462 OA
BRANCH  16  17
ATOM     17  C   UNL     1      83.929  32.576  64.872  1.00  0.00     0.236 C 
BRANCH  17  18
ATOM     18  C   UNL     1      83.009  31.470  65.414  1.00  0.00     0.021 C 
ATOM     19  C   UNL     1      83.152  31.331  66.936  1.00  0.00     0.011 C 
ATOM     20  C   UNL     1      83.315  30.135  64.726  1.00  0.00     0.011 C 
ENDBRANCH  17  18
ENDBRANCH  16  17
ENDBRANCH  14  16
ENDBRANCH   6  14
TORSDOF 8
ENDMDL
MODEL 4
REMARK VINA RESULT:    -3.476      2.028      5.409
REMARK INTER + INTRA:          -5.873
REMARK INTER:                  -5.702
REMARK INTRA:                  -0.171
REMARK UNBOUND:                -0.771
REMARK SMILES CC(C)COC(=O)c1ccccc1C(=O)OCC(C)C
REMARK SMILES IDX 8 1 9 2 10 3 11 4 12 5 13 6 6 7 7 8 5 9 4 10 2 11 1 12 3 13
REMARK SMILES IDX 14 14 15 15 16 16 17 17 18 18 19 19 20 20
REMARK H PARENT
REMARK Flexibility Score: inf
ROOT
ATOM      1  C   UNL     1      87.921  29.312  65.151  1.00  0.00     0.074 A 
ATOM      2  C   UNL     1      89.125  28.600  65.009  1.00  0.00     0.016 A 
ATOM      3  C   UNL     1      89.123  27.270  64.585  1.00  0.00     0.001 A 
ATOM      4  C   UNL     1      87.919  26.631  64.298  1.00  0.00     0.001 A 
ATOM      5  C   UNL     1      86.714  27.326  64.409  1.00  0.00     0.016 A 
ATOM      6  C   UNL     1      86.695  28.673  64.812  1.00  0.00     0.074 A 
ENDROOT
BRANCH   1   7
ATOM      7  C   UNL     1      87.989  30.680  65.712  1.00  0.00     0.339 C 
ATOM      8  O   UNL     1      88.096  30.855  66.958  1.00  0.00    -0.246 OA
BRANCH   7   9
ATOM      9  O   UNL     1      87.994  31.778  64.847  1.00  0.00    -0.462 OA
BRANCH   9  10
ATOM     10  C   UNL     1      88.549  33.041  65.206  1.00  0.00     0.236 C 
BRANCH  10  11
ATOM     11  C   UNL     1      87.479  34.137  65.094  1.00  0.00     0.021 C 
ATOM     12  C   UNL     1      86.442  33.765  64.028  1.00  0.00     0.011 C 
ATOM     13  C   UNL     1      88.114  35.495  64.766  1.00  0.00     0.011 C 
ENDBRANCH  10  11
ENDBRANCH   9  10
ENDBRANCH   7   9
ENDBRANCH   1   7
BRANCH   6  14
ATOM     14  C   UNL     1      85.394  29.380  64.798  1.00  0.00     0.339 C 
ATOM     15  O   UNL     1      84.344  28.775  64.447  1.00  0.00    -0.246 OA
BRANCH  14  16
ATOM     16  O   UNL     1      85.327  30.706  65.237  1.00  0.00    -0.462 OA
BRANCH  16  17
ATOM     17  C   UNL     1      84.130  31.475  65.186  1.00  0.00     0.236 C 
BRANCH  17  18
ATOM     18  C   UNL     1      83.791  32.010  66.586  1.00  0.00     0.021 C 
ATOM     19  C   UNL     1      85.046  32.084  67.467  1.00  0.00     0.011 C 
ATOM     20  C   UNL     1      82.725  31.131  67.251  1.00  0.00     0.011 C 
ENDBRANCH  17  18
ENDBRANCH  16  17
ENDBRANCH  14  16
ENDBRANCH   6  14
TORSDOF 8
ENDMDL
MODEL 5
REMARK VINA RESULT:    -3.269     15.262     16.858
REMARK INTER + INTRA:          -5.569
REMARK INTER:                  -5.508
REMARK INTRA:                  -0.062
REMARK UNBOUND:                -0.771
REMARK SMILES CC(C)COC(=O)c1ccccc1C(=O)OCC(C)C
REMARK SMILES IDX 8 1 9 2 10 3 11 4 12 5 13 6 6 7 7 8 5 9 4 10 2 11 1 12 3 13
REMARK SMILES IDX 14 14 15 15 16 16 17 17 18 18 19 19 20 20
REMARK H PARENT
REMARK Flexibility Score: inf
ROOT
ATOM      1  C   UNL     1      77.611  34.344  51.967  1.00  0.00     0.074 A 
ATOM      2  C   UNL     1      76.838  33.188  52.175  1.00  0.00     0.016 A 
ATOM      3  C   UNL     1      77.446  31.963  52.451  1.00  0.00     0.001 A 
ATOM      4  C   UNL     1      78.835  31.872  52.521  1.00  0.00     0.001 A 
ATOM      5  C   UNL     1      79.620  33.011  52.340  1.00  0.00     0.016 A 
ATOM      6  C   UNL     1      79.027  34.261  52.085  1.00  0.00     0.074 A 
ENDROOT
BRANCH   1   7
ATOM      7  C   UNL     1      76.906  35.584  51.568  1.00  0.00     0.339 C 
ATOM      8  O   UNL     1      77.147  36.125  50.454  1.00  0.00    -0.246 OA
BRANCH   7   9
ATOM      9  O   UNL     1      75.928  36.119  52.411  1.00  0.00    -0.462 OA
BRANCH   9  10
ATOM     10  C   UNL     1      74.537  36.071  52.106  1.00  0.00     0.236 C 
BRANCH  10  11
ATOM     11  C   UNL     1      73.739  35.675  53.357  1.00  0.00     0.021 C 
ATOM     12  C   UNL     1      74.514  36.044  54.626  1.00  0.00     0.011 C 
ATOM     13  C   UNL     1      73.413  34.174  53.350  1.00  0.00     0.011 C 
ENDBRANCH  10  11
ENDBRANCH   9  10
ENDBRANCH   7   9
ENDBRANCH   1   7
BRANCH   6  14
ATOM     14  C   UNL     1      79.913  35.445  52.018  1.00  0.00     0.339 C 
ATOM     15  O   UNL     1      80.200  36.087  53.066  1.00  0.00    -0.246 OA
BRANCH  14  16
ATOM     16  O   UNL     1      80.481  35.810  50.794  1.00  0.00    -0.462 OA
BRANCH  16  17
ATOM     17  C   UNL     1      80.279  35.063  49.597  1.00  0.00     0.236 C 
BRANCH  17  18
ATOM     18  C   UNL     1      81.495  34.163  49.330  1.00  0.00     0.021 C 
ATOM     19  C   UNL     1      81.175  33.105  48.266  1.00  0.00     0.011 C 
ATOM     20  C   UNL     1      81.958  33.490  50.628  1.00  0.00     0.011 C 
ENDBRANCH  17  18
ENDBRANCH  16  17
ENDBRANCH  14  16
ENDBRANCH   6  14
TORSDOF 8
ENDMDL
MODEL 6
REMARK VINA RESULT:    -3.095      2.041      5.367
REMARK INTER + INTRA:          -5.314
REMARK INTER:                  -4.743
REMARK INTRA:                  -0.571
REMARK UNBOUND:                -0.771
REMARK SMILES CC(C)COC(=O)c1ccccc1C(=O)OCC(C)C
REMARK SMILES IDX 8 1 9 2 10 3 11 4 12 5 13 6 6 7 7 8 5 9 4 10 2 11 1 12 3 13
REMARK SMILES IDX 14 14 15 15 16 16 17 17 18 18 19 19 20 20
REMARK H PARENT
REMARK Flexibility Score: inf
ROOT
ATOM      1  C   UNL     1      88.145  31.741  65.378  1.00  0.00     0.074 A 
ATOM      2  C   UNL     1      89.114  32.276  64.511  1.00  0.00     0.016 A 
ATOM      3  C   UNL     1      89.125  33.638  64.205  1.00  0.00     0.001 A 
ATOM      4  C   UNL     1      88.167  34.485  64.757  1.00  0.00     0.001 A 
ATOM      5  C   UNL     1      87.211  33.979  65.638  1.00  0.00     0.016 A 
ATOM      6  C   UNL     1      87.196  32.615  65.980  1.00  0.00     0.074 A 
ENDROOT
BRANCH   1   7
ATOM      7  C   UNL     1      88.125  30.273  65.569  1.00  0.00     0.339 C 
ATOM      8  O   UNL     1      88.781  29.743  66.508  1.00  0.00    -0.246 OA
BRANCH   7   9
ATOM      9  O   UNL     1      87.327  29.482  64.737  1.00  0.00    -0.462 OA
BRANCH   9  10
ATOM     10  C   UNL     1      87.241  28.066  64.870  1.00  0.00     0.236 C 
BRANCH  10  11
ATOM     11  C   UNL     1      88.534  27.411  64.364  1.00  0.00     0.021 C 
ATOM     12  C   UNL     1      89.125  28.219  63.203  1.00  0.00     0.011 C 
ATOM     13  C   UNL     1      88.283  25.961  63.927  1.00  0.00     0.011 C 
ENDBRANCH  10  11
ENDBRANCH   9  10
ENDBRANCH   7   9
ENDBRANCH   1   7
BRANCH   6  14
ATOM     14  C   UNL     1      86.227  32.170  67.006  1.00  0.00     0.339 C 
ATOM     15  O   UNL     1      86.631  31.636  68.076  1.00  0.00    -0.246 OA
BRANCH  14  16
ATOM     16  O   UNL     1      84.862  32.403  66.809  1.00  0.00    -0.462 OA
BRANCH  16  17
ATOM     17  C   UNL     1      83.916  31.350  66.649  1.00  0.00     0.236 C 
BRANCH  17  18
ATOM     18  C   UNL     1      83.429  31.302  65.192  1.00  0.00     0.021 C 
ATOM     19  C   UNL     1      83.805  29.970  64.529  1.00  0.00     0.011 C 
ATOM     20  C   UNL     1      84.008  32.476  64.394  1.00  0.00     0.011 C 
ENDBRANCH  17  18
ENDBRANCH  16  17
ENDBRANCH  14  16
ENDBRANCH   6  14
TORSDOF 8
ENDMDL
MODEL 7
REMARK VINA RESULT:    -2.754      2.009      2.826
REMARK INTER + INTRA:          -4.813
REMARK INTER:                  -4.639
REMARK INTRA:                  -0.174
REMARK UNBOUND:                -0.771
REMARK SMILES CC(C)COC(=O)c1ccccc1C(=O)OCC(C)C
REMARK SMILES IDX 8 1 9 2 10 3 11 4 12 5 13 6 6 7 7 8 5 9 4 10 2 11 1 12 3 13
REMARK SMILES IDX 14 14 15 15 16 16 17 17 18 18 19 19 20 20
REMARK H PARENT
REMARK Flexibility Score: inf
ROOT
ATOM      1  C   UNL     1      88.329  32.799  65.036  1.00  0.00     0.074 A 
ATOM      2  C   UNL     1      88.498  34.184  64.865  1.00  0.00     0.016 A 
ATOM      3  C   UNL     1      88.894  34.992  65.931  1.00  0.00     0.001 A 
ATOM      4  C   UNL     1      89.125  34.431  67.185  1.00  0.00     0.001 A 
ATOM      5  C   UNL     1      88.985  33.055  67.372  1.00  0.00     0.016 A 
ATOM      6  C   UNL     1      88.610  32.218  66.305  1.00  0.00     0.074 A 
ENDROOT
BRANCH   1   7
ATOM      7  C   UNL     1      87.799  32.021  63.893  1.00  0.00     0.339 C 
ATOM      8  O   UNL     1      88.582  31.372  63.146  1.00  0.00    -0.246 OA
BRANCH   7   9
ATOM      9  O   UNL     1      86.419  31.964  63.680  1.00  0.00    -0.462 OA
BRANCH   9  10
ATOM     10  C   UNL     1      85.478  32.581  64.555  1.00  0.00     0.236 C 
BRANCH  10  11
ATOM     11  C   UNL     1      84.890  31.536  65.514  1.00  0.00     0.021 C 
ATOM     12  C   UNL     1      83.461  31.171  65.098  1.00  0.00     0.011 C 
ATOM     13  C   UNL     1      84.908  32.047  66.962  1.00  0.00     0.011 C 
ENDBRANCH  10  11
ENDBRANCH   9  10
ENDBRANCH   7   9
ENDBRANCH   1   7
BRANCH   6  14
ATOM     14  C   UNL     1      88.592  30.758  66.546  1.00  0.00     0.339 C 
ATOM     15  O   UNL     1      88.615  30.305  67.724  1.00  0.00    -0.246 OA
BRANCH  14  16
ATOM     16  O   UNL     1      88.487  29.883  65.460  1.00  0.00    -0.462 OA
BRANCH  16  17
ATOM     17  C   UNL     1      89.099  28.597  65.444  1.00  0.00     0.236 C 
BRANCH  17  18
ATOM     18  C   UNL     1      88.420  27.707  64.392  1.00  0.00     0.021 C 
ATOM     19  C   UNL     1      86.898  27.677  64.594  1.00  0.00     0.011 C 
ATOM     20  C   UNL     1      88.991  26.285  64.444  1.00  0.00     0.011 C 
ENDBRANCH  17  18
ENDBRANCH  16  17
ENDBRANCH  14  16
ENDBRANCH   6  14
TORSDOF 8
ENDMDL
