MODEL 1
REMARK VINA RESULT:    -4.513      0.000      0.000
REMARK INTER + INTRA:         -12.992
REMARK INTER:                  -9.790
REMARK INTRA:                  -3.202
REMARK UNBOUND:                -3.202
REMARK SMILES CCCCCCCCCCCCCCCCCCCCCC(=O)[O-]
REMARK SMILES IDX 12 1 11 2 10 3 9 4 8 5 7 6 6 7 5 8 4 9 3 10 2 11 1 12 13 13
REMARK SMILES IDX 14 14 15 15 16 16 17 17 18 18 19 19 20 20 21 21 22 22 23 23
REMARK SMILES IDX 24 24
REMARK H PARENT
REMARK Flexibility Score: inf
ROOT
ATOM      1  C   UNL     1      96.327   5.446  25.816  1.00  0.00     0.000 C 
ENDROOT
BRANCH   1   2
ATOM      2  C   UNL     1      95.962   3.989  25.472  1.00  0.00     0.000 C 
BRANCH   2   3
ATOM      3  C   UNL     1      96.121   3.605  23.990  1.00  0.00     0.000 C 
BRANCH   3   4
ATOM      4  C   UNL     1      96.283   2.089  23.777  1.00  0.00    -0.000 C 
BRANCH   4   5
ATOM      5  C   UNL     1      97.439   1.489  24.598  1.00  0.00    -0.000 C 
BRANCH   5   6
ATOM      6  C   UNL     1      98.539   0.793  23.774  1.00  0.00    -0.000 C 
BRANCH   6   7
ATOM      7  C   UNL     1      99.609   0.121  24.647  1.00  0.00    -0.000 C 
BRANCH   7   8
ATOM      8  C   UNL     1     100.493  -0.814  23.813  1.00  0.00    -0.000 C 
BRANCH   8   9
ATOM      9  C   UNL     1     101.950  -0.326  23.797  1.00  0.00    -0.000 C 
BRANCH   9  10
ATOM     10  C   UNL     1     102.124   1.040  24.479  1.00  0.00    -0.000 C 
BRANCH  10  11
ATOM     11  C   UNL     1     103.600   1.443  24.627  1.00  0.00    -0.003 C 
ATOM     12  C   UNL     1     103.784   2.443  25.764  1.00  0.00     0.004 C 
ENDBRANCH  10  11
ENDBRANCH   9  10
ENDBRANCH   8   9
ENDBRANCH   7   8
ENDBRANCH   6   7
ENDBRANCH   5   6
ENDBRANCH   4   5
ENDBRANCH   3   4
ENDBRANCH   2   3
ENDBRANCH   1   2
BRANCH   1  13
ATOM     13  C   UNL     1      97.551   5.557  26.737  1.00  0.00     0.000 C 
BRANCH  13  14
ATOM     14  C   UNL     1      98.041   4.166  27.168  1.00  0.00     0.000 C 
BRANCH  14  15
ATOM     15  C   UNL     1      99.453   3.842  26.645  1.00  0.00     0.000 C 
BRANCH  15  16
ATOM     16  C   UNL     1      99.888   4.649  25.405  1.00  0.00     0.000 C 
BRANCH  16  17
ATOM     17  C   UNL     1     100.220   3.805  24.158  1.00  0.00     0.000 C 
BRANCH  17  18
ATOM     18  C   UNL     1      99.723   4.396  22.827  1.00  0.00     0.000 C 
BRANCH  18  19
ATOM     19  C   UNL     1      98.690   5.520  23.023  1.00  0.00     0.000 C 
BRANCH  19  20
ATOM     20  C   UNL     1      98.373   6.265  21.718  1.00  0.00     0.006 C 
BRANCH  20  21
ATOM     21  C   UNL     1      96.891   6.645  21.602  1.00  0.00     0.053 C 
BRANCH  21  22
ATOM     22  C   UNL     1      96.656   7.459  20.370  1.00  0.00     0.041 C 
ATOM     23  O   UNL     1      95.794   7.096  19.525  1.00  0.00    -0.550 OA
ATOM     24  O   UNL     1      97.422   8.593  20.128  1.00  0.00    -0.550 OA
ENDBRANCH  21  22
ENDBRANCH  20  21
ENDBRANCH  19  20
ENDBRANCH  18  19
ENDBRANCH  17  18
ENDBRANCH  16  17
ENDBRANCH  15  16
ENDBRANCH  14  15
ENDBRANCH  13  14
ENDBRANCH   1  13
TORSDOF 20
ENDMDL
MODEL 2
REMARK VINA RESULT:    -4.506      1.381      4.190
REMARK INTER + INTRA:         -12.976
REMARK INTER:                  -9.865
REMARK INTRA:                  -3.111
REMARK UNBOUND:                -3.202
REMARK SMILES CCCCCCCCCCCCCCCCCCCCCC(=O)[O-]
REMARK SMILES IDX 12 1 11 2 10 3 9 4 8 5 7 6 6 7 5 8 4 9 3 10 2 11 1 12 13 13
REMARK SMILES IDX 14 14 15 15 16 16 17 17 18 18 19 19 20 20 21 21 22 22 23 23
REMARK SMILES IDX 24 24
REMARK H PARENT
REMARK Flexibility Score: inf
ROOT
ATOM      1  C   UNL     1      97.442   1.488  24.182  1.00  0.00     0.000 C 
ENDROOT
BRANCH   1   2
ATOM      2  C   UNL     1      98.818   0.994  24.668  1.00  0.00     0.000 C 
BRANCH   2   3
ATOM      3  C   UNL     1      99.585   0.103  23.675  1.00  0.00     0.000 C 
BRANCH   3   4
ATOM      4  C   UNL     1     100.946   0.694  23.266  1.00  0.00    -0.000 C 
BRANCH   4   5
ATOM      5  C   UNL     1     101.972   0.689  24.414  1.00  0.00    -0.000 C 
BRANCH   5   6
ATOM      6  C   UNL     1     102.877   1.933  24.493  1.00  0.00    -0.000 C 
BRANCH   6   7
ATOM      7  C   UNL     1     102.923   2.554  25.897  1.00  0.00    -0.000 C 
BRANCH   7   8
ATOM      8  C   UNL     1     102.199   3.904  25.926  1.00  0.00    -0.000 C 
BRANCH   8   9
ATOM      9  C   UNL     1     100.687   3.715  26.119  1.00  0.00    -0.000 C 
BRANCH   9  10
ATOM     10  C   UNL     1      99.854   4.564  25.147  1.00  0.00    -0.000 C 
BRANCH  10  11
ATOM     11  C   UNL     1     100.093   4.186  23.677  1.00  0.00    -0.003 C 
ATOM     12  C   UNL     1      99.156   4.956  22.752  1.00  0.00     0.004 C 
ENDBRANCH  10  11
ENDBRANCH   9  10
ENDBRANCH   8   9
ENDBRANCH   7   8
ENDBRANCH   6   7
ENDBRANCH   5   6
ENDBRANCH   4   5
ENDBRANCH   3   4
ENDBRANCH   2   3
ENDBRANCH   1   2
BRANCH   1  13
ATOM     13  C   UNL     1      96.802   2.511  25.130  1.00  0.00     0.000 C 
BRANCH  13  14
ATOM     14  C   UNL     1      96.132   3.647  24.341  1.00  0.00     0.000 C 
BRANCH  14  15
ATOM     15  C   UNL     1      95.625   4.785  25.246  1.00  0.00     0.000 C 
BRANCH  15  16
ATOM     16  C   UNL     1      96.517   6.042  25.271  1.00  0.00     0.000 C 
BRANCH  16  17
ATOM     17  C   UNL     1      96.367   6.976  24.054  1.00  0.00     0.000 C 
BRANCH  17  18
ATOM     18  C   UNL     1      95.048   6.818  23.277  1.00  0.00     0.000 C 
BRANCH  18  19
ATOM     19  C   UNL     1      95.265   6.361  21.823  1.00  0.00     0.000 C 
BRANCH  19  20
ATOM     20  C   UNL     1      95.862   7.467  20.939  1.00  0.00     0.006 C 
BRANCH  20  21
ATOM     21  C   UNL     1      97.227   7.079  20.353  1.00  0.00     0.053 C 
BRANCH  21  22
ATOM     22  C   UNL     1      97.243   7.304  18.875  1.00  0.00     0.041 C 
ATOM     23  O   UNL     1      98.120   6.751  18.160  1.00  0.00    -0.550 OA
ATOM     24  O   UNL     1      96.321   8.163  18.292  1.00  0.00    -0.550 OA
ENDBRANCH  21  22
ENDBRANCH  20  21
ENDBRANCH  19  20
ENDBRANCH  18  19
ENDBRANCH  17  18
ENDBRANCH  16  17
ENDBRANCH  15  16
ENDBRANCH  14  15
ENDBRANCH  13  14
ENDBRANCH   1  13
TORSDOF 20
ENDMDL
MODEL 3
REMARK VINA RESULT:    -4.486      1.088      4.994
REMARK INTER + INTRA:         -12.933
REMARK INTER:                  -9.406
REMARK INTRA:                  -3.526
REMARK UNBOUND:                -3.202
REMARK SMILES CCCCCCCCCCCCCCCCCCCCCC(=O)[O-]
REMARK SMILES IDX 12 1 11 2 10 3 9 4 8 5 7 6 6 7 5 8 4 9 3 10 2 11 1 12 13 13
REMARK SMILES IDX 14 14 15 15 16 16 17 17 18 18 19 19 20 20 21 21 22 22 23 23
REMARK SMILES IDX 24 24
REMARK H PARENT
REMARK Flexibility Score: inf
ROOT
ATOM      1  C   UNL     1     101.098   0.371  23.346  1.00  0.00     0.000 C 
ENDROOT
BRANCH   1   2
ATOM      2  C   UNL     1     100.492  -0.008  24.710  1.00  0.00     0.000 C 
BRANCH   2   3
ATOM      3  C   UNL     1      99.218   0.763  25.101  1.00  0.00     0.000 C 
BRANCH   3   4
ATOM      4  C   UNL     1      98.303   1.058  23.900  1.00  0.00    -0.000 C 
BRANCH   4   5
ATOM      5  C   UNL     1      96.814   1.130  24.283  1.00  0.00    -0.000 C 
BRANCH   5   6
ATOM      6  C   UNL     1      96.099   2.440  23.900  1.00  0.00    -0.000 C 
BRANCH   6   7
ATOM      7  C   UNL     1      96.255   3.541  24.959  1.00  0.00    -0.000 C 
BRANCH   7   8
ATOM      8  C   UNL     1      95.649   4.863  24.471  1.00  0.00    -0.000 C 
BRANCH   8   9
ATOM      9  C   UNL     1      95.570   5.887  25.613  1.00  0.00    -0.000 C 
BRANCH   9  10
ATOM     10  C   UNL     1      96.557   7.051  25.435  1.00  0.00    -0.000 C 
BRANCH  10  11
ATOM     11  C   UNL     1      97.881   6.824  26.181  1.00  0.00    -0.003 C 
ATOM     12  C   UNL     1      97.702   5.835  27.329  1.00  0.00     0.004 C 
ENDBRANCH  10  11
ENDBRANCH   9  10
ENDBRANCH   8   9
ENDBRANCH   7   8
ENDBRANCH   6   7
ENDBRANCH   5   6
ENDBRANCH   4   5
ENDBRANCH   3   4
ENDBRANCH   2   3
ENDBRANCH   1   2
BRANCH   1  13
ATOM     13  C   UNL     1     102.562   0.824  23.444  1.00  0.00     0.000 C 
BRANCH  13  14
ATOM     14  C   UNL     1     102.819   1.567  24.764  1.00  0.00     0.000 C 
BRANCH  14  15
ATOM     15  C   UNL     1     102.563   3.081  24.657  1.00  0.00     0.000 C 
BRANCH  15  16
ATOM     16  C   UNL     1     101.491   3.629  25.621  1.00  0.00     0.000 C 
BRANCH  16  17
ATOM     17  C   UNL     1     100.263   4.268  24.940  1.00  0.00     0.000 C 
BRANCH  17  18
ATOM     18  C   UNL     1     100.233   4.136  23.407  1.00  0.00     0.000 C 
BRANCH  18  19
ATOM     19  C   UNL     1      98.862   4.495  22.806  1.00  0.00     0.000 C 
BRANCH  19  20
ATOM     20  C   UNL     1      98.774   5.967  22.376  1.00  0.00     0.006 C 
BRANCH  20  21
ATOM     21  C   UNL     1      97.429   6.309  21.720  1.00  0.00     0.053 C 
BRANCH  21  22
ATOM     22  C   UNL     1      97.639   7.178  20.522  1.00  0.00     0.041 C 
ATOM     23  O   UNL     1      98.092   8.346  20.658  1.00  0.00    -0.550 OA
ATOM     24  O   UNL     1      97.289   6.719  19.259  1.00  0.00    -0.550 OA
ENDBRANCH  21  22
ENDBRANCH  20  21
ENDBRANCH  19  20
ENDBRANCH  18  19
ENDBRANCH  17  18
ENDBRANCH  16  17
ENDBRANCH  15  16
ENDBRANCH  14  15
ENDBRANCH  13  14
ENDBRANCH   1  13
TORSDOF 20
ENDMDL
MODEL 4
REMARK VINA RESULT:    -4.485      3.602      7.042
REMARK INTER + INTRA:         -12.931
REMARK INTER:                  -9.749
REMARK INTRA:                  -3.183
REMARK UNBOUND:                -3.202
REMARK SMILES CCCCCCCCCCCCCCCCCCCCCC(=O)[O-]
REMARK SMILES IDX 12 1 11 2 10 3 9 4 8 5 7 6 6 7 5 8 4 9 3 10 2 11 1 12 13 13
REMARK SMILES IDX 14 14 15 15 16 16 17 17 18 18 19 19 20 20 21 21 22 22 23 23
REMARK SMILES IDX 24 24
REMARK H PARENT
REMARK Flexibility Score: inf
ROOT
ATOM      1  C   UNL     1      98.692   1.008  24.628  1.00  0.00     0.000 C 
ENDROOT
BRANCH   1   2
ATOM      2  C   UNL     1      97.339   1.301  23.952  1.00  0.00     0.000 C 
BRANCH   2   3
ATOM      3  C   UNL     1      96.847   2.755  24.068  1.00  0.00     0.000 C 
BRANCH   3   4
ATOM      4  C   UNL     1      96.359   3.113  25.483  1.00  0.00    -0.000 C 
BRANCH   4   5
ATOM      5  C   UNL     1      97.372   3.963  26.270  1.00  0.00    -0.000 C 
BRANCH   5   6
ATOM      6  C   UNL     1      96.964   5.431  26.496  1.00  0.00    -0.000 C 
BRANCH   6   7
ATOM      7  C   UNL     1      95.581   5.766  25.918  1.00  0.00    -0.000 C 
BRANCH   7   8
ATOM      8  C   UNL     1      95.686   6.833  24.822  1.00  0.00    -0.000 C 
BRANCH   8   9
ATOM      9  C   UNL     1      95.061   6.338  23.509  1.00  0.00    -0.000 C 
BRANCH   9  10
ATOM     10  C   UNL     1      96.115   5.942  22.464  1.00  0.00    -0.000 C 
BRANCH  10  11
ATOM     11  C   UNL     1      97.552   6.206  22.943  1.00  0.00    -0.003 C 
ATOM     12  C   UNL     1      98.528   6.216  21.770  1.00  0.00     0.004 C 
ENDBRANCH  10  11
ENDBRANCH   9  10
ENDBRANCH   8   9
ENDBRANCH   7   8
ENDBRANCH   6   7
ENDBRANCH   5   6
ENDBRANCH   4   5
ENDBRANCH   3   4
ENDBRANCH   2   3
ENDBRANCH   1   2
BRANCH   1  13
ATOM     13  C   UNL     1      99.796   0.639  23.627  1.00  0.00     0.000 C 
BRANCH  13  14
ATOM     14  C   UNL     1     100.919   1.688  23.638  1.00  0.00     0.000 C 
BRANCH  14  15
ATOM     15  C   UNL     1     100.430   3.090  23.229  1.00  0.00     0.000 C 
BRANCH  15  16
ATOM     16  C   UNL     1     100.488   4.151  24.346  1.00  0.00     0.000 C 
BRANCH  16  17
ATOM     17  C   UNL     1     101.042   3.650  25.696  1.00  0.00     0.000 C 
BRANCH  17  18
ATOM     18  C   UNL     1     102.532   3.952  25.934  1.00  0.00     0.000 C 
BRANCH  18  19
ATOM     19  C   UNL     1     103.264   2.804  26.652  1.00  0.00     0.000 C 
BRANCH  19  20
ATOM     20  C   UNL     1     104.597   2.442  25.981  1.00  0.00     0.006 C 
BRANCH  20  21
ATOM     21  C   UNL     1     104.522   2.505  24.449  1.00  0.00     0.053 C 
BRANCH  21  22
ATOM     22  C   UNL     1     104.911   1.190  23.854  1.00  0.00     0.041 C 
ATOM     23  O   UNL     1     104.149   0.618  23.029  1.00  0.00    -0.550 OA
ATOM     24  O   UNL     1     106.090   0.570  24.244  1.00  0.00    -0.550 OA
ENDBRANCH  21  22
ENDBRANCH  20  21
ENDBRANCH  19  20
ENDBRANCH  18  19
ENDBRANCH  17  18
ENDBRANCH  16  17
ENDBRANCH  15  16
ENDBRANCH  14  15
ENDBRANCH  13  14
ENDBRANCH   1  13
TORSDOF 20
ENDMDL
MODEL 5
REMARK VINA RESULT:    -4.457      3.446      6.009
REMARK INTER + INTRA:         -12.870
REMARK INTER:                  -9.422
REMARK INTRA:                  -3.448
REMARK UNBOUND:                -3.202
REMARK SMILES CCCCCCCCCCCCCCCCCCCCCC(=O)[O-]
REMARK SMILES IDX 12 1 11 2 10 3 9 4 8 5 7 6 6 7 5 8 4 9 3 10 2 11 1 12 13 13
REMARK SMILES IDX 14 14 15 15 16 16 17 17 18 18 19 19 20 20 21 21 22 22 23 23
REMARK SMILES IDX 24 24
REMARK H PARENT
REMARK Flexibility Score: inf
ROOT
ATOM      1  C   UNL     1      99.886   4.730  27.783  1.00  0.00     0.000 C 
ENDROOT
BRANCH   1   2
ATOM      2  C   UNL     1      98.443   5.258  27.901  1.00  0.00     0.000 C 
BRANCH   2   3
ATOM      3  C   UNL     1      98.177   6.604  27.202  1.00  0.00     0.000 C 
BRANCH   3   4
ATOM      4  C   UNL     1      97.344   6.458  25.916  1.00  0.00    -0.000 C 
BRANCH   4   5
ATOM      5  C   UNL     1      96.395   5.246  25.951  1.00  0.00    -0.000 C 
BRANCH   5   6
ATOM      6  C   UNL     1      95.897   4.761  24.577  1.00  0.00    -0.000 C 
BRANCH   6   7
ATOM      7  C   UNL     1      96.096   3.253  24.363  1.00  0.00    -0.000 C 
BRANCH   7   8
ATOM      8  C   UNL     1      97.151   2.696  25.325  1.00  0.00    -0.000 C 
BRANCH   8   9
ATOM      9  C   UNL     1      98.440   2.325  24.576  1.00  0.00    -0.000 C 
BRANCH   9  10
ATOM     10  C   UNL     1      99.464   3.471  24.556  1.00  0.00    -0.000 C 
BRANCH  10  11
ATOM     11  C   UNL     1      99.826   3.917  23.130  1.00  0.00    -0.003 C 
ATOM     12  C   UNL     1      99.046   5.165  22.731  1.00  0.00     0.004 C 
ENDBRANCH  10  11
ENDBRANCH   9  10
ENDBRANCH   8   9
ENDBRANCH   7   8
ENDBRANCH   6   7
ENDBRANCH   5   6
ENDBRANCH   4   5
ENDBRANCH   3   4
ENDBRANCH   2   3
ENDBRANCH   1   2
BRANCH   1  13
ATOM     13  C   UNL     1     100.886   5.808  27.341  1.00  0.00     0.000 C 
BRANCH  13  14
ATOM     14  C   UNL     1     102.290   5.212  27.156  1.00  0.00     0.000 C 
BRANCH  14  15
ATOM     15  C   UNL     1     102.344   3.705  27.468  1.00  0.00     0.000 C 
BRANCH  15  16
ATOM     16  C   UNL     1     103.485   2.937  26.772  1.00  0.00     0.000 C 
BRANCH  16  17
ATOM     17  C   UNL     1     103.725   3.318  25.297  1.00  0.00     0.000 C 
BRANCH  17  18
ATOM     18  C   UNL     1     103.021   2.411  24.272  1.00  0.00     0.000 C 
BRANCH  18  19
ATOM     19  C   UNL     1     103.606   0.988  24.236  1.00  0.00     0.000 C 
BRANCH  19  20
ATOM     20  C   UNL     1     102.803   0.043  23.330  1.00  0.00     0.006 C 
BRANCH  20  21
ATOM     21  C   UNL     1     101.287   0.252  23.456  1.00  0.00     0.053 C 
BRANCH  21  22
ATOM     22  C   UNL     1     100.649  -0.935  24.102  1.00  0.00     0.041 C 
ATOM     23  O   UNL     1     100.727  -2.070  23.560  1.00  0.00    -0.550 OA
ATOM     24  O   UNL     1      99.925  -0.783  25.278  1.00  0.00    -0.550 OA
ENDBRANCH  21  22
ENDBRANCH  20  21
ENDBRANCH  19  20
ENDBRANCH  18  19
ENDBRANCH  17  18
ENDBRANCH  16  17
ENDBRANCH  15  16
ENDBRANCH  14  15
ENDBRANCH  13  14
ENDBRANCH   1  13
TORSDOF 20
ENDMDL
MODEL 6
REMARK VINA RESULT:    -4.416      1.280      4.209
REMARK INTER + INTRA:         -12.781
REMARK INTER:                  -9.400
REMARK INTRA:                  -3.381
REMARK UNBOUND:                -3.202
REMARK SMILES CCCCCCCCCCCCCCCCCCCCCC(=O)[O-]
REMARK SMILES IDX 12 1 11 2 10 3 9 4 8 5 7 6 6 7 5 8 4 9 3 10 2 11 1 12 13 13
REMARK SMILES IDX 14 14 15 15 16 16 17 17 18 18 19 19 20 20 21 21 22 22 23 23
REMARK SMILES IDX 24 24
REMARK H PARENT
REMARK Flexibility Score: inf
ROOT
ATOM      1  C   UNL     1     100.287   4.121  24.450  1.00  0.00     0.000 C 
ENDROOT
BRANCH   1   2
ATOM      2  C   UNL     1     100.033   4.145  25.969  1.00  0.00     0.000 C 
BRANCH   2   3
ATOM      3  C   UNL     1     101.272   3.892  26.847  1.00  0.00     0.000 C 
BRANCH   3   4
ATOM      4  C   UNL     1     102.366   4.959  26.663  1.00  0.00    -0.000 C 
BRANCH   4   5
ATOM      5  C   UNL     1     103.756   4.353  26.399  1.00  0.00    -0.000 C 
BRANCH   5   6
ATOM      6  C   UNL     1     103.867   2.834  26.631  1.00  0.00    -0.000 C 
BRANCH   6   7
ATOM      7  C   UNL     1     104.447   2.082  25.424  1.00  0.00    -0.000 C 
BRANCH   7   8
ATOM      8  C   UNL     1     103.454   2.065  24.256  1.00  0.00    -0.000 C 
BRANCH   8   9
ATOM      9  C   UNL     1     102.240   1.181  24.579  1.00  0.00    -0.000 C 
BRANCH   9  10
ATOM     10  C   UNL     1     101.580   0.598  23.320  1.00  0.00    -0.000 C 
BRANCH  10  11
ATOM     11  C   UNL     1     100.571  -0.516  23.642  1.00  0.00    -0.003 C 
ATOM     12  C   UNL     1      99.851  -0.241  24.958  1.00  0.00     0.004 C 
ENDBRANCH  10  11
ENDBRANCH   9  10
ENDBRANCH   8   9
ENDBRANCH   7   8
ENDBRANCH   6   7
ENDBRANCH   5   6
ENDBRANCH   4   5
ENDBRANCH   3   4
ENDBRANCH   2   3
ENDBRANCH   1   2
BRANCH   1  13
ATOM     13  C   UNL     1      99.055   3.691  23.642  1.00  0.00     0.000 C 
BRANCH  13  14
ATOM     14  C   UNL     1      98.018   3.005  24.545  1.00  0.00     0.000 C 
BRANCH  14  15
ATOM     15  C   UNL     1      96.571   3.218  24.061  1.00  0.00     0.000 C 
BRANCH  15  16
ATOM     16  C   UNL     1      95.754   4.236  24.882  1.00  0.00     0.000 C 
BRANCH  16  17
ATOM     17  C   UNL     1      96.544   4.973  25.984  1.00  0.00     0.000 C 
BRANCH  17  18
ATOM     18  C   UNL     1      97.021   6.385  25.602  1.00  0.00     0.000 C 
BRANCH  18  19
ATOM     19  C   UNL     1      96.305   6.939  24.358  1.00  0.00     0.000 C 
BRANCH  19  20
ATOM     20  C   UNL     1      97.270   7.213  23.195  1.00  0.00     0.006 C 
BRANCH  20  21
ATOM     21  C   UNL     1      96.973   6.345  21.964  1.00  0.00     0.053 C 
BRANCH  21  22
ATOM     22  C   UNL     1      96.104   7.087  21.000  1.00  0.00     0.041 C 
ATOM     23  O   UNL     1      96.600   7.969  20.250  1.00  0.00    -0.550 OA
ATOM     24  O   UNL     1      94.738   6.841  20.962  1.00  0.00    -0.550 OA
ENDBRANCH  21  22
ENDBRANCH  20  21
ENDBRANCH  19  20
ENDBRANCH  18  19
ENDBRANCH  17  18
ENDBRANCH  16  17
ENDBRANCH  15  16
ENDBRANCH  14  15
ENDBRANCH  13  14
ENDBRANCH   1  13
TORSDOF 20
ENDMDL
MODEL 7
REMARK VINA RESULT:    -4.415      1.696      4.611
REMARK INTER + INTRA:         -12.780
REMARK INTER:                  -9.993
REMARK INTRA:                  -2.787
REMARK UNBOUND:                -3.202
REMARK SMILES CCCCCCCCCCCCCCCCCCCCCC(=O)[O-]
REMARK SMILES IDX 12 1 11 2 10 3 9 4 8 5 7 6 6 7 5 8 4 9 3 10 2 11 1 12 13 13
REMARK SMILES IDX 14 14 15 15 16 16 17 17 18 18 19 19 20 20 21 21 22 22 23 23
REMARK SMILES IDX 24 24
REMARK H PARENT
REMARK Flexibility Score: inf
ROOT
ATOM      1  C   UNL     1     101.294   4.595  26.239  1.00  0.00     0.000 C 
ENDROOT
BRANCH   1   2
ATOM      2  C   UNL     1     101.824   3.508  27.194  1.00  0.00     0.000 C 
BRANCH   2   3
ATOM      3  C   UNL     1     103.096   3.884  27.976  1.00  0.00     0.000 C 
BRANCH   3   4
ATOM      4  C   UNL     1     104.305   3.004  27.613  1.00  0.00    -0.000 C 
BRANCH   4   5
ATOM      5  C   UNL     1     104.693   3.101  26.126  1.00  0.00    -0.000 C 
BRANCH   5   6
ATOM      6  C   UNL     1     105.349   1.839  25.534  1.00  0.00    -0.000 C 
BRANCH   6   7
ATOM      7  C   UNL     1     104.606   1.296  24.304  1.00  0.00    -0.000 C 
BRANCH   7   8
ATOM      8  C   UNL     1     103.257   2.000  24.121  1.00  0.00    -0.000 C 
BRANCH   8   9
ATOM      9  C   UNL     1     102.091   1.029  24.362  1.00  0.00    -0.000 C 
BRANCH   9  10
ATOM     10  C   UNL     1     100.933   1.237  23.375  1.00  0.00    -0.000 C 
BRANCH  10  11
ATOM     11  C   UNL     1      99.785   0.238  23.590  1.00  0.00    -0.003 C 
ATOM     12  C   UNL     1      99.879  -0.418  24.965  1.00  0.00     0.004 C 
ENDBRANCH  10  11
ENDBRANCH   9  10
ENDBRANCH   8   9
ENDBRANCH   7   8
ENDBRANCH   6   7
ENDBRANCH   5   6
ENDBRANCH   4   5
ENDBRANCH   3   4
ENDBRANCH   2   3
ENDBRANCH   1   2
BRANCH   1  13
ATOM     13  C   UNL     1     100.036   4.160  25.474  1.00  0.00     0.000 C 
BRANCH  13  14
ATOM     14  C   UNL     1      99.304   3.032  26.218  1.00  0.00     0.000 C 
BRANCH  14  15
ATOM     15  C   UNL     1      97.859   2.831  25.724  1.00  0.00     0.000 C 
BRANCH  15  16
ATOM     16  C   UNL     1      97.625   3.178  24.240  1.00  0.00     0.000 C 
BRANCH  16  17
ATOM     17  C   UNL     1      96.329   3.961  23.947  1.00  0.00     0.000 C 
BRANCH  17  18
ATOM     18  C   UNL     1      95.638   4.554  25.187  1.00  0.00     0.000 C 
BRANCH  18  19
ATOM     19  C   UNL     1      95.677   6.092  25.212  1.00  0.00     0.000 C 
BRANCH  19  20
ATOM     20  C   UNL     1      96.050   6.695  23.849  1.00  0.00     0.006 C 
BRANCH  20  21
ATOM     21  C   UNL     1      94.851   6.781  22.894  1.00  0.00     0.053 C 
BRANCH  21  22
ATOM     22  C   UNL     1      95.318   6.848  21.476  1.00  0.00     0.041 C 
ATOM     23  O   UNL     1      94.517   7.179  20.561  1.00  0.00    -0.550 OA
ATOM     24  O   UNL     1      96.622   6.498  21.155  1.00  0.00    -0.550 OA
ENDBRANCH  21  22
ENDBRANCH  20  21
ENDBRANCH  19  20
ENDBRANCH  18  19
ENDBRANCH  17  18
ENDBRANCH  16  17
ENDBRANCH  15  16
ENDBRANCH  14  15
ENDBRANCH  13  14
ENDBRANCH   1  13
TORSDOF 20
ENDMDL
MODEL 8
REMARK VINA RESULT:    -4.398      1.320      3.219
REMARK INTER + INTRA:         -12.741
REMARK INTER:                  -9.320
REMARK INTRA:                  -3.421
REMARK UNBOUND:                -3.202
REMARK SMILES CCCCCCCCCCCCCCCCCCCCCC(=O)[O-]
REMARK SMILES IDX 12 1 11 2 10 3 9 4 8 5 7 6 6 7 5 8 4 9 3 10 2 11 1 12 13 13
REMARK SMILES IDX 14 14 15 15 16 16 17 17 18 18 19 19 20 20 21 21 22 22 23 23
REMARK SMILES IDX 24 24
REMARK H PARENT
REMARK Flexibility Score: inf
ROOT
ATOM      1  C   UNL     1      99.027   3.467  23.625  1.00  0.00     0.000 C 
ENDROOT
BRANCH   1   2
ATOM      2  C   UNL     1      98.236   2.336  24.311  1.00  0.00     0.000 C 
BRANCH   2   3
ATOM      3  C   UNL     1      98.680   0.908  23.945  1.00  0.00     0.000 C 
BRANCH   3   4
ATOM      4  C   UNL     1      99.523   0.241  25.046  1.00  0.00    -0.000 C 
BRANCH   4   5
ATOM      5  C   UNL     1     101.030   0.244  24.733  1.00  0.00    -0.000 C 
BRANCH   5   6
ATOM      6  C   UNL     1     101.404   0.673  23.302  1.00  0.00    -0.000 C 
BRANCH   6   7
ATOM      7  C   UNL     1     102.474   1.774  23.264  1.00  0.00    -0.000 C 
BRANCH   7   8
ATOM      8  C   UNL     1     103.835   1.235  23.718  1.00  0.00    -0.000 C 
BRANCH   8   9
ATOM      9  C   UNL     1     104.659   2.332  24.410  1.00  0.00    -0.000 C 
BRANCH   9  10
ATOM     10  C   UNL     1     104.668   2.190  25.940  1.00  0.00    -0.000 C 
BRANCH  10  11
ATOM     11  C   UNL     1     103.428   2.814  26.599  1.00  0.00    -0.003 C 
ATOM     12  C   UNL     1     103.333   4.304  26.290  1.00  0.00     0.004 C 
ENDBRANCH  10  11
ENDBRANCH   9  10
ENDBRANCH   8   9
ENDBRANCH   7   8
ENDBRANCH   6   7
ENDBRANCH   5   6
ENDBRANCH   4   5
ENDBRANCH   3   4
ENDBRANCH   2   3
ENDBRANCH   1   2
BRANCH   1  13
ATOM     13  C   UNL     1     100.046   4.137  24.557  1.00  0.00     0.000 C 
BRANCH  13  14
ATOM     14  C   UNL     1      99.625   3.990  26.027  1.00  0.00     0.000 C 
BRANCH  14  15
ATOM     15  C   UNL     1      99.381   5.345  26.717  1.00  0.00     0.000 C 
BRANCH  15  16
ATOM     16  C   UNL     1      97.935   5.872  26.621  1.00  0.00     0.000 C 
BRANCH  16  17
ATOM     17  C   UNL     1      96.845   4.784  26.548  1.00  0.00     0.000 C 
BRANCH  17  18
ATOM     18  C   UNL     1      95.718   5.065  25.538  1.00  0.00     0.000 C 
BRANCH  18  19
ATOM     19  C   UNL     1      95.745   6.507  25.003  1.00  0.00     0.000 C 
BRANCH  19  20
ATOM     20  C   UNL     1      96.016   6.571  23.492  1.00  0.00     0.006 C 
BRANCH  20  21
ATOM     21  C   UNL     1      97.500   6.790  23.168  1.00  0.00     0.053 C 
BRANCH  21  22
ATOM     22  C   UNL     1      97.670   7.176  21.733  1.00  0.00     0.041 C 
ATOM     23  O   UNL     1      97.105   8.210  21.285  1.00  0.00    -0.550 OA
ATOM     24  O   UNL     1      98.410   6.371  20.878  1.00  0.00    -0.550 OA
ENDBRANCH  21  22
ENDBRANCH  20  21
ENDBRANCH  19  20
ENDBRANCH  18  19
ENDBRANCH  17  18
ENDBRANCH  16  17
ENDBRANCH  15  16
ENDBRANCH  14  15
ENDBRANCH  13  14
ENDBRANCH   1  13
TORSDOF 20
ENDMDL
MODEL 9
REMARK VINA RESULT:    -4.395      3.242      6.740
REMARK INTER + INTRA:         -12.736
REMARK INTER:                  -9.798
REMARK INTRA:                  -2.938
REMARK UNBOUND:                -3.202
REMARK SMILES CCCCCCCCCCCCCCCCCCCCCC(=O)[O-]
REMARK SMILES IDX 12 1 11 2 10 3 9 4 8 5 7 6 6 7 5 8 4 9 3 10 2 11 1 12 13 13
REMARK SMILES IDX 14 14 15 15 16 16 17 17 18 18 19 19 20 20 21 21 22 22 23 23
REMARK SMILES IDX 24 24
REMARK H PARENT
REMARK Flexibility Score: inf
ROOT
ATOM      1  C   UNL     1      99.073   2.019  24.675  1.00  0.00     0.000 C 
ENDROOT
BRANCH   1   2
ATOM      2  C   UNL     1      97.567   1.902  24.370  1.00  0.00     0.000 C 
BRANCH   2   3
ATOM      3  C   UNL     1      96.641   2.673  25.328  1.00  0.00     0.000 C 
BRANCH   3   4
ATOM      4  C   UNL     1      96.142   4.003  24.739  1.00  0.00    -0.000 C 
BRANCH   4   5
ATOM      5  C   UNL     1      96.016   5.118  25.793  1.00  0.00    -0.000 C 
BRANCH   5   6
ATOM      6  C   UNL     1      96.776   6.418  25.470  1.00  0.00    -0.000 C 
BRANCH   6   7
ATOM      7  C   UNL     1      95.853   7.554  25.004  1.00  0.00    -0.000 C 
BRANCH   7   8
ATOM      8  C   UNL     1      96.227   8.023  23.594  1.00  0.00    -0.000 C 
BRANCH   8   9
ATOM      9  C   UNL     1      95.482   7.207  22.527  1.00  0.00    -0.000 C 
BRANCH   9  10
ATOM     10  C   UNL     1      96.427   6.356  21.665  1.00  0.00    -0.000 C 
BRANCH  10  11
ATOM     11  C   UNL     1      97.904   6.734  21.857  1.00  0.00    -0.003 C 
ATOM     12  C   UNL     1      98.700   5.567  22.432  1.00  0.00     0.004 C 
ENDBRANCH  10  11
ENDBRANCH   9  10
ENDBRANCH   8   9
ENDBRANCH   7   8
ENDBRANCH   6   7
ENDBRANCH   5   6
ENDBRANCH   4   5
ENDBRANCH   3   4
ENDBRANCH   2   3
ENDBRANCH   1   2
BRANCH   1  13
ATOM     13  C   UNL     1      99.372   2.902  25.896  1.00  0.00     0.000 C 
BRANCH  13  14
ATOM     14  C   UNL     1     100.049   4.214  25.471  1.00  0.00     0.000 C 
BRANCH  14  15
ATOM     15  C   UNL     1     100.825   4.884  26.620  1.00  0.00     0.000 C 
BRANCH  15  16
ATOM     16  C   UNL     1     102.192   4.247  26.941  1.00  0.00     0.000 C 
BRANCH  16  17
ATOM     17  C   UNL     1     102.988   3.754  25.716  1.00  0.00     0.000 C 
BRANCH  17  18
ATOM     18  C   UNL     1     103.286   2.245  25.703  1.00  0.00     0.000 C 
BRANCH  18  19
ATOM     19  C   UNL     1     103.597   1.711  24.294  1.00  0.00     0.000 C 
BRANCH  19  20
ATOM     20  C   UNL     1     102.341   1.219  23.558  1.00  0.00     0.006 C 
BRANCH  20  21
ATOM     21  C   UNL     1     102.363  -0.294  23.303  1.00  0.00     0.053 C 
BRANCH  21  22
ATOM     22  C   UNL     1     100.997  -0.874  23.491  1.00  0.00     0.041 C 
ATOM     23  O   UNL     1     100.218  -0.991  22.508  1.00  0.00    -0.550 OA
ATOM     24  O   UNL     1     100.565  -1.241  24.759  1.00  0.00    -0.550 OA
ENDBRANCH  21  22
ENDBRANCH  20  21
ENDBRANCH  19  20
ENDBRANCH  18  19
ENDBRANCH  17  18
ENDBRANCH  16  17
ENDBRANCH  15  16
ENDBRANCH  14  15
ENDBRANCH  13  14
ENDBRANCH   1  13
TORSDOF 20
ENDMDL
