MODEL 1
REMARK VINA RESULT:     6.093      0.000      0.000
REMARK INTER + INTRA:           6.271
REMARK INTER:                   6.271
REMARK INTRA:                   0.000
REMARK UNBOUND:                 0.000
REMARK SMILES C=C1[C@H](O)C[C@@]23C[C@@H]1C(C)(C)[C@H]2CC[C@H]3C
REMARK SMILES IDX 16 1 15 2 14 3 13 4 12 5 6 6 7 7 8 8 9 9 10 10 11 11 2 12
REMARK SMILES IDX 1 13 3 14 5 15 4 16
REMARK H PARENT 4 17
REMARK Flexibility Score: inf
ROOT
ATOM      1  C   UNL     1     -33.380  33.433 -12.114  1.00  0.00     0.008 C 
ATOM      2  C   UNL     1     -34.523  34.443 -11.936  1.00  0.00    -0.008 C 
ATOM      3  C   UNL     1     -34.134  35.664 -11.048  1.00  0.00     0.004 C 
ATOM      4  C   UNL     1     -35.427  36.125 -10.325  1.00  0.00     0.005 C 
ATOM      5  C   UNL     1     -36.486  35.269 -10.997  1.00  0.00     0.002 C 
ATOM      6  C   UNL     1     -35.815  33.926 -11.265  1.00  0.00    -0.020 C 
ATOM      7  C   UNL     1     -36.926  33.261 -12.063  1.00  0.00     0.016 C 
ATOM      8  C   UNL     1     -38.123  33.508 -11.102  1.00  0.00     0.023 C 
ATOM      9  C   UNL     1     -37.921  34.966 -10.525  1.00  0.00    -0.025 C 
ATOM     10  C   UNL     1     -38.938  35.924 -11.193  1.00  0.00     0.012 C 
ATOM     11  C   UNL     1     -38.078  35.121  -8.990  1.00  0.00     0.012 C 
ATOM     12  C   UNL     1     -38.024  32.458 -10.017  1.00  0.00    -0.045 C 
ATOM     13  C   UNL     1     -39.125  31.825  -9.581  1.00  0.00     0.011 C 
ATOM     14  C   UNL     1     -36.653  32.104  -9.470  1.00  0.00     0.140 C 
ATOM     15  C   UNL     1     -35.518  33.059  -9.965  1.00  0.00     0.044 C 
ENDROOT
BRANCH  14  16
ATOM     16  O   UNL     1     -36.674  32.111  -8.063  1.00  0.00    -0.389 OA
ATOM     17  H   UNL     1     -37.029  31.232  -7.765  1.00  0.00     0.211 HD
ENDBRANCH  14  16
TORSDOF 1
ENDMDL
