MODEL 1
REMARK VINA RESULT:    -7.668      0.000      0.000
REMARK INTER + INTRA:          -8.747
REMARK INTER:                  -9.237
REMARK INTRA:                   0.489
REMARK UNBOUND:                 0.489
REMARK SMILES O=c1c(O)c(-c2ccc(O)cc2O)oc2cc(O)cc(O)c12
REMARK SMILES IDX 5 1 3 2 2 3 1 4 22 5 20 6 19 7 17 8 16 9 15 10 14 11 6 12
REMARK SMILES IDX 8 13 7 14 9 15 11 16 12 17 10 18 13 20 4 22 21 24 18 26
REMARK H PARENT 10 19 13 21 4 23 21 25 18 27
REMARK Flexibility Score: inf
ROOT
ATOM      1  C   UNL     1      18.134  22.717  40.103  1.00  0.00     0.184 A 
ATOM      2  C   UNL     1      17.976  23.847  39.287  1.00  0.00     0.208 A 
ATOM      3  C   UNL     1      16.852  24.668  39.472  1.00  0.00     0.238 A 
ATOM      4  O   UNL     1      16.742  25.710  38.774  1.00  0.00    -0.285 OA
ATOM      5  C   UNL     1      15.893  24.335  40.460  1.00  0.00     0.111 A 
ATOM      6  C   UNL     1      14.696  25.072  40.707  1.00  0.00     0.134 A 
ATOM      7  C   UNL     1      13.885  24.727  41.796  1.00  0.00     0.093 A 
ATOM      8  C   UNL     1      14.194  23.631  42.605  1.00  0.00     0.123 A 
ATOM      9  C   UNL     1      15.329  22.870  42.336  1.00  0.00     0.094 A 
ATOM     10  C   UNL     1      16.178  23.211  41.280  1.00  0.00     0.146 A 
ATOM     11  O   UNL     1      17.255  22.465  41.065  1.00  0.00    -0.451 OA
ENDROOT
BRANCH   1  12
ATOM     12  C   UNL     1      19.286  21.803  39.949  1.00  0.00     0.063 A 
ATOM     13  C   UNL     1      21.518  21.404  39.070  1.00  0.00     0.047 A 
ATOM     14  C   UNL     1      20.410  22.240  39.229  1.00  0.00     0.020 A 
ATOM     15  C   UNL     1      21.523  20.127  39.637  1.00  0.00     0.119 A 
ATOM     16  C   UNL     1      20.417  19.691  40.378  1.00  0.00     0.093 A 
ATOM     17  C   UNL     1      19.303  20.527  40.548  1.00  0.00     0.130 A 
BRANCH  15  18
ATOM     18  O   UNL     1      22.633  19.303  39.467  1.00  0.00    -0.508 OA
ATOM     19  H   UNL     1      23.553  19.579  39.792  1.00  0.00     0.293 HD
ENDBRANCH  15  18
BRANCH  17  20
ATOM     20  O   UNL     1      18.228  20.100  41.328  1.00  0.00    -0.507 OA
ATOM     21  H   UNL     1      17.963  20.584  42.179  1.00  0.00     0.293 HD
ENDBRANCH  17  20
ENDBRANCH   1  12
BRANCH   2  22
ATOM     22  O   UNL     1      18.946  24.162  38.332  1.00  0.00    -0.502 OA
ATOM     23  H   UNL     1      19.047  23.642  37.469  1.00  0.00     0.293 HD
ENDBRANCH   2  22
BRANCH   6  24
ATOM     24  O   UNL     1      14.247  26.125  39.904  1.00  0.00    -0.507 OA
ATOM     25  H   UNL     1      13.316  26.511  39.930  1.00  0.00     0.293 HD
ENDBRANCH   6  24
BRANCH   8  26
ATOM     26  O   UNL     1      13.373  23.285  43.677  1.00  0.00    -0.508 OA
ATOM     27  H   UNL     1      12.497  22.796  43.536  1.00  0.00     0.293 HD
ENDBRANCH   8  26
TORSDOF 6
ENDMDL
MODEL 2
REMARK VINA RESULT:    -7.507      1.793      6.745
REMARK INTER + INTRA:          -8.554
REMARK INTER:                  -8.703
REMARK INTRA:                   0.149
REMARK UNBOUND:                 0.489
REMARK SMILES O=c1c(O)c(-c2ccc(O)cc2O)oc2cc(O)cc(O)c12
REMARK SMILES IDX 5 1 3 2 2 3 1 4 22 5 20 6 19 7 17 8 16 9 15 10 14 11 6 12
REMARK SMILES IDX 8 13 7 14 9 15 11 16 12 17 10 18 13 20 4 22 21 24 18 26
REMARK H PARENT 10 19 13 21 4 23 21 25 18 27
REMARK Flexibility Score: inf
ROOT
ATOM      1  C   UNL     1      14.867  23.773  42.004  1.00  0.00     0.184 A 
ATOM      2  C   UNL     1      14.979  24.757  41.010  1.00  0.00     0.208 A 
ATOM      3  C   UNL     1      15.972  24.621  40.027  1.00  0.00     0.238 A 
ATOM      4  O   UNL     1      16.034  25.478  39.107  1.00  0.00    -0.285 OA
ATOM      5  C   UNL     1      16.849  23.509  40.062  1.00  0.00     0.111 A 
ATOM      6  C   UNL     1      17.917  23.290  39.140  1.00  0.00     0.134 A 
ATOM      7  C   UNL     1      18.638  22.091  39.192  1.00  0.00     0.093 A 
ATOM      8  C   UNL     1      18.373  21.132  40.173  1.00  0.00     0.123 A 
ATOM      9  C   UNL     1      17.372  21.363  41.113  1.00  0.00     0.094 A 
ATOM     10  C   UNL     1      16.611  22.533  41.066  1.00  0.00     0.146 A 
ATOM     11  O   UNL     1      15.659  22.708  41.975  1.00  0.00    -0.451 OA
ENDROOT
BRANCH   1  12
ATOM     12  C   UNL     1      13.855  23.866  43.077  1.00  0.00     0.063 A 
ATOM     13  C   UNL     1      11.636  24.564  43.786  1.00  0.00     0.047 A 
ATOM     14  C   UNL     1      12.617  24.466  42.795  1.00  0.00     0.020 A 
ATOM     15  C   UNL     1      11.873  24.053  45.064  1.00  0.00     0.119 A 
ATOM     16  C   UNL     1      13.095  23.430  45.349  1.00  0.00     0.093 A 
ATOM     17  C   UNL     1      14.083  23.322  44.358  1.00  0.00     0.130 A 
BRANCH  15  18
ATOM     18  O   UNL     1      10.887  24.161  46.042  1.00  0.00    -0.508 OA
ATOM     19  H   UNL     1      10.280  24.971  46.096  1.00  0.00     0.293 HD
ENDBRANCH  15  18
BRANCH  17  20
ATOM     20  O   UNL     1      15.277  22.656  44.639  1.00  0.00    -0.507 OA
ATOM     21  H   UNL     1      16.039  23.115  45.126  1.00  0.00     0.293 HD
ENDBRANCH  17  20
ENDBRANCH   1  12
BRANCH   2  22
ATOM     22  O   UNL     1      14.090  25.834  40.989  1.00  0.00    -0.502 OA
ATOM     23  H   UNL     1      14.380  26.774  40.749  1.00  0.00     0.293 HD
ENDBRANCH   2  22
BRANCH   6  24
ATOM     24  O   UNL     1      18.324  24.223  38.182  1.00  0.00    -0.507 OA
ATOM     25  H   UNL     1      19.216  24.693  38.180  1.00  0.00     0.293 HD
ENDBRANCH   6  24
BRANCH   8  26
ATOM     26  O   UNL     1      19.107  19.948  40.227  1.00  0.00    -0.508 OA
ATOM     27  H   UNL     1      20.048  19.891  39.854  1.00  0.00     0.293 HD
ENDBRANCH   8  26
TORSDOF 6
ENDMDL
MODEL 3
REMARK VINA RESULT:    -7.110      1.302      6.388
REMARK INTER + INTRA:          -8.075
REMARK INTER:                  -8.408
REMARK INTRA:                   0.333
REMARK UNBOUND:                 0.489
REMARK SMILES O=c1c(O)c(-c2ccc(O)cc2O)oc2cc(O)cc(O)c12
REMARK SMILES IDX 5 1 3 2 2 3 1 4 22 5 20 6 19 7 17 8 16 9 15 10 14 11 6 12
REMARK SMILES IDX 8 13 7 14 9 15 11 16 12 17 10 18 13 20 4 22 21 24 18 26
REMARK H PARENT 10 19 13 21 4 23 21 25 18 27
REMARK Flexibility Score: inf
ROOT
ATOM      1  C   UNL     1      16.359  23.407  40.943  1.00  0.00     0.184 A 
ATOM      2  C   UNL     1      16.864  24.243  39.936  1.00  0.00     0.208 A 
ATOM      3  C   UNL     1      18.018  23.850  39.240  1.00  0.00     0.238 A 
ATOM      4  O   UNL     1      18.435  24.578  38.302  1.00  0.00    -0.285 OA
ATOM      5  C   UNL     1      18.659  22.632  39.573  1.00  0.00     0.111 A 
ATOM      6  C   UNL     1      19.856  22.153  38.960  1.00  0.00     0.134 A 
ATOM      7  C   UNL     1      20.330  20.874  39.278  1.00  0.00     0.093 A 
ATOM      8  C   UNL     1      19.686  20.083  40.233  1.00  0.00     0.123 A 
ATOM      9  C   UNL     1      18.550  20.566  40.878  1.00  0.00     0.094 A 
ATOM     10  C   UNL     1      18.032  21.823  40.558  1.00  0.00     0.146 A 
ATOM     11  O   UNL     1      16.942  22.240  41.190  1.00  0.00    -0.451 OA
ENDROOT
BRANCH   1  12
ATOM     12  C   UNL     1      15.158  23.771  41.725  1.00  0.00     0.063 A 
ATOM     13  C   UNL     1      13.069  25.007  41.870  1.00  0.00     0.047 A 
ATOM     14  C   UNL     1      14.218  24.647  41.160  1.00  0.00     0.020 A 
ATOM     15  C   UNL     1      12.838  24.486  43.146  1.00  0.00     0.119 A 
ATOM     16  C   UNL     1      13.758  23.591  43.708  1.00  0.00     0.093 A 
ATOM     17  C   UNL     1      14.911  23.220  43.000  1.00  0.00     0.130 A 
BRANCH  15  18
ATOM     18  O   UNL     1      11.691  24.856  43.842  1.00  0.00    -0.508 OA
ATOM     19  H   UNL     1      11.740  25.243  44.778  1.00  0.00     0.293 HD
ENDBRANCH  15  18
BRANCH  17  20
ATOM     20  O   UNL     1      15.795  22.291  43.550  1.00  0.00    -0.507 OA
ATOM     21  H   UNL     1      16.767  22.520  43.722  1.00  0.00     0.293 HD
ENDBRANCH  17  20
ENDBRANCH   1  12
BRANCH   2  22
ATOM     22  O   UNL     1      16.201  25.432  39.616  1.00  0.00    -0.502 OA
ATOM     23  H   UNL     1      16.344  25.913  38.738  1.00  0.00     0.293 HD
ENDBRANCH   2  22
BRANCH   6  24
ATOM     24  O   UNL     1      20.626  22.899  38.064  1.00  0.00    -0.507 OA
ATOM     25  H   UNL     1      21.453  22.561  37.597  1.00  0.00     0.293 HD
ENDBRANCH   6  24
BRANCH   8  26
ATOM     26  O   UNL     1      20.173  18.818  40.553  1.00  0.00    -0.508 OA
ATOM     27  H   UNL     1      21.047  18.474  40.173  1.00  0.00     0.293 HD
ENDBRANCH   8  26
TORSDOF 6
ENDMDL
MODEL 4
REMARK VINA RESULT:    -6.973      1.893      2.857
REMARK INTER + INTRA:          -7.911
REMARK INTER:                  -7.621
REMARK INTRA:                  -0.290
REMARK UNBOUND:                 0.489
REMARK SMILES O=c1c(O)c(-c2ccc(O)cc2O)oc2cc(O)cc(O)c12
REMARK SMILES IDX 5 1 3 2 2 3 1 4 22 5 20 6 19 7 17 8 16 9 15 10 14 11 6 12
REMARK SMILES IDX 8 13 7 14 9 15 11 16 12 17 10 18 13 20 4 22 21 24 18 26
REMARK H PARENT 10 19 13 21 4 23 21 25 18 27
REMARK Flexibility Score: inf
ROOT
ATOM      1  C   UNL     1      16.042  23.346  40.969  1.00  0.00     0.184 A 
ATOM      2  C   UNL     1      15.389  24.517  40.554  1.00  0.00     0.208 A 
ATOM      3  C   UNL     1      14.346  25.030  41.341  1.00  0.00     0.238 A 
ATOM      4  O   UNL     1      13.800  26.109  40.993  1.00  0.00    -0.285 OA
ATOM      5  C   UNL     1      13.960  24.354  42.525  1.00  0.00     0.111 A 
ATOM      6  C   UNL     1      12.890  24.762  43.377  1.00  0.00     0.134 A 
ATOM      7  C   UNL     1      12.681  24.092  44.590  1.00  0.00     0.093 A 
ATOM      8  C   UNL     1      13.460  22.990  44.948  1.00  0.00     0.123 A 
ATOM      9  C   UNL     1      14.469  22.549  44.095  1.00  0.00     0.094 A 
ATOM     10  C   UNL     1      14.726  23.218  42.896  1.00  0.00     0.146 A 
ATOM     11  O   UNL     1      15.703  22.770  42.116  1.00  0.00    -0.451 OA
ENDROOT
BRANCH   1  12
ATOM     12  C   UNL     1      17.136  22.745  40.178  1.00  0.00     0.063 A 
ATOM     13  C   UNL     1      19.336  22.973  39.167  1.00  0.00     0.047 A 
ATOM     14  C   UNL     1      18.280  23.513  39.907  1.00  0.00     0.020 A 
ATOM     15  C   UNL     1      19.268  21.657  38.700  1.00  0.00     0.119 A 
ATOM     16  C   UNL     1      18.142  20.875  38.987  1.00  0.00     0.093 A 
ATOM     17  C   UNL     1      17.080  21.407  39.735  1.00  0.00     0.130 A 
BRANCH  15  18
ATOM     18  O   UNL     1      20.326  21.134  37.961  1.00  0.00    -0.508 OA
ATOM     19  H   UNL     1      20.553  21.485  37.038  1.00  0.00     0.293 HD
ENDBRANCH  15  18
BRANCH  17  20
ATOM     20  O   UNL     1      15.985  20.604  40.055  1.00  0.00    -0.507 OA
ATOM     21  H   UNL     1      15.712  19.821  39.472  1.00  0.00     0.293 HD
ENDBRANCH  17  20
ENDBRANCH   1  12
BRANCH   2  22
ATOM     22  O   UNL     1      15.802  25.173  39.391  1.00  0.00    -0.502 OA
ATOM     23  H   UNL     1      16.771  25.204  39.100  1.00  0.00     0.293 HD
ENDBRANCH   2  22
BRANCH   6  24
ATOM     24  O   UNL     1      11.995  25.790  43.069  1.00  0.00    -0.507 OA
ATOM     25  H   UNL     1      11.119  25.664  42.586  1.00  0.00     0.293 HD
ENDBRANCH   6  24
BRANCH   8  26
ATOM     26  O   UNL     1      13.235  22.320  46.149  1.00  0.00    -0.508 OA
ATOM     27  H   UNL     1      13.540  22.705  47.036  1.00  0.00     0.293 HD
ENDBRANCH   8  26
TORSDOF 6
ENDMDL
MODEL 5
REMARK VINA RESULT:    -6.966      2.497      7.294
REMARK INTER + INTRA:          -7.902
REMARK INTER:                  -7.603
REMARK INTRA:                  -0.299
REMARK UNBOUND:                 0.489
REMARK SMILES O=c1c(O)c(-c2ccc(O)cc2O)oc2cc(O)cc(O)c12
REMARK SMILES IDX 5 1 3 2 2 3 1 4 22 5 20 6 19 7 17 8 16 9 15 10 14 11 6 12
REMARK SMILES IDX 8 13 7 14 9 15 11 16 12 17 10 18 13 20 4 22 21 24 18 26
REMARK H PARENT 10 19 13 21 4 23 21 25 18 27
REMARK Flexibility Score: inf
ROOT
ATOM      1  C   UNL     1      13.911  23.883  43.134  1.00  0.00     0.184 A 
ATOM      2  C   UNL     1      13.672  24.995  42.313  1.00  0.00     0.208 A 
ATOM      3  C   UNL     1      14.433  25.155  41.144  1.00  0.00     0.238 A 
ATOM      4  O   UNL     1      14.178  26.125  40.384  1.00  0.00    -0.285 OA
ATOM      5  C   UNL     1      15.435  24.206  40.822  1.00  0.00     0.111 A 
ATOM      6  C   UNL     1      16.293  24.289  39.684  1.00  0.00     0.134 A 
ATOM      7  C   UNL     1      17.160  23.228  39.395  1.00  0.00     0.093 A 
ATOM      8  C   UNL     1      17.245  22.117  40.238  1.00  0.00     0.123 A 
ATOM      9  C   UNL     1      16.454  22.054  41.382  1.00  0.00     0.094 A 
ATOM     10  C   UNL     1      15.554  23.080  41.679  1.00  0.00     0.146 A 
ATOM     11  O   UNL     1      14.811  22.975  42.774  1.00  0.00    -0.451 OA
ENDROOT
BRANCH   1  12
ATOM     12  C   UNL     1      13.157  23.666  44.387  1.00  0.00     0.063 A 
ATOM     13  C   UNL     1      11.501  22.379  45.617  1.00  0.00     0.047 A 
ATOM     14  C   UNL     1      12.227  22.615  44.447  1.00  0.00     0.020 A 
ATOM     15  C   UNL     1      11.704  23.178  46.745  1.00  0.00     0.119 A 
ATOM     16  C   UNL     1      12.648  24.213  46.703  1.00  0.00     0.093 A 
ATOM     17  C   UNL     1      13.385  24.454  45.534  1.00  0.00     0.130 A 
BRANCH  15  18
ATOM     18  O   UNL     1      10.971  22.933  47.903  1.00  0.00    -0.508 OA
ATOM     19  H   UNL     1      10.075  23.377  48.068  1.00  0.00     0.293 HD
ENDBRANCH  15  18
BRANCH  17  20
ATOM     20  O   UNL     1      14.356  25.456  45.519  1.00  0.00    -0.507 OA
ATOM     21  H   UNL     1      15.191  25.379  44.949  1.00  0.00     0.293 HD
ENDBRANCH  17  20
ENDBRANCH   1  12
BRANCH   2  22
ATOM     22  O   UNL     1      12.665  25.906  42.645  1.00  0.00    -0.502 OA
ATOM     23  H   UNL     1      11.701  25.627  42.772  1.00  0.00     0.293 HD
ENDBRANCH   2  22
BRANCH   6  24
ATOM     24  O   UNL     1      16.353  25.395  38.831  1.00  0.00    -0.507 OA
ATOM     25  H   UNL     1      15.581  25.737  38.279  1.00  0.00     0.293 HD
ENDBRANCH   6  24
BRANCH   8  26
ATOM     26  O   UNL     1      18.122  21.072  39.951  1.00  0.00    -0.508 OA
ATOM     27  H   UNL     1      17.793  20.199  39.556  1.00  0.00     0.293 HD
ENDBRANCH   8  26
TORSDOF 6
ENDMDL
MODEL 6
REMARK VINA RESULT:    -6.824      1.907      2.944
REMARK INTER + INTRA:          -7.731
REMARK INTER:                  -7.316
REMARK INTRA:                  -0.414
REMARK UNBOUND:                 0.489
REMARK SMILES O=c1c(O)c(-c2ccc(O)cc2O)oc2cc(O)cc(O)c12
REMARK SMILES IDX 5 1 3 2 2 3 1 4 22 5 20 6 19 7 17 8 16 9 15 10 14 11 6 12
REMARK SMILES IDX 8 13 7 14 9 15 11 16 12 17 10 18 13 20 4 22 21 24 18 26
REMARK H PARENT 10 19 13 21 4 23 21 25 18 27
REMARK Flexibility Score: inf
ROOT
ATOM      1  C   UNL     1      16.074  23.234  41.091  1.00  0.00     0.184 A 
ATOM      2  C   UNL     1      15.452  24.406  40.635  1.00  0.00     0.208 A 
ATOM      3  C   UNL     1      14.396  24.952  41.384  1.00  0.00     0.238 A 
ATOM      4  O   UNL     1      13.877  26.031  40.999  1.00  0.00    -0.285 OA
ATOM      5  C   UNL     1      13.969  24.306  42.570  1.00  0.00     0.111 A 
ATOM      6  C   UNL     1      12.884  24.748  43.386  1.00  0.00     0.134 A 
ATOM      7  C   UNL     1      12.632  24.106  44.605  1.00  0.00     0.093 A 
ATOM      8  C   UNL     1      13.384  23.000  45.006  1.00  0.00     0.123 A 
ATOM      9  C   UNL     1      14.407  22.525  44.189  1.00  0.00     0.094 A 
ATOM     10  C   UNL     1      14.707  23.165  42.984  1.00  0.00     0.146 A 
ATOM     11  O   UNL     1      15.697  22.687  42.240  1.00  0.00    -0.451 OA
ENDROOT
BRANCH   1  12
ATOM     12  C   UNL     1      17.179  22.600  40.341  1.00  0.00     0.063 A 
ATOM     13  C   UNL     1      17.919  21.360  38.385  1.00  0.00     0.047 A 
ATOM     14  C   UNL     1      16.897  21.964  39.122  1.00  0.00     0.020 A 
ATOM     15  C   UNL     1      19.237  21.394  38.849  1.00  0.00     0.119 A 
ATOM     16  C   UNL     1      19.533  22.048  40.052  1.00  0.00     0.093 A 
ATOM     17  C   UNL     1      18.513  22.663  40.795  1.00  0.00     0.130 A 
BRANCH  15  18
ATOM     18  O   UNL     1      20.244  20.785  38.106  1.00  0.00    -0.508 OA
ATOM     19  H   UNL     1      20.285  20.871  37.097  1.00  0.00     0.293 HD
ENDBRANCH  15  18
BRANCH  17  20
ATOM     20  O   UNL     1      18.827  23.352  41.967  1.00  0.00    -0.507 OA
ATOM     21  H   UNL     1      19.225  24.285  41.945  1.00  0.00     0.293 HD
ENDBRANCH  17  20
ENDBRANCH   1  12
BRANCH   2  22
ATOM     22  O   UNL     1      15.906  25.032  39.471  1.00  0.00    -0.502 OA
ATOM     23  H   UNL     1      15.844  24.595  38.560  1.00  0.00     0.293 HD
ENDBRANCH   2  22
BRANCH   6  24
ATOM     24  O   UNL     1      12.013  25.783  43.034  1.00  0.00    -0.507 OA
ATOM     25  H   UNL     1      11.149  25.661  42.530  1.00  0.00     0.293 HD
ENDBRANCH   6  24
BRANCH   8  26
ATOM     26  O   UNL     1      13.117  22.358  46.214  1.00  0.00    -0.508 OA
ATOM     27  H   UNL     1      12.231  22.478  46.693  1.00  0.00     0.293 HD
ENDBRANCH   8  26
TORSDOF 6
ENDMDL
MODEL 7
REMARK VINA RESULT:    -6.699      1.734      6.746
REMARK INTER + INTRA:          -7.580
REMARK INTER:                  -7.170
REMARK INTRA:                  -0.409
REMARK UNBOUND:                 0.489
REMARK SMILES O=c1c(O)c(-c2ccc(O)cc2O)oc2cc(O)cc(O)c12
REMARK SMILES IDX 5 1 3 2 2 3 1 4 22 5 20 6 19 7 17 8 16 9 15 10 14 11 6 12
REMARK SMILES IDX 8 13 7 14 9 15 11 16 12 17 10 18 13 20 4 22 21 24 18 26
REMARK H PARENT 10 19 13 21 4 23 21 25 18 27
REMARK Flexibility Score: inf
ROOT
ATOM      1  C   UNL     1      16.876  22.789  40.774  1.00  0.00     0.184 A 
ATOM      2  C   UNL     1      16.885  21.592  40.043  1.00  0.00     0.208 A 
ATOM      3  C   UNL     1      18.049  21.229  39.345  1.00  0.00     0.238 A 
ATOM      4  O   UNL     1      18.069  20.128  38.735  1.00  0.00    -0.285 OA
ATOM      5  C   UNL     1      19.181  22.079  39.376  1.00  0.00     0.111 A 
ATOM      6  C   UNL     1      20.399  21.831  38.673  1.00  0.00     0.134 A 
ATOM      7  C   UNL     1      21.498  22.674  38.880  1.00  0.00     0.093 A 
ATOM      8  C   UNL     1      21.403  23.791  39.712  1.00  0.00     0.123 A 
ATOM      9  C   UNL     1      20.201  24.075  40.356  1.00  0.00     0.094 A 
ATOM     10  C   UNL     1      19.097  23.233  40.199  1.00  0.00     0.146 A 
ATOM     11  O   UNL     1      17.973  23.534  40.839  1.00  0.00    -0.451 OA
ENDROOT
BRANCH   1  12
ATOM     12  C   UNL     1      15.679  23.237  41.516  1.00  0.00     0.063 A 
ATOM     13  C   UNL     1      14.302  23.097  43.516  1.00  0.00     0.047 A 
ATOM     14  C   UNL     1      15.422  22.691  42.784  1.00  0.00     0.020 A 
ATOM     15  C   UNL     1      13.434  24.061  42.996  1.00  0.00     0.119 A 
ATOM     16  C   UNL     1      13.695  24.629  41.743  1.00  0.00     0.093 A 
ATOM     17  C   UNL     1      14.821  24.232  41.004  1.00  0.00     0.130 A 
BRANCH  15  18
ATOM     18  O   UNL     1      12.320  24.453  43.735  1.00  0.00    -0.508 OA
ATOM     19  H   UNL     1      11.777  25.270  43.482  1.00  0.00     0.293 HD
ENDBRANCH  15  18
BRANCH  17  20
ATOM     20  O   UNL     1      15.097  24.840  39.779  1.00  0.00    -0.507 OA
ATOM     21  H   UNL     1      14.447  24.790  39.003  1.00  0.00     0.293 HD
ENDBRANCH  17  20
ENDBRANCH   1  12
BRANCH   2  22
ATOM     22  O   UNL     1      15.760  20.763  40.044  1.00  0.00    -0.502 OA
ATOM     23  H   UNL     1      15.829  19.753  40.016  1.00  0.00     0.293 HD
ENDBRANCH   2  22
BRANCH   6  24
ATOM     24  O   UNL     1      20.570  20.797  37.748  1.00  0.00    -0.507 OA
ATOM     25  H   UNL     1      21.004  19.910  37.952  1.00  0.00     0.293 HD
ENDBRANCH   6  24
BRANCH   8  26
ATOM     26  O   UNL     1      22.498  24.633  39.900  1.00  0.00    -0.508 OA
ATOM     27  H   UNL     1      22.469  25.400  40.562  1.00  0.00     0.293 HD
ENDBRANCH   8  26
TORSDOF 6
ENDMDL
MODEL 8
REMARK VINA RESULT:    -6.049      1.455      7.205
REMARK INTER + INTRA:          -6.797
REMARK INTER:                  -7.378
REMARK INTRA:                   0.581
REMARK UNBOUND:                 0.489
REMARK SMILES O=c1c(O)c(-c2ccc(O)cc2O)oc2cc(O)cc(O)c12
REMARK SMILES IDX 5 1 3 2 2 3 1 4 22 5 20 6 19 7 17 8 16 9 15 10 14 11 6 12
REMARK SMILES IDX 8 13 7 14 9 15 11 16 12 17 10 18 13 20 4 22 21 24 18 26
REMARK H PARENT 10 19 13 21 4 23 21 25 18 27
REMARK Flexibility Score: inf
ROOT
ATOM      1  C   UNL     1      18.145  22.382  40.061  1.00  0.00     0.184 A 
ATOM      2  C   UNL     1      18.164  21.263  40.907  1.00  0.00     0.208 A 
ATOM      3  C   UNL     1      19.231  20.354  40.810  1.00  0.00     0.238 A 
ATOM      4  O   UNL     1      19.270  19.381  41.607  1.00  0.00    -0.285 OA
ATOM      5  C   UNL     1      20.255  20.572  39.856  1.00  0.00     0.111 A 
ATOM      6  C   UNL     1      21.361  19.696  39.642  1.00  0.00     0.134 A 
ATOM      7  C   UNL     1      22.383  20.076  38.762  1.00  0.00     0.093 A 
ATOM      8  C   UNL     1      22.304  21.268  38.040  1.00  0.00     0.123 A 
ATOM      9  C   UNL     1      21.199  22.102  38.197  1.00  0.00     0.094 A 
ATOM     10  C   UNL     1      20.182  21.768  39.094  1.00  0.00     0.146 A 
ATOM     11  O   UNL     1      19.152  22.596  39.222  1.00  0.00    -0.451 OA
ENDROOT
BRANCH   1  12
ATOM     12  C   UNL     1      17.044  23.367  40.101  1.00  0.00     0.063 A 
ATOM     13  C   UNL     1      14.870  24.018  40.974  1.00  0.00     0.047 A 
ATOM     14  C   UNL     1      15.926  23.105  40.909  1.00  0.00     0.020 A 
ATOM     15  C   UNL     1      14.922  25.208  40.244  1.00  0.00     0.119 A 
ATOM     16  C   UNL     1      16.044  25.491  39.455  1.00  0.00     0.093 A 
ATOM     17  C   UNL     1      17.112  24.582  39.388  1.00  0.00     0.130 A 
BRANCH  15  18
ATOM     18  O   UNL     1      13.861  26.107  40.317  1.00  0.00    -0.508 OA
ATOM     19  H   UNL     1      14.015  27.108  40.345  1.00  0.00     0.293 HD
ENDBRANCH  15  18
BRANCH  17  20
ATOM     20  O   UNL     1      18.245  24.896  38.637  1.00  0.00    -0.507 OA
ATOM     21  H   UNL     1      19.130  25.119  39.077  1.00  0.00     0.293 HD
ENDBRANCH  17  20
ENDBRANCH   1  12
BRANCH   2  22
ATOM     22  O   UNL     1      17.150  21.083  41.851  1.00  0.00    -0.502 OA
ATOM     23  H   UNL     1      16.757  20.173  42.059  1.00  0.00     0.293 HD
ENDBRANCH   2  22
BRANCH   6  24
ATOM     24  O   UNL     1      21.490  18.440  40.243  1.00  0.00    -0.507 OA
ATOM     25  H   UNL     1      21.551  17.567  39.742  1.00  0.00     0.293 HD
ENDBRANCH   6  24
BRANCH   8  26
ATOM     26  O   UNL     1      23.317  21.631  37.154  1.00  0.00    -0.508 OA
ATOM     27  H   UNL     1      24.023  22.313  37.408  1.00  0.00     0.293 HD
ENDBRANCH   8  26
TORSDOF 6
ENDMDL
MODEL 9
REMARK VINA RESULT:    -5.689     17.424     19.517
REMARK INTER + INTRA:          -6.364
REMARK INTER:                  -6.899
REMARK INTRA:                   0.535
REMARK UNBOUND:                 0.489
REMARK SMILES O=c1c(O)c(-c2ccc(O)cc2O)oc2cc(O)cc(O)c12
REMARK SMILES IDX 5 1 3 2 2 3 1 4 22 5 20 6 19 7 17 8 16 9 15 10 14 11 6 12
REMARK SMILES IDX 8 13 7 14 9 15 11 16 12 17 10 18 13 20 4 22 21 24 18 26
REMARK H PARENT 10 19 13 21 4 23 21 25 18 27
REMARK Flexibility Score: inf
ROOT
ATOM      1  C   UNL     1      30.829   9.366  39.768  1.00  0.00     0.184 A 
ATOM      2  C   UNL     1      30.720   7.971  39.872  1.00  0.00     0.208 A 
ATOM      3  C   UNL     1      30.764   7.377  41.144  1.00  0.00     0.238 A 
ATOM      4  O   UNL     1      30.611   6.132  41.235  1.00  0.00    -0.285 OA
ATOM      5  C   UNL     1      30.933   8.189  42.292  1.00  0.00     0.111 A 
ATOM      6  C   UNL     1      31.031   7.692  43.627  1.00  0.00     0.134 A 
ATOM      7  C   UNL     1      31.067   8.593  44.698  1.00  0.00     0.093 A 
ATOM      8  C   UNL     1      31.074   9.973  44.479  1.00  0.00     0.123 A 
ATOM      9  C   UNL     1      31.037  10.467  43.177  1.00  0.00     0.094 A 
ATOM     10  C   UNL     1      30.964   9.594  42.089  1.00  0.00     0.146 A 
ATOM     11  O   UNL     1      30.921  10.107  40.865  1.00  0.00    -0.451 OA
ENDROOT
BRANCH   1  12
ATOM     12  C   UNL     1      30.808  10.051  38.458  1.00  0.00     0.063 A 
ATOM     13  C   UNL     1      30.884   9.899  36.032  1.00  0.00     0.047 A 
ATOM     14  C   UNL     1      30.908   9.283  37.287  1.00  0.00     0.020 A 
ATOM     15  C   UNL     1      30.747  11.286  35.932  1.00  0.00     0.119 A 
ATOM     16  C   UNL     1      30.622  12.058  37.093  1.00  0.00     0.093 A 
ATOM     17  C   UNL     1      30.638  11.448  38.357  1.00  0.00     0.130 A 
BRANCH  15  18
ATOM     18  O   UNL     1      30.729  11.886  34.675  1.00  0.00    -0.508 OA
ATOM     19  H   UNL     1      30.432  12.846  34.550  1.00  0.00     0.293 HD
ENDBRANCH  15  18
BRANCH  17  20
ATOM     20  O   UNL     1      30.463  12.222  39.504  1.00  0.00    -0.507 OA
ATOM     21  H   UNL     1      31.228  12.749  39.911  1.00  0.00     0.293 HD
ENDBRANCH  17  20
ENDBRANCH   1  12
BRANCH   2  22
ATOM     22  O   UNL     1      30.536   7.196  38.723  1.00  0.00    -0.502 OA
ATOM     23  H   UNL     1      30.267   7.598  37.834  1.00  0.00     0.293 HD
ENDBRANCH   2  22
BRANCH   6  24
ATOM     24  O   UNL     1      31.125   6.335  43.950  1.00  0.00    -0.507 OA
ATOM     25  H   UNL     1      31.231   5.590  43.278  1.00  0.00     0.293 HD
ENDBRANCH   6  24
BRANCH   8  26
ATOM     26  O   UNL     1      31.125  10.863  45.550  1.00  0.00    -0.508 OA
ATOM     27  H   UNL     1      31.383  11.834  45.420  1.00  0.00     0.293 HD
ENDBRANCH   8  26
TORSDOF 6
ENDMDL
