MODEL 1
REMARK VINA RESULT:    -3.671      0.000      0.000
REMARK INTER + INTRA:          -8.511
REMARK INTER:                  -6.461
REMARK INTRA:                  -2.050
REMARK UNBOUND:                -2.050
REMARK SMILES CCCCCCCCCCCCCCC(=O)[O-]
REMARK SMILES IDX 9 1 10 2 11 3 12 4 13 5 14 6 15 7 16 8 17 9 8 10 7 11 6 12
REMARK SMILES IDX 5 13 4 14 3 15 2 16 1 17
REMARK H PARENT
REMARK Flexibility Score: inf
ROOT
ATOM      1  C   UNL     1      -8.373   6.285 -20.302  1.00  0.00     0.000 C 
ENDROOT
BRANCH   1   2
ATOM      2  C   UNL     1      -7.620   6.709 -19.036  1.00  0.00     0.000 C 
BRANCH   2   3
ATOM      3  C   UNL     1      -7.876   8.188 -18.713  1.00  0.00     0.000 C 
BRANCH   3   4
ATOM      4  C   UNL     1      -9.005   8.385 -17.689  1.00  0.00     0.000 C 
BRANCH   4   5
ATOM      5  C   UNL     1      -9.242   9.866 -17.348  1.00  0.00     0.006 C 
BRANCH   5   6
ATOM      6  C   UNL     1      -7.927  10.629 -17.139  1.00  0.00     0.053 C 
BRANCH   6   7
ATOM      7  C   UNL     1      -7.498  10.615 -15.705  1.00  0.00     0.041 C 
ATOM      8  O   UNL     1      -8.345  10.438 -14.791  1.00  0.00    -0.550 OA
ATOM      9  O   UNL     1      -6.164  10.824 -15.375  1.00  0.00    -0.550 OA
ENDBRANCH   6   7
ENDBRANCH   5   6
ENDBRANCH   4   5
ENDBRANCH   3   4
ENDBRANCH   2   3
ENDBRANCH   1   2
BRANCH   1  10
ATOM     10  C   UNL     1      -9.478   5.271 -19.973  1.00  0.00     0.000 C 
BRANCH  10  11
ATOM     11  C   UNL     1     -10.638   5.298 -20.985  1.00  0.00    -0.000 C 
BRANCH  11  12
ATOM     12  C   UNL     1     -11.992   5.770 -20.416  1.00  0.00    -0.000 C 
BRANCH  12  13
ATOM     13  C   UNL     1     -11.906   6.910 -19.384  1.00  0.00    -0.000 C 
BRANCH  13  14
ATOM     14  C   UNL     1     -12.738   8.138 -19.782  1.00  0.00    -0.000 C 
BRANCH  14  15
ATOM     15  C   UNL     1     -11.843   9.368 -19.973  1.00  0.00    -0.000 C 
BRANCH  15  16
ATOM     16  C   UNL     1     -10.714   9.079 -20.969  1.00  0.00    -0.003 C 
ATOM     17  C   UNL     1      -9.790  10.283 -21.120  1.00  0.00     0.004 C 
ENDBRANCH  15  16
ENDBRANCH  14  15
ENDBRANCH  13  14
ENDBRANCH  12  13
ENDBRANCH  11  12
ENDBRANCH  10  11
ENDBRANCH   1  10
TORSDOF 13
ENDMDL
MODEL 2
REMARK VINA RESULT:    -3.660      3.145      4.798
REMARK INTER + INTRA:          -8.492
REMARK INTER:                  -6.351
REMARK INTRA:                  -2.141
REMARK UNBOUND:                -2.050
REMARK SMILES CCCCCCCCCCCCCCC(=O)[O-]
REMARK SMILES IDX 9 1 10 2 11 3 12 4 13 5 14 6 15 7 16 8 17 9 8 10 7 11 6 12
REMARK SMILES IDX 5 13 4 14 3 15 2 16 1 17
REMARK H PARENT
REMARK Flexibility Score: inf
ROOT
ATOM      1  C   UNL     1      -9.230  10.284 -19.709  1.00  0.00     0.000 C 
ENDROOT
BRANCH   1   2
ATOM      2  C   UNL     1     -10.033   9.941 -18.449  1.00  0.00     0.000 C 
BRANCH   2   3
ATOM      3  C   UNL     1      -9.428   8.731 -17.724  1.00  0.00     0.000 C 
BRANCH   3   4
ATOM      4  C   UNL     1      -8.457   7.933 -18.609  1.00  0.00     0.000 C 
BRANCH   4   5
ATOM      5  C   UNL     1      -9.079   6.633 -19.146  1.00  0.00     0.006 C 
BRANCH   5   6
ATOM      6  C   UNL     1      -8.392   6.153 -20.433  1.00  0.00     0.053 C 
BRANCH   6   7
ATOM      7  C   UNL     1      -7.762   4.806 -20.257  1.00  0.00     0.041 C 
ATOM      8  O   UNL     1      -7.545   4.071 -21.256  1.00  0.00    -0.550 OA
ATOM      9  O   UNL     1      -7.440   4.350 -18.985  1.00  0.00    -0.550 OA
ENDBRANCH   6   7
ENDBRANCH   5   6
ENDBRANCH   4   5
ENDBRANCH   3   4
ENDBRANCH   2   3
ENDBRANCH   1   2
BRANCH   1  10
ATOM     10  C   UNL     1     -10.140  10.334 -20.946  1.00  0.00     0.000 C 
BRANCH  10  11
ATOM     11  C   UNL     1      -9.697   9.361 -22.054  1.00  0.00    -0.000 C 
BRANCH  11  12
ATOM     12  C   UNL     1     -10.845   8.751 -22.885  1.00  0.00    -0.000 C 
BRANCH  12  13
ATOM     13  C   UNL     1     -10.913   7.213 -22.874  1.00  0.00    -0.000 C 
BRANCH  13  14
ATOM     14  C   UNL     1     -12.172   6.677 -22.176  1.00  0.00    -0.000 C 
BRANCH  14  15
ATOM     15  C   UNL     1     -12.918   7.802 -21.450  1.00  0.00    -0.000 C 
BRANCH  15  16
ATOM     16  C   UNL     1     -12.626   7.774 -19.946  1.00  0.00    -0.003 C 
ATOM     17  C   UNL     1     -13.355   8.902 -19.222  1.00  0.00     0.004 C 
ENDBRANCH  15  16
ENDBRANCH  14  15
ENDBRANCH  13  14
ENDBRANCH  12  13
ENDBRANCH  11  12
ENDBRANCH  10  11
ENDBRANCH   1  10
TORSDOF 13
ENDMDL
MODEL 3
REMARK VINA RESULT:    -3.635     12.803     14.855
REMARK INTER + INTRA:          -8.448
REMARK INTER:                  -6.155
REMARK INTRA:                  -2.293
REMARK UNBOUND:                -2.050
REMARK SMILES CCCCCCCCCCCCCCC(=O)[O-]
REMARK SMILES IDX 9 1 10 2 11 3 12 4 13 5 14 6 15 7 16 8 17 9 8 10 7 11 6 12
REMARK SMILES IDX 5 13 4 14 3 15 2 16 1 17
REMARK H PARENT
REMARK Flexibility Score: inf
ROOT
ATOM      1  C   UNL     1      -4.945  14.880  -5.792  1.00  0.00     0.000 C 
ENDROOT
BRANCH   1   2
ATOM      2  C   UNL     1      -5.140  14.594  -7.286  1.00  0.00     0.000 C 
BRANCH   2   3
ATOM      3  C   UNL     1      -6.319  13.637  -7.513  1.00  0.00     0.000 C 
BRANCH   3   4
ATOM      4  C   UNL     1      -7.365  14.203  -8.487  1.00  0.00     0.000 C 
BRANCH   4   5
ATOM      5  C   UNL     1      -8.460  15.014  -7.774  1.00  0.00     0.006 C 
BRANCH   5   6
ATOM      6  C   UNL     1      -8.975  14.305  -6.513  1.00  0.00     0.053 C 
BRANCH   6   7
ATOM      7  C   UNL     1      -9.271  15.276  -5.412  1.00  0.00     0.041 C 
ATOM      8  O   UNL     1     -10.446  15.402  -4.976  1.00  0.00    -0.550 OA
ATOM      9  O   UNL     1      -8.254  16.063  -4.886  1.00  0.00    -0.550 OA
ENDBRANCH   6   7
ENDBRANCH   5   6
ENDBRANCH   4   5
ENDBRANCH   3   4
ENDBRANCH   2   3
ENDBRANCH   1   2
BRANCH   1  10
ATOM     10  C   UNL     1      -5.536  13.752  -4.933  1.00  0.00     0.000 C 
BRANCH  10  11
ATOM     11  C   UNL     1      -4.497  13.101  -4.003  1.00  0.00    -0.000 C 
BRANCH  11  12
ATOM     12  C   UNL     1      -4.154  11.633  -4.331  1.00  0.00    -0.000 C 
BRANCH  12  13
ATOM     13  C   UNL     1      -3.879  11.343  -5.817  1.00  0.00    -0.000 C 
BRANCH  13  14
ATOM     14  C   UNL     1      -4.913  10.393  -6.441  1.00  0.00    -0.000 C 
BRANCH  14  15
ATOM     15  C   UNL     1      -5.975   9.987  -5.412  1.00  0.00    -0.000 C 
BRANCH  15  16
ATOM     16  C   UNL     1      -7.377  10.394  -5.878  1.00  0.00    -0.003 C 
ATOM     17  C   UNL     1      -8.141  11.108  -4.767  1.00  0.00     0.004 C 
ENDBRANCH  15  16
ENDBRANCH  14  15
ENDBRANCH  13  14
ENDBRANCH  12  13
ENDBRANCH  11  12
ENDBRANCH  10  11
ENDBRANCH   1  10
TORSDOF 13
ENDMDL
MODEL 4
REMARK VINA RESULT:    -3.631      1.656      2.779
REMARK INTER + INTRA:          -8.442
REMARK INTER:                  -6.522
REMARK INTRA:                  -1.920
REMARK UNBOUND:                -2.050
REMARK SMILES CCCCCCCCCCCCCCC(=O)[O-]
REMARK SMILES IDX 9 1 10 2 11 3 12 4 13 5 14 6 15 7 16 8 17 9 8 10 7 11 6 12
REMARK SMILES IDX 5 13 4 14 3 15 2 16 1 17
REMARK H PARENT
REMARK Flexibility Score: inf
ROOT
ATOM      1  C   UNL     1     -12.325   8.208 -19.381  1.00  0.00     0.000 C 
ENDROOT
BRANCH   1   2
ATOM      2  C   UNL     1     -11.392   7.003 -19.218  1.00  0.00     0.000 C 
BRANCH   2   3
ATOM      3  C   UNL     1     -10.032   7.433 -18.652  1.00  0.00     0.000 C 
BRANCH   3   4
ATOM      4  C   UNL     1     -10.037   8.877 -18.126  1.00  0.00     0.000 C 
BRANCH   4   5
ATOM      5  C   UNL     1      -9.048   9.088 -16.967  1.00  0.00     0.006 C 
BRANCH   5   6
ATOM      6  C   UNL     1      -8.245  10.388 -17.122  1.00  0.00     0.053 C 
BRANCH   6   7
ATOM      7  C   UNL     1      -7.939  11.013 -15.796  1.00  0.00     0.041 C 
ATOM      8  O   UNL     1      -8.258  10.426 -14.729  1.00  0.00    -0.550 OA
ATOM      9  O   UNL     1      -7.327  12.259 -15.739  1.00  0.00    -0.550 OA
ENDBRANCH   6   7
ENDBRANCH   5   6
ENDBRANCH   4   5
ENDBRANCH   3   4
ENDBRANCH   2   3
ENDBRANCH   1   2
BRANCH   1  10
ATOM     10  C   UNL     1     -12.937   8.245 -20.790  1.00  0.00     0.000 C 
BRANCH  10  11
ATOM     11  C   UNL     1     -12.641   6.972 -21.604  1.00  0.00    -0.000 C 
BRANCH  11  12
ATOM     12  C   UNL     1     -11.635   7.154 -22.760  1.00  0.00    -0.000 C 
BRANCH  12  13
ATOM     13  C   UNL     1     -10.886   8.499 -22.769  1.00  0.00    -0.000 C 
BRANCH  13  14
ATOM     14  C   UNL     1      -9.444   8.382 -22.254  1.00  0.00    -0.000 C 
BRANCH  14  15
ATOM     15  C   UNL     1      -9.005   9.674 -21.556  1.00  0.00    -0.000 C 
BRANCH  15  16
ATOM     16  C   UNL     1     -10.196  10.613 -21.335  1.00  0.00    -0.003 C 
ATOM     17  C   UNL     1      -9.892  12.018 -21.845  1.00  0.00     0.004 C 
ENDBRANCH  15  16
ENDBRANCH  14  15
ENDBRANCH  13  14
ENDBRANCH  12  13
ENDBRANCH  11  12
ENDBRANCH  10  11
ENDBRANCH   1  10
TORSDOF 13
ENDMDL
MODEL 5
REMARK VINA RESULT:    -3.623      1.285      3.100
REMARK INTER + INTRA:          -8.427
REMARK INTER:                  -6.886
REMARK INTRA:                  -1.541
REMARK UNBOUND:                -2.050
REMARK SMILES CCCCCCCCCCCCCCC(=O)[O-]
REMARK SMILES IDX 9 1 10 2 11 3 12 4 13 5 14 6 15 7 16 8 17 9 8 10 7 11 6 12
REMARK SMILES IDX 5 13 4 14 3 15 2 16 1 17
REMARK H PARENT
REMARK Flexibility Score: inf
ROOT
ATOM      1  C   UNL     1     -11.796   9.035 -20.096  1.00  0.00     0.000 C 
ENDROOT
BRANCH   1   2
ATOM      2  C   UNL     1     -11.022   8.526 -18.875  1.00  0.00     0.000 C 
BRANCH   2   3
ATOM      3  C   UNL     1     -10.101   9.618 -18.312  1.00  0.00     0.000 C 
BRANCH   3   4
ATOM      4  C   UNL     1      -9.055   9.066 -17.331  1.00  0.00     0.000 C 
BRANCH   4   5
ATOM      5  C   UNL     1      -8.008  10.118 -16.928  1.00  0.00     0.006 C 
BRANCH   5   6
ATOM      6  C   UNL     1      -8.329  10.764 -15.573  1.00  0.00     0.053 C 
BRANCH   6   7
ATOM      7  C   UNL     1      -7.109  11.351 -14.934  1.00  0.00     0.041 C 
ATOM      8  O   UNL     1      -6.904  12.593 -14.978  1.00  0.00    -0.550 OA
ATOM      9  O   UNL     1      -6.181  10.523 -14.314  1.00  0.00    -0.550 OA
ENDBRANCH   6   7
ENDBRANCH   5   6
ENDBRANCH   4   5
ENDBRANCH   3   4
ENDBRANCH   2   3
ENDBRANCH   1   2
BRANCH   1  10
ATOM     10  C   UNL     1     -13.082   8.222 -20.311  1.00  0.00     0.000 C 
BRANCH  10  11
ATOM     11  C   UNL     1     -13.153   7.574 -21.705  1.00  0.00    -0.000 C 
BRANCH  11  12
ATOM     12  C   UNL     1     -12.050   6.536 -22.002  1.00  0.00    -0.000 C 
BRANCH  12  13
ATOM     13  C   UNL     1     -11.830   5.484 -20.899  1.00  0.00    -0.000 C 
BRANCH  13  14
ATOM     14  C   UNL     1     -10.353   5.328 -20.510  1.00  0.00    -0.000 C 
BRANCH  14  15
ATOM     15  C   UNL     1      -9.453   6.170 -21.421  1.00  0.00    -0.000 C 
BRANCH  15  16
ATOM     16  C   UNL     1      -8.354   6.870 -20.615  1.00  0.00    -0.003 C 
ATOM     17  C   UNL     1      -8.029   6.097 -19.340  1.00  0.00     0.004 C 
ENDBRANCH  15  16
ENDBRANCH  14  15
ENDBRANCH  13  14
ENDBRANCH  12  13
ENDBRANCH  11  12
ENDBRANCH  10  11
ENDBRANCH   1  10
TORSDOF 13
ENDMDL
MODEL 6
REMARK VINA RESULT:    -3.605     12.343     14.351
REMARK INTER + INTRA:          -8.395
REMARK INTER:                  -6.583
REMARK INTRA:                  -1.811
REMARK UNBOUND:                -2.050
REMARK SMILES CCCCCCCCCCCCCCC(=O)[O-]
REMARK SMILES IDX 9 1 10 2 11 3 12 4 13 5 14 6 15 7 16 8 17 9 8 10 7 11 6 12
REMARK SMILES IDX 5 13 4 14 3 15 2 16 1 17
REMARK H PARENT
REMARK Flexibility Score: inf
ROOT
ATOM      1  C   UNL     1      -4.418  12.966  -6.019  1.00  0.00     0.000 C 
ENDROOT
BRANCH   1   2
ATOM      2  C   UNL     1      -3.873  11.534  -6.065  1.00  0.00     0.000 C 
BRANCH   2   3
ATOM      3  C   UNL     1      -4.213  10.775  -4.774  1.00  0.00     0.000 C 
BRANCH   3   4
ATOM      4  C   UNL     1      -5.289   9.697  -4.985  1.00  0.00     0.000 C 
BRANCH   4   5
ATOM      5  C   UNL     1      -6.716  10.269  -4.942  1.00  0.00     0.006 C 
BRANCH   5   6
ATOM      6  C   UNL     1      -7.312  10.444  -6.346  1.00  0.00     0.053 C 
BRANCH   6   7
ATOM      7  C   UNL     1      -8.750  10.031  -6.395  1.00  0.00     0.041 C 
ATOM      8  O   UNL     1      -9.534  10.349  -5.462  1.00  0.00    -0.550 OA
ATOM      9  O   UNL     1      -9.219   9.269  -7.458  1.00  0.00    -0.550 OA
ENDBRANCH   6   7
ENDBRANCH   5   6
ENDBRANCH   4   5
ENDBRANCH   3   4
ENDBRANCH   2   3
ENDBRANCH   1   2
BRANCH   1  10
ATOM     10  C   UNL     1      -4.446  13.500  -4.579  1.00  0.00     0.000 C 
BRANCH  10  11
ATOM     11  C   UNL     1      -5.873  13.778  -4.072  1.00  0.00    -0.000 C 
BRANCH  11  12
ATOM     12  C   UNL     1      -6.790  14.516  -5.069  1.00  0.00    -0.000 C 
BRANCH  12  13
ATOM     13  C   UNL     1      -8.244  14.013  -5.115  1.00  0.00    -0.000 C 
BRANCH  13  14
ATOM     14  C   UNL     1      -8.772  13.846  -6.547  1.00  0.00    -0.000 C 
BRANCH  14  15
ATOM     15  C   UNL     1      -8.516  15.109  -7.377  1.00  0.00    -0.000 C 
BRANCH  15  16
ATOM     16  C   UNL     1      -8.038  14.752  -8.789  1.00  0.00    -0.003 C 
ATOM     17  C   UNL     1      -6.521  14.588  -8.832  1.00  0.00     0.004 C 
ENDBRANCH  15  16
ENDBRANCH  14  15
ENDBRANCH  13  14
ENDBRANCH  12  13
ENDBRANCH  11  12
ENDBRANCH  10  11
ENDBRANCH   1  10
TORSDOF 13
ENDMDL
MODEL 7
REMARK VINA RESULT:    -3.600      2.994      4.739
REMARK INTER + INTRA:          -8.386
REMARK INTER:                  -6.057
REMARK INTRA:                  -2.329
REMARK UNBOUND:                -2.050
REMARK SMILES CCCCCCCCCCCCCCC(=O)[O-]
REMARK SMILES IDX 9 1 10 2 11 3 12 4 13 5 14 6 15 7 16 8 17 9 8 10 7 11 6 12
REMARK SMILES IDX 5 13 4 14 3 15 2 16 1 17
REMARK H PARENT
REMARK Flexibility Score: inf
ROOT
ATOM      1  C   UNL     1     -12.822   8.294 -20.185  1.00  0.00     0.000 C 
ENDROOT
BRANCH   1   2
ATOM      2  C   UNL     1     -12.119   7.344 -19.208  1.00  0.00     0.000 C 
BRANCH   2   3
ATOM      3  C   UNL     1     -10.767   7.917 -18.760  1.00  0.00     0.000 C 
BRANCH   3   4
ATOM      4  C   UNL     1     -10.761   9.453 -18.711  1.00  0.00     0.000 C 
BRANCH   4   5
ATOM      5  C   UNL     1      -9.570  10.064 -19.469  1.00  0.00     0.006 C 
BRANCH   5   6
ATOM      6  C   UNL     1      -9.555   9.653 -20.948  1.00  0.00     0.053 C 
BRANCH   6   7
ATOM      7  C   UNL     1     -10.067  10.746 -21.834  1.00  0.00     0.041 C 
ATOM      8  O   UNL     1     -10.542  11.799 -21.334  1.00  0.00    -0.550 OA
ATOM      9  O   UNL     1     -10.044  10.591 -23.215  1.00  0.00    -0.550 OA
ENDBRANCH   6   7
ENDBRANCH   5   6
ENDBRANCH   4   5
ENDBRANCH   3   4
ENDBRANCH   2   3
ENDBRANCH   1   2
BRANCH   1  10
ATOM     10  C   UNL     1     -12.786   7.737 -21.616  1.00  0.00     0.000 C 
BRANCH  10  11
ATOM     11  C   UNL     1     -12.168   6.330 -21.696  1.00  0.00    -0.000 C 
BRANCH  11  12
ATOM     12  C   UNL     1     -10.893   6.223 -22.560  1.00  0.00    -0.000 C 
BRANCH  12  13
ATOM     13  C   UNL     1      -9.578   6.100 -21.770  1.00  0.00    -0.000 C 
BRANCH  13  14
ATOM     14  C   UNL     1      -9.632   5.014 -20.685  1.00  0.00    -0.000 C 
BRANCH  14  15
ATOM     15  C   UNL     1      -8.468   5.165 -19.699  1.00  0.00    -0.000 C 
BRANCH  15  16
ATOM     16  C   UNL     1      -7.572   6.348 -20.082  1.00  0.00    -0.003 C 
ATOM     17  C   UNL     1      -7.178   7.162 -18.853  1.00  0.00     0.004 C 
ENDBRANCH  15  16
ENDBRANCH  14  15
ENDBRANCH  13  14
ENDBRANCH  12  13
ENDBRANCH  11  12
ENDBRANCH  10  11
ENDBRANCH   1  10
TORSDOF 13
ENDMDL
MODEL 8
REMARK VINA RESULT:    -3.590      3.173      4.594
REMARK INTER + INTRA:          -8.368
REMARK INTER:                  -5.898
REMARK INTRA:                  -2.470
REMARK UNBOUND:                -2.050
REMARK SMILES CCCCCCCCCCCCCCC(=O)[O-]
REMARK SMILES IDX 9 1 10 2 11 3 12 4 13 5 14 6 15 7 16 8 17 9 8 10 7 11 6 12
REMARK SMILES IDX 5 13 4 14 3 15 2 16 1 17
REMARK H PARENT
REMARK Flexibility Score: inf
ROOT
ATOM      1  C   UNL     1     -10.420   7.001 -23.454  1.00  0.00     0.000 C 
ENDROOT
BRANCH   1   2
ATOM      2  C   UNL     1     -10.421   8.357 -22.740  1.00  0.00     0.000 C 
BRANCH   2   3
ATOM      3  C   UNL     1      -9.108   8.577 -21.975  1.00  0.00     0.000 C 
BRANCH   3   4
ATOM      4  C   UNL     1      -8.283   7.288 -21.830  1.00  0.00     0.000 C 
BRANCH   4   5
ATOM      5  C   UNL     1      -8.114   6.856 -20.363  1.00  0.00     0.006 C 
BRANCH   5   6
ATOM      6  C   UNL     1      -8.557   5.403 -20.134  1.00  0.00     0.053 C 
BRANCH   6   7
ATOM      7  C   UNL     1      -7.387   4.491 -19.934  1.00  0.00     0.041 C 
ATOM      8  O   UNL     1      -6.666   4.159 -20.912  1.00  0.00    -0.550 OA
ATOM      9  O   UNL     1      -7.109   3.983 -18.671  1.00  0.00    -0.550 OA
ENDBRANCH   6   7
ENDBRANCH   5   6
ENDBRANCH   4   5
ENDBRANCH   3   4
ENDBRANCH   2   3
ENDBRANCH   1   2
BRANCH   1  10
ATOM     10  C   UNL     1     -11.547   6.100 -22.926  1.00  0.00     0.000 C 
BRANCH  10  11
ATOM     11  C   UNL     1     -12.335   6.741 -21.770  1.00  0.00    -0.000 C 
BRANCH  11  12
ATOM     12  C   UNL     1     -12.169   6.048 -20.401  1.00  0.00    -0.000 C 
BRANCH  12  13
ATOM     13  C   UNL     1     -11.825   6.987 -19.231  1.00  0.00    -0.000 C 
BRANCH  13  14
ATOM     14  C   UNL     1     -12.349   8.416 -19.438  1.00  0.00    -0.000 C 
BRANCH  14  15
ATOM     15  C   UNL     1     -11.245   9.447 -19.181  1.00  0.00    -0.000 C 
BRANCH  15  16
ATOM     16  C   UNL     1     -10.175   8.885 -18.238  1.00  0.00    -0.003 C 
ATOM     17  C   UNL     1      -9.057   9.897 -18.006  1.00  0.00     0.004 C 
ENDBRANCH  15  16
ENDBRANCH  14  15
ENDBRANCH  13  14
ENDBRANCH  12  13
ENDBRANCH  11  12
ENDBRANCH  10  11
ENDBRANCH   1  10
TORSDOF 13
ENDMDL
MODEL 9
REMARK VINA RESULT:    -3.564      1.524      3.361
REMARK INTER + INTRA:          -8.323
REMARK INTER:                  -6.253
REMARK INTRA:                  -2.070
REMARK UNBOUND:                -2.050
REMARK SMILES CCCCCCCCCCCCCCC(=O)[O-]
REMARK SMILES IDX 9 1 10 2 11 3 12 4 13 5 14 6 15 7 16 8 17 9 8 10 7 11 6 12
REMARK SMILES IDX 5 13 4 14 3 15 2 16 1 17
REMARK H PARENT
REMARK Flexibility Score: inf
ROOT
ATOM      1  C   UNL     1     -12.014   6.999 -19.290  1.00  0.00     0.000 C 
ENDROOT
BRANCH   1   2
ATOM      2  C   UNL     1     -12.173   8.510 -19.498  1.00  0.00     0.000 C 
BRANCH   2   3
ATOM      3  C   UNL     1     -10.945   9.269 -18.977  1.00  0.00     0.000 C 
BRANCH   3   4
ATOM      4  C   UNL     1      -9.971   8.365 -18.204  1.00  0.00     0.000 C 
BRANCH   4   5
ATOM      5  C   UNL     1      -8.625   9.052 -17.920  1.00  0.00     0.006 C 
BRANCH   5   6
ATOM      6  C   UNL     1      -8.662   9.885 -16.631  1.00  0.00     0.053 C 
BRANCH   6   7
ATOM      7  C   UNL     1      -7.702  11.034 -16.685  1.00  0.00     0.041 C 
ATOM      8  O   UNL     1      -7.645  11.858 -15.735  1.00  0.00    -0.550 OA
ATOM      9  O   UNL     1      -6.889  11.209 -17.798  1.00  0.00    -0.550 OA
ENDBRANCH   6   7
ENDBRANCH   5   6
ENDBRANCH   4   5
ENDBRANCH   3   4
ENDBRANCH   2   3
ENDBRANCH   1   2
BRANCH   1  10
ATOM     10  C   UNL     1     -12.381   6.225 -20.565  1.00  0.00     0.000 C 
BRANCH  10  11
ATOM     11  C   UNL     1     -12.369   7.109 -21.826  1.00  0.00    -0.000 C 
BRANCH  11  12
ATOM     12  C   UNL     1     -11.285   6.753 -22.864  1.00  0.00    -0.000 C 
BRANCH  12  13
ATOM     13  C   UNL     1     -10.079   7.710 -22.903  1.00  0.00    -0.000 C 
BRANCH  13  14
ATOM     14  C   UNL     1      -9.137   7.531 -21.703  1.00  0.00    -0.000 C 
BRANCH  14  15
ATOM     15  C   UNL     1      -8.588   6.101 -21.645  1.00  0.00    -0.000 C 
BRANCH  15  16
ATOM     16  C   UNL     1      -8.776   5.497 -20.248  1.00  0.00    -0.003 C 
ATOM     17  C   UNL     1      -7.550   5.740 -19.373  1.00  0.00     0.004 C 
ENDBRANCH  15  16
ENDBRANCH  14  15
ENDBRANCH  13  14
ENDBRANCH  12  13
ENDBRANCH  11  12
ENDBRANCH  10  11
ENDBRANCH   1  10
TORSDOF 13
ENDMDL
