MODEL 1
REMARK VINA RESULT:    -5.225      0.000      0.000
REMARK INTER + INTRA:          -5.377
REMARK INTER:                  -5.377
REMARK INTRA:                   0.000
REMARK UNBOUND:                 0.000
REMARK SMILES C=C1[C@H]2C[C@@]3(C[C@@H]1O)[C@H](CC[C@@H]3C)C2(C)C
REMARK SMILES IDX 13 1 12 2 11 3 10 4 9 5 5 6 4 7 3 8 14 9 15 10 16 11 2 12
REMARK SMILES IDX 1 13 7 14 6 15 8 16
REMARK H PARENT 8 17
REMARK Flexibility Score: inf
ROOT
ATOM      1  C   UNL     1      33.932  12.122   4.743  1.00  0.00     0.008 C 
ATOM      2  C   UNL     1      35.339  11.622   5.120  1.00  0.00    -0.008 C 
ATOM      3  C   UNL     1      35.608  11.879   6.604  1.00  0.00     0.004 C 
ATOM      4  C   UNL     1      35.129  10.631   7.332  1.00  0.00     0.005 C 
ATOM      5  C   UNL     1      35.289   9.457   6.345  1.00  0.00     0.002 C 
ATOM      6  C   UNL     1      35.542  10.091   4.953  1.00  0.00    -0.020 C 
ATOM      7  C   UNL     1      37.004   9.756   4.632  1.00  0.00     0.016 C 
ATOM      8  C   UNL     1      37.117   8.342   5.162  1.00  0.00     0.023 C 
ATOM      9  C   UNL     1      36.468   8.443   6.575  1.00  0.00    -0.025 C 
ATOM     10  C   UNL     1      35.944   7.080   7.091  1.00  0.00     0.012 C 
ATOM     11  C   UNL     1      37.545   8.926   7.585  1.00  0.00     0.012 C 
ATOM     12  C   UNL     1      36.329   7.442   4.211  1.00  0.00    -0.045 C 
ATOM     13  C   UNL     1      36.790   6.216   3.919  1.00  0.00     0.011 C 
ATOM     14  C   UNL     1      34.984   7.894   3.642  1.00  0.00     0.140 C 
ATOM     15  C   UNL     1      34.676   9.411   3.850  1.00  0.00     0.044 C 
ENDROOT
BRANCH  14  16
ATOM     16  O   UNL     1      33.965   7.116   4.215  1.00  0.00    -0.389 OA
ATOM     17  H   UNL     1      33.862   6.309   3.646  1.00  0.00     0.211 HD
ENDBRANCH  14  16
TORSDOF 1
ENDMDL
MODEL 2
REMARK VINA RESULT:    -5.209      2.267      4.474
REMARK INTER + INTRA:          -5.361
REMARK INTER:                  -5.361
REMARK INTRA:                   0.000
REMARK UNBOUND:                 0.000
REMARK SMILES C=C1[C@H]2C[C@@]3(C[C@@H]1O)[C@H](CC[C@@H]3C)C2(C)C
REMARK SMILES IDX 13 1 12 2 11 3 10 4 9 5 5 6 4 7 3 8 14 9 15 10 16 11 2 12
REMARK SMILES IDX 1 13 7 14 6 15 8 16
REMARK H PARENT 8 17
REMARK Flexibility Score: inf
ROOT
ATOM      1  C   UNL     1      34.871   5.104   7.737  1.00  0.00     0.008 C 
ATOM      2  C   UNL     1      35.003   5.418   6.235  1.00  0.00    -0.008 C 
ATOM      3  C   UNL     1      33.731   6.101   5.728  1.00  0.00     0.004 C 
ATOM      4  C   UNL     1      33.962   7.594   5.912  1.00  0.00     0.005 C 
ATOM      5  C   UNL     1      35.484   7.821   5.800  1.00  0.00     0.002 C 
ATOM      6  C   UNL     1      36.139   6.419   5.886  1.00  0.00    -0.020 C 
ATOM      7  C   UNL     1      36.693   6.160   4.479  1.00  0.00     0.016 C 
ATOM      8  C   UNL     1      37.222   7.529   4.104  1.00  0.00     0.023 C 
ATOM      9  C   UNL     1      36.046   8.477   4.487  1.00  0.00    -0.025 C 
ATOM     10  C   UNL     1      36.510   9.933   4.741  1.00  0.00     0.012 C 
ATOM     11  C   UNL     1      35.037   8.523   3.307  1.00  0.00     0.012 C 
ATOM     12  C   UNL     1      38.476   7.772   4.942  1.00  0.00    -0.045 C 
ATOM     13  C   UNL     1      39.525   8.410   4.401  1.00  0.00     0.011 C 
ATOM     14  C   UNL     1      38.525   7.359   6.412  1.00  0.00     0.140 C 
ATOM     15  C   UNL     1      37.360   6.418   6.854  1.00  0.00     0.044 C 
ENDROOT
BRANCH  14  16
ATOM     16  O   UNL     1      38.533   8.516   7.209  1.00  0.00    -0.389 OA
ATOM     17  H   UNL     1      38.609   8.218   8.153  1.00  0.00     0.211 HD
ENDBRANCH  14  16
TORSDOF 1
ENDMDL
MODEL 3
REMARK VINA RESULT:    -5.198     14.589     16.250
REMARK INTER + INTRA:          -5.350
REMARK INTER:                  -5.350
REMARK INTRA:                   0.000
REMARK UNBOUND:                 0.000
REMARK SMILES C=C1[C@H]2C[C@@]3(C[C@@H]1O)[C@H](CC[C@@H]3C)C2(C)C
REMARK SMILES IDX 13 1 12 2 11 3 10 4 9 5 5 6 4 7 3 8 14 9 15 10 16 11 2 12
REMARK SMILES IDX 1 13 7 14 6 15 8 16
REMARK H PARENT 8 17
REMARK Flexibility Score: inf
ROOT
ATOM      1  C   UNL     1      37.202   2.756 -11.487  1.00  0.00     0.008 C 
ATOM      2  C   UNL     1      37.495   2.852  -9.979  1.00  0.00    -0.008 C 
ATOM      3  C   UNL     1      38.172   1.569  -9.493  1.00  0.00     0.004 C 
ATOM      4  C   UNL     1      39.668   1.806  -9.650  1.00  0.00     0.005 C 
ATOM      5  C   UNL     1      39.890   3.325  -9.499  1.00  0.00     0.002 C 
ATOM      6  C   UNL     1      38.489   3.980  -9.588  1.00  0.00    -0.020 C 
ATOM      7  C   UNL     1      38.210   4.501  -8.173  1.00  0.00     0.016 C 
ATOM      8  C   UNL     1      39.573   5.022  -7.766  1.00  0.00     0.023 C 
ATOM      9  C   UNL     1      40.527   3.857  -8.164  1.00  0.00    -0.025 C 
ATOM     10  C   UNL     1      41.986   4.328  -8.386  1.00  0.00     0.012 C 
ATOM     11  C   UNL     1      40.558   2.819  -7.007  1.00  0.00     0.012 C 
ATOM     12  C   UNL     1      39.826   6.296  -8.570  1.00  0.00    -0.045 C 
ATOM     13  C   UNL     1      40.455   7.333  -7.996  1.00  0.00     0.011 C 
ATOM     14  C   UNL     1      39.433   6.379 -10.045  1.00  0.00     0.140 C 
ATOM     15  C   UNL     1      38.500   5.224 -10.528  1.00  0.00     0.044 C 
ENDROOT
BRANCH  14  16
ATOM     16  O   UNL     1      40.601   6.408 -10.824  1.00  0.00    -0.389 OA
ATOM     17  H   UNL     1      40.771   5.478 -11.127  1.00  0.00     0.211 HD
ENDBRANCH  14  16
TORSDOF 1
ENDMDL
MODEL 4
REMARK VINA RESULT:    -5.182     15.518     17.035
REMARK INTER + INTRA:          -5.334
REMARK INTER:                  -5.334
REMARK INTRA:                   0.000
REMARK UNBOUND:                 0.000
REMARK SMILES C=C1[C@H]2C[C@@]3(C[C@@H]1O)[C@H](CC[C@@H]3C)C2(C)C
REMARK SMILES IDX 13 1 12 2 11 3 10 4 9 5 5 6 4 7 3 8 14 9 15 10 16 11 2 12
REMARK SMILES IDX 1 13 7 14 6 15 8 16
REMARK H PARENT 8 17
REMARK Flexibility Score: inf
ROOT
ATOM      1  C   UNL     1      43.163   2.341  -7.146  1.00  0.00     0.008 C 
ATOM      2  C   UNL     1      42.380   3.542  -7.710  1.00  0.00    -0.008 C 
ATOM      3  C   UNL     1      43.224   4.277  -8.753  1.00  0.00     0.004 C 
ATOM      4  C   UNL     1      42.895   3.622 -10.087  1.00  0.00     0.005 C 
ATOM      5  C   UNL     1      41.449   3.097  -9.974  1.00  0.00     0.002 C 
ATOM      6  C   UNL     1      41.080   3.160  -8.470  1.00  0.00    -0.020 C 
ATOM      7  C   UNL     1      40.031   4.275  -8.372  1.00  0.00     0.016 C 
ATOM      8  C   UNL     1      39.219   4.041  -9.628  1.00  0.00     0.023 C 
ATOM      9  C   UNL     1      40.311   3.877 -10.727  1.00  0.00    -0.025 C 
ATOM     10  C   UNL     1      39.806   3.085 -11.959  1.00  0.00     0.012 C 
ATOM     11  C   UNL     1      40.724   5.287 -11.235  1.00  0.00     0.012 C 
ATOM     12  C   UNL     1      38.406   2.766  -9.407  1.00  0.00    -0.045 C 
ATOM     13  C   UNL     1      37.152   2.686  -9.880  1.00  0.00     0.011 C 
ATOM     14  C   UNL     1      39.026   1.554  -8.714  1.00  0.00     0.140 C 
ATOM     15  C   UNL     1      40.383   1.848  -7.999  1.00  0.00     0.044 C 
ENDROOT
BRANCH  14  16
ATOM     16  O   UNL     1      39.196   0.529  -9.659  1.00  0.00    -0.389 OA
ATOM     17  H   UNL     1      39.749  -0.174  -9.228  1.00  0.00     0.211 HD
ENDBRANCH  14  16
TORSDOF 1
ENDMDL
MODEL 5
REMARK VINA RESULT:    -5.062      1.219      1.376
REMARK INTER + INTRA:          -5.209
REMARK INTER:                  -5.209
REMARK INTRA:                   0.000
REMARK UNBOUND:                 0.000
REMARK SMILES C=C1[C@H]2C[C@@]3(C[C@@H]1O)[C@H](CC[C@@H]3C)C2(C)C
REMARK SMILES IDX 13 1 12 2 11 3 10 4 9 5 5 6 4 7 3 8 14 9 15 10 16 11 2 12
REMARK SMILES IDX 1 13 7 14 6 15 8 16
REMARK H PARENT 8 17
REMARK Flexibility Score: inf
ROOT
ATOM      1  C   UNL     1      34.163  11.149   3.358  1.00  0.00     0.008 C 
ATOM      2  C   UNL     1      35.468  10.667   4.018  1.00  0.00    -0.008 C 
ATOM      3  C   UNL     1      35.864  11.613   5.153  1.00  0.00     0.004 C 
ATOM      4  C   UNL     1      35.197  11.059   6.404  1.00  0.00     0.005 C 
ATOM      5  C   UNL     1      35.075   9.535   6.198  1.00  0.00     0.002 C 
ATOM      6  C   UNL     1      35.367   9.274   4.699  1.00  0.00    -0.020 C 
ATOM      7  C   UNL     1      36.718   8.549   4.684  1.00  0.00     0.016 C 
ATOM      8  C   UNL     1      36.588   7.638   5.887  1.00  0.00     0.023 C 
ATOM      9  C   UNL     1      36.050   8.593   6.994  1.00  0.00    -0.025 C 
ATOM     10  C   UNL     1      35.306   7.840   8.125  1.00  0.00     0.012 C 
ATOM     11  C   UNL     1      37.254   9.322   7.653  1.00  0.00     0.012 C 
ATOM     12  C   UNL     1      35.591   6.542   5.515  1.00  0.00    -0.045 C 
ATOM     13  C   UNL     1      35.793   5.285   5.942  1.00  0.00     0.011 C 
ATOM     14  C   UNL     1      34.328   6.871   4.721  1.00  0.00     0.140 C 
ATOM     15  C   UNL     1      34.327   8.294   4.077  1.00  0.00     0.044 C 
ENDROOT
BRANCH  14  16
ATOM     16  O   UNL     1      33.212   6.725   5.562  1.00  0.00    -0.389 OA
ATOM     17  H   UNL     1      32.562   6.148   5.083  1.00  0.00     0.211 HD
ENDBRANCH  14  16
TORSDOF 1
ENDMDL
MODEL 6
REMARK VINA RESULT:    -4.943      1.726      3.405
REMARK INTER + INTRA:          -5.087
REMARK INTER:                  -5.087
REMARK INTRA:                   0.000
REMARK UNBOUND:                 0.000
REMARK SMILES C=C1[C@H]2C[C@@]3(C[C@@H]1O)[C@H](CC[C@@H]3C)C2(C)C
REMARK SMILES IDX 13 1 12 2 11 3 10 4 9 5 5 6 4 7 3 8 14 9 15 10 16 11 2 12
REMARK SMILES IDX 1 13 7 14 6 15 8 16
REMARK H PARENT 8 17
REMARK Flexibility Score: inf
ROOT
ATOM      1  C   UNL     1      36.332  10.949   7.848  1.00  0.00     0.008 C 
ATOM      2  C   UNL     1      35.364  10.303   6.840  1.00  0.00    -0.008 C 
ATOM      3  C   UNL     1      35.556  10.925   5.455  1.00  0.00     0.004 C 
ATOM      4  C   UNL     1      36.613  10.075   4.763  1.00  0.00     0.005 C 
ATOM      5  C   UNL     1      36.491   8.655   5.354  1.00  0.00     0.002 C 
ATOM      6  C   UNL     1      35.594   8.784   6.612  1.00  0.00    -0.020 C 
ATOM      7  C   UNL     1      34.288   8.074   6.235  1.00  0.00     0.016 C 
ATOM      8  C   UNL     1      34.802   6.887   5.446  1.00  0.00     0.023 C 
ATOM      9  C   UNL     1      35.832   7.533   4.472  1.00  0.00    -0.025 C 
ATOM     10  C   UNL     1      36.892   6.522   3.966  1.00  0.00     0.012 C 
ATOM     11  C   UNL     1      35.076   8.059   3.221  1.00  0.00     0.012 C 
ATOM     12  C   UNL     1      35.451   5.931   6.446  1.00  0.00    -0.045 C 
ATOM     13  C   UNL     1      35.316   4.606   6.283  1.00  0.00     0.011 C 
ATOM     14  C   UNL     1      36.312   6.463   7.591  1.00  0.00     0.140 C 
ATOM     15  C   UNL     1      36.193   8.004   7.821  1.00  0.00     0.044 C 
ENDROOT
BRANCH  14  16
ATOM     16  O   UNL     1      37.652   6.117   7.350  1.00  0.00    -0.389 OA
ATOM     17  H   UNL     1      38.058   5.903   8.230  1.00  0.00     0.211 HD
ENDBRANCH  14  16
TORSDOF 1
ENDMDL
MODEL 7
REMARK VINA RESULT:    -4.918     14.419     16.862
REMARK INTER + INTRA:          -5.062
REMARK INTER:                  -5.062
REMARK INTRA:                   0.000
REMARK UNBOUND:                 0.000
REMARK SMILES C=C1[C@H]2C[C@@]3(C[C@@H]1O)[C@H](CC[C@@H]3C)C2(C)C
REMARK SMILES IDX 13 1 12 2 11 3 10 4 9 5 5 6 4 7 3 8 14 9 15 10 16 11 2 12
REMARK SMILES IDX 1 13 7 14 6 15 8 16
REMARK H PARENT 8 17
REMARK Flexibility Score: inf
ROOT
ATOM      1  C   UNL     1      43.262   4.084 -11.443  1.00  0.00     0.008 C 
ATOM      2  C   UNL     1      42.604   3.118 -10.440  1.00  0.00    -0.008 C 
ATOM      3  C   UNL     1      43.247   3.275  -9.061  1.00  0.00     0.004 C 
ATOM      4  C   UNL     1      42.433   4.342  -8.344  1.00  0.00     0.005 C 
ATOM      5  C   UNL     1      41.003   4.263  -8.919  1.00  0.00     0.002 C 
ATOM      6  C   UNL     1      41.094   3.382 -10.190  1.00  0.00    -0.020 C 
ATOM      7  C   UNL     1      40.357   2.088  -9.822  1.00  0.00     0.016 C 
ATOM      8  C   UNL     1      39.193   2.620  -9.012  1.00  0.00     0.023 C 
ATOM      9  C   UNL     1      39.876   3.620  -8.032  1.00  0.00    -0.025 C 
ATOM     10  C   UNL     1      38.898   4.696  -7.498  1.00  0.00     0.012 C 
ATOM     11  C   UNL     1      40.398   2.833  -6.798  1.00  0.00     0.012 C 
ATOM     12  C   UNL     1      38.241   3.306  -9.990  1.00  0.00    -0.045 C 
ATOM     13  C   UNL     1      36.915   3.201  -9.813  1.00  0.00     0.011 C 
ATOM     14  C   UNL     1      38.780   4.169 -11.129  1.00  0.00     0.140 C 
ATOM     15  C   UNL     1      40.314   4.017 -11.381  1.00  0.00     0.044 C 
ENDROOT
BRANCH  14  16
ATOM     16  O   UNL     1      38.470   5.514 -10.865  1.00  0.00    -0.389 OA
ATOM     17  H   UNL     1      38.543   6.003 -11.727  1.00  0.00     0.211 HD
ENDBRANCH  14  16
TORSDOF 1
ENDMDL
MODEL 8
REMARK VINA RESULT:    -4.860     15.180     16.891
REMARK INTER + INTRA:          -5.002
REMARK INTER:                  -5.002
REMARK INTRA:                   0.000
REMARK UNBOUND:                 0.000
REMARK SMILES C=C1[C@H]2C[C@@]3(C[C@@H]1O)[C@H](CC[C@@H]3C)C2(C)C
REMARK SMILES IDX 13 1 12 2 11 3 10 4 9 5 5 6 4 7 3 8 14 9 15 10 16 11 2 12
REMARK SMILES IDX 1 13 7 14 6 15 8 16
REMARK H PARENT 8 17
REMARK Flexibility Score: inf
ROOT
ATOM      1  C   UNL     1      36.058   3.000 -10.454  1.00  0.00     0.008 C 
ATOM      2  C   UNL     1      37.448   2.980 -11.117  1.00  0.00    -0.008 C 
ATOM      3  C   UNL     1      37.566   4.126 -12.124  1.00  0.00     0.004 C 
ATOM      4  C   UNL     1      38.116   5.309 -11.341  1.00  0.00     0.005 C 
ATOM      5  C   UNL     1      38.970   4.721 -10.198  1.00  0.00     0.002 C 
ATOM      6  C   UNL     1      38.631   3.210 -10.136  1.00  0.00    -0.020 C 
ATOM      7  C   UNL     1      39.902   2.504 -10.623  1.00  0.00     0.016 C 
ATOM      8  C   UNL     1      40.984   3.350  -9.984  1.00  0.00     0.023 C 
ATOM      9  C   UNL     1      40.535   4.804 -10.316  1.00  0.00    -0.025 C 
ATOM     10  C   UNL     1      41.118   5.850  -9.333  1.00  0.00     0.012 C 
ATOM     11  C   UNL     1      41.055   5.177 -11.733  1.00  0.00     0.012 C 
ATOM     12  C   UNL     1      40.963   3.051  -8.486  1.00  0.00    -0.045 C 
ATOM     13  C   UNL     1      42.116   2.988  -7.803  1.00  0.00     0.011 C 
ATOM     14  C   UNL     1      39.638   2.891  -7.740  1.00  0.00     0.140 C 
ATOM     15  C   UNL     1      38.392   2.740  -8.670  1.00  0.00     0.044 C 
ENDROOT
BRANCH  14  16
ATOM     16  O   UNL     1      39.465   3.991  -6.883  1.00  0.00    -0.389 OA
ATOM     17  H   UNL     1      39.874   4.776  -7.333  1.00  0.00     0.211 HD
ENDBRANCH  14  16
TORSDOF 1
ENDMDL
MODEL 9
REMARK VINA RESULT:    -4.848     14.942     17.225
REMARK INTER + INTRA:          -4.990
REMARK INTER:                  -4.990
REMARK INTRA:                   0.000
REMARK UNBOUND:                 0.000
REMARK SMILES C=C1[C@H]2C[C@@]3(C[C@@H]1O)[C@H](CC[C@@H]3C)C2(C)C
REMARK SMILES IDX 13 1 12 2 11 3 10 4 9 5 5 6 4 7 3 8 14 9 15 10 16 11 2 12
REMARK SMILES IDX 1 13 7 14 6 15 8 16
REMARK H PARENT 8 17
REMARK Flexibility Score: inf
ROOT
ATOM      1  C   UNL     1      38.456   2.375 -12.123  1.00  0.00     0.008 C 
ATOM      2  C   UNL     1      38.558   3.135 -10.788  1.00  0.00    -0.008 C 
ATOM      3  C   UNL     1      38.032   2.264  -9.646  1.00  0.00     0.004 C 
ATOM      4  C   UNL     1      39.236   1.489  -9.129  1.00  0.00     0.005 C 
ATOM      5  C   UNL     1      40.474   2.371  -9.396  1.00  0.00     0.002 C 
ATOM      6  C   UNL     1      40.009   3.491 -10.361  1.00  0.00    -0.020 C 
ATOM      7  C   UNL     1      40.041   4.771  -9.517  1.00  0.00     0.016 C 
ATOM      8  C   UNL     1      41.299   4.565  -8.699  1.00  0.00     0.023 C 
ATOM      9  C   UNL     1      41.144   3.105  -8.179  1.00  0.00    -0.025 C 
ATOM     10  C   UNL     1      42.501   2.455  -7.808  1.00  0.00     0.012 C 
ATOM     11  C   UNL     1      40.284   3.124  -6.885  1.00  0.00     0.012 C 
ATOM     12  C   UNL     1      42.485   4.734  -9.647  1.00  0.00    -0.045 C 
ATOM     13  C   UNL     1      43.601   5.342  -9.216  1.00  0.00     0.011 C 
ATOM     14  C   UNL     1      42.442   4.157 -11.061  1.00  0.00     0.140 C 
ATOM     15  C   UNL     1      41.023   3.698 -11.525  1.00  0.00     0.044 C 
ENDROOT
BRANCH  14  16
ATOM     16  O   UNL     1      43.342   3.081 -11.139  1.00  0.00    -0.389 OA
ATOM     17  H   UNL     1      42.926   2.397 -11.727  1.00  0.00     0.211 HD
ENDBRANCH  14  16
TORSDOF 1
ENDMDL
