MODEL 1
REMARK VINA RESULT:    -5.543      0.000      0.000
REMARK INTER + INTRA:          -5.867
REMARK INTER:                  -5.867
REMARK INTRA:                   0.000
REMARK UNBOUND:                 0.000
REMARK SMILES O=c1ccc2cc(O)c(O)cc2o1
REMARK SMILES IDX 4 1 3 2 2 3 1 4 13 5 12 6 11 7 9 8 7 9 6 10 5 11 8 12 10 14
REMARK H PARENT 8 13 10 15
REMARK Flexibility Score: inf
ROOT
ATOM      1  C   UNL     1      -6.852  -6.761   8.095  1.00  0.00     0.019 A 
ATOM      2  C   UNL     1      -7.216  -7.468   9.241  1.00  0.00     0.094 A 
ATOM      3  C   UNL     1      -8.542  -7.406   9.684  1.00  0.00     0.336 A 
ATOM      4  O   UNL     1      -8.890  -8.037  10.715  1.00  0.00    -0.246 OA
ATOM      5  O   UNL     1      -9.440  -6.681   9.020  1.00  0.00    -0.423 OA
ATOM      6  C   UNL     1      -9.134  -5.992   7.924  1.00  0.00     0.142 A 
ATOM      7  C   UNL     1     -10.121  -5.248   7.269  1.00  0.00     0.098 A 
ATOM      8  C   UNL     1      -9.805  -4.520   6.112  1.00  0.00     0.161 A 
ATOM      9  C   UNL     1      -8.495  -4.536   5.609  1.00  0.00     0.158 A 
ATOM     10  C   UNL     1      -7.502  -5.280   6.262  1.00  0.00     0.062 A 
ATOM     11  C   UNL     1      -7.816  -6.008   7.418  1.00  0.00     0.022 A 
ENDROOT
BRANCH   9  12
ATOM     12  O   UNL     1      -8.190  -3.809   4.460  1.00  0.00    -0.504 OA
ATOM     13  H   UNL     1      -8.899  -3.578   3.773  1.00  0.00     0.293 HD
ENDBRANCH   9  12
BRANCH   8  14
ATOM     14  O   UNL     1     -10.786  -3.778   5.457  1.00  0.00    -0.504 OA
ATOM     15  H   UNL     1     -10.547  -3.049   4.795  1.00  0.00     0.293 HD
ENDBRANCH   8  14
TORSDOF 2
ENDMDL
MODEL 2
REMARK VINA RESULT:    -5.377     16.648     17.851
REMARK INTER + INTRA:          -5.691
REMARK INTER:                  -5.691
REMARK INTRA:                   0.000
REMARK UNBOUND:                 0.000
REMARK SMILES O=c1ccc2cc(O)c(O)cc2o1
REMARK SMILES IDX 4 1 3 2 2 3 1 4 13 5 12 6 11 7 9 8 7 9 6 10 5 11 8 12 10 14
REMARK H PARENT 8 13 10 15
REMARK Flexibility Score: inf
ROOT
ATOM      1  C   UNL     1     -20.610  -4.006  21.626  1.00  0.00     0.019 A 
ATOM      2  C   UNL     1     -21.373  -3.369  22.605  1.00  0.00     0.094 A 
ATOM      3  C   UNL     1     -22.118  -2.238  22.255  1.00  0.00     0.336 A 
ATOM      4  O   UNL     1     -22.813  -1.651  23.124  1.00  0.00    -0.246 OA
ATOM      5  O   UNL     1     -22.098  -1.778  21.006  1.00  0.00    -0.423 OA
ATOM      6  C   UNL     1     -21.384  -2.354  20.043  1.00  0.00     0.142 A 
ATOM      7  C   UNL     1     -21.402  -1.825  18.748  1.00  0.00     0.098 A 
ATOM      8  C   UNL     1     -20.651  -2.429  17.729  1.00  0.00     0.161 A 
ATOM      9  C   UNL     1     -19.880  -3.568  18.005  1.00  0.00     0.158 A 
ATOM     10  C   UNL     1     -19.859  -4.103  19.302  1.00  0.00     0.062 A 
ATOM     11  C   UNL     1     -20.608  -3.500  20.322  1.00  0.00     0.022 A 
ENDROOT
BRANCH   9  12
ATOM     12  O   UNL     1     -19.137  -4.161  16.986  1.00  0.00    -0.504 OA
ATOM     13  H   UNL     1     -19.400  -4.065  16.012  1.00  0.00     0.293 HD
ENDBRANCH   9  12
BRANCH   8  14
ATOM     14  O   UNL     1     -20.667  -1.904  16.438  1.00  0.00    -0.504 OA
ATOM     15  H   UNL     1     -19.810  -1.701  15.936  1.00  0.00     0.293 HD
ENDBRANCH   8  14
TORSDOF 2
ENDMDL
MODEL 3
REMARK VINA RESULT:    -5.367     16.398     17.984
REMARK INTER + INTRA:          -5.681
REMARK INTER:                  -5.681
REMARK INTRA:                   0.000
REMARK UNBOUND:                 0.000
REMARK SMILES O=c1ccc2cc(O)c(O)cc2o1
REMARK SMILES IDX 4 1 3 2 2 3 1 4 13 5 12 6 11 7 9 8 7 9 6 10 5 11 8 12 10 14
REMARK H PARENT 8 13 10 15
REMARK Flexibility Score: inf
ROOT
ATOM      1  C   UNL     1     -19.565  -4.100  18.479  1.00  0.00     0.019 A 
ATOM      2  C   UNL     1     -19.602  -3.525  17.209  1.00  0.00     0.094 A 
ATOM      3  C   UNL     1     -20.361  -2.367  17.009  1.00  0.00     0.336 A 
ATOM      4  O   UNL     1     -20.406  -1.834  15.870  1.00  0.00    -0.246 OA
ATOM      5  O   UNL     1     -21.038  -1.823  18.018  1.00  0.00    -0.423 OA
ATOM      6  C   UNL     1     -21.030  -2.339  19.244  1.00  0.00     0.142 A 
ATOM      7  C   UNL     1     -21.761  -1.723  20.266  1.00  0.00     0.098 A 
ATOM      8  C   UNL     1     -21.757  -2.262  21.561  1.00  0.00     0.161 A 
ATOM      9  C   UNL     1     -21.018  -3.422  21.836  1.00  0.00     0.158 A 
ATOM     10  C   UNL     1     -20.282  -4.044  20.815  1.00  0.00     0.062 A 
ATOM     11  C   UNL     1     -20.287  -3.507  19.520  1.00  0.00     0.022 A 
ENDROOT
BRANCH   9  12
ATOM     12  O   UNL     1     -21.019  -3.951  23.125  1.00  0.00    -0.504 OA
ATOM     13  H   UNL     1     -20.186  -4.362  23.531  1.00  0.00     0.293 HD
ENDBRANCH   9  12
BRANCH   8  14
ATOM     14  O   UNL     1     -22.484  -1.650  22.580  1.00  0.00    -0.504 OA
ATOM     15  H   UNL     1     -22.447  -1.988  23.535  1.00  0.00     0.293 HD
ENDBRANCH   8  14
TORSDOF 2
ENDMDL
MODEL 4
REMARK VINA RESULT:    -5.329     18.078     19.427
REMARK INTER + INTRA:          -5.640
REMARK INTER:                  -5.640
REMARK INTRA:                   0.000
REMARK UNBOUND:                 0.000
REMARK SMILES O=c1ccc2cc(O)c(O)cc2o1
REMARK SMILES IDX 4 1 3 2 2 3 1 4 13 5 12 6 11 7 9 8 7 9 6 10 5 11 8 12 10 14
REMARK H PARENT 8 13 10 15
REMARK Flexibility Score: inf
ROOT
ATOM      1  C   UNL     1     -22.072  -1.612  22.936  1.00  0.00     0.019 A 
ATOM      2  C   UNL     1     -22.427  -0.277  23.125  1.00  0.00     0.094 A 
ATOM      3  C   UNL     1     -22.432   0.587  22.024  1.00  0.00     0.336 A 
ATOM      4  O   UNL     1     -22.750   1.795  22.175  1.00  0.00    -0.246 OA
ATOM      5  O   UNL     1     -22.102   0.138  20.815  1.00  0.00    -0.423 OA
ATOM      6  C   UNL     1     -21.758  -1.127  20.591  1.00  0.00     0.142 A 
ATOM      7  C   UNL     1     -21.421  -1.541  19.298  1.00  0.00     0.098 A 
ATOM      8  C   UNL     1     -21.057  -2.874  19.056  1.00  0.00     0.161 A 
ATOM      9  C   UNL     1     -21.030  -3.797  20.111  1.00  0.00     0.158 A 
ATOM     10  C   UNL     1     -21.367  -3.387  21.410  1.00  0.00     0.062 A 
ATOM     11  C   UNL     1     -21.730  -2.055  21.654  1.00  0.00     0.022 A 
ENDROOT
BRANCH   9  12
ATOM     12  O   UNL     1     -20.667  -5.119  19.862  1.00  0.00    -0.504 OA
ATOM     13  H   UNL     1     -20.595  -5.481  18.918  1.00  0.00     0.293 HD
ENDBRANCH   9  12
BRANCH   8  14
ATOM     14  O   UNL     1     -20.722  -3.289  17.768  1.00  0.00    -0.504 OA
ATOM     15  H   UNL     1     -19.966  -3.943  17.601  1.00  0.00     0.293 HD
ENDBRANCH   8  14
TORSDOF 2
ENDMDL
MODEL 5
REMARK VINA RESULT:    -5.293      1.063      2.239
REMARK INTER + INTRA:          -5.602
REMARK INTER:                  -5.602
REMARK INTRA:                   0.000
REMARK UNBOUND:                 0.000
REMARK SMILES O=c1ccc2cc(O)c(O)cc2o1
REMARK SMILES IDX 4 1 3 2 2 3 1 4 13 5 12 6 11 7 9 8 7 9 6 10 5 11 8 12 10 14
REMARK H PARENT 8 13 10 15
REMARK Flexibility Score: inf
ROOT
ATOM      1  C   UNL     1      -9.845  -6.871   9.105  1.00  0.00     0.019 A 
ATOM      2  C   UNL     1      -8.937  -7.720   9.738  1.00  0.00     0.094 A 
ATOM      3  C   UNL     1      -7.640  -7.831   9.226  1.00  0.00     0.336 A 
ATOM      4  O   UNL     1      -6.807  -8.591   9.784  1.00  0.00    -0.246 OA
ATOM      5  O   UNL     1      -7.280  -7.135   8.149  1.00  0.00    -0.423 OA
ATOM      6  C   UNL     1      -8.113  -6.315   7.515  1.00  0.00     0.142 A 
ATOM      7  C   UNL     1      -7.678  -5.610   6.389  1.00  0.00     0.098 A 
ATOM      8  C   UNL     1      -8.552  -4.743   5.716  1.00  0.00     0.161 A 
ATOM      9  C   UNL     1      -9.868  -4.581   6.174  1.00  0.00     0.158 A 
ATOM     10  C   UNL     1     -10.311  -5.286   7.303  1.00  0.00     0.062 A 
ATOM     11  C   UNL     1      -9.438  -6.153   7.975  1.00  0.00     0.022 A 
ENDROOT
BRANCH   9  12
ATOM     12  O   UNL     1     -10.731  -3.718   5.500  1.00  0.00    -0.504 OA
ATOM     13  H   UNL     1     -11.682  -3.987   5.275  1.00  0.00     0.293 HD
ENDBRANCH   9  12
BRANCH   8  14
ATOM     14  O   UNL     1      -8.120  -4.039   4.594  1.00  0.00    -0.504 OA
ATOM     15  H   UNL     1      -8.773  -3.696   3.899  1.00  0.00     0.293 HD
ENDBRANCH   8  14
TORSDOF 2
ENDMDL
MODEL 6
REMARK VINA RESULT:    -5.284     17.634     18.920
REMARK INTER + INTRA:          -5.593
REMARK INTER:                  -5.593
REMARK INTRA:                   0.000
REMARK UNBOUND:                 0.000
REMARK SMILES O=c1ccc2cc(O)c(O)cc2o1
REMARK SMILES IDX 4 1 3 2 2 3 1 4 13 5 12 6 11 7 9 8 7 9 6 10 5 11 8 12 10 14
REMARK H PARENT 8 13 10 15
REMARK Flexibility Score: inf
ROOT
ATOM      1  C   UNL     1     -21.506  -2.217  18.239  1.00  0.00     0.019 A 
ATOM      2  C   UNL     1     -21.048  -3.534  18.257  1.00  0.00     0.094 A 
ATOM      3  C   UNL     1     -20.762  -4.136  19.487  1.00  0.00     0.336 A 
ATOM      4  O   UNL     1     -20.349  -5.324  19.524  1.00  0.00    -0.246 OA
ATOM      5  O   UNL     1     -20.923  -3.459  20.622  1.00  0.00    -0.423 OA
ATOM      6  C   UNL     1     -21.356  -2.201  20.649  1.00  0.00     0.142 A 
ATOM      7  C   UNL     1     -21.507  -1.541  21.872  1.00  0.00     0.098 A 
ATOM      8  C   UNL     1     -21.963  -0.214  21.907  1.00  0.00     0.161 A 
ATOM      9  C   UNL     1     -22.271   0.453  20.713  1.00  0.00     0.158 A 
ATOM     10  C   UNL     1     -22.122  -0.205  19.483  1.00  0.00     0.062 A 
ATOM     11  C   UNL     1     -21.666  -1.530  19.446  1.00  0.00     0.022 A 
ENDROOT
BRANCH   9  12
ATOM     12  O   UNL     1     -22.724   1.770  20.756  1.00  0.00    -0.504 OA
ATOM     13  H   UNL     1     -22.247   2.478  21.304  1.00  0.00     0.293 HD
ENDBRANCH   9  12
BRANCH   8  14
ATOM     14  O   UNL     1     -22.114   0.446  23.125  1.00  0.00    -0.504 OA
ATOM     15  H   UNL     1     -22.568   0.004  23.916  1.00  0.00     0.293 HD
ENDBRANCH   8  14
TORSDOF 2
ENDMDL
MODEL 7
REMARK VINA RESULT:    -5.217     16.192     17.851
REMARK INTER + INTRA:          -5.522
REMARK INTER:                  -5.522
REMARK INTRA:                   0.000
REMARK UNBOUND:                 0.000
REMARK SMILES O=c1ccc2cc(O)c(O)cc2o1
REMARK SMILES IDX 4 1 3 2 2 3 1 4 13 5 12 6 11 7 9 8 7 9 6 10 5 11 8 12 10 14
REMARK H PARENT 8 13 10 15
REMARK Flexibility Score: inf
ROOT
ATOM      1  C   UNL     1     -20.935  -1.943  17.879  1.00  0.00     0.019 A 
ATOM      2  C   UNL     1     -20.192  -2.636  16.923  1.00  0.00     0.094 A 
ATOM      3  C   UNL     1     -19.499  -3.789  17.307  1.00  0.00     0.336 A 
ATOM      4  O   UNL     1     -18.824  -4.428  16.459  1.00  0.00    -0.246 OA
ATOM      5  O   UNL     1     -19.550  -4.218  18.566  1.00  0.00    -0.423 OA
ATOM      6  C   UNL     1     -20.246  -3.587  19.509  1.00  0.00     0.142 A 
ATOM      7  C   UNL     1     -20.262  -4.085  20.816  1.00  0.00     0.098 A 
ATOM      8  C   UNL     1     -20.995  -3.425  21.814  1.00  0.00     0.161 A 
ATOM      9  C   UNL     1     -21.714  -2.262  21.502  1.00  0.00     0.158 A 
ATOM     10  C   UNL     1     -21.702  -1.758  20.193  1.00  0.00     0.062 A 
ATOM     11  C   UNL     1     -20.970  -2.416  19.195  1.00  0.00     0.022 A 
ENDROOT
BRANCH   9  12
ATOM     12  O   UNL     1     -22.439  -1.611  22.499  1.00  0.00    -0.504 OA
ATOM     13  H   UNL     1     -22.257  -1.779  23.482  1.00  0.00     0.293 HD
ENDBRANCH   9  12
BRANCH   8  14
ATOM     14  O   UNL     1     -21.013  -3.919  23.117  1.00  0.00    -0.504 OA
ATOM     15  H   UNL     1     -20.481  -4.740  23.381  1.00  0.00     0.293 HD
ENDBRANCH   8  14
TORSDOF 2
ENDMDL
MODEL 8
REMARK VINA RESULT:    -5.178     18.927     20.371
REMARK INTER + INTRA:          -5.481
REMARK INTER:                  -5.481
REMARK INTRA:                   0.000
REMARK UNBOUND:                 0.000
REMARK SMILES O=c1ccc2cc(O)c(O)cc2o1
REMARK SMILES IDX 4 1 3 2 2 3 1 4 13 5 12 6 11 7 9 8 7 9 6 10 5 11 8 12 10 14
REMARK H PARENT 8 13 10 15
REMARK Flexibility Score: inf
ROOT
ATOM      1  C   UNL     1     -22.316   0.903  20.132  1.00  0.00     0.019 A 
ATOM      2  C   UNL     1     -22.733   1.938  20.970  1.00  0.00     0.094 A 
ATOM      3  C   UNL     1     -22.821   1.704  22.346  1.00  0.00     0.336 A 
ATOM      4  O   UNL     1     -23.194   2.625  23.117  1.00  0.00    -0.246 OA
ATOM      5  O   UNL     1     -22.512   0.510  22.847  1.00  0.00    -0.423 OA
ATOM      6  C   UNL     1     -22.111  -0.504  22.084  1.00  0.00     0.142 A 
ATOM      7  C   UNL     1     -21.799  -1.736  22.667  1.00  0.00     0.098 A 
ATOM      8  C   UNL     1     -21.376  -2.809  21.868  1.00  0.00     0.161 A 
ATOM      9  C   UNL     1     -21.263  -2.647  20.479  1.00  0.00     0.158 A 
ATOM     10  C   UNL     1     -21.574  -1.413  19.889  1.00  0.00     0.062 A 
ATOM     11  C   UNL     1     -21.998  -0.341  20.686  1.00  0.00     0.022 A 
ENDROOT
BRANCH   9  12
ATOM     12  O   UNL     1     -20.842  -3.717  19.692  1.00  0.00    -0.504 OA
ATOM     13  H   UNL     1     -21.442  -4.124  18.984  1.00  0.00     0.293 HD
ENDBRANCH   9  12
BRANCH   8  14
ATOM     14  O   UNL     1     -21.064  -4.038  22.446  1.00  0.00    -0.504 OA
ATOM     15  H   UNL     1     -20.124  -4.256  22.756  1.00  0.00     0.293 HD
ENDBRANCH   8  14
TORSDOF 2
ENDMDL
MODEL 9
REMARK VINA RESULT:    -5.175      1.983      2.455
REMARK INTER + INTRA:          -5.478
REMARK INTER:                  -5.478
REMARK INTRA:                   0.000
REMARK UNBOUND:                 0.000
REMARK SMILES O=c1ccc2cc(O)c(O)cc2o1
REMARK SMILES IDX 4 1 3 2 2 3 1 4 13 5 12 6 11 7 9 8 7 9 6 10 5 11 8 12 10 14
REMARK H PARENT 8 13 10 15
REMARK Flexibility Score: inf
ROOT
ATOM      1  C   UNL     1      -7.836  -7.911   6.431  1.00  0.00     0.019 A 
ATOM      2  C   UNL     1      -7.440  -8.873   7.361  1.00  0.00     0.094 A 
ATOM      3  C   UNL     1      -6.900  -8.454   8.581  1.00  0.00     0.336 A 
ATOM      4  O   UNL     1      -6.538  -9.307   9.433  1.00  0.00    -0.246 OA
ATOM      5  O   UNL     1      -6.767  -7.157   8.849  1.00  0.00    -0.423 OA
ATOM      6  C   UNL     1      -7.131  -6.208   7.991  1.00  0.00     0.142 A 
ATOM      7  C   UNL     1      -6.967  -4.861   8.328  1.00  0.00     0.098 A 
ATOM      8  C   UNL     1      -7.350  -3.856   7.428  1.00  0.00     0.161 A 
ATOM      9  C   UNL     1      -7.900  -4.201   6.184  1.00  0.00     0.158 A 
ATOM     10  C   UNL     1      -8.067  -5.550   5.841  1.00  0.00     0.062 A 
ATOM     11  C   UNL     1      -7.684  -6.556   6.740  1.00  0.00     0.022 A 
ENDROOT
BRANCH   9  12
ATOM     12  O   UNL     1      -8.277  -3.196   5.295  1.00  0.00    -0.504 OA
ATOM     13  H   UNL     1      -7.863  -3.120   4.373  1.00  0.00     0.293 HD
ENDBRANCH   9  12
BRANCH   8  14
ATOM     14  O   UNL     1      -7.188  -2.512   7.761  1.00  0.00    -0.504 OA
ATOM     15  H   UNL     1      -7.800  -1.795   7.389  1.00  0.00     0.293 HD
ENDBRANCH   8  14
TORSDOF 2
ENDMDL
