MODEL 1
REMARK VINA RESULT:    -4.363      0.000      0.000
REMARK INTER + INTRA:          -5.864
REMARK INTER:                  -5.639
REMARK INTRA:                  -0.225
REMARK UNBOUND:                -0.225
REMARK SMILES CCCCCCC(=O)[O-]
REMARK SMILES IDX 5 1 6 2 7 3 8 4 9 5 4 6 3 7 2 8 1 9
REMARK H PARENT
REMARK Flexibility Score: inf
ROOT
ATOM      1  C   UNL     1      60.391 144.177 -33.593  1.00  0.00     0.006 C 
ENDROOT
BRANCH   1   2
ATOM      2  C   UNL     1      59.184 144.511 -32.708  1.00  0.00     0.053 C 
BRANCH   2   3
ATOM      3  C   UNL     1      59.177 143.700 -31.448  1.00  0.00     0.041 C 
ATOM      4  O   UNL     1      59.961 142.723 -31.318  1.00  0.00    -0.550 OA
ATOM      5  O   UNL     1      58.281 144.004 -30.431  1.00  0.00    -0.550 OA
ENDBRANCH   2   3
ENDBRANCH   1   2
BRANCH   1   6
ATOM      6  C   UNL     1      60.520 145.134 -34.787  1.00  0.00     0.000 C 
BRANCH   6   7
ATOM      7  C   UNL     1      61.287 146.405 -34.392  1.00  0.00    -0.000 C 
BRANCH   7   8
ATOM      8  C   UNL     1      60.408 147.663 -34.435  1.00  0.00    -0.003 C 
ATOM      9  C   UNL     1      59.866 148.053 -33.060  1.00  0.00     0.004 C 
ENDBRANCH   7   8
ENDBRANCH   6   7
ENDBRANCH   1   6
TORSDOF 5
ENDMDL
MODEL 2
REMARK VINA RESULT:    -4.099      2.652      4.151
REMARK INTER + INTRA:          -5.523
REMARK INTER:                  -5.275
REMARK INTRA:                  -0.248
REMARK UNBOUND:                -0.225
REMARK SMILES CCCCCCC(=O)[O-]
REMARK SMILES IDX 5 1 6 2 7 3 8 4 9 5 4 6 3 7 2 8 1 9
REMARK H PARENT
REMARK Flexibility Score: inf
ROOT
ATOM      1  C   UNL     1      61.517 145.785 -34.154  1.00  0.00     0.006 C 
ENDROOT
BRANCH   1   2
ATOM      2  C   UNL     1      61.131 147.114 -34.817  1.00  0.00     0.053 C 
BRANCH   2   3
ATOM      3  C   UNL     1      59.803 147.611 -34.333  1.00  0.00     0.041 C 
ATOM      4  O   UNL     1      59.701 148.144 -33.198  1.00  0.00    -0.550 OA
ATOM      5  O   UNL     1      58.672 147.454 -35.124  1.00  0.00    -0.550 OA
ENDBRANCH   2   3
ENDBRANCH   1   2
BRANCH   1   6
ATOM      6  C   UNL     1      60.645 144.618 -34.639  1.00  0.00     0.000 C 
BRANCH   6   7
ATOM      7  C   UNL     1      60.101 143.808 -33.453  1.00  0.00    -0.000 C 
BRANCH   7   8
ATOM      8  C   UNL     1      59.206 144.646 -32.528  1.00  0.00    -0.003 C 
ATOM      9  C   UNL     1      58.894 143.940 -31.208  1.00  0.00     0.004 C 
ENDBRANCH   7   8
ENDBRANCH   6   7
ENDBRANCH   1   6
TORSDOF 5
ENDMDL
MODEL 3
REMARK VINA RESULT:    -3.729      2.645      4.517
REMARK INTER + INTRA:          -5.044
REMARK INTER:                  -4.927
REMARK INTRA:                  -0.118
REMARK UNBOUND:                -0.225
REMARK SMILES CCCCCCC(=O)[O-]
REMARK SMILES IDX 5 1 6 2 7 3 8 4 9 5 4 6 3 7 2 8 1 9
REMARK H PARENT
REMARK Flexibility Score: inf
ROOT
ATOM      1  C   UNL     1      60.250 144.068 -33.758  1.00  0.00     0.006 C 
ENDROOT
BRANCH   1   2
ATOM      2  C   UNL     1      60.730 145.111 -34.775  1.00  0.00     0.053 C 
BRANCH   2   3
ATOM      3  C   UNL     1      61.386 146.280 -34.105  1.00  0.00     0.041 C 
ATOM      4  O   UNL     1      60.960 147.448 -34.307  1.00  0.00    -0.550 OA
ATOM      5  O   UNL     1      62.489 146.081 -33.284  1.00  0.00    -0.550 OA
ENDBRANCH   2   3
ENDBRANCH   1   2
BRANCH   1   6
ATOM      6  C   UNL     1      59.411 144.694 -32.635  1.00  0.00     0.000 C 
BRANCH   6   7
ATOM      7  C   UNL     1      59.039 143.645 -31.576  1.00  0.00    -0.000 C 
BRANCH   7   8
ATOM      8  C   UNL     1      58.460 144.274 -30.300  1.00  0.00    -0.003 C 
ATOM      9  C   UNL     1      57.095 143.699 -29.924  1.00  0.00     0.004 C 
ENDBRANCH   7   8
ENDBRANCH   6   7
ENDBRANCH   1   6
TORSDOF 5
ENDMDL
MODEL 4
REMARK VINA RESULT:    -3.697      3.653      5.439
REMARK INTER + INTRA:          -5.003
REMARK INTER:                  -4.936
REMARK INTRA:                  -0.067
REMARK UNBOUND:                -0.225
REMARK SMILES CCCCCCC(=O)[O-]
REMARK SMILES IDX 5 1 6 2 7 3 8 4 9 5 4 6 3 7 2 8 1 9
REMARK H PARENT
REMARK Flexibility Score: inf
ROOT
ATOM      1  C   UNL     1      56.706 143.771 -29.367  1.00  0.00     0.006 C 
ENDROOT
BRANCH   1   2
ATOM      2  C   UNL     1      56.468 144.340 -27.963  1.00  0.00     0.053 C 
BRANCH   2   3
ATOM      3  C   UNL     1      55.060 144.117 -27.504  1.00  0.00     0.041 C 
ATOM      4  O   UNL     1      54.569 144.833 -26.592  1.00  0.00    -0.550 OA
ATOM      5  O   UNL     1      54.301 143.095 -28.061  1.00  0.00    -0.550 OA
ENDBRANCH   2   3
ENDBRANCH   1   2
BRANCH   1   6
ATOM      6  C   UNL     1      58.111 144.094 -29.897  1.00  0.00     0.000 C 
BRANCH   6   7
ATOM      7  C   UNL     1      58.163 143.975 -31.427  1.00  0.00    -0.000 C 
BRANCH   7   8
ATOM      8  C   UNL     1      59.523 143.473 -31.934  1.00  0.00    -0.003 C 
ATOM      9  C   UNL     1      60.067 144.307 -33.094  1.00  0.00     0.004 C 
ENDBRANCH   7   8
ENDBRANCH   6   7
ENDBRANCH   1   6
TORSDOF 5
ENDMDL
MODEL 5
REMARK VINA RESULT:    -3.683      3.129      4.509
REMARK INTER + INTRA:          -4.985
REMARK INTER:                  -4.747
REMARK INTRA:                  -0.238
REMARK UNBOUND:                -0.225
REMARK SMILES CCCCCCC(=O)[O-]
REMARK SMILES IDX 5 1 6 2 7 3 8 4 9 5 4 6 3 7 2 8 1 9
REMARK H PARENT
REMARK Flexibility Score: inf
ROOT
ATOM      1  C   UNL     1      59.294 145.599 -33.956  1.00  0.00     0.006 C 
ENDROOT
BRANCH   1   2
ATOM      2  C   UNL     1      59.664 146.764 -34.884  1.00  0.00     0.053 C 
BRANCH   2   3
ATOM      3  C   UNL     1      60.078 147.979 -34.111  1.00  0.00     0.041 C 
ATOM      4  O   UNL     1      60.672 148.926 -34.690  1.00  0.00    -0.550 OA
ATOM      5  O   UNL     1      59.836 148.050 -32.745  1.00  0.00    -0.550 OA
ENDBRANCH   2   3
ENDBRANCH   1   2
BRANCH   1   6
ATOM      6  C   UNL     1      60.501 144.704 -33.637  1.00  0.00     0.000 C 
BRANCH   6   7
ATOM      7  C   UNL     1      61.269 144.339 -34.916  1.00  0.00    -0.000 C 
BRANCH   7   8
ATOM      8  C   UNL     1      61.381 142.822 -35.124  1.00  0.00    -0.003 C 
ATOM      9  C   UNL     1      60.664 142.020 -34.038  1.00  0.00     0.004 C 
ENDBRANCH   7   8
ENDBRANCH   6   7
ENDBRANCH   1   6
TORSDOF 5
ENDMDL
MODEL 6
REMARK VINA RESULT:    -3.680     18.107     19.528
REMARK INTER + INTRA:          -4.980
REMARK INTER:                  -4.856
REMARK INTRA:                  -0.124
REMARK UNBOUND:                -0.225
REMARK SMILES CCCCCCC(=O)[O-]
REMARK SMILES IDX 5 1 6 2 7 3 8 4 9 5 4 6 3 7 2 8 1 9
REMARK H PARENT
REMARK Flexibility Score: inf
ROOT
ATOM      1  C   UNL     1      49.842 153.866 -19.366  1.00  0.00     0.006 C 
ENDROOT
BRANCH   1   2
ATOM      2  C   UNL     1      49.177 153.123 -20.530  1.00  0.00     0.053 C 
BRANCH   2   3
ATOM      3  C   UNL     1      50.029 153.143 -21.762  1.00  0.00     0.041 C 
ATOM      4  O   UNL     1      51.254 152.860 -21.690  1.00  0.00    -0.550 OA
ATOM      5  O   UNL     1      49.477 153.506 -22.984  1.00  0.00    -0.550 OA
ENDBRANCH   2   3
ENDBRANCH   1   2
BRANCH   1   6
ATOM      6  C   UNL     1      49.422 153.304 -18.000  1.00  0.00     0.000 C 
BRANCH   6   7
ATOM      7  C   UNL     1      49.355 154.417 -16.943  1.00  0.00    -0.000 C 
BRANCH   7   8
ATOM      8  C   UNL     1      49.204 153.868 -15.517  1.00  0.00    -0.003 C 
ATOM      9  C   UNL     1      49.586 152.393 -15.407  1.00  0.00     0.004 C 
ENDBRANCH   7   8
ENDBRANCH   6   7
ENDBRANCH   1   6
TORSDOF 5
ENDMDL
MODEL 7
REMARK VINA RESULT:    -3.617      7.039      8.939
REMARK INTER + INTRA:          -4.900
REMARK INTER:                  -4.682
REMARK INTRA:                  -0.217
REMARK UNBOUND:                -0.225
REMARK SMILES CCCCCCC(=O)[O-]
REMARK SMILES IDX 5 1 6 2 7 3 8 4 9 5 4 6 3 7 2 8 1 9
REMARK H PARENT
REMARK Flexibility Score: inf
ROOT
ATOM      1  C   UNL     1      55.780 142.602 -24.995  1.00  0.00     0.006 C 
ENDROOT
BRANCH   1   2
ATOM      2  C   UNL     1      55.689 143.810 -24.054  1.00  0.00     0.053 C 
BRANCH   2   3
ATOM      3  C   UNL     1      54.305 144.383 -24.017  1.00  0.00     0.041 C 
ATOM      4  O   UNL     1      53.384 143.777 -23.410  1.00  0.00    -0.550 OA
ATOM      5  O   UNL     1      54.027 145.571 -24.683  1.00  0.00    -0.550 OA
ENDBRANCH   2   3
ENDBRANCH   1   2
BRANCH   1   6
ATOM      6  C   UNL     1      55.644 143.003 -26.472  1.00  0.00     0.000 C 
BRANCH   6   7
ATOM      7  C   UNL     1      56.607 144.147 -26.822  1.00  0.00    -0.000 C 
BRANCH   7   8
ATOM      8  C   UNL     1      56.818 144.299 -28.336  1.00  0.00    -0.003 C 
ATOM      9  C   UNL     1      55.586 143.900 -29.148  1.00  0.00     0.004 C 
ENDBRANCH   7   8
ENDBRANCH   6   7
ENDBRANCH   1   6
TORSDOF 5
ENDMDL
MODEL 8
REMARK VINA RESULT:    -3.587     13.587     15.238
REMARK INTER + INTRA:          -4.861
REMARK INTER:                  -4.639
REMARK INTRA:                  -0.222
REMARK UNBOUND:                -0.225
REMARK SMILES CCCCCCC(=O)[O-]
REMARK SMILES IDX 5 1 6 2 7 3 8 4 9 5 4 6 3 7 2 8 1 9
REMARK H PARENT
REMARK Flexibility Score: inf
ROOT
ATOM      1  C   UNL     1      51.123 154.869 -24.894  1.00  0.00     0.006 C 
ENDROOT
BRANCH   1   2
ATOM      2  C   UNL     1      52.417 154.202 -25.377  1.00  0.00     0.053 C 
BRANCH   2   3
ATOM      3  C   UNL     1      52.139 152.991 -26.214  1.00  0.00     0.041 C 
ATOM      4  O   UNL     1      52.535 151.856 -25.838  1.00  0.00    -0.550 OA
ATOM      5  O   UNL     1      51.471 153.121 -27.425  1.00  0.00    -0.550 OA
ENDBRANCH   2   3
ENDBRANCH   1   2
BRANCH   1   6
ATOM      6  C   UNL     1      50.371 154.008 -23.869  1.00  0.00     0.000 C 
BRANCH   6   7
ATOM      7  C   UNL     1      51.306 153.563 -22.734  1.00  0.00    -0.000 C 
BRANCH   7   8
ATOM      8  C   UNL     1      50.545 153.201 -21.450  1.00  0.00    -0.003 C 
ATOM      9  C   UNL     1      49.119 152.723 -21.722  1.00  0.00     0.004 C 
ENDBRANCH   7   8
ENDBRANCH   6   7
ENDBRANCH   1   6
TORSDOF 5
ENDMDL
MODEL 9
REMARK VINA RESULT:    -3.361     14.005     14.822
REMARK INTER + INTRA:          -4.568
REMARK INTER:                  -4.264
REMARK INTRA:                  -0.304
REMARK UNBOUND:                -0.225
REMARK SMILES CCCCCCC(=O)[O-]
REMARK SMILES IDX 5 1 6 2 7 3 8 4 9 5 4 6 3 7 2 8 1 9
REMARK H PARENT
REMARK Flexibility Score: inf
ROOT
ATOM      1  C   UNL     1      52.072 153.349 -25.364  1.00  0.00     0.006 C 
ENDROOT
BRANCH   1   2
ATOM      2  C   UNL     1      51.627 153.742 -23.950  1.00  0.00     0.053 C 
BRANCH   2   3
ATOM      3  C   UNL     1      50.787 152.677 -23.315  1.00  0.00     0.041 C 
ATOM      4  O   UNL     1      50.074 151.923 -24.028  1.00  0.00    -0.550 OA
ATOM      5  O   UNL     1      50.766 152.539 -21.933  1.00  0.00    -0.550 OA
ENDBRANCH   2   3
ENDBRANCH   1   2
BRANCH   1   6
ATOM      6  C   UNL     1      51.566 154.335 -26.428  1.00  0.00     0.000 C 
BRANCH   6   7
ATOM      7  C   UNL     1      51.201 155.686 -25.796  1.00  0.00    -0.000 C 
BRANCH   7   8
ATOM      8  C   UNL     1      52.019 156.849 -26.375  1.00  0.00    -0.003 C 
ATOM      9  C   UNL     1      53.497 156.781 -25.993  1.00  0.00     0.004 C 
ENDBRANCH   7   8
ENDBRANCH   6   7
ENDBRANCH   1   6
TORSDOF 5
ENDMDL
