MODEL 1
REMARK VINA RESULT:    -4.230      0.000      0.000
REMARK INTER + INTRA:          -8.361
REMARK INTER:                  -7.444
REMARK INTRA:                  -0.917
REMARK UNBOUND:                -0.917
REMARK SMILES CCCCCCC=CCCCCCCCC(=O)[O-]
REMARK SMILES IDX 10 1 11 2 12 3 13 4 14 5 15 6 16 7 17 8 18 9 9 10 8 11 7 12
REMARK SMILES IDX 6 13 5 14 4 15 3 16 2 17 1 18
REMARK H PARENT
REMARK Flexibility Score: inf
ROOT
ATOM      1  C   UNL     1     -21.130  17.557  -1.440  1.00  0.00     0.004 C 
ENDROOT
BRANCH   1   2
ATOM      2  C   UNL     1     -22.035  18.729  -1.841  1.00  0.00     0.000 C 
BRANCH   2   3
ATOM      3  C   UNL     1     -23.468  18.247  -2.115  1.00  0.00     0.000 C 
BRANCH   3   4
ATOM      4  C   UNL     1     -23.775  18.124  -3.617  1.00  0.00     0.000 C 
BRANCH   4   5
ATOM      5  C   UNL     1     -23.956  16.663  -4.064  1.00  0.00     0.006 C 
BRANCH   5   6
ATOM      6  C   UNL     1     -23.560  16.455  -5.532  1.00  0.00     0.053 C 
BRANCH   6   7
ATOM      7  C   UNL     1     -22.242  15.753  -5.661  1.00  0.00     0.041 C 
ATOM      8  O   UNL     1     -21.999  15.044  -6.673  1.00  0.00    -0.550 OA
ATOM      9  O   UNL     1     -21.295  15.858  -4.651  1.00  0.00    -0.550 OA
ENDBRANCH   6   7
ENDBRANCH   5   6
ENDBRANCH   4   5
ENDBRANCH   3   4
ENDBRANCH   2   3
ENDBRANCH   1   2
BRANCH   1  10
ATOM     10  C   UNL     1     -21.961  16.317  -1.087  1.00  0.00     0.027 C 
BRANCH  10  11
ATOM     11  C   UNL     1     -22.269  16.269   0.384  1.00  0.00    -0.031 C 
ATOM     12  C   UNL     1     -21.383  15.792   1.272  1.00  0.00    -0.031 C 
BRANCH  12  13
ATOM     13  C   UNL     1     -21.692  15.746   2.744  1.00  0.00     0.027 C 
BRANCH  13  14
ATOM     14  C   UNL     1     -23.140  15.297   2.989  1.00  0.00     0.004 C 
BRANCH  14  15
ATOM     15  C   UNL     1     -23.581  15.480   4.452  1.00  0.00     0.000 C 
BRANCH  15  16
ATOM     16  C   UNL     1     -23.472  16.922   4.991  1.00  0.00    -0.000 C 
BRANCH  16  17
ATOM     17  C   UNL     1     -22.451  17.116   6.125  1.00  0.00    -0.003 C 
ATOM     18  C   UNL     1     -21.139  17.736   5.646  1.00  0.00     0.004 C 
ENDBRANCH  16  17
ENDBRANCH  15  16
ENDBRANCH  14  15
ENDBRANCH  13  14
ENDBRANCH  12  13
ENDBRANCH  10  11
ENDBRANCH   1  10
TORSDOF 13
ENDMDL
MODEL 2
REMARK VINA RESULT:    -4.172      3.611      7.336
REMARK INTER + INTRA:          -8.259
REMARK INTER:                  -6.577
REMARK INTRA:                  -1.682
REMARK UNBOUND:                -0.917
REMARK SMILES CCCCCCC=CCCCCCCCC(=O)[O-]
REMARK SMILES IDX 10 1 11 2 12 3 13 4 14 5 15 6 16 7 17 8 18 9 9 10 8 11 7 12
REMARK SMILES IDX 6 13 5 14 4 15 3 16 2 17 1 18
REMARK H PARENT
REMARK Flexibility Score: inf
ROOT
ATOM      1  C   UNL     1     -21.978  16.619  -0.130  1.00  0.00     0.004 C 
ENDROOT
BRANCH   1   2
ATOM      2  C   UNL     1     -23.398  16.842  -0.668  1.00  0.00     0.000 C 
BRANCH   2   3
ATOM      3  C   UNL     1     -23.645  18.328  -0.965  1.00  0.00     0.000 C 
BRANCH   3   4
ATOM      4  C   UNL     1     -23.982  18.590  -2.443  1.00  0.00     0.000 C 
BRANCH   4   5
ATOM      5  C   UNL     1     -23.146  19.732  -3.046  1.00  0.00     0.006 C 
BRANCH   5   6
ATOM      6  C   UNL     1     -21.717  19.286  -3.386  1.00  0.00     0.053 C 
BRANCH   6   7
ATOM      7  C   UNL     1     -20.713  19.854  -2.430  1.00  0.00     0.041 C 
ATOM      8  O   UNL     1     -20.369  21.062  -2.519  1.00  0.00    -0.550 OA
ATOM      9  O   UNL     1     -20.135  19.043  -1.462  1.00  0.00    -0.550 OA
ENDBRANCH   6   7
ENDBRANCH   5   6
ENDBRANCH   4   5
ENDBRANCH   3   4
ENDBRANCH   2   3
ENDBRANCH   1   2
BRANCH   1  10
ATOM     10  C   UNL     1     -21.177  15.698  -1.058  1.00  0.00     0.027 C 
BRANCH  10  11
ATOM     11  C   UNL     1     -21.735  15.715  -2.455  1.00  0.00    -0.031 C 
ATOM     12  C   UNL     1     -20.960  15.980  -3.518  1.00  0.00    -0.031 C 
BRANCH  12  13
ATOM     13  C   UNL     1     -21.519  15.995  -4.914  1.00  0.00     0.027 C 
BRANCH  13  14
ATOM     14  C   UNL     1     -23.054  15.971  -4.894  1.00  0.00     0.004 C 
BRANCH  14  15
ATOM     15  C   UNL     1     -23.680  16.938  -5.914  1.00  0.00     0.000 C 
BRANCH  15  16
ATOM     16  C   UNL     1     -23.759  16.401  -7.358  1.00  0.00    -0.000 C 
BRANCH  16  17
ATOM     17  C   UNL     1     -22.959  15.113  -7.617  1.00  0.00    -0.003 C 
ATOM     18  C   UNL     1     -21.866  15.292  -8.670  1.00  0.00     0.004 C 
ENDBRANCH  16  17
ENDBRANCH  15  16
ENDBRANCH  14  15
ENDBRANCH  13  14
ENDBRANCH  12  13
ENDBRANCH  10  11
ENDBRANCH   1  10
TORSDOF 13
ENDMDL
MODEL 3
REMARK VINA RESULT:    -4.142      2.015      3.837
REMARK INTER + INTRA:          -8.207
REMARK INTER:                  -6.863
REMARK INTRA:                  -1.344
REMARK UNBOUND:                -0.917
REMARK SMILES CCCCCCC=CCCCCCCCC(=O)[O-]
REMARK SMILES IDX 10 1 11 2 12 3 13 4 14 5 15 6 16 7 17 8 18 9 9 10 8 11 7 12
REMARK SMILES IDX 6 13 5 14 4 15 3 16 2 17 1 18
REMARK H PARENT
REMARK Flexibility Score: inf
ROOT
ATOM      1  C   UNL     1     -24.000  16.491  -3.716  1.00  0.00     0.004 C 
ENDROOT
BRANCH   1   2
ATOM      2  C   UNL     1     -23.323  16.660  -5.083  1.00  0.00     0.000 C 
BRANCH   2   3
ATOM      3  C   UNL     1     -21.936  15.999  -5.093  1.00  0.00     0.000 C 
BRANCH   3   4
ATOM      4  C   UNL     1     -21.170  16.207  -3.776  1.00  0.00     0.000 C 
BRANCH   4   5
ATOM      5  C   UNL     1     -20.406  17.542  -3.742  1.00  0.00     0.006 C 
BRANCH   5   6
ATOM      6  C   UNL     1     -20.405  18.172  -2.342  1.00  0.00     0.053 C 
BRANCH   6   7
ATOM      7  C   UNL     1     -20.797  19.617  -2.380  1.00  0.00     0.041 C 
ATOM      8  O   UNL     1     -20.330  20.422  -1.531  1.00  0.00    -0.550 OA
ATOM      9  O   UNL     1     -21.699  20.070  -3.334  1.00  0.00    -0.550 OA
ENDBRANCH   6   7
ENDBRANCH   5   6
ENDBRANCH   4   5
ENDBRANCH   3   4
ENDBRANCH   2   3
ENDBRANCH   1   2
BRANCH   1  10
ATOM     10  C   UNL     1     -24.121  17.837  -2.993  1.00  0.00     0.027 C 
BRANCH  10  11
ATOM     11  C   UNL     1     -24.124  17.654  -1.500  1.00  0.00    -0.031 C 
ATOM     12  C   UNL     1     -23.239  16.852  -0.888  1.00  0.00    -0.031 C 
BRANCH  12  13
ATOM     13  C   UNL     1     -23.242  16.671   0.605  1.00  0.00     0.027 C 
BRANCH  13  14
ATOM     14  C   UNL     1     -21.940  16.014   1.084  1.00  0.00     0.004 C 
BRANCH  14  15
ATOM     15  C   UNL     1     -21.998  15.578   2.559  1.00  0.00     0.000 C 
BRANCH  15  16
ATOM     16  C   UNL     1     -23.413  15.280   3.095  1.00  0.00    -0.000 C 
BRANCH  16  17
ATOM     17  C   UNL     1     -23.589  15.475   4.611  1.00  0.00    -0.003 C 
ATOM     18  C   UNL     1     -22.869  16.715   5.140  1.00  0.00     0.004 C 
ENDBRANCH  16  17
ENDBRANCH  15  16
ENDBRANCH  14  15
ENDBRANCH  13  14
ENDBRANCH  12  13
ENDBRANCH  10  11
ENDBRANCH   1  10
TORSDOF 13
ENDMDL
MODEL 4
REMARK VINA RESULT:    -4.093      3.242      7.978
REMARK INTER + INTRA:          -8.119
REMARK INTER:                  -6.699
REMARK INTRA:                  -1.421
REMARK UNBOUND:                -0.917
REMARK SMILES CCCCCCC=CCCCCCCCC(=O)[O-]
REMARK SMILES IDX 10 1 11 2 12 3 13 4 14 5 15 6 16 7 17 8 18 9 9 10 8 11 7 12
REMARK SMILES IDX 6 13 5 14 4 15 3 16 2 17 1 18
REMARK H PARENT
REMARK Flexibility Score: inf
ROOT
ATOM      1  C   UNL     1     -20.991  18.948  -3.397  1.00  0.00     0.004 C 
ENDROOT
BRANCH   1   2
ATOM      2  C   UNL     1     -21.596  19.244  -2.018  1.00  0.00     0.000 C 
BRANCH   2   3
ATOM      3  C   UNL     1     -23.112  19.467  -2.121  1.00  0.00     0.000 C 
BRANCH   3   4
ATOM      4  C   UNL     1     -23.898  18.715  -1.034  1.00  0.00     0.000 C 
BRANCH   4   5
ATOM      5  C   UNL     1     -23.615  17.202  -1.042  1.00  0.00     0.006 C 
BRANCH   5   6
ATOM      6  C   UNL     1     -23.301  16.665   0.362  1.00  0.00     0.053 C 
BRANCH   6   7
ATOM      7  C   UNL     1     -21.898  16.150   0.461  1.00  0.00     0.041 C 
ATOM      8  O   UNL     1     -21.215  15.968  -0.581  1.00  0.00    -0.550 OA
ATOM      9  O   UNL     1     -21.354  15.845   1.702  1.00  0.00    -0.550 OA
ENDBRANCH   6   7
ENDBRANCH   5   6
ENDBRANCH   4   5
ENDBRANCH   3   4
ENDBRANCH   2   3
ENDBRANCH   1   2
BRANCH   1  10
ATOM     10  C   UNL     1     -20.456  17.512  -3.465  1.00  0.00     0.027 C 
BRANCH  10  11
ATOM     11  C   UNL     1     -21.491  16.571  -4.016  1.00  0.00    -0.031 C 
ATOM     12  C   UNL     1     -22.606  17.022  -4.610  1.00  0.00    -0.031 C 
BRANCH  12  13
ATOM     13  C   UNL     1     -23.640  16.078  -5.161  1.00  0.00     0.027 C 
BRANCH  13  14
ATOM     14  C   UNL     1     -24.077  16.501  -6.571  1.00  0.00     0.004 C 
BRANCH  14  15
ATOM     15  C   UNL     1     -23.188  15.903  -7.676  1.00  0.00     0.000 C 
BRANCH  15  16
ATOM     16  C   UNL     1     -22.189  14.828  -7.198  1.00  0.00    -0.000 C 
BRANCH  16  17
ATOM     17  C   UNL     1     -20.841  14.818  -7.940  1.00  0.00    -0.003 C 
ATOM     18  C   UNL     1     -20.985  15.061  -9.442  1.00  0.00     0.004 C 
ENDBRANCH  16  17
ENDBRANCH  15  16
ENDBRANCH  14  15
ENDBRANCH  13  14
ENDBRANCH  12  13
ENDBRANCH  10  11
ENDBRANCH   1  10
TORSDOF 13
ENDMDL
MODEL 5
REMARK VINA RESULT:    -3.919      1.777      3.381
REMARK INTER + INTRA:          -7.814
REMARK INTER:                  -6.782
REMARK INTRA:                  -1.032
REMARK UNBOUND:                -0.917
REMARK SMILES CCCCCCC=CCCCCCCCC(=O)[O-]
REMARK SMILES IDX 10 1 11 2 12 3 13 4 14 5 15 6 16 7 17 8 18 9 9 10 8 11 7 12
REMARK SMILES IDX 6 13 5 14 4 15 3 16 2 17 1 18
REMARK H PARENT
REMARK Flexibility Score: inf
ROOT
ATOM      1  C   UNL     1     -21.124  18.968  -3.770  1.00  0.00     0.004 C 
ENDROOT
BRANCH   1   2
ATOM      2  C   UNL     1     -20.385  17.658  -3.466  1.00  0.00     0.000 C 
BRANCH   2   3
ATOM      3  C   UNL     1     -21.089  16.465  -4.129  1.00  0.00     0.000 C 
BRANCH   3   4
ATOM      4  C   UNL     1     -22.523  16.260  -3.612  1.00  0.00     0.000 C 
BRANCH   4   5
ATOM      5  C   UNL     1     -23.588  16.717  -4.625  1.00  0.00     0.006 C 
BRANCH   5   6
ATOM      6  C   UNL     1     -23.986  15.592  -5.591  1.00  0.00     0.053 C 
BRANCH   6   7
ATOM      7  C   UNL     1     -23.189  15.637  -6.859  1.00  0.00     0.041 C 
ATOM      8  O   UNL     1     -22.201  14.872  -7.013  1.00  0.00    -0.550 OA
ATOM      9  O   UNL     1     -23.520  16.544  -7.858  1.00  0.00    -0.550 OA
ENDBRANCH   6   7
ENDBRANCH   5   6
ENDBRANCH   4   5
ENDBRANCH   3   4
ENDBRANCH   2   3
ENDBRANCH   1   2
BRANCH   1  10
ATOM     10  C   UNL     1     -21.121  19.896  -2.549  1.00  0.00     0.027 C 
BRANCH  10  11
ATOM     11  C   UNL     1     -21.836  19.265  -1.385  1.00  0.00    -0.031 C 
ATOM     12  C   UNL     1     -23.092  18.805  -1.498  1.00  0.00    -0.031 C 
BRANCH  12  13
ATOM     13  C   UNL     1     -23.805  18.174  -0.333  1.00  0.00     0.027 C 
BRANCH  13  14
ATOM     14  C   UNL     1     -23.411  16.698  -0.180  1.00  0.00     0.004 C 
BRANCH  14  15
ATOM     15  C   UNL     1     -21.906  16.506   0.083  1.00  0.00     0.000 C 
BRANCH  15  16
ATOM     16  C   UNL     1     -21.562  15.475   1.178  1.00  0.00    -0.000 C 
BRANCH  16  17
ATOM     17  C   UNL     1     -21.966  15.883   2.605  1.00  0.00    -0.003 C 
ATOM     18  C   UNL     1     -23.193  15.128   3.115  1.00  0.00     0.004 C 
ENDBRANCH  16  17
ENDBRANCH  15  16
ENDBRANCH  14  15
ENDBRANCH  13  14
ENDBRANCH  12  13
ENDBRANCH  10  11
ENDBRANCH   1  10
TORSDOF 13
ENDMDL
MODEL 6
REMARK VINA RESULT:    -3.919      1.928      3.333
REMARK INTER + INTRA:          -7.813
REMARK INTER:                  -6.435
REMARK INTRA:                  -1.379
REMARK UNBOUND:                -0.917
REMARK SMILES CCCCCCC=CCCCCCCCC(=O)[O-]
REMARK SMILES IDX 10 1 11 2 12 3 13 4 14 5 15 6 16 7 17 8 18 9 9 10 8 11 7 12
REMARK SMILES IDX 6 13 5 14 4 15 3 16 2 17 1 18
REMARK H PARENT
REMARK Flexibility Score: inf
ROOT
ATOM      1  C   UNL     1     -21.576  15.717  -4.090  1.00  0.00     0.004 C 
ENDROOT
BRANCH   1   2
ATOM      2  C   UNL     1     -22.412  16.874  -4.653  1.00  0.00     0.000 C 
BRANCH   2   3
ATOM      3  C   UNL     1     -23.853  16.817  -4.126  1.00  0.00     0.000 C 
BRANCH   3   4
ATOM      4  C   UNL     1     -24.124  17.858  -3.026  1.00  0.00     0.000 C 
BRANCH   4   5
ATOM      5  C   UNL     1     -23.303  19.145  -3.216  1.00  0.00     0.006 C 
BRANCH   5   6
ATOM      6  C   UNL     1     -22.457  19.478  -1.980  1.00  0.00     0.053 C 
BRANCH   6   7
ATOM      7  C   UNL     1     -21.062  19.881  -2.350  1.00  0.00     0.041 C 
ATOM      8  O   UNL     1     -20.532  19.433  -3.401  1.00  0.00    -0.550 OA
ATOM      9  O   UNL     1     -20.337  20.726  -1.520  1.00  0.00    -0.550 OA
ENDBRANCH   6   7
ENDBRANCH   5   6
ENDBRANCH   4   5
ENDBRANCH   3   4
ENDBRANCH   2   3
ENDBRANCH   1   2
BRANCH   1  10
ATOM     10  C   UNL     1     -20.786  16.163  -2.853  1.00  0.00     0.027 C 
BRANCH  10  11
ATOM     11  C   UNL     1     -21.472  15.735  -1.585  1.00  0.00    -0.031 C 
ATOM     12  C   UNL     1     -21.773  16.615  -0.618  1.00  0.00    -0.031 C 
BRANCH  12  13
ATOM     13  C   UNL     1     -22.461  16.185   0.649  1.00  0.00     0.027 C 
BRANCH  13  14
ATOM     14  C   UNL     1     -21.438  15.859   1.748  1.00  0.00     0.004 C 
BRANCH  14  15
ATOM     15  C   UNL     1     -22.063  15.119   2.944  1.00  0.00     0.000 C 
BRANCH  15  16
ATOM     16  C   UNL     1     -23.570  15.373   3.153  1.00  0.00    -0.000 C 
BRANCH  16  17
ATOM     17  C   UNL     1     -23.963  15.825   4.570  1.00  0.00    -0.003 C 
ATOM     18  C   UNL     1     -22.892  16.683   5.240  1.00  0.00     0.004 C 
ENDBRANCH  16  17
ENDBRANCH  15  16
ENDBRANCH  14  15
ENDBRANCH  13  14
ENDBRANCH  12  13
ENDBRANCH  10  11
ENDBRANCH   1  10
TORSDOF 13
ENDMDL
MODEL 7
REMARK VINA RESULT:    -3.821      3.435      8.049
REMARK INTER + INTRA:          -7.641
REMARK INTER:                  -6.469
REMARK INTRA:                  -1.172
REMARK UNBOUND:                -0.917
REMARK SMILES CCCCCCC=CCCCCCCCC(=O)[O-]
REMARK SMILES IDX 10 1 11 2 12 3 13 4 14 5 15 6 16 7 17 8 18 9 9 10 8 11 7 12
REMARK SMILES IDX 6 13 5 14 4 15 3 16 2 17 1 18
REMARK H PARENT
REMARK Flexibility Score: inf
ROOT
ATOM      1  C   UNL     1     -21.623  15.562  -2.153  1.00  0.00     0.004 C 
ENDROOT
BRANCH   1   2
ATOM      2  C   UNL     1     -21.408  16.351  -0.856  1.00  0.00     0.000 C 
BRANCH   2   3
ATOM      3  C   UNL     1     -22.744  16.613  -0.145  1.00  0.00     0.000 C 
BRANCH   3   4
ATOM      4  C   UNL     1     -23.692  17.497  -0.972  1.00  0.00     0.000 C 
BRANCH   4   5
ATOM      5  C   UNL     1     -23.223  18.961  -1.043  1.00  0.00     0.006 C 
BRANCH   5   6
ATOM      6  C   UNL     1     -22.739  19.345  -2.448  1.00  0.00     0.053 C 
BRANCH   6   7
ATOM      7  C   UNL     1     -21.293  19.737  -2.453  1.00  0.00     0.041 C 
ATOM      8  O   UNL     1     -20.545  19.384  -3.402  1.00  0.00    -0.550 OA
ATOM      9  O   UNL     1     -20.765  20.465  -1.395  1.00  0.00    -0.550 OA
ENDBRANCH   6   7
ENDBRANCH   5   6
ENDBRANCH   4   5
ENDBRANCH   3   4
ENDBRANCH   2   3
ENDBRANCH   1   2
BRANCH   1  10
ATOM     10  C   UNL     1     -20.962  16.269  -3.343  1.00  0.00     0.027 C 
BRANCH  10  11
ATOM     11  C   UNL     1     -21.875  16.293  -4.538  1.00  0.00    -0.031 C 
ATOM     12  C   UNL     1     -23.209  16.257  -4.403  1.00  0.00    -0.031 C 
BRANCH  12  13
ATOM     13  C   UNL     1     -24.121  16.282  -5.599  1.00  0.00     0.027 C 
BRANCH  13  14
ATOM     14  C   UNL     1     -23.343  16.623  -6.879  1.00  0.00     0.004 C 
BRANCH  14  15
ATOM     15  C   UNL     1     -22.947  15.374  -7.687  1.00  0.00     0.000 C 
BRANCH  15  16
ATOM     16  C   UNL     1     -21.579  14.765  -7.317  1.00  0.00    -0.000 C 
BRANCH  16  17
ATOM     17  C   UNL     1     -20.538  14.770  -8.450  1.00  0.00    -0.003 C 
ATOM     18  C   UNL     1     -21.133  15.150  -9.805  1.00  0.00     0.004 C 
ENDBRANCH  16  17
ENDBRANCH  15  16
ENDBRANCH  14  15
ENDBRANCH  13  14
ENDBRANCH  12  13
ENDBRANCH  10  11
ENDBRANCH   1  10
TORSDOF 13
ENDMDL
MODEL 8
REMARK VINA RESULT:    -3.804      3.035      4.703
REMARK INTER + INTRA:          -7.611
REMARK INTER:                  -6.203
REMARK INTRA:                  -1.408
REMARK UNBOUND:                -0.917
REMARK SMILES CCCCCCC=CCCCCCCCC(=O)[O-]
REMARK SMILES IDX 10 1 11 2 12 3 13 4 14 5 15 6 16 7 17 8 18 9 9 10 8 11 7 12
REMARK SMILES IDX 6 13 5 14 4 15 3 16 2 17 1 18
REMARK H PARENT
REMARK Flexibility Score: inf
ROOT
ATOM      1  C   UNL     1     -21.102  15.995  -4.539  1.00  0.00     0.004 C 
ENDROOT
BRANCH   1   2
ATOM      2  C   UNL     1     -22.386  16.835  -4.503  1.00  0.00     0.000 C 
BRANCH   2   3
ATOM      3  C   UNL     1     -23.550  16.085  -5.167  1.00  0.00     0.000 C 
BRANCH   3   4
ATOM      4  C   UNL     1     -24.116  16.830  -6.388  1.00  0.00     0.000 C 
BRANCH   4   5
ATOM      5  C   UNL     1     -23.476  16.368  -7.710  1.00  0.00     0.006 C 
BRANCH   5   6
ATOM      6  C   UNL     1     -22.799  14.997  -7.576  1.00  0.00     0.053 C 
BRANCH   6   7
ATOM      7  C   UNL     1     -21.481  14.954  -8.287  1.00  0.00     0.041 C 
ATOM      8  O   UNL     1     -20.430  14.672  -7.654  1.00  0.00    -0.550 OA
ATOM      9  O   UNL     1     -21.410  15.252  -9.641  1.00  0.00    -0.550 OA
ENDBRANCH   6   7
ENDBRANCH   5   6
ENDBRANCH   4   5
ENDBRANCH   3   4
ENDBRANCH   2   3
ENDBRANCH   1   2
BRANCH   1  10
ATOM     10  C   UNL     1     -20.780  15.426  -3.152  1.00  0.00     0.027 C 
BRANCH  10  11
ATOM     11  C   UNL     1     -21.837  15.802  -2.150  1.00  0.00    -0.031 C 
ATOM     12  C   UNL     1     -21.520  16.183  -0.903  1.00  0.00    -0.031 C 
BRANCH  12  13
ATOM     13  C   UNL     1     -22.578  16.560   0.097  1.00  0.00     0.027 C 
BRANCH  13  14
ATOM     14  C   UNL     1     -23.749  17.282  -0.585  1.00  0.00     0.004 C 
BRANCH  14  15
ATOM     15  C   UNL     1     -23.437  18.755  -0.905  1.00  0.00     0.000 C 
BRANCH  15  16
ATOM     16  C   UNL     1     -23.498  19.124  -2.401  1.00  0.00    -0.000 C 
BRANCH  16  17
ATOM     17  C   UNL     1     -22.166  19.599  -3.008  1.00  0.00    -0.003 C 
ATOM     18  C   UNL     1     -21.003  19.532  -2.019  1.00  0.00     0.004 C 
ENDBRANCH  16  17
ENDBRANCH  15  16
ENDBRANCH  14  15
ENDBRANCH  13  14
ENDBRANCH  12  13
ENDBRANCH  10  11
ENDBRANCH   1  10
TORSDOF 13
ENDMDL
MODEL 9
REMARK VINA RESULT:    -3.701      2.433      4.370
REMARK INTER + INTRA:          -7.430
REMARK INTER:                  -6.190
REMARK INTRA:                  -1.240
REMARK UNBOUND:                -0.917
REMARK SMILES CCCCCCC=CCCCCCCCC(=O)[O-]
REMARK SMILES IDX 10 1 11 2 12 3 13 4 14 5 15 6 16 7 17 8 18 9 9 10 8 11 7 12
REMARK SMILES IDX 6 13 5 14 4 15 3 16 2 17 1 18
REMARK H PARENT
REMARK Flexibility Score: inf
ROOT
ATOM      1  C   UNL     1     -21.075  15.894  -4.578  1.00  0.00     0.004 C 
ENDROOT
BRANCH   1   2
ATOM      2  C   UNL     1     -22.177  15.842  -3.510  1.00  0.00     0.000 C 
BRANCH   2   3
ATOM      3  C   UNL     1     -23.536  16.237  -4.105  1.00  0.00     0.000 C 
BRANCH   3   4
ATOM      4  C   UNL     1     -23.430  16.706  -5.566  1.00  0.00     0.000 C 
BRANCH   4   5
ATOM      5  C   UNL     1     -23.680  15.568  -6.572  1.00  0.00     0.006 C 
BRANCH   5   6
ATOM      6  C   UNL     1     -23.223  15.940  -7.989  1.00  0.00     0.053 C 
BRANCH   6   7
ATOM      7  C   UNL     1     -21.948  15.248  -8.365  1.00  0.00     0.041 C 
ATOM      8  O   UNL     1     -21.585  15.201  -9.569  1.00  0.00    -0.550 OA
ATOM      9  O   UNL     1     -21.177  14.631  -7.389  1.00  0.00    -0.550 OA
ENDBRANCH   6   7
ENDBRANCH   5   6
ENDBRANCH   4   5
ENDBRANCH   3   4
ENDBRANCH   2   3
ENDBRANCH   1   2
BRANCH   1  10
ATOM     10  C   UNL     1     -20.016  16.945  -4.222  1.00  0.00     0.027 C 
BRANCH  10  11
ATOM     11  C   UNL     1     -20.497  17.852  -3.123  1.00  0.00    -0.031 C 
ATOM     12  C   UNL     1     -21.129  19.006  -3.390  1.00  0.00    -0.031 C 
BRANCH  12  13
ATOM     13  C   UNL     1     -21.610  19.911  -2.289  1.00  0.00     0.027 C 
BRANCH  13  14
ATOM     14  C   UNL     1     -21.858  19.123  -0.995  1.00  0.00     0.004 C 
BRANCH  14  15
ATOM     15  C   UNL     1     -23.251  18.469  -0.952  1.00  0.00     0.000 C 
BRANCH  15  16
ATOM     16  C   UNL     1     -23.281  17.035  -0.386  1.00  0.00    -0.000 C 
BRANCH  16  17
ATOM     17  C   UNL     1     -21.904  16.446  -0.034  1.00  0.00    -0.003 C 
ATOM     18  C   UNL     1     -21.843  15.879   1.384  1.00  0.00     0.004 C 
ENDBRANCH  16  17
ENDBRANCH  15  16
ENDBRANCH  14  15
ENDBRANCH  13  14
ENDBRANCH  12  13
ENDBRANCH  10  11
ENDBRANCH   1  10
TORSDOF 13
ENDMDL
