MODEL 1
REMARK VINA RESULT:    -3.716      0.000      0.000
REMARK INTER + INTRA:          -7.396
REMARK INTER:                  -6.975
REMARK INTRA:                  -0.422
REMARK UNBOUND:                -0.422
REMARK SMILES O=C([O-])CCCCCCCCCCCCCCC(=O)[O-]
REMARK SMILES IDX 10 1 9 2 8 3 7 4 6 5 5 6 4 7 2 8 1 9 3 10 11 11 12 12 13 13
REMARK SMILES IDX 14 14 15 15 16 16 17 17 18 18 19 19 20 20
REMARK H PARENT
REMARK Flexibility Score: inf
ROOT
ATOM      1  C   UNL     1     120.523  69.840  -0.084  1.00  0.00     0.000 C 
ENDROOT
BRANCH   1   2
ATOM      2  C   UNL     1     120.015  69.716  -1.532  1.00  0.00     0.000 C 
BRANCH   2   3
ATOM      3  C   UNL     1     120.497  68.428  -2.218  1.00  0.00     0.000 C 
BRANCH   3   4
ATOM      4  C   UNL     1     119.916  68.251  -3.629  1.00  0.00     0.000 C 
BRANCH   4   5
ATOM      5  C   UNL     1     119.880  66.768  -4.025  1.00  0.00     0.000 C 
BRANCH   5   6
ATOM      6  C   UNL     1     120.805  66.448  -5.210  1.00  0.00     0.006 C 
BRANCH   6   7
ATOM      7  C   UNL     1     120.191  66.838  -6.561  1.00  0.00     0.053 C 
BRANCH   7   8
ATOM      8  C   UNL     1     120.967  67.954  -7.186  1.00  0.00     0.041 C 
ATOM      9  O   UNL     1     120.980  69.094  -6.650  1.00  0.00    -0.550 OA
ATOM     10  O   UNL     1     121.719  67.723  -8.330  1.00  0.00    -0.550 OA
ENDBRANCH   7   8
ENDBRANCH   6   7
ENDBRANCH   5   6
ENDBRANCH   4   5
ENDBRANCH   3   4
ENDBRANCH   2   3
ENDBRANCH   1   2
BRANCH   1  11
ATOM     11  C   UNL     1     119.888  71.025   0.664  1.00  0.00     0.000 C 
BRANCH  11  12
ATOM     12  C   UNL     1     120.286  71.067   2.149  1.00  0.00     0.000 C 
BRANCH  12  13
ATOM     13  C   UNL     1     121.314  72.170   2.455  1.00  0.00     0.000 C 
BRANCH  13  14
ATOM     14  C   UNL     1     121.114  72.795   3.848  1.00  0.00     0.000 C 
BRANCH  14  15
ATOM     15  C   UNL     1     120.294  71.895   4.787  1.00  0.00     0.000 C 
BRANCH  15  16
ATOM     16  C   UNL     1     119.959  72.582   6.123  1.00  0.00     0.006 C 
BRANCH  16  17
ATOM     17  C   UNL     1     120.240  71.671   7.326  1.00  0.00     0.053 C 
BRANCH  17  18
ATOM     18  C   UNL     1     120.561  72.460   8.559  1.00  0.00     0.041 C 
ATOM     19  O   UNL     1     120.717  73.708   8.491  1.00  0.00    -0.550 OA
ATOM     20  O   UNL     1     120.659  71.821   9.789  1.00  0.00    -0.550 OA
ENDBRANCH  17  18
ENDBRANCH  16  17
ENDBRANCH  15  16
ENDBRANCH  14  15
ENDBRANCH  13  14
ENDBRANCH  12  13
ENDBRANCH  11  12
ENDBRANCH   1  11
TORSDOF 15
ENDMDL
MODEL 2
REMARK VINA RESULT:    -3.664      1.243      1.708
REMARK INTER + INTRA:          -7.298
REMARK INTER:                  -6.551
REMARK INTRA:                  -0.748
REMARK UNBOUND:                -0.422
REMARK SMILES O=C([O-])CCCCCCCCCCCCCCC(=O)[O-]
REMARK SMILES IDX 10 1 9 2 8 3 7 4 6 5 5 6 4 7 2 8 1 9 3 10 11 11 12 12 13 13
REMARK SMILES IDX 14 14 15 15 16 16 17 17 18 18 19 19 20 20
REMARK H PARENT
REMARK Flexibility Score: inf
ROOT
ATOM      1  C   UNL     1     121.458  70.227   0.549  1.00  0.00     0.000 C 
ENDROOT
BRANCH   1   2
ATOM      2  C   UNL     1     121.223  69.970  -0.949  1.00  0.00     0.000 C 
BRANCH   2   3
ATOM      3  C   UNL     1     119.930  69.183  -1.218  1.00  0.00     0.000 C 
BRANCH   3   4
ATOM      4  C   UNL     1     120.008  67.726  -0.737  1.00  0.00     0.000 C 
BRANCH   4   5
ATOM      5  C   UNL     1     120.514  66.806  -1.859  1.00  0.00     0.000 C 
BRANCH   5   6
ATOM      6  C   UNL     1     119.875  67.126  -3.220  1.00  0.00     0.006 C 
BRANCH   6   7
ATOM      7  C   UNL     1     120.348  66.179  -4.331  1.00  0.00     0.053 C 
BRANCH   7   8
ATOM      8  C   UNL     1     120.667  66.950  -5.573  1.00  0.00     0.041 C 
ATOM      9  O   UNL     1     120.420  68.183  -5.634  1.00  0.00    -0.550 OA
ATOM     10  O   UNL     1     121.286  66.318  -6.644  1.00  0.00    -0.550 OA
ENDBRANCH   7   8
ENDBRANCH   6   7
ENDBRANCH   5   6
ENDBRANCH   4   5
ENDBRANCH   3   4
ENDBRANCH   2   3
ENDBRANCH   1   2
BRANCH   1  11
ATOM     11  C   UNL     1     120.267  70.932   1.220  1.00  0.00     0.000 C 
BRANCH  11  12
ATOM     12  C   UNL     1     120.270  72.452   0.984  1.00  0.00     0.000 C 
BRANCH  12  13
ATOM     13  C   UNL     1     120.744  73.242   2.215  1.00  0.00     0.000 C 
BRANCH  13  14
ATOM     14  C   UNL     1     120.022  72.816   3.506  1.00  0.00     0.000 C 
BRANCH  14  15
ATOM     15  C   UNL     1     120.905  71.950   4.419  1.00  0.00     0.000 C 
BRANCH  15  16
ATOM     16  C   UNL     1     120.155  71.451   5.668  1.00  0.00     0.006 C 
BRANCH  16  17
ATOM     17  C   UNL     1     119.913  72.575   6.684  1.00  0.00     0.053 C 
BRANCH  17  18
ATOM     18  C   UNL     1     120.467  72.235   8.034  1.00  0.00     0.041 C 
ATOM     19  O   UNL     1     121.472  71.483   8.136  1.00  0.00    -0.550 OA
ATOM     20  O   UNL     1     119.891  72.773   9.179  1.00  0.00    -0.550 OA
ENDBRANCH  17  18
ENDBRANCH  16  17
ENDBRANCH  15  16
ENDBRANCH  14  15
ENDBRANCH  13  14
ENDBRANCH  12  13
ENDBRANCH  11  12
ENDBRANCH   1  11
TORSDOF 15
ENDMDL
MODEL 3
REMARK VINA RESULT:    -3.572      1.191      1.777
REMARK INTER + INTRA:          -7.126
REMARK INTER:                  -6.525
REMARK INTRA:                  -0.601
REMARK UNBOUND:                -0.422
REMARK SMILES O=C([O-])CCCCCCCCCCCCCCC(=O)[O-]
REMARK SMILES IDX 10 1 9 2 8 3 7 4 6 5 5 6 4 7 2 8 1 9 3 10 11 11 12 12 13 13
REMARK SMILES IDX 14 14 15 15 16 16 17 17 18 18 19 19 20 20
REMARK H PARENT
REMARK Flexibility Score: inf
ROOT
ATOM      1  C   UNL     1     121.024  69.013  -0.167  1.00  0.00     0.000 C 
ENDROOT
BRANCH   1   2
ATOM      2  C   UNL     1     120.791  68.581  -1.625  1.00  0.00     0.000 C 
BRANCH   2   3
ATOM      3  C   UNL     1     120.403  67.098  -1.746  1.00  0.00     0.000 C 
BRANCH   3   4
ATOM      4  C   UNL     1     119.953  66.714  -3.164  1.00  0.00     0.000 C 
BRANCH   4   5
ATOM      5  C   UNL     1     119.927  67.946  -4.082  1.00  0.00     0.000 C 
BRANCH   5   6
ATOM      6  C   UNL     1     119.877  67.573  -5.572  1.00  0.00     0.006 C 
BRANCH   6   7
ATOM      7  C   UNL     1     121.112  66.784  -6.026  1.00  0.00     0.053 C 
BRANCH   7   8
ATOM      8  C   UNL     1     121.228  66.808  -7.517  1.00  0.00     0.041 C 
ATOM      9  O   UNL     1     120.442  66.124  -8.225  1.00  0.00    -0.550 OA
ATOM     10  O   UNL     1     122.169  67.628  -8.129  1.00  0.00    -0.550 OA
ENDBRANCH   7   8
ENDBRANCH   6   7
ENDBRANCH   5   6
ENDBRANCH   4   5
ENDBRANCH   3   4
ENDBRANCH   2   3
ENDBRANCH   1   2
BRANCH   1  11
ATOM     11  C   UNL     1     121.330  70.515  -0.039  1.00  0.00     0.000 C 
BRANCH  11  12
ATOM     12  C   UNL     1     120.108  71.331   0.416  1.00  0.00     0.000 C 
BRANCH  12  13
ATOM     13  C   UNL     1     119.926  71.324   1.943  1.00  0.00     0.000 C 
BRANCH  13  14
ATOM     14  C   UNL     1     121.107  71.980   2.682  1.00  0.00     0.000 C 
BRANCH  14  15
ATOM     15  C   UNL     1     121.227  71.506   4.140  1.00  0.00     0.000 C 
BRANCH  15  16
ATOM     16  C   UNL     1     119.875  71.077   4.737  1.00  0.00     0.006 C 
BRANCH  16  17
ATOM     17  C   UNL     1     119.989  70.719   6.226  1.00  0.00     0.053 C 
BRANCH  17  18
ATOM     18  C   UNL     1     120.397  71.900   7.053  1.00  0.00     0.041 C 
ATOM     19  O   UNL     1     121.036  71.731   8.126  1.00  0.00    -0.550 OA
ATOM     20  O   UNL     1     120.098  73.188   6.626  1.00  0.00    -0.550 OA
ENDBRANCH  17  18
ENDBRANCH  16  17
ENDBRANCH  15  16
ENDBRANCH  14  15
ENDBRANCH  13  14
ENDBRANCH  12  13
ENDBRANCH  11  12
ENDBRANCH   1  11
TORSDOF 15
ENDMDL
MODEL 4
REMARK VINA RESULT:    -3.443      2.003      2.552
REMARK INTER + INTRA:          -6.884
REMARK INTER:                  -6.887
REMARK INTRA:                   0.003
REMARK UNBOUND:                -0.422
REMARK SMILES O=C([O-])CCCCCCCCCCCCCCC(=O)[O-]
REMARK SMILES IDX 10 1 9 2 8 3 7 4 6 5 5 6 4 7 2 8 1 9 3 10 11 11 12 12 13 13
REMARK SMILES IDX 14 14 15 15 16 16 17 17 18 18 19 19 20 20
REMARK H PARENT
REMARK Flexibility Score: inf
ROOT
ATOM      1  C   UNL     1     120.863  68.709  -0.096  1.00  0.00     0.000 C 
ENDROOT
BRANCH   1   2
ATOM      2  C   UNL     1     119.894  68.623  -1.288  1.00  0.00     0.000 C 
BRANCH   2   3
ATOM      3  C   UNL     1     120.324  69.516  -2.464  1.00  0.00     0.000 C 
BRANCH   3   4
ATOM      4  C   UNL     1     119.914  68.941  -3.829  1.00  0.00     0.000 C 
BRANCH   4   5
ATOM      5  C   UNL     1     120.324  69.889  -4.966  1.00  0.00     0.000 C 
BRANCH   5   6
ATOM      6  C   UNL     1     120.061  69.292  -6.358  1.00  0.00     0.006 C 
BRANCH   6   7
ATOM      7  C   UNL     1     120.749  67.936  -6.559  1.00  0.00     0.053 C 
BRANCH   7   8
ATOM      8  C   UNL     1     120.419  67.377  -7.907  1.00  0.00     0.041 C 
ATOM      9  O   UNL     1     120.196  68.151  -8.876  1.00  0.00    -0.550 OA
ATOM     10  O   UNL     1     120.409  66.002  -8.107  1.00  0.00    -0.550 OA
ENDBRANCH   7   8
ENDBRANCH   6   7
ENDBRANCH   5   6
ENDBRANCH   4   5
ENDBRANCH   3   4
ENDBRANCH   2   3
ENDBRANCH   1   2
BRANCH   1  11
ATOM     11  C   UNL     1     121.539  70.085   0.017  1.00  0.00     0.000 C 
BRANCH  11  12
ATOM     12  C   UNL     1     121.037  70.893   1.226  1.00  0.00     0.000 C 
BRANCH  12  13
ATOM     13  C   UNL     1     120.026  71.983   0.833  1.00  0.00     0.000 C 
BRANCH  13  14
ATOM     14  C   UNL     1     119.961  73.128   1.858  1.00  0.00     0.000 C 
BRANCH  14  15
ATOM     15  C   UNL     1     120.629  72.764   3.194  1.00  0.00     0.000 C 
BRANCH  15  16
ATOM     16  C   UNL     1     119.875  73.334   4.409  1.00  0.00     0.006 C 
BRANCH  16  17
ATOM     17  C   UNL     1     119.875  72.362   5.597  1.00  0.00     0.053 C 
BRANCH  17  18
ATOM     18  C   UNL     1     120.432  71.022   5.221  1.00  0.00     0.041 C 
ATOM     19  O   UNL     1     121.336  70.493   5.922  1.00  0.00    -0.550 OA
ATOM     20  O   UNL     1     119.934  70.345   4.115  1.00  0.00    -0.550 OA
ENDBRANCH  17  18
ENDBRANCH  16  17
ENDBRANCH  15  16
ENDBRANCH  14  15
ENDBRANCH  13  14
ENDBRANCH  12  13
ENDBRANCH  11  12
ENDBRANCH   1  11
TORSDOF 15
ENDMDL
MODEL 5
REMARK VINA RESULT:    -3.395      1.028     11.633
REMARK INTER + INTRA:          -6.793
REMARK INTER:                  -6.462
REMARK INTRA:                  -0.331
REMARK UNBOUND:                -0.422
REMARK SMILES O=C([O-])CCCCCCCCCCCCCCC(=O)[O-]
REMARK SMILES IDX 10 1 9 2 8 3 7 4 6 5 5 6 4 7 2 8 1 9 3 10 11 11 12 12 13 13
REMARK SMILES IDX 14 14 15 15 16 16 17 17 18 18 19 19 20 20
REMARK H PARENT
REMARK Flexibility Score: inf
ROOT
ATOM      1  C   UNL     1     121.518  69.852   0.085  1.00  0.00     0.000 C 
ENDROOT
BRANCH   1   2
ATOM      2  C   UNL     1     120.614  70.648   1.043  1.00  0.00     0.000 C 
BRANCH   2   3
ATOM      3  C   UNL     1     121.328  71.864   1.656  1.00  0.00     0.000 C 
BRANCH   3   4
ATOM      4  C   UNL     1     120.394  72.734   2.511  1.00  0.00     0.000 C 
BRANCH   4   5
ATOM      5  C   UNL     1     119.876  71.950   3.726  1.00  0.00     0.000 C 
BRANCH   5   6
ATOM      6  C   UNL     1     121.009  71.470   4.648  1.00  0.00     0.006 C 
BRANCH   6   7
ATOM      7  C   UNL     1     120.494  70.954   5.997  1.00  0.00     0.053 C 
BRANCH   7   8
ATOM      8  C   UNL     1     120.501  72.051   7.014  1.00  0.00     0.041 C 
ATOM      9  O   UNL     1     120.825  71.808   8.206  1.00  0.00    -0.550 OA
ATOM     10  O   UNL     1     120.203  73.354   6.634  1.00  0.00    -0.550 OA
ENDBRANCH   7   8
ENDBRANCH   6   7
ENDBRANCH   5   6
ENDBRANCH   4   5
ENDBRANCH   3   4
ENDBRANCH   2   3
ENDBRANCH   1   2
BRANCH   1  11
ATOM     11  C   UNL     1     121.239  70.173  -1.392  1.00  0.00     0.000 C 
BRANCH  11  12
ATOM     12  C   UNL     1     120.228  69.202  -2.027  1.00  0.00     0.000 C 
BRANCH  12  13
ATOM     13  C   UNL     1     120.689  67.737  -1.953  1.00  0.00     0.000 C 
BRANCH  13  14
ATOM     14  C   UNL     1     119.878  66.814  -2.880  1.00  0.00     0.000 C 
BRANCH  14  15
ATOM     15  C   UNL     1     119.927  67.262  -4.350  1.00  0.00     0.000 C 
BRANCH  15  16
ATOM     16  C   UNL     1     120.989  66.503  -5.166  1.00  0.00     0.006 C 
BRANCH  16  17
ATOM     17  C   UNL     1     120.688  66.529  -6.671  1.00  0.00     0.053 C 
BRANCH  17  18
ATOM     18  C   UNL     1     121.126  67.814  -7.305  1.00  0.00     0.041 C 
ATOM     19  O   UNL     1     120.767  68.917  -6.814  1.00  0.00    -0.550 OA
ATOM     20  O   UNL     1     121.953  67.795  -8.421  1.00  0.00    -0.550 OA
ENDBRANCH  17  18
ENDBRANCH  16  17
ENDBRANCH  15  16
ENDBRANCH  14  15
ENDBRANCH  13  14
ENDBRANCH  12  13
ENDBRANCH  11  12
ENDBRANCH   1  11
TORSDOF 15
ENDMDL
MODEL 6
REMARK VINA RESULT:    -2.990      1.679     10.915
REMARK INTER + INTRA:          -6.034
REMARK INTER:                  -5.737
REMARK INTRA:                  -0.297
REMARK UNBOUND:                -0.422
REMARK SMILES O=C([O-])CCCCCCCCCCCCCCC(=O)[O-]
REMARK SMILES IDX 10 1 9 2 8 3 7 4 6 5 5 6 4 7 2 8 1 9 3 10 11 11 12 12 13 13
REMARK SMILES IDX 14 14 15 15 16 16 17 17 18 18 19 19 20 20
REMARK H PARENT
REMARK Flexibility Score: inf
ROOT
ATOM      1  C   UNL     1     120.015  70.927   1.333  1.00  0.00     0.000 C 
ENDROOT
BRANCH   1   2
ATOM      2  C   UNL     1     119.951  72.433   1.642  1.00  0.00     0.000 C 
BRANCH   2   3
ATOM      3  C   UNL     1     121.023  72.875   2.652  1.00  0.00     0.000 C 
BRANCH   3   4
ATOM      4  C   UNL     1     120.433  73.623   3.857  1.00  0.00     0.000 C 
BRANCH   4   5
ATOM      5  C   UNL     1     119.877  72.637   4.895  1.00  0.00     0.000 C 
BRANCH   5   6
ATOM      6  C   UNL     1     120.451  71.220   4.732  1.00  0.00     0.006 C 
BRANCH   6   7
ATOM      7  C   UNL     1     119.879  70.230   5.755  1.00  0.00     0.053 C 
BRANCH   7   8
ATOM      8  C   UNL     1     120.356  70.567   7.132  1.00  0.00     0.041 C 
ATOM      9  O   UNL     1     119.875  69.972   8.132  1.00  0.00    -0.550 OA
ATOM     10  O   UNL     1     121.370  71.500   7.308  1.00  0.00    -0.550 OA
ENDBRANCH   7   8
ENDBRANCH   6   7
ENDBRANCH   5   6
ENDBRANCH   4   5
ENDBRANCH   3   4
ENDBRANCH   2   3
ENDBRANCH   1   2
BRANCH   1  11
ATOM     11  C   UNL     1     121.352  70.512   0.695  1.00  0.00     0.000 C 
BRANCH  11  12
ATOM     12  C   UNL     1     121.208  70.144  -0.791  1.00  0.00     0.000 C 
BRANCH  12  13
ATOM     13  C   UNL     1     119.875  69.442  -1.102  1.00  0.00     0.000 C 
BRANCH  13  14
ATOM     14  C   UNL     1     120.048  67.937  -1.375  1.00  0.00     0.000 C 
BRANCH  14  15
ATOM     15  C   UNL     1     120.705  67.656  -2.736  1.00  0.00     0.000 C 
BRANCH  15  16
ATOM     16  C   UNL     1     119.943  68.303  -3.907  1.00  0.00     0.006 C 
BRANCH  16  17
ATOM     17  C   UNL     1     120.544  69.658  -4.308  1.00  0.00     0.053 C 
BRANCH  17  18
ATOM     18  C   UNL     1     120.496  69.871  -5.791  1.00  0.00     0.041 C 
ATOM     19  O   UNL     1     120.984  69.011  -6.571  1.00  0.00    -0.550 OA
ATOM     20  O   UNL     1     119.888  71.006  -6.312  1.00  0.00    -0.550 OA
ENDBRANCH  17  18
ENDBRANCH  16  17
ENDBRANCH  15  16
ENDBRANCH  14  15
ENDBRANCH  13  14
ENDBRANCH  12  13
ENDBRANCH  11  12
ENDBRANCH   1  11
TORSDOF 15
ENDMDL
