MODEL 1
REMARK VINA RESULT:    -4.318      0.000      0.000
REMARK INTER + INTRA:          -4.318
REMARK INTER:                  -4.318
REMARK INTRA:                   0.000
REMARK UNBOUND:                 0.000
REMARK SMILES CC(C)=C1CC[C@H](C)CC1=O
REMARK SMILES IDX 8 1 7 2 6 3 5 4 4 5 2 6 1 7 3 8 10 9 11 10 9 11
REMARK H PARENT
REMARK Flexibility Score: inf
ROOT
ATOM      1  C   UNL     1      20.613  53.159  33.302  1.00  0.00     0.008 C 
ATOM      2  C   UNL     1      19.166  53.332  33.782  1.00  0.00    -0.006 C 
ATOM      3  C   UNL     1      18.228  52.379  33.026  1.00  0.00     0.008 C 
ATOM      4  C   UNL     1      16.763  52.609  33.420  1.00  0.00     0.039 C 
ATOM      5  C   UNL     1      16.550  52.567  34.928  1.00  0.00    -0.006 C 
ATOM      6  C   UNL     1      15.379  52.116  35.466  1.00  0.00    -0.070 C 
ATOM      7  C   UNL     1      14.239  51.656  34.588  1.00  0.00     0.039 C 
ATOM      8  C   UNL     1      15.177  52.016  36.961  1.00  0.00     0.039 C 
ATOM      9  C   UNL     1      17.642  53.152  35.761  1.00  0.00     0.159 C 
ATOM     10  O   UNL     1      17.396  53.720  36.859  1.00  0.00    -0.295 OA
ATOM     11  C   UNL     1      19.067  53.078  35.294  1.00  0.00     0.084 C 
ENDROOT
TORSDOF 0
ENDMDL
MODEL 2
REMARK VINA RESULT:    -4.169      1.555      2.440
REMARK INTER + INTRA:          -4.169
REMARK INTER:                  -4.169
REMARK INTRA:                   0.000
REMARK UNBOUND:                 0.000
REMARK SMILES CC(C)=C1CC[C@H](C)CC1=O
REMARK SMILES IDX 8 1 7 2 6 3 5 4 4 5 2 6 1 7 3 8 10 9 11 10 9 11
REMARK H PARENT
REMARK Flexibility Score: inf
ROOT
ATOM      1  C   UNL     1      20.973  53.855  33.224  1.00  0.00     0.008 C 
ATOM      2  C   UNL     1      19.807  53.047  33.805  1.00  0.00    -0.006 C 
ATOM      3  C   UNL     1      19.425  53.573  35.196  1.00  0.00     0.008 C 
ATOM      4  C   UNL     1      18.327  52.713  35.837  1.00  0.00     0.039 C 
ATOM      5  C   UNL     1      17.119  52.535  34.927  1.00  0.00    -0.006 C 
ATOM      6  C   UNL     1      15.859  52.401  35.437  1.00  0.00    -0.070 C 
ATOM      7  C   UNL     1      15.614  52.408  36.929  1.00  0.00     0.039 C 
ATOM      8  C   UNL     1      14.647  52.281  34.543  1.00  0.00     0.039 C 
ATOM      9  C   UNL     1      17.411  52.399  33.469  1.00  0.00     0.159 C 
ATOM     10  O   UNL     1      16.687  51.690  32.719  1.00  0.00    -0.295 OA
ATOM     11  C   UNL     1      18.591  53.107  32.868  1.00  0.00     0.084 C 
ENDROOT
TORSDOF 0
ENDMDL
MODEL 3
REMARK VINA RESULT:    -4.160      1.649      4.493
REMARK INTER + INTRA:          -4.160
REMARK INTER:                  -4.160
REMARK INTRA:                   0.000
REMARK UNBOUND:                 0.000
REMARK SMILES CC(C)=C1CC[C@H](C)CC1=O
REMARK SMILES IDX 8 1 7 2 6 3 5 4 4 5 2 6 1 7 3 8 10 9 11 10 9 11
REMARK H PARENT
REMARK Flexibility Score: inf
ROOT
ATOM      1  C   UNL     1      15.237  52.976  37.605  1.00  0.00     0.008 C 
ATOM      2  C   UNL     1      16.078  53.233  36.349  1.00  0.00    -0.006 C 
ATOM      3  C   UNL     1      17.563  53.377  36.712  1.00  0.00     0.008 C 
ATOM      4  C   UNL     1      18.407  53.736  35.481  1.00  0.00     0.039 C 
ATOM      5  C   UNL     1      18.179  52.778  34.318  1.00  0.00    -0.006 C 
ATOM      6  C   UNL     1      19.178  52.484  33.435  1.00  0.00    -0.070 C 
ATOM      7  C   UNL     1      20.548  53.109  33.565  1.00  0.00     0.039 C 
ATOM      8  C   UNL     1      18.981  51.493  32.311  1.00  0.00     0.039 C 
ATOM      9  C   UNL     1      16.781  52.284  34.141  1.00  0.00     0.159 C 
ATOM     10  O   UNL     1      16.319  52.024  32.997  1.00  0.00    -0.295 OA
ATOM     11  C   UNL     1      15.893  52.093  35.336  1.00  0.00     0.084 C 
ENDROOT
TORSDOF 0
ENDMDL
MODEL 4
REMARK VINA RESULT:    -4.156      1.749      4.567
REMARK INTER + INTRA:          -4.156
REMARK INTER:                  -4.156
REMARK INTRA:                   0.000
REMARK UNBOUND:                 0.000
REMARK SMILES CC(C)=C1CC[C@H](C)CC1=O
REMARK SMILES IDX 8 1 7 2 6 3 5 4 4 5 2 6 1 7 3 8 10 9 11 10 9 11
REMARK H PARENT
REMARK Flexibility Score: inf
ROOT
ATOM      1  C   UNL     1      15.260  52.278  36.521  1.00  0.00     0.008 C 
ATOM      2  C   UNL     1      16.565  53.045  36.278  1.00  0.00    -0.006 C 
ATOM      3  C   UNL     1      17.559  52.185  35.485  1.00  0.00     0.008 C 
ATOM      4  C   UNL     1      18.909  52.898  35.320  1.00  0.00     0.039 C 
ATOM      5  C   UNL     1      18.760  54.301  34.747  1.00  0.00    -0.006 C 
ATOM      6  C   UNL     1      19.727  54.847  33.952  1.00  0.00    -0.070 C 
ATOM      7  C   UNL     1      20.992  54.089  33.622  1.00  0.00     0.039 C 
ATOM      8  C   UNL     1      19.567  56.216  33.330  1.00  0.00     0.039 C 
ATOM      9  C   UNL     1      17.565  55.072  35.200  1.00  0.00     0.159 C 
ATOM     10  O   UNL     1      17.602  56.326  35.322  1.00  0.00    -0.295 OA
ATOM     11  C   UNL     1      16.287  54.355  35.526  1.00  0.00     0.084 C 
ENDROOT
TORSDOF 0
ENDMDL
MODEL 5
REMARK VINA RESULT:    -4.078      1.291      4.115
REMARK INTER + INTRA:          -4.078
REMARK INTER:                  -4.078
REMARK INTRA:                   0.000
REMARK UNBOUND:                 0.000
REMARK SMILES CC(C)=C1CC[C@H](C)CC1=O
REMARK SMILES IDX 8 1 7 2 6 3 5 4 4 5 2 6 1 7 3 8 10 9 11 10 9 11
REMARK H PARENT
REMARK Flexibility Score: inf
ROOT
ATOM      1  C   UNL     1      14.948  53.143  36.800  1.00  0.00     0.008 C 
ATOM      2  C   UNL     1      16.245  52.680  36.126  1.00  0.00    -0.006 C 
ATOM      3  C   UNL     1      16.067  52.607  34.602  1.00  0.00     0.008 C 
ATOM      4  C   UNL     1      17.323  52.048  33.919  1.00  0.00     0.039 C 
ATOM      5  C   UNL     1      18.588  52.792  34.326  1.00  0.00    -0.006 C 
ATOM      6  C   UNL     1      19.635  52.936  33.461  1.00  0.00    -0.070 C 
ATOM      7  C   UNL     1      19.588  52.349  32.069  1.00  0.00     0.039 C 
ATOM      8  C   UNL     1      20.873  53.720  33.833  1.00  0.00     0.039 C 
ATOM      9  C   UNL     1      18.656  53.241  35.748  1.00  0.00     0.159 C 
ATOM     10  O   UNL     1      19.753  53.300  36.365  1.00  0.00    -0.295 OA
ATOM     11  C   UNL     1      17.401  53.629  36.476  1.00  0.00     0.084 C 
ENDROOT
TORSDOF 0
ENDMDL
MODEL 6
REMARK VINA RESULT:    -4.061     15.659     16.411
REMARK INTER + INTRA:          -4.061
REMARK INTER:                  -4.061
REMARK INTRA:                   0.000
REMARK UNBOUND:                 0.000
REMARK SMILES CC(C)=C1CC[C@H](C)CC1=O
REMARK SMILES IDX 8 1 7 2 6 3 5 4 4 5 2 6 1 7 3 8 10 9 11 10 9 11
REMARK H PARENT
REMARK Flexibility Score: inf
ROOT
ATOM      1  C   UNL     1      16.388  61.487  19.780  1.00  0.00     0.008 C 
ATOM      2  C   UNL     1      15.599  61.650  21.084  1.00  0.00    -0.006 C 
ATOM      3  C   UNL     1      16.228  62.740  21.965  1.00  0.00     0.008 C 
ATOM      4  C   UNL     1      15.513  62.846  23.319  1.00  0.00     0.039 C 
ATOM      5  C   UNL     1      14.006  63.010  23.170  1.00  0.00    -0.006 C 
ATOM      6  C   UNL     1      13.278  63.727  24.077  1.00  0.00    -0.070 C 
ATOM      7  C   UNL     1      13.936  64.373  25.275  1.00  0.00     0.039 C 
ATOM      8  C   UNL     1      11.792  63.944  23.911  1.00  0.00     0.039 C 
ATOM      9  C   UNL     1      13.370  62.250  22.054  1.00  0.00     0.159 C 
ATOM     10  O   UNL     1      12.195  61.805  22.150  1.00  0.00    -0.295 OA
ATOM     11  C   UNL     1      14.133  61.996  20.786  1.00  0.00     0.084 C 
ENDROOT
TORSDOF 0
ENDMDL
MODEL 7
REMARK VINA RESULT:    -3.966     15.212     16.473
REMARK INTER + INTRA:          -3.966
REMARK INTER:                  -3.966
REMARK INTRA:                   0.000
REMARK UNBOUND:                 0.000
REMARK SMILES CC(C)=C1CC[C@H](C)CC1=O
REMARK SMILES IDX 8 1 7 2 6 3 5 4 4 5 2 6 1 7 3 8 10 9 11 10 9 11
REMARK H PARENT
REMARK Flexibility Score: inf
ROOT
ATOM      1  C   UNL     1      12.649  62.169  19.690  1.00  0.00     0.008 C 
ATOM      2  C   UNL     1      13.696  61.766  20.735  1.00  0.00    -0.006 C 
ATOM      3  C   UNL     1      14.930  61.155  20.056  1.00  0.00     0.008 C 
ATOM      4  C   UNL     1      15.946  60.653  21.091  1.00  0.00     0.039 C 
ATOM      5  C   UNL     1      16.310  61.720  22.116  1.00  0.00    -0.006 C 
ATOM      6  C   UNL     1      17.552  61.765  22.682  1.00  0.00    -0.070 C 
ATOM      7  C   UNL     1      18.613  60.749  22.327  1.00  0.00     0.039 C 
ATOM      8  C   UNL     1      17.942  62.851  23.658  1.00  0.00     0.039 C 
ATOM      9  C   UNL     1      15.201  62.623  22.544  1.00  0.00     0.159 C 
ATOM     10  O   UNL     1      15.154  63.095  23.711  1.00  0.00    -0.295 OA
ATOM     11  C   UNL     1      14.108  62.982  21.579  1.00  0.00     0.084 C 
ENDROOT
TORSDOF 0
ENDMDL
MODEL 8
REMARK VINA RESULT:    -3.960     15.183     16.097
REMARK INTER + INTRA:          -3.960
REMARK INTER:                  -3.960
REMARK INTRA:                   0.000
REMARK UNBOUND:                 0.000
REMARK SMILES CC(C)=C1CC[C@H](C)CC1=O
REMARK SMILES IDX 8 1 7 2 6 3 5 4 4 5 2 6 1 7 3 8 10 9 11 10 9 11
REMARK H PARENT
REMARK Flexibility Score: inf
ROOT
ATOM      1  C   UNL     1      18.403  60.060  22.329  1.00  0.00     0.008 C 
ATOM      2  C   UNL     1      17.362  61.146  22.029  1.00  0.00    -0.006 C 
ATOM      3  C   UNL     1      16.456  60.720  20.865  1.00  0.00     0.008 C 
ATOM      4  C   UNL     1      15.474  61.836  20.484  1.00  0.00     0.039 C 
ATOM      5  C   UNL     1      14.685  62.352  21.680  1.00  0.00    -0.006 C 
ATOM      6  C   UNL     1      13.408  62.816  21.541  1.00  0.00    -0.070 C 
ATOM      7  C   UNL     1      12.730  62.851  20.191  1.00  0.00     0.039 C 
ATOM      8  C   UNL     1      12.595  63.277  22.729  1.00  0.00     0.039 C 
ATOM      9  C   UNL     1      15.429  62.428  22.972  1.00  0.00     0.159 C 
ATOM     10  O   UNL     1      15.171  63.320  23.825  1.00  0.00    -0.295 OA
ATOM     11  C   UNL     1      16.513  61.435  23.276  1.00  0.00     0.084 C 
ENDROOT
TORSDOF 0
ENDMDL
MODEL 9
REMARK VINA RESULT:    -3.869     15.199     16.429
REMARK INTER + INTRA:          -3.869
REMARK INTER:                  -3.869
REMARK INTRA:                   0.000
REMARK UNBOUND:                 0.000
REMARK SMILES CC(C)=C1CC[C@H](C)CC1=O
REMARK SMILES IDX 8 1 7 2 6 3 5 4 4 5 2 6 1 7 3 8 10 9 11 10 9 11
REMARK H PARENT
REMARK Flexibility Score: inf
ROOT
ATOM      1  C   UNL     1      11.822  64.408  23.787  1.00  0.00     0.008 C 
ATOM      2  C   UNL     1      12.699  63.266  23.259  1.00  0.00    -0.006 C 
ATOM      3  C   UNL     1      12.911  63.403  21.744  1.00  0.00     0.008 C 
ATOM      4  C   UNL     1      13.701  62.214  21.181  1.00  0.00     0.039 C 
ATOM      5  C   UNL     1      15.002  61.969  21.934  1.00  0.00    -0.006 C 
ATOM      6  C   UNL     1      16.103  61.465  21.302  1.00  0.00    -0.070 C 
ATOM      7  C   UNL     1      16.071  61.114  19.833  1.00  0.00     0.039 C 
ATOM      8  C   UNL     1      17.416  61.271  22.025  1.00  0.00     0.039 C 
ATOM      9  C   UNL     1      14.959  62.199  23.409  1.00  0.00     0.159 C 
ATOM     10  O   UNL     1      15.668  61.519  24.199  1.00  0.00    -0.295 OA
ATOM     11  C   UNL     1      14.055  63.253  23.980  1.00  0.00     0.084 C 
ENDROOT
TORSDOF 0
ENDMDL
