MODEL 1
REMARK VINA RESULT:     3.717      0.000      0.000
REMARK INTER + INTRA:           6.050
REMARK INTER:                   5.020
REMARK INTRA:                   1.029
REMARK UNBOUND:                 1.029
REMARK SMILES C=C1CCC=C(C)CC[C@@H]2[C@H]1CC2(C)C
REMARK SMILES IDX 11 1 12 2 13 3 10 4 14 5 15 6 9 7 8 8 6 9 7 10 5 11 2 13
REMARK SMILES IDX 1 14 3 15 4 16
REMARK H PARENT
REMARK Flexibility Score: 70.00
ROOT
ATOM      1  C   UNL     1     -15.704  -1.763  18.909  1.00  0.00     0.018 C 
ATOM      2  C   UNL     1     -15.280  -1.136  20.254  1.00  0.00     0.015 C 
ATOM      3  C   UNL     1     -14.108  -2.121  20.374  1.00  0.00    -0.031 C 
ATOM      4  C   UNL     1     -14.462  -2.689  18.974  1.00  0.00     0.002 C 
ATOM      5  C   UNL     1     -12.746  -1.419  20.554  1.00  0.00     0.011 C 
ATOM      6  C   UNL     1     -14.336  -3.159  21.493  1.00  0.00     0.011 C 
ENDROOT
BRANCH   4   7
ATOM      7  C   UNL     1     -13.361  -2.693  17.881  1.00  0.00     0.009 C 
BRANCH   7   8
ATOM      8  C   UNL     1     -13.771  -2.418  16.418  1.00  0.00     0.030 C 
BRANCH   8   9
ATOM      9  C   UNL     1     -14.809  -3.424  15.968  1.00  0.00    -0.077 C 
ATOM     10  C   UNL     1     -14.474  -4.892  16.036  1.00  0.00     0.039 C 
ATOM     11  C   UNL     1     -16.061  -3.063  15.617  1.00  0.00    -0.028 CG0
ATOM     12  G   UNL     1     -16.528  -1.639  15.453  1.00  0.00     0.000 G0
ENDBRANCH   8   9
ENDBRANCH   7   8
ENDBRANCH   4   7
BRANCH   1  13
ATOM     13  C   UNL     1     -15.934  -0.777  17.765  1.00  0.00    -0.074 C 
ATOM     14  C   UNL     1     -15.385   0.454  17.831  1.00  0.00     0.008 C 
BRANCH  13  15
ATOM     15  C   UNL     1     -17.041  -0.991  16.749  1.00  0.00     0.035 C 
BRANCH  15  16
ATOM     16  C   UNL     1     -16.522  -1.640  15.445  1.00  0.00     0.032 CG0
ATOM     17  G   UNL     1     -16.067  -3.067  15.618  1.00  0.00     0.000 G0
ENDBRANCH  15  16
ENDBRANCH  13  15
ENDBRANCH   1  13
TORSDOF 0
ENDMDL
MODEL 2
REMARK VINA RESULT:     4.623      1.112      3.034
REMARK INTER + INTRA:           7.274
REMARK INTER:                   6.440
REMARK INTRA:                   0.834
REMARK UNBOUND:                 1.029
REMARK SMILES C=C1CCC=C(C)CC[C@@H]2[C@H]1CC2(C)C
REMARK SMILES IDX 11 1 12 2 13 3 10 4 14 5 15 6 9 7 8 8 6 9 7 10 5 11 2 13
REMARK SMILES IDX 1 14 3 15 4 16
REMARK H PARENT
REMARK Flexibility Score: 70.00
ROOT
ATOM      1  C   UNL     1     -13.301  -2.374  18.759  1.00  0.00     0.018 C 
ATOM      2  C   UNL     1     -13.385  -3.292  19.997  1.00  0.00     0.015 C 
ATOM      3  C   UNL     1     -14.054  -2.176  20.812  1.00  0.00    -0.031 C 
ATOM      4  C   UNL     1     -14.071  -1.281  19.544  1.00  0.00     0.002 C 
ATOM      5  C   UNL     1     -15.406  -2.603  21.421  1.00  0.00     0.011 C 
ATOM      6  C   UNL     1     -13.120  -1.614  21.903  1.00  0.00     0.011 C 
ENDROOT
BRANCH   4   7
ATOM      7  C   UNL     1     -15.431  -0.706  19.066  1.00  0.00     0.009 C 
BRANCH   7   8
ATOM      8  C   UNL     1     -15.481   0.054  17.723  1.00  0.00     0.030 C 
BRANCH   8   9
ATOM      9  C   UNL     1     -16.749  -0.296  16.972  1.00  0.00    -0.077 C 
ATOM     10  C   UNL     1     -17.948   0.607  17.113  1.00  0.00     0.039 C 
ATOM     11  C   UNL     1     -16.812  -1.318  16.094  1.00  0.00    -0.028 CG0
ATOM     12  G   UNL     1     -15.718  -2.335  15.884  1.00  0.00     0.000 G0
ENDBRANCH   8   9
ENDBRANCH   7   8
ENDBRANCH   4   7
BRANCH   1  13
ATOM     13  C   UNL     1     -13.828  -2.974  17.457  1.00  0.00    -0.074 C 
ATOM     14  C   UNL     1     -12.994  -3.111  16.405  1.00  0.00     0.008 C 
BRANCH  13  15
ATOM     15  C   UNL     1     -15.317  -3.080  17.182  1.00  0.00     0.035 C 
BRANCH  15  16
ATOM     16  C   UNL     1     -15.727  -2.340  15.887  1.00  0.00     0.032 CG0
ATOM     17  G   UNL     1     -16.809  -1.311  16.095  1.00  0.00     0.000 G0
ENDBRANCH  15  16
ENDBRANCH  13  15
ENDBRANCH   1  13
TORSDOF 0
ENDMDL
MODEL 3
REMARK VINA RESULT:     5.097      1.990      4.425
REMARK INTER + INTRA:           7.914
REMARK INTER:                   6.270
REMARK INTRA:                   1.644
REMARK UNBOUND:                 1.029
REMARK SMILES C=C1CCC=C(C)CC[C@@H]2[C@H]1CC2(C)C
REMARK SMILES IDX 11 1 12 2 13 3 10 4 14 5 15 6 9 7 8 8 6 9 7 10 5 11 2 13
REMARK SMILES IDX 1 14 3 15 4 16
REMARK H PARENT
REMARK Flexibility Score: 70.00
ROOT
ATOM      1  C   UNL     1     -14.811  -1.299  16.662  1.00  0.00     0.018 C 
ATOM      2  C   UNL     1     -15.073  -2.228  15.459  1.00  0.00     0.015 C 
ATOM      3  C   UNL     1     -13.894  -3.126  15.861  1.00  0.00    -0.031 C 
ATOM      4  C   UNL     1     -13.687  -2.259  17.131  1.00  0.00     0.002 C 
ATOM      5  C   UNL     1     -14.297  -4.604  16.044  1.00  0.00     0.011 C 
ATOM      6  C   UNL     1     -12.711  -3.003  14.879  1.00  0.00     0.011 C 
ENDROOT
BRANCH   4   7
ATOM      7  C   UNL     1     -13.709  -2.962  18.514  1.00  0.00     0.009 C 
BRANCH   7   8
ATOM      8  C   UNL     1     -12.854  -2.372  19.657  1.00  0.00     0.030 C 
BRANCH   8   9
ATOM      9  C   UNL     1     -13.648  -2.352  20.946  1.00  0.00    -0.077 C 
ATOM     10  C   UNL     1     -12.905  -2.377  22.257  1.00  0.00     0.039 C 
ATOM     11  C   UNL     1     -14.988  -2.196  20.968  1.00  0.00    -0.028 CG0
ATOM     12  G   UNL     1     -15.872  -2.207  19.746  1.00  0.00     0.000 G0
ENDBRANCH   8   9
ENDBRANCH   7   8
ENDBRANCH   4   7
BRANCH   1  13
ATOM     13  C   UNL     1     -16.030  -0.977  17.525  1.00  0.00    -0.074 C 
ATOM     14  C   UNL     1     -17.147  -0.496  16.941  1.00  0.00     0.008 C 
BRANCH  13  15
ATOM     15  C   UNL     1     -15.913  -0.830  19.031  1.00  0.00     0.035 C 
BRANCH  15  16
ATOM     16  C   UNL     1     -15.871  -2.197  19.753  1.00  0.00     0.032 CG0
ATOM     17  G   UNL     1     -14.980  -2.212  20.969  1.00  0.00     0.000 G0
ENDBRANCH  15  16
ENDBRANCH  13  15
ENDBRANCH   1  13
TORSDOF 0
ENDMDL
MODEL 4
REMARK VINA RESULT:     5.740      1.689      3.722
REMARK INTER + INTRA:           8.783
REMARK INTER:                   8.705
REMARK INTRA:                   0.078
REMARK UNBOUND:                 1.029
REMARK SMILES C=C1CCC=C(C)CC[C@@H]2[C@H]1CC2(C)C
REMARK SMILES IDX 11 1 12 2 13 3 10 4 14 5 15 6 9 7 8 8 6 9 7 10 5 11 2 13
REMARK SMILES IDX 1 14 3 15 4 16
REMARK H PARENT
REMARK Flexibility Score: 70.00
ROOT
ATOM      1  C   UNL     1     -14.583  -1.185  17.406  1.00  0.00     0.018 C 
ATOM      2  C   UNL     1     -15.483  -0.259  18.250  1.00  0.00     0.015 C 
ATOM      3  C   UNL     1     -16.631  -0.412  17.241  1.00  0.00    -0.031 C 
ATOM      4  C   UNL     1     -15.773  -1.426  16.441  1.00  0.00     0.002 C 
ATOM      5  C   UNL     1     -17.939  -0.914  17.889  1.00  0.00     0.011 C 
ATOM      6  C   UNL     1     -16.882   0.886  16.447  1.00  0.00     0.011 C 
ENDROOT
BRANCH   4   7
ATOM      7  C   UNL     1     -16.360  -2.837  16.171  1.00  0.00     0.009 C 
BRANCH   7   8
ATOM      8  C   UNL     1     -15.879  -3.612  14.925  1.00  0.00     0.030 C 
BRANCH   8   9
ATOM      9  C   UNL     1     -15.045  -4.805  15.342  1.00  0.00    -0.077 C 
ATOM     10  C   UNL     1     -15.618  -6.188  15.170  1.00  0.00     0.039 C 
ATOM     11  C   UNL     1     -13.765  -4.684  15.753  1.00  0.00    -0.028 CG0
ATOM     12  G   UNL     1     -13.072  -3.372  16.023  1.00  0.00     0.000 G0
ENDBRANCH   8   9
ENDBRANCH   7   8
ENDBRANCH   4   7
BRANCH   1  13
ATOM     13  C   UNL     1     -13.902  -2.319  18.171  1.00  0.00    -0.074 C 
ATOM     14  C   UNL     1     -14.033  -2.385  19.512  1.00  0.00     0.008 C 
BRANCH  13  15
ATOM     15  C   UNL     1     -12.799  -3.146  17.538  1.00  0.00     0.035 C 
BRANCH  15  16
ATOM     16  C   UNL     1     -13.045  -3.397  16.031  1.00  0.00     0.032 CG0
ATOM     17  G   UNL     1     -13.774  -4.686  15.744  1.00  0.00     0.000 G0
ENDBRANCH  15  16
ENDBRANCH  13  15
ENDBRANCH   1  13
TORSDOF 0
ENDMDL
MODEL 5
REMARK VINA RESULT:     5.944      1.778      4.408
REMARK INTER + INTRA:           9.058
REMARK INTER:                   8.291
REMARK INTRA:                   0.767
REMARK UNBOUND:                 1.029
REMARK SMILES C=C1CCC=C(C)CC[C@@H]2[C@H]1CC2(C)C
REMARK SMILES IDX 11 1 12 2 13 3 10 4 14 5 15 6 9 7 8 8 6 9 7 10 5 11 2 13
REMARK SMILES IDX 1 14 3 15 4 16
REMARK H PARENT
REMARK Flexibility Score: 70.00
ROOT
ATOM      1  C   UNL     1     -16.403  -1.665  16.648  1.00  0.00     0.018 C 
ATOM      2  C   UNL     1     -16.563  -0.307  15.933  1.00  0.00     0.015 C 
ATOM      3  C   UNL     1     -16.773   0.405  17.277  1.00  0.00    -0.031 C 
ATOM      4  C   UNL     1     -16.510  -0.935  18.012  1.00  0.00     0.002 C 
ATOM      5  C   UNL     1     -15.785   1.569  17.504  1.00  0.00     0.011 C 
ATOM      6  C   UNL     1     -18.228   0.886  17.457  1.00  0.00     0.011 C 
ENDROOT
BRANCH   4   7
ATOM      7  C   UNL     1     -15.383  -0.982  19.078  1.00  0.00     0.009 C 
BRANCH   7   8
ATOM      8  C   UNL     1     -15.016  -2.344  19.706  1.00  0.00     0.030 C 
BRANCH   8   9
ATOM      9  C   UNL     1     -13.516  -2.446  19.891  1.00  0.00    -0.077 C 
ATOM     10  C   UNL     1     -12.926  -2.109  21.236  1.00  0.00     0.039 C 
ATOM     11  C   UNL     1     -12.701  -2.937  18.934  1.00  0.00    -0.028 CG0
ATOM     12  G   UNL     1     -13.133  -3.267  17.527  1.00  0.00     0.000 G0
ENDBRANCH   8   9
ENDBRANCH   7   8
ENDBRANCH   4   7
BRANCH   1  13
ATOM     13  C   UNL     1     -15.175  -2.481  16.247  1.00  0.00    -0.074 C 
ATOM     14  C   UNL     1     -15.341  -3.711  15.718  1.00  0.00     0.008 C 
BRANCH  13  15
ATOM     15  C   UNL     1     -13.790  -2.122  16.753  1.00  0.00     0.035 C 
BRANCH  15  16
ATOM     16  C   UNL     1     -13.119  -3.294  17.507  1.00  0.00     0.032 CG0
ATOM     17  G   UNL     1     -12.669  -2.937  18.901  1.00  0.00     0.000 G0
ENDBRANCH  15  16
ENDBRANCH  13  15
ENDBRANCH   1  13
TORSDOF 0
ENDMDL
MODEL 6
REMARK VINA RESULT:     6.255      2.317      5.074
REMARK INTER + INTRA:           9.478
REMARK INTER:                   8.001
REMARK INTRA:                   1.477
REMARK UNBOUND:                 1.029
REMARK SMILES C=C1CCC=C(C)CC[C@@H]2[C@H]1CC2(C)C
REMARK SMILES IDX 11 1 12 2 13 3 10 4 14 5 15 6 9 7 8 8 6 9 7 10 5 11 2 13
REMARK SMILES IDX 1 14 3 15 4 16
REMARK H PARENT
REMARK Flexibility Score: 70.00
ROOT
ATOM      1  C   UNL     1     -15.018  -2.388  17.199  1.00  0.00     0.018 C 
ATOM      2  C   UNL     1     -15.208  -1.231  16.196  1.00  0.00     0.015 C 
ATOM      3  C   UNL     1     -16.163  -0.515  17.162  1.00  0.00    -0.031 C 
ATOM      4  C   UNL     1     -15.897  -1.619  18.219  1.00  0.00     0.002 C 
ATOM      5  C   UNL     1     -15.722   0.928  17.487  1.00  0.00     0.011 C 
ATOM      6  C   UNL     1     -17.621  -0.537  16.658  1.00  0.00     0.011 C 
ENDROOT
BRANCH   4   7
ATOM      7  C   UNL     1     -15.379  -1.190  19.617  1.00  0.00     0.009 C 
BRANCH   7   8
ATOM      8  C   UNL     1     -15.294  -2.254  20.733  1.00  0.00     0.030 C 
BRANCH   8   9
ATOM      9  C   UNL     1     -14.090  -1.994  21.614  1.00  0.00    -0.077 C 
ATOM     10  C   UNL     1     -14.290  -1.886  23.103  1.00  0.00     0.039 C 
ATOM     11  C   UNL     1     -12.831  -1.969  21.128  1.00  0.00    -0.028 CG0
ATOM     12  G   UNL     1     -12.477  -2.011  19.663  1.00  0.00     0.000 G0
ENDBRANCH   8   9
ENDBRANCH   7   8
ENDBRANCH   4   7
BRANCH   1  13
ATOM     13  C   UNL     1     -13.570  -2.775  17.491  1.00  0.00    -0.074 C 
ATOM     14  C   UNL     1     -12.749  -3.092  16.469  1.00  0.00     0.008 C 
BRANCH  13  15
ATOM     15  C   UNL     1     -13.126  -3.171  18.888  1.00  0.00     0.035 C 
BRANCH  15  16
ATOM     16  C   UNL     1     -12.500  -1.987  19.662  1.00  0.00     0.032 CG0
ATOM     17  G   UNL     1     -12.851  -1.971  21.128  1.00  0.00     0.000 G0
ENDBRANCH  15  16
ENDBRANCH  13  15
ENDBRANCH   1  13
TORSDOF 0
ENDMDL
