MODEL 1
REMARK VINA RESULT:    -2.996      0.000      0.000
REMARK INTER + INTRA:          -4.709
REMARK INTER:                  -4.573
REMARK INTRA:                  -0.136
REMARK UNBOUND:                -0.136
REMARK SMILES CC1=CCC[C@H](C)C(=O)C[C@@H](C(C)C)C(=O)C1
REMARK SMILES IDX 8 1 9 2 6 3 7 4 5 5 4 6 3 7 2 8 1 9 10 11 11 12 15 13 16 14
REMARK SMILES IDX 17 15 12 17 13 18 14 19
REMARK H PARENT
REMARK Flexibility Score: 70.00
ROOT
ATOM      1  C   UNL     1      -5.337  29.244  46.127  1.00  0.00     0.136 C 
ATOM      2  O   UNL     1      -5.025  28.344  46.897  1.00  0.00    -0.299 OA
ENDROOT
BRANCH   1   3
ATOM      3  C   UNL     1      -6.242  28.950  44.936  1.00  0.00     0.053 C 
ATOM      4  C   UNL     1      -5.617  27.935  43.965  1.00  0.00     0.016 C 
BRANCH   3   5
ATOM      5  C   UNL     1      -7.655  28.502  45.371  1.00  0.00     0.015 C 
BRANCH   5   6
ATOM      6  C   UNL     1      -8.683  29.649  45.382  1.00  0.00     0.028 C 
BRANCH   6   7
ATOM      7  C   UNL     1      -8.618  30.505  44.142  1.00  0.00    -0.028 C 
ATOM      8  C   UNL     1      -8.343  31.833  44.105  1.00  0.00    -0.070 CG0
ATOM      9  C   UNL     1      -8.440  32.521  42.764  1.00  0.00     0.039 C 
ATOM     10  G   UNL     1      -7.883  32.652  45.309  1.00  0.00     0.000 G0
ENDBRANCH   6   7
ENDBRANCH   5   6
ENDBRANCH   3   5
ENDBRANCH   1   3
BRANCH   1  11
ATOM     11  C   UNL     1      -4.782  30.629  46.361  1.00  0.00     0.087 C 
BRANCH  11  12
ATOM     12  C   UNL     1      -5.874  31.653  46.782  1.00  0.00     0.066 C 
BRANCH  12  13
ATOM     13  C   UNL     1      -6.391  32.507  45.629  1.00  0.00     0.140 C 
ATOM     14  O   UNL     1      -5.580  33.000  44.858  1.00  0.00    -0.299 OA
BRANCH  13  15
ATOM     15  C   UNL     1      -7.862  32.641  45.309  1.00  0.00     0.106 CG0
ATOM     16  G   UNL     1      -8.320  31.822  44.105  1.00  0.00     0.000 G0
ENDBRANCH  13  15
ENDBRANCH  12  13
BRANCH  12  17
ATOM     17  C   UNL     1      -5.466  32.539  48.004  1.00  0.00    -0.006 C 
ATOM     18  C   UNL     1      -4.025  33.058  47.868  1.00  0.00     0.008 C 
ATOM     19  C   UNL     1      -6.415  33.721  48.273  1.00  0.00     0.008 C 
ENDBRANCH  12  17
ENDBRANCH  11  12
ENDBRANCH   1  11
TORSDOF 1
ENDMDL
MODEL 2
REMARK VINA RESULT:    -2.943      3.368      5.318
REMARK INTER + INTRA:          -4.627
REMARK INTER:                  -4.319
REMARK INTRA:                  -0.308
REMARK UNBOUND:                -0.136
REMARK SMILES CC1=CCC[C@H](C)C(=O)C[C@@H](C(C)C)C(=O)C1
REMARK SMILES IDX 8 1 9 2 6 3 7 4 5 5 4 6 3 7 2 8 1 9 10 11 11 12 15 13 16 14
REMARK SMILES IDX 17 15 12 17 13 18 14 19
REMARK H PARENT
REMARK Flexibility Score: 70.00
ROOT
ATOM      1  C   UNL     1      -8.700  28.413  44.461  1.00  0.00     0.136 C 
ATOM      2  O   UNL     1      -9.140  29.548  44.586  1.00  0.00    -0.299 OA
ENDROOT
BRANCH   1   3
ATOM      3  C   UNL     1      -9.038  27.595  43.220  1.00  0.00     0.053 C 
ATOM      4  C   UNL     1     -10.554  27.470  42.999  1.00  0.00     0.016 C 
BRANCH   3   5
ATOM      5  C   UNL     1      -8.337  28.136  41.954  1.00  0.00     0.015 C 
BRANCH   5   6
ATOM      6  C   UNL     1      -6.818  27.886  41.943  1.00  0.00     0.028 C 
BRANCH   6   7
ATOM      7  C   UNL     1      -6.462  26.433  42.136  1.00  0.00    -0.028 C 
ATOM      8  C   UNL     1      -5.490  25.953  42.952  1.00  0.00    -0.070 CG0
ATOM      9  C   UNL     1      -5.225  24.467  42.909  1.00  0.00     0.039 C 
ATOM     10  G   UNL     1      -4.701  26.802  43.946  1.00  0.00     0.000 G0
ENDBRANCH   6   7
ENDBRANCH   5   6
ENDBRANCH   3   5
ENDBRANCH   1   3
BRANCH   1  11
ATOM     11  C   UNL     1      -7.855  27.833  45.570  1.00  0.00     0.087 C 
BRANCH  11  12
ATOM     12  C   UNL     1      -6.360  28.248  45.469  1.00  0.00     0.066 C 
BRANCH  12  13
ATOM     13  C   UNL     1      -5.408  27.072  45.271  1.00  0.00     0.140 C 
ATOM     14  O   UNL     1      -5.315  26.241  46.163  1.00  0.00    -0.299 OA
BRANCH  13  15
ATOM     15  C   UNL     1      -4.695  26.811  43.964  1.00  0.00     0.106 CG0
ATOM     16  G   UNL     1      -5.485  25.953  42.979  1.00  0.00     0.000 G0
ENDBRANCH  13  15
ENDBRANCH  12  13
BRANCH  12  17
ATOM     17  C   UNL     1      -5.884  29.171  46.639  1.00  0.00    -0.006 C 
ATOM     18  C   UNL     1      -4.630  29.971  46.251  1.00  0.00     0.008 C 
ATOM     19  C   UNL     1      -6.965  30.133  47.165  1.00  0.00     0.008 C 
ENDBRANCH  12  17
ENDBRANCH  11  12
ENDBRANCH   1  11
TORSDOF 1
ENDMDL
MODEL 3
REMARK VINA RESULT:    -2.801      2.727      4.350
REMARK INTER + INTRA:          -4.411
REMARK INTER:                  -4.028
REMARK INTRA:                  -0.383
REMARK UNBOUND:                -0.136
REMARK SMILES CC1=CCC[C@H](C)C(=O)C[C@@H](C(C)C)C(=O)C1
REMARK SMILES IDX 8 1 9 2 6 3 7 4 5 5 4 6 3 7 2 8 1 9 10 11 11 12 15 13 16 14
REMARK SMILES IDX 17 15 12 17 13 18 14 19
REMARK H PARENT
REMARK Flexibility Score: 70.00
ROOT
ATOM      1  C   UNL     1      -8.281  29.121  45.348  1.00  0.00     0.136 C 
ATOM      2  O   UNL     1      -9.017  30.020  45.733  1.00  0.00    -0.299 OA
ENDROOT
BRANCH   1   3
ATOM      3  C   UNL     1      -8.661  28.292  44.127  1.00  0.00     0.053 C 
ATOM      4  C   UNL     1     -10.068  27.685  44.250  1.00  0.00     0.016 C 
BRANCH   3   5
ATOM      5  C   UNL     1      -8.515  29.089  42.811  1.00  0.00     0.015 C 
BRANCH   5   6
ATOM      6  C   UNL     1      -7.136  28.920  42.146  1.00  0.00     0.028 C 
BRANCH   6   7
ATOM      7  C   UNL     1      -6.538  27.554  42.375  1.00  0.00    -0.028 C 
ATOM      8  C   UNL     1      -5.328  27.298  42.932  1.00  0.00    -0.070 CG0
ATOM      9  C   UNL     1      -4.874  25.858  42.964  1.00  0.00     0.039 C 
ATOM     10  G   UNL     1      -4.436  28.355  43.579  1.00  0.00     0.000 G0
ENDBRANCH   6   7
ENDBRANCH   5   6
ENDBRANCH   3   5
ENDBRANCH   1   3
BRANCH   1  11
ATOM     11  C   UNL     1      -7.019  28.829  46.125  1.00  0.00     0.087 C 
BRANCH  11  12
ATOM     12  C   UNL     1      -5.771  29.553  45.543  1.00  0.00     0.066 C 
BRANCH  12  13
ATOM     13  C   UNL     1      -4.688  28.601  45.043  1.00  0.00     0.140 C 
ATOM     14  O   UNL     1      -4.094  27.913  45.861  1.00  0.00    -0.299 OA
BRANCH  13  15
ATOM     15  C   UNL     1      -4.426  28.363  43.575  1.00  0.00     0.106 CG0
ATOM     16  G   UNL     1      -5.332  27.312  42.938  1.00  0.00     0.000 G0
ENDBRANCH  13  15
ENDBRANCH  12  13
BRANCH  12  17
ATOM     17  C   UNL     1      -5.175  30.641  46.494  1.00  0.00    -0.006 C 
ATOM     18  C   UNL     1      -4.311  31.653  45.722  1.00  0.00     0.008 C 
ATOM     19  C   UNL     1      -6.225  31.394  47.330  1.00  0.00     0.008 C 
ENDBRANCH  12  17
ENDBRANCH  11  12
ENDBRANCH   1  11
TORSDOF 1
ENDMDL
MODEL 4
REMARK VINA RESULT:    -2.800      2.144      4.546
REMARK INTER + INTRA:          -4.410
REMARK INTER:                  -4.422
REMARK INTRA:                   0.013
REMARK UNBOUND:                -0.136
REMARK SMILES CC1=CCC[C@H](C)C(=O)C[C@@H](C(C)C)C(=O)C1
REMARK SMILES IDX 8 1 9 2 6 3 7 4 5 5 4 6 3 7 2 8 1 9 10 11 11 12 15 13 16 14
REMARK SMILES IDX 17 15 12 17 13 18 14 19
REMARK H PARENT
REMARK Flexibility Score: 70.00
ROOT
ATOM      1  C   UNL     1      -6.746  26.841  44.453  1.00  0.00     0.136 C 
ATOM      2  O   UNL     1      -6.840  26.231  43.396  1.00  0.00    -0.299 OA
ENDROOT
BRANCH   1   3
ATOM      3  C   UNL     1      -5.523  26.645  45.341  1.00  0.00     0.053 C 
ATOM      4  C   UNL     1      -4.213  26.640  44.536  1.00  0.00     0.016 C 
BRANCH   3   5
ATOM      5  C   UNL     1      -5.462  27.676  46.490  1.00  0.00     0.015 C 
BRANCH   5   6
ATOM      6  C   UNL     1      -4.683  28.953  46.124  1.00  0.00     0.028 C 
BRANCH   6   7
ATOM      7  C   UNL     1      -5.108  30.151  46.935  1.00  0.00    -0.028 C 
ATOM      8  C   UNL     1      -5.878  31.178  46.496  1.00  0.00    -0.070 CG0
ATOM      9  C   UNL     1      -6.091  32.335  47.442  1.00  0.00     0.039 C 
ATOM     10  G   UNL     1      -6.588  31.206  45.144  1.00  0.00     0.000 G0
ENDBRANCH   6   7
ENDBRANCH   5   6
ENDBRANCH   3   5
ENDBRANCH   1   3
BRANCH   1  11
ATOM     11  C   UNL     1      -7.874  27.754  44.871  1.00  0.00     0.087 C 
BRANCH  11  12
ATOM     12  C   UNL     1      -7.853  29.119  44.127  1.00  0.00     0.066 C 
BRANCH  12  13
ATOM     13  C   UNL     1      -7.808  30.326  45.060  1.00  0.00     0.140 C 
ATOM     14  O   UNL     1      -8.729  30.489  45.847  1.00  0.00    -0.299 OA
BRANCH  13  15
ATOM     15  C   UNL     1      -6.606  31.236  45.157  1.00  0.00     0.106 CG0
ATOM     16  G   UNL     1      -5.867  31.160  46.491  1.00  0.00     0.000 G0
ENDBRANCH  13  15
ENDBRANCH  12  13
BRANCH  12  17
ATOM     17  C   UNL     1      -8.986  29.270  43.060  1.00  0.00    -0.006 C 
ATOM     18  C   UNL     1      -8.664  30.384  42.050  1.00  0.00     0.008 C 
ATOM     19  C   UNL     1      -9.320  27.971  42.304  1.00  0.00     0.008 C 
ENDBRANCH  12  17
ENDBRANCH  11  12
ENDBRANCH   1  11
TORSDOF 1
ENDMDL
MODEL 5
REMARK VINA RESULT:    -2.776      1.611      4.049
REMARK INTER + INTRA:          -4.372
REMARK INTER:                  -4.382
REMARK INTRA:                   0.010
REMARK UNBOUND:                -0.136
REMARK SMILES CC1=CCC[C@H](C)C(=O)C[C@@H](C(C)C)C(=O)C1
REMARK SMILES IDX 8 1 9 2 6 3 7 4 5 5 4 6 3 7 2 8 1 9 10 11 11 12 15 13 16 14
REMARK SMILES IDX 17 15 12 17 13 18 14 19
REMARK H PARENT
REMARK Flexibility Score: 70.00
ROOT
ATOM      1  C   UNL     1      -5.905  30.871  46.993  1.00  0.00     0.136 C 
ATOM      2  O   UNL     1      -4.708  30.804  46.747  1.00  0.00    -0.299 OA
ENDROOT
BRANCH   1   3
ATOM      3  C   UNL     1      -6.494  32.152  47.573  1.00  0.00     0.053 C 
ATOM      4  C   UNL     1      -5.457  32.965  48.365  1.00  0.00     0.016 C 
BRANCH   3   5
ATOM      5  C   UNL     1      -7.175  33.024  46.494  1.00  0.00     0.015 C 
BRANCH   5   6
ATOM      6  C   UNL     1      -6.507  32.915  45.111  1.00  0.00     0.028 C 
BRANCH   6   7
ATOM      7  C   UNL     1      -7.503  32.912  43.978  1.00  0.00    -0.028 C 
ATOM      8  C   UNL     1      -8.455  31.971  43.757  1.00  0.00    -0.070 CG0
ATOM      9  C   UNL     1      -9.277  32.104  42.497  1.00  0.00     0.039 C 
ATOM     10  G   UNL     1      -8.787  30.836  44.723  1.00  0.00     0.000 G0
ENDBRANCH   6   7
ENDBRANCH   5   6
ENDBRANCH   3   5
ENDBRANCH   1   3
BRANCH   1  11
ATOM     11  C   UNL     1      -6.769  29.658  46.746  1.00  0.00     0.087 C 
BRANCH  11  12
ATOM     12  C   UNL     1      -6.757  29.201  45.260  1.00  0.00     0.066 C 
BRANCH  12  13
ATOM     13  C   UNL     1      -8.037  29.542  44.502  1.00  0.00     0.140 C 
ATOM     14  O   UNL     1      -8.531  28.688  43.779  1.00  0.00    -0.299 OA
BRANCH  13  15
ATOM     15  C   UNL     1      -8.799  30.827  44.726  1.00  0.00     0.106 CG0
ATOM     16  G   UNL     1      -8.452  31.942  43.743  1.00  0.00     0.000 G0
ENDBRANCH  13  15
ENDBRANCH  12  13
BRANCH  12  17
ATOM     17  C   UNL     1      -6.368  27.698  45.068  1.00  0.00    -0.006 C 
ATOM     18  C   UNL     1      -5.314  27.526  43.962  1.00  0.00     0.008 C 
ATOM     19  C   UNL     1      -5.885  27.001  46.353  1.00  0.00     0.008 C 
ENDBRANCH  12  17
ENDBRANCH  11  12
ENDBRANCH   1  11
TORSDOF 1
ENDMDL
MODEL 6
REMARK VINA RESULT:    -2.748      2.663      5.415
REMARK INTER + INTRA:          -4.329
REMARK INTER:                  -4.352
REMARK INTRA:                   0.023
REMARK UNBOUND:                -0.136
REMARK SMILES CC1=CCC[C@H](C)C(=O)C[C@@H](C(C)C)C(=O)C1
REMARK SMILES IDX 8 1 9 2 6 3 7 4 5 5 4 6 3 7 2 8 1 9 10 11 11 12 15 13 16 14
REMARK SMILES IDX 17 15 12 17 13 18 14 19
REMARK H PARENT
REMARK Flexibility Score: 70.00
ROOT
ATOM      1  C   UNL     1      -6.221  30.967  44.911  1.00  0.00     0.136 C 
ATOM      2  O   UNL     1      -5.219  31.426  44.378  1.00  0.00    -0.299 OA
ENDROOT
BRANCH   1   3
ATOM      3  C   UNL     1      -6.255  30.760  46.421  1.00  0.00     0.053 C 
ATOM      4  C   UNL     1      -7.375  31.569  47.096  1.00  0.00     0.016 C 
BRANCH   3   5
ATOM      5  C   UNL     1      -6.342  29.266  46.805  1.00  0.00     0.015 C 
BRANCH   5   6
ATOM      6  C   UNL     1      -5.010  28.513  46.634  1.00  0.00     0.028 C 
BRANCH   6   7
ATOM      7  C   UNL     1      -5.176  27.171  45.966  1.00  0.00    -0.028 C 
ATOM      8  C   UNL     1      -5.253  26.950  44.630  1.00  0.00    -0.070 CG0
ATOM      9  C   UNL     1      -5.532  25.536  44.179  1.00  0.00     0.039 C 
ATOM     10  G   UNL     1      -5.012  28.017  43.565  1.00  0.00     0.000 G0
ENDBRANCH   6   7
ENDBRANCH   5   6
ENDBRANCH   3   5
ENDBRANCH   1   3
BRANCH   1  11
ATOM     11  C   UNL     1      -7.396  30.581  44.045  1.00  0.00     0.087 C 
BRANCH  11  12
ATOM     12  C   UNL     1      -7.457  29.054  43.757  1.00  0.00     0.066 C 
BRANCH  12  13
ATOM     13  C   UNL     1      -6.287  28.539  42.924  1.00  0.00     0.140 C 
ATOM     14  O   UNL     1      -6.328  28.684  41.710  1.00  0.00    -0.299 OA
BRANCH  13  15
ATOM     15  C   UNL     1      -5.019  28.001  43.544  1.00  0.00     0.106 CG0
ATOM     16  G   UNL     1      -5.246  26.949  44.626  1.00  0.00     0.000 G0
ENDBRANCH  13  15
ENDBRANCH  12  13
BRANCH  12  17
ATOM     17  C   UNL     1      -8.825  28.580  43.166  1.00  0.00    -0.006 C 
ATOM     18  C   UNL     1      -9.733  27.984  44.255  1.00  0.00     0.008 C 
ATOM     19  C   UNL     1      -9.593  29.670  42.397  1.00  0.00     0.008 C 
ENDBRANCH  12  17
ENDBRANCH  11  12
ENDBRANCH   1  11
TORSDOF 1
ENDMDL
MODEL 7
REMARK VINA RESULT:    -2.738      2.204      2.876
REMARK INTER + INTRA:          -4.314
REMARK INTER:                  -4.633
REMARK INTRA:                   0.319
REMARK UNBOUND:                -0.136
REMARK SMILES CC1=CCC[C@H](C)C(=O)C[C@@H](C(C)C)C(=O)C1
REMARK SMILES IDX 8 1 9 2 6 3 7 4 5 5 4 6 3 7 2 8 1 9 10 11 11 12 15 13 16 14
REMARK SMILES IDX 17 15 12 17 13 18 14 19
REMARK H PARENT
REMARK Flexibility Score: 70.00
ROOT
ATOM      1  C   UNL     1      -7.061  29.472  45.955  1.00  0.00     0.136 C 
ATOM      2  O   UNL     1      -7.980  29.722  45.187  1.00  0.00    -0.299 OA
ENDROOT
BRANCH   1   3
ATOM      3  C   UNL     1      -6.181  28.250  45.720  1.00  0.00     0.053 C 
ATOM      4  C   UNL     1      -6.888  26.939  46.101  1.00  0.00     0.016 C 
BRANCH   3   5
ATOM      5  C   UNL     1      -5.641  28.187  44.273  1.00  0.00     0.015 C 
BRANCH   5   6
ATOM      6  C   UNL     1      -4.479  29.164  44.013  1.00  0.00     0.028 C 
BRANCH   6   7
ATOM      7  C   UNL     1      -4.933  30.464  43.397  1.00  0.00    -0.028 C 
ATOM      8  C   UNL     1      -4.787  31.697  43.943  1.00  0.00    -0.070 CG0
ATOM      9  C   UNL     1      -5.415  32.857  43.207  1.00  0.00     0.039 C 
ATOM     10  G   UNL     1      -3.980  31.991  45.206  1.00  0.00     0.000 G0
ENDBRANCH   6   7
ENDBRANCH   5   6
ENDBRANCH   3   5
ENDBRANCH   1   3
BRANCH   1  11
ATOM     11  C   UNL     1      -6.844  30.370  47.150  1.00  0.00     0.087 C 
BRANCH  11  12
ATOM     12  C   UNL     1      -6.104  31.689  46.786  1.00  0.00     0.066 C 
BRANCH  12  13
ATOM     13  C   UNL     1      -4.619  31.498  46.495  1.00  0.00     0.140 C 
ATOM     14  O   UNL     1      -3.957  30.814  47.264  1.00  0.00    -0.299 OA
BRANCH  13  15
ATOM     15  C   UNL     1      -3.968  31.988  45.223  1.00  0.00     0.106 CG0
ATOM     16  G   UNL     1      -4.772  31.704  43.956  1.00  0.00     0.000 G0
ENDBRANCH  13  15
ENDBRANCH  12  13
BRANCH  12  17
ATOM     17  C   UNL     1      -6.336  32.843  47.815  1.00  0.00    -0.006 C 
ATOM     18  C   UNL     1      -5.005  33.422  48.322  1.00  0.00     0.008 C 
ATOM     19  C   UNL     1      -7.228  33.984  47.294  1.00  0.00     0.008 C 
ENDBRANCH  12  17
ENDBRANCH  11  12
ENDBRANCH   1  11
TORSDOF 1
ENDMDL
MODEL 8
REMARK VINA RESULT:    -2.731      1.626      2.005
REMARK INTER + INTRA:          -4.304
REMARK INTER:                  -4.251
REMARK INTRA:                  -0.053
REMARK UNBOUND:                -0.136
REMARK SMILES CC1=CCC[C@H](C)C(=O)C[C@@H](C(C)C)C(=O)C1
REMARK SMILES IDX 8 1 9 2 6 3 7 4 5 5 4 6 3 7 2 8 1 9 10 11 11 12 15 13 16 14
REMARK SMILES IDX 17 15 12 17 13 18 14 19
REMARK H PARENT
REMARK Flexibility Score: 70.00
ROOT
ATOM      1  C   UNL     1      -6.944  30.248  46.713  1.00  0.00     0.136 C 
ATOM      2  O   UNL     1      -8.056  30.295  47.221  1.00  0.00    -0.299 OA
ENDROOT
BRANCH   1   3
ATOM      3  C   UNL     1      -6.662  29.266  45.582  1.00  0.00     0.053 C 
ATOM      4  C   UNL     1      -6.714  27.803  46.053  1.00  0.00     0.016 C 
BRANCH   3   5
ATOM      5  C   UNL     1      -7.590  29.490  44.367  1.00  0.00     0.015 C 
BRANCH   5   6
ATOM      6  C   UNL     1      -7.141  30.652  43.463  1.00  0.00     0.028 C 
BRANCH   6   7
ATOM      7  C   UNL     1      -7.931  31.916  43.696  1.00  0.00    -0.028 C 
ATOM      8  C   UNL     1      -7.422  33.113  44.083  1.00  0.00    -0.070 CG0
ATOM      9  C   UNL     1      -8.407  34.221  44.368  1.00  0.00     0.039 C 
ATOM     10  G   UNL     1      -5.931  33.424  44.184  1.00  0.00     0.000 G0
ENDBRANCH   6   7
ENDBRANCH   5   6
ENDBRANCH   3   5
ENDBRANCH   1   3
BRANCH   1  11
ATOM     11  C   UNL     1      -5.858  31.149  47.252  1.00  0.00     0.087 C 
BRANCH  11  12
ATOM     12  C   UNL     1      -5.976  32.611  46.735  1.00  0.00     0.066 C 
BRANCH  12  13
ATOM     13  C   UNL     1      -5.241  32.858  45.420  1.00  0.00     0.140 C 
ATOM     14  O   UNL     1      -4.089  32.461  45.313  1.00  0.00    -0.299 OA
BRANCH  13  15
ATOM     15  C   UNL     1      -5.923  33.431  44.200  1.00  0.00     0.106 CG0
ATOM     16  G   UNL     1      -7.416  33.123  44.112  1.00  0.00     0.000 G0
ENDBRANCH  13  15
ENDBRANCH  12  13
BRANCH  12  17
ATOM     17  C   UNL     1      -5.601  33.688  47.805  1.00  0.00    -0.006 C 
ATOM     18  C   UNL     1      -6.347  35.010  47.559  1.00  0.00     0.008 C 
ATOM     19  C   UNL     1      -5.820  33.236  49.260  1.00  0.00     0.008 C 
ENDBRANCH  12  17
ENDBRANCH  11  12
ENDBRANCH   1  11
TORSDOF 1
ENDMDL
MODEL 9
REMARK VINA RESULT:    -2.702      1.645      2.174
REMARK INTER + INTRA:          -4.260
REMARK INTER:                  -3.968
REMARK INTRA:                  -0.292
REMARK UNBOUND:                -0.136
REMARK SMILES CC1=CCC[C@H](C)C(=O)C[C@@H](C(C)C)C(=O)C1
REMARK SMILES IDX 8 1 9 2 6 3 7 4 5 5 4 6 3 7 2 8 1 9 10 11 11 12 15 13 16 14
REMARK SMILES IDX 17 15 12 17 13 18 14 19
REMARK H PARENT
REMARK Flexibility Score: 70.00
ROOT
ATOM      1  C   UNL     1      -5.384  28.631  45.621  1.00  0.00     0.136 C 
ATOM      2  O   UNL     1      -5.047  28.420  46.779  1.00  0.00    -0.299 OA
ENDROOT
BRANCH   1   3
ATOM      3  C   UNL     1      -6.109  27.550  44.829  1.00  0.00     0.053 C 
ATOM      4  C   UNL     1      -5.271  26.269  44.686  1.00  0.00     0.016 C 
BRANCH   3   5
ATOM      5  C   UNL     1      -7.506  27.235  45.411  1.00  0.00     0.015 C 
BRANCH   5   6
ATOM      6  C   UNL     1      -8.654  27.921  44.647  1.00  0.00     0.028 C 
BRANCH   6   7
ATOM      7  C   UNL     1      -8.278  28.294  43.235  1.00  0.00    -0.028 C 
ATOM      8  C   UNL     1      -8.170  29.556  42.747  1.00  0.00    -0.070 CG0
ATOM      9  C   UNL     1      -7.891  29.702  41.270  1.00  0.00     0.039 C 
ATOM     10  G   UNL     1      -8.248  30.820  43.599  1.00  0.00     0.000 G0
ENDBRANCH   6   7
ENDBRANCH   5   6
ENDBRANCH   3   5
ENDBRANCH   1   3
BRANCH   1  11
ATOM     11  C   UNL     1      -5.036  29.958  44.991  1.00  0.00     0.087 C 
BRANCH  11  12
ATOM     12  C   UNL     1      -6.130  31.040  45.219  1.00  0.00     0.066 C 
BRANCH  12  13
ATOM     13  C   UNL     1      -6.892  31.418  43.953  1.00  0.00     0.140 C 
ATOM     14  O   UNL     1      -6.336  32.130  43.128  1.00  0.00    -0.299 OA
BRANCH  13  15
ATOM     15  C   UNL     1      -8.239  30.829  43.605  1.00  0.00     0.106 CG0
ATOM     16  G   UNL     1      -8.171  29.566  42.750  1.00  0.00     0.000 G0
ENDBRANCH  13  15
ENDBRANCH  12  13
BRANCH  12  17
ATOM     17  C   UNL     1      -5.611  32.310  45.969  1.00  0.00    -0.006 C 
ATOM     18  C   UNL     1      -6.101  32.345  47.426  1.00  0.00     0.008 C 
ATOM     19  C   UNL     1      -4.081  32.482  45.937  1.00  0.00     0.008 C 
ENDBRANCH  12  17
ENDBRANCH  11  12
ENDBRANCH   1  11
TORSDOF 1
ENDMDL
