MODEL 1
REMARK VINA RESULT:    -3.429      0.000      0.000
REMARK INTER + INTRA:          -6.205
REMARK INTER:                  -5.233
REMARK INTRA:                  -0.971
REMARK UNBOUND:                -0.971
REMARK SMILES CCCCCCCCCCC(=O)[O-]
REMARK SMILES IDX 7 1 8 2 9 3 10 4 11 5 12 6 13 7 6 8 5 9 4 10 3 11 2 12 1 13
REMARK H PARENT
REMARK Flexibility Score: inf
ROOT
ATOM      1  C   UNL     1      63.887  30.693  59.825  1.00  0.00     0.000 C 
ENDROOT
BRANCH   1   2
ATOM      2  C   UNL     1      63.676  30.528  61.341  1.00  0.00     0.000 C 
BRANCH   2   3
ATOM      3  C   UNL     1      62.366  29.798  61.678  1.00  0.00     0.006 C 
BRANCH   3   4
ATOM      4  C   UNL     1      61.173  30.753  61.811  1.00  0.00     0.053 C 
BRANCH   4   5
ATOM      5  C   UNL     1      60.162  30.477  60.743  1.00  0.00     0.041 C 
ATOM      6  O   UNL     1      59.308  29.564  60.900  1.00  0.00    -0.550 OA
ATOM      7  O   UNL     1      60.128  31.259  59.596  1.00  0.00    -0.550 OA
ENDBRANCH   4   5
ENDBRANCH   3   4
ENDBRANCH   2   3
ENDBRANCH   1   2
BRANCH   1   8
ATOM      8  C   UNL     1      63.691  32.144  59.359  1.00  0.00     0.000 C 
BRANCH   8   9
ATOM      9  C   UNL     1      64.454  33.153  60.233  1.00  0.00    -0.000 C 
BRANCH   9  10
ATOM     10  C   UNL     1      63.537  34.225  60.847  1.00  0.00    -0.000 C 
BRANCH  10  11
ATOM     11  C   UNL     1      62.049  34.056  60.473  1.00  0.00    -0.000 C 
BRANCH  11  12
ATOM     12  C   UNL     1      61.329  35.407  60.337  1.00  0.00    -0.003 C 
ATOM     13  C   UNL     1      62.088  36.512  61.065  1.00  0.00     0.004 C 
ENDBRANCH  11  12
ENDBRANCH  10  11
ENDBRANCH   9  10
ENDBRANCH   8   9
ENDBRANCH   1   8
TORSDOF 9
ENDMDL
MODEL 2
REMARK VINA RESULT:    -3.410      3.067      5.138
REMARK INTER + INTRA:          -6.175
REMARK INTER:                  -4.984
REMARK INTRA:                  -1.191
REMARK UNBOUND:                -0.971
REMARK SMILES CCCCCCCCCCC(=O)[O-]
REMARK SMILES IDX 7 1 8 2 9 3 10 4 11 5 12 6 13 7 6 8 5 9 4 10 3 11 2 12 1 13
REMARK H PARENT
REMARK Flexibility Score: inf
ROOT
ATOM      1  C   UNL     1      64.125  32.520  59.269  1.00  0.00     0.000 C 
ENDROOT
BRANCH   1   2
ATOM      2  C   UNL     1      63.254  33.788  59.241  1.00  0.00     0.000 C 
BRANCH   2   3
ATOM      3  C   UNL     1      62.608  34.091  60.603  1.00  0.00     0.006 C 
BRANCH   3   4
ATOM      4  C   UNL     1      62.753  35.562  61.013  1.00  0.00     0.053 C 
BRANCH   4   5
ATOM      5  C   UNL     1      64.198  35.942  61.093  1.00  0.00     0.041 C 
ATOM      6  O   UNL     1      64.638  36.906  60.412  1.00  0.00    -0.550 OA
ATOM      7  O   UNL     1      65.049  35.265  61.958  1.00  0.00    -0.550 OA
ENDBRANCH   4   5
ENDBRANCH   3   4
ENDBRANCH   2   3
ENDBRANCH   1   2
BRANCH   1   8
ATOM      8  C   UNL     1      64.432  32.049  60.700  1.00  0.00     0.000 C 
BRANCH   8   9
ATOM      9  C   UNL     1      64.447  30.517  60.827  1.00  0.00    -0.000 C 
BRANCH   9  10
ATOM     10  C   UNL     1      63.070  29.883  60.569  1.00  0.00    -0.000 C 
BRANCH  10  11
ATOM     11  C   UNL     1      62.139  29.900  61.799  1.00  0.00    -0.000 C 
BRANCH  11  12
ATOM     12  C   UNL     1      61.023  30.947  61.667  1.00  0.00    -0.003 C 
ATOM     13  C   UNL     1      60.447  30.964  60.254  1.00  0.00     0.004 C 
ENDBRANCH  11  12
ENDBRANCH  10  11
ENDBRANCH   9  10
ENDBRANCH   8   9
ENDBRANCH   1   8
TORSDOF 9
ENDMDL
MODEL 3
REMARK VINA RESULT:    -3.309      2.120      4.365
REMARK INTER + INTRA:          -6.021
REMARK INTER:                  -4.895
REMARK INTRA:                  -1.126
REMARK UNBOUND:                -0.971
REMARK SMILES CCCCCCCCCCC(=O)[O-]
REMARK SMILES IDX 7 1 8 2 9 3 10 4 11 5 12 6 13 7 6 8 5 9 4 10 3 11 2 12 1 13
REMARK H PARENT
REMARK Flexibility Score: inf
ROOT
ATOM      1  C   UNL     1      63.959  32.163  59.450  1.00  0.00     0.000 C 
ENDROOT
BRANCH   1   2
ATOM      2  C   UNL     1      64.541  32.913  60.661  1.00  0.00     0.000 C 
BRANCH   2   3
ATOM      3  C   UNL     1      63.808  34.234  60.945  1.00  0.00     0.006 C 
BRANCH   3   4
ATOM      4  C   UNL     1      62.572  34.429  60.055  1.00  0.00     0.053 C 
BRANCH   4   5
ATOM      5  C   UNL     1      61.695  35.507  60.609  1.00  0.00     0.041 C 
ATOM      6  O   UNL     1      60.443  35.426  60.495  1.00  0.00    -0.550 OA
ATOM      7  O   UNL     1      62.255  36.576  61.298  1.00  0.00    -0.550 OA
ENDBRANCH   4   5
ENDBRANCH   3   4
ENDBRANCH   2   3
ENDBRANCH   1   2
BRANCH   1   8
ATOM      8  C   UNL     1      63.674  30.683  59.756  1.00  0.00     0.000 C 
BRANCH   8   9
ATOM      9  C   UNL     1      63.658  30.385  61.264  1.00  0.00    -0.000 C 
BRANCH   9  10
ATOM     10  C   UNL     1      62.286  29.903  61.763  1.00  0.00    -0.000 C 
BRANCH  10  11
ATOM     11  C   UNL     1      61.179  30.974  61.664  1.00  0.00    -0.000 C 
BRANCH  11  12
ATOM     12  C   UNL     1      60.138  30.635  60.586  1.00  0.00    -0.003 C 
ATOM     13  C   UNL     1      60.158  31.662  59.459  1.00  0.00     0.004 C 
ENDBRANCH  11  12
ENDBRANCH  10  11
ENDBRANCH   9  10
ENDBRANCH   8   9
ENDBRANCH   1   8
TORSDOF 9
ENDMDL
MODEL 4
REMARK VINA RESULT:    -3.303     11.478     13.219
REMARK INTER + INTRA:          -6.012
REMARK INTER:                  -5.162
REMARK INTRA:                  -0.851
REMARK UNBOUND:                -0.971
REMARK SMILES CCCCCCCCCCC(=O)[O-]
REMARK SMILES IDX 7 1 8 2 9 3 10 4 11 5 12 6 13 7 6 8 5 9 4 10 3 11 2 12 1 13
REMARK H PARENT
REMARK Flexibility Score: inf
ROOT
ATOM      1  C   UNL     1      58.111  28.916  51.462  1.00  0.00     0.000 C 
ENDROOT
BRANCH   1   2
ATOM      2  C   UNL     1      58.306  29.222  49.967  1.00  0.00     0.000 C 
BRANCH   2   3
ATOM      3  C   UNL     1      59.317  28.275  49.299  1.00  0.00     0.006 C 
BRANCH   3   4
ATOM      4  C   UNL     1      59.170  26.822  49.771  1.00  0.00     0.053 C 
BRANCH   4   5
ATOM      5  C   UNL     1      60.504  26.259  50.149  1.00  0.00     0.041 C 
ATOM      6  O   UNL     1      60.619  25.037  50.429  1.00  0.00    -0.550 OA
ATOM      7  O   UNL     1      61.631  27.072  50.141  1.00  0.00    -0.550 OA
ENDBRANCH   4   5
ENDBRANCH   3   4
ENDBRANCH   2   3
ENDBRANCH   1   2
BRANCH   1   8
ATOM      8  C   UNL     1      56.629  28.902  51.871  1.00  0.00     0.000 C 
BRANCH   8   9
ATOM      9  C   UNL     1      55.686  29.150  50.682  1.00  0.00    -0.000 C 
BRANCH   9  10
ATOM     10  C   UNL     1      54.742  27.967  50.411  1.00  0.00    -0.000 C 
BRANCH  10  11
ATOM     11  C   UNL     1      55.411  26.587  50.587  1.00  0.00    -0.000 C 
BRANCH  11  12
ATOM     12  C   UNL     1      54.793  25.522  49.668  1.00  0.00    -0.003 C 
ATOM     13  C   UNL     1      53.289  25.727  49.521  1.00  0.00     0.004 C 
ENDBRANCH  11  12
ENDBRANCH  10  11
ENDBRANCH   9  10
ENDBRANCH   8   9
ENDBRANCH   1   8
TORSDOF 9
ENDMDL
MODEL 5
REMARK VINA RESULT:    -3.274     11.437     12.497
REMARK INTER + INTRA:          -5.969
REMARK INTER:                  -4.672
REMARK INTRA:                  -1.296
REMARK UNBOUND:                -0.971
REMARK SMILES CCCCCCCCCCC(=O)[O-]
REMARK SMILES IDX 7 1 8 2 9 3 10 4 11 5 12 6 13 7 6 8 5 9 4 10 3 11 2 12 1 13
REMARK H PARENT
REMARK Flexibility Score: inf
ROOT
ATOM      1  C   UNL     1      59.446  25.841  51.081  1.00  0.00     0.000 C 
ENDROOT
BRANCH   1   2
ATOM      2  C   UNL     1      58.094  25.128  51.263  1.00  0.00     0.000 C 
BRANCH   2   3
ATOM      3  C   UNL     1      57.027  25.628  50.275  1.00  0.00     0.006 C 
BRANCH   3   4
ATOM      4  C   UNL     1      55.713  26.012  50.967  1.00  0.00     0.053 C 
BRANCH   4   5
ATOM      5  C   UNL     1      54.629  26.211  49.955  1.00  0.00     0.041 C 
ATOM      6  O   UNL     1      54.263  25.254  49.223  1.00  0.00    -0.550 OA
ATOM      7  O   UNL     1      53.985  27.438  49.855  1.00  0.00    -0.550 OA
ENDBRANCH   4   5
ENDBRANCH   3   4
ENDBRANCH   2   3
ENDBRANCH   1   2
BRANCH   1   8
ATOM      8  C   UNL     1      59.603  26.458  49.682  1.00  0.00     0.000 C 
BRANCH   8   9
ATOM      9  C   UNL     1      60.517  27.694  49.681  1.00  0.00    -0.000 C 
BRANCH   9  10
ATOM     10  C   UNL     1      59.804  28.965  50.173  1.00  0.00    -0.000 C 
BRANCH  10  11
ATOM     11  C   UNL     1      58.387  29.147  49.588  1.00  0.00    -0.000 C 
BRANCH  11  12
ATOM     12  C   UNL     1      57.332  29.365  50.683  1.00  0.00    -0.003 C 
ATOM     13  C   UNL     1      57.906  29.079  52.067  1.00  0.00     0.004 C 
ENDBRANCH  11  12
ENDBRANCH  10  11
ENDBRANCH   9  10
ENDBRANCH   8   9
ENDBRANCH   1   8
TORSDOF 9
ENDMDL
MODEL 6
REMARK VINA RESULT:    -3.271      3.157      5.705
REMARK INTER + INTRA:          -5.963
REMARK INTER:                  -5.322
REMARK INTRA:                  -0.642
REMARK UNBOUND:                -0.971
REMARK SMILES CCCCCCCCCCC(=O)[O-]
REMARK SMILES IDX 7 1 8 2 9 3 10 4 11 5 12 6 13 7 6 8 5 9 4 10 3 11 2 12 1 13
REMARK H PARENT
REMARK Flexibility Score: inf
ROOT
ATOM      1  C   UNL     1      61.805  33.173  60.398  1.00  0.00     0.000 C 
ENDROOT
BRANCH   1   2
ATOM      2  C   UNL     1      61.460  34.673  60.421  1.00  0.00     0.000 C 
BRANCH   2   3
ATOM      3  C   UNL     1      62.647  35.544  60.864  1.00  0.00     0.006 C 
BRANCH   3   4
ATOM      4  C   UNL     1      63.916  34.724  61.132  1.00  0.00     0.053 C 
BRANCH   4   5
ATOM      5  C   UNL     1      65.104  35.380  60.502  1.00  0.00     0.041 C 
ATOM      6  O   UNL     1      65.199  35.448  59.248  1.00  0.00    -0.550 OA
ATOM      7  O   UNL     1      66.082  35.963  61.298  1.00  0.00    -0.550 OA
ENDBRANCH   4   5
ENDBRANCH   3   4
ENDBRANCH   2   3
ENDBRANCH   1   2
BRANCH   1   8
ATOM      8  C   UNL     1      60.719  32.331  59.709  1.00  0.00     0.000 C 
BRANCH   8   9
ATOM      9  C   UNL     1      60.384  31.048  60.488  1.00  0.00    -0.000 C 
BRANCH   9  10
ATOM     10  C   UNL     1      61.228  30.887  61.764  1.00  0.00    -0.000 C 
BRANCH  10  11
ATOM     11  C   UNL     1      62.327  29.809  61.648  1.00  0.00    -0.000 C 
BRANCH  11  12
ATOM     12  C   UNL     1      63.701  30.416  61.325  1.00  0.00    -0.003 C 
ATOM     13  C   UNL     1      64.356  29.699  60.148  1.00  0.00     0.004 C 
ENDBRANCH  11  12
ENDBRANCH  10  11
ENDBRANCH   9  10
ENDBRANCH   8   9
ENDBRANCH   1   8
TORSDOF 9
ENDMDL
MODEL 7
REMARK VINA RESULT:    -3.245     11.293     13.093
REMARK INTER + INTRA:          -5.923
REMARK INTER:                  -4.905
REMARK INTRA:                  -1.018
REMARK UNBOUND:                -0.971
REMARK SMILES CCCCCCCCCCC(=O)[O-]
REMARK SMILES IDX 7 1 8 2 9 3 10 4 11 5 12 6 13 7 6 8 5 9 4 10 3 11 2 12 1 13
REMARK H PARENT
REMARK Flexibility Score: inf
ROOT
ATOM      1  C   UNL     1      57.361  28.235  51.823  1.00  0.00     0.000 C 
ENDROOT
BRANCH   1   2
ATOM      2  C   UNL     1      57.375  28.883  50.427  1.00  0.00     0.000 C 
BRANCH   2   3
ATOM      3  C   UNL     1      58.797  29.218  49.947  1.00  0.00     0.006 C 
BRANCH   3   4
ATOM      4  C   UNL     1      59.518  28.007  49.341  1.00  0.00     0.053 C 
BRANCH   4   5
ATOM      5  C   UNL     1      60.780  27.721  50.092  1.00  0.00     0.041 C 
ATOM      6  O   UNL     1      61.870  27.594  49.475  1.00  0.00    -0.550 OA
ATOM      7  O   UNL     1      60.762  27.647  51.480  1.00  0.00    -0.550 OA
ENDBRANCH   4   5
ENDBRANCH   3   4
ENDBRANCH   2   3
ENDBRANCH   1   2
BRANCH   1   8
ATOM      8  C   UNL     1      56.520  26.949  51.866  1.00  0.00     0.000 C 
BRANCH   8   9
ATOM      9  C   UNL     1      56.652  26.115  50.582  1.00  0.00    -0.000 C 
BRANCH   9  10
ATOM     10  C   UNL     1      55.293  25.791  49.938  1.00  0.00    -0.000 C 
BRANCH  10  11
ATOM     11  C   UNL     1      54.087  26.352  50.720  1.00  0.00    -0.000 C 
BRANCH  11  12
ATOM     12  C   UNL     1      53.308  27.400  49.911  1.00  0.00    -0.003 C 
ATOM     13  C   UNL     1      53.657  28.815  50.362  1.00  0.00     0.004 C 
ENDBRANCH  11  12
ENDBRANCH  10  11
ENDBRANCH   9  10
ENDBRANCH   8   9
ENDBRANCH   1   8
TORSDOF 9
ENDMDL
MODEL 8
REMARK VINA RESULT:    -3.223     11.842     13.075
REMARK INTER + INTRA:          -5.889
REMARK INTER:                  -5.244
REMARK INTRA:                  -0.645
REMARK UNBOUND:                -0.971
REMARK SMILES CCCCCCCCCCC(=O)[O-]
REMARK SMILES IDX 7 1 8 2 9 3 10 4 11 5 12 6 13 7 6 8 5 9 4 10 3 11 2 12 1 13
REMARK H PARENT
REMARK Flexibility Score: inf
ROOT
ATOM      1  C   UNL     1      59.393  27.400  49.543  1.00  0.00     0.000 C 
ENDROOT
BRANCH   1   2
ATOM      2  C   UNL     1      60.890  27.274  49.878  1.00  0.00     0.000 C 
BRANCH   2   3
ATOM      3  C   UNL     1      61.241  25.917  50.510  1.00  0.00     0.006 C 
BRANCH   3   4
ATOM      4  C   UNL     1      60.101  24.896  50.392  1.00  0.00     0.053 C 
BRANCH   4   5
ATOM      5  C   UNL     1      60.593  23.523  50.725  1.00  0.00     0.041 C 
ATOM      6  O   UNL     1      60.569  22.613  49.854  1.00  0.00    -0.550 OA
ATOM      7  O   UNL     1      61.127  23.260  51.980  1.00  0.00    -0.550 OA
ENDBRANCH   4   5
ENDBRANCH   3   4
ENDBRANCH   2   3
ENDBRANCH   1   2
BRANCH   1   8
ATOM      8  C   UNL     1      58.927  28.863  49.477  1.00  0.00     0.000 C 
BRANCH   8   9
ATOM      9  C   UNL     1      57.735  29.145  50.406  1.00  0.00    -0.000 C 
BRANCH   9  10
ATOM     10  C   UNL     1      57.174  27.872  51.061  1.00  0.00    -0.000 C 
BRANCH  10  11
ATOM     11  C   UNL     1      55.823  27.415  50.471  1.00  0.00    -0.000 C 
BRANCH  11  12
ATOM     12  C   UNL     1      55.824  25.922  50.107  1.00  0.00    -0.003 C 
ATOM     13  C   UNL     1      54.463  25.483  49.576  1.00  0.00     0.004 C 
ENDBRANCH  11  12
ENDBRANCH  10  11
ENDBRANCH   9  10
ENDBRANCH   8   9
ENDBRANCH   1   8
TORSDOF 9
ENDMDL
MODEL 9
REMARK VINA RESULT:    -3.217     11.439     12.905
REMARK INTER + INTRA:          -5.882
REMARK INTER:                  -4.998
REMARK INTRA:                  -0.884
REMARK UNBOUND:                -0.971
REMARK SMILES CCCCCCCCCCC(=O)[O-]
REMARK SMILES IDX 7 1 8 2 9 3 10 4 11 5 12 6 13 7 6 8 5 9 4 10 3 11 2 12 1 13
REMARK H PARENT
REMARK Flexibility Score: inf
ROOT
ATOM      1  C   UNL     1      56.957  28.771  51.704  1.00  0.00     0.000 C 
ENDROOT
BRANCH   1   2
ATOM      2  C   UNL     1      55.804  29.156  50.760  1.00  0.00     0.000 C 
BRANCH   2   3
ATOM      3  C   UNL     1      54.911  27.957  50.399  1.00  0.00     0.006 C 
BRANCH   3   4
ATOM      4  C   UNL     1      55.684  26.631  50.372  1.00  0.00     0.053 C 
BRANCH   4   5
ATOM      5  C   UNL     1      54.735  25.476  50.294  1.00  0.00     0.041 C 
ATOM      6  O   UNL     1      54.225  25.149  49.190  1.00  0.00    -0.550 OA
ATOM      7  O   UNL     1      54.454  24.729  51.431  1.00  0.00    -0.550 OA
ENDBRANCH   4   5
ENDBRANCH   3   4
ENDBRANCH   2   3
ENDBRANCH   1   2
BRANCH   1   8
ATOM      8  C   UNL     1      58.319  29.278  51.205  1.00  0.00     0.000 C 
BRANCH   8   9
ATOM      9  C   UNL     1      58.459  29.186  49.677  1.00  0.00    -0.000 C 
BRANCH   9  10
ATOM     10  C   UNL     1      59.535  28.180  49.235  1.00  0.00    -0.000 C 
BRANCH  10  11
ATOM     11  C   UNL     1      59.307  26.751  49.773  1.00  0.00    -0.000 C 
BRANCH  11  12
ATOM     12  C   UNL     1      60.509  26.236  50.579  1.00  0.00    -0.003 C 
ATOM     13  C   UNL     1      61.794  26.946  50.165  1.00  0.00     0.004 C 
ENDBRANCH  11  12
ENDBRANCH  10  11
ENDBRANCH   9  10
ENDBRANCH   8   9
ENDBRANCH   1   8
TORSDOF 9
ENDMDL
