MODEL 1
REMARK VINA RESULT:    -3.852      0.000      0.000
REMARK INTER + INTRA:          -5.170
REMARK INTER:                  -4.978
REMARK INTRA:                  -0.192
REMARK UNBOUND:                -0.192
REMARK SMILES CCCCCCC(=O)[O-]
REMARK SMILES IDX 5 1 6 2 7 3 8 4 9 5 4 6 3 7 2 8 1 9
REMARK H PARENT
REMARK Flexibility Score: inf
ROOT
ATOM      1  C   UNL     1      -8.302  23.871  13.763  1.00  0.00     0.006 C 
ENDROOT
BRANCH   1   2
ATOM      2  C   UNL     1      -9.207  22.802  14.390  1.00  0.00     0.053 C 
BRANCH   2   3
ATOM      3  C   UNL     1      -8.484  21.496  14.484  1.00  0.00     0.041 C 
ATOM      4  O   UNL     1      -7.231  21.455  14.362  1.00  0.00    -0.550 OA
ATOM      5  O   UNL     1      -9.188  20.330  14.755  1.00  0.00    -0.550 OA
ENDBRANCH   2   3
ENDBRANCH   1   2
BRANCH   1   6
ATOM      6  C   UNL     1      -7.964  25.010  14.739  1.00  0.00     0.000 C 
BRANCH   6   7
ATOM      7  C   UNL     1      -8.133  26.401  14.104  1.00  0.00    -0.000 C 
BRANCH   7   8
ATOM      8  C   UNL     1      -9.289  26.449  13.091  1.00  0.00    -0.003 C 
ATOM      9  C   UNL     1      -9.639  27.872  12.659  1.00  0.00     0.004 C 
ENDBRANCH   7   8
ENDBRANCH   6   7
ENDBRANCH   1   6
TORSDOF 5
ENDMDL
MODEL 2
REMARK VINA RESULT:    -3.817      3.245      5.313
REMARK INTER + INTRA:          -5.125
REMARK INTER:                  -5.005
REMARK INTRA:                  -0.119
REMARK UNBOUND:                -0.192
REMARK SMILES CCCCCCC(=O)[O-]
REMARK SMILES IDX 5 1 6 2 7 3 8 4 9 5 4 6 3 7 2 8 1 9
REMARK H PARENT
REMARK Flexibility Score: inf
ROOT
ATOM      1  C   UNL     1      -8.543  24.586  13.620  1.00  0.00     0.006 C 
ENDROOT
BRANCH   1   2
ATOM      2  C   UNL     1      -8.265  25.862  14.425  1.00  0.00     0.053 C 
BRANCH   2   3
ATOM      3  C   UNL     1      -8.588  27.074  13.611  1.00  0.00     0.041 C 
ATOM      4  O   UNL     1      -8.000  28.164  13.836  1.00  0.00    -0.550 OA
ATOM      5  O   UNL     1      -9.504  26.988  12.570  1.00  0.00    -0.550 OA
ENDBRANCH   2   3
ENDBRANCH   1   2
BRANCH   1   6
ATOM      6  C   UNL     1      -8.168  23.306  14.385  1.00  0.00     0.000 C 
BRANCH   6   7
ATOM      7  C   UNL     1      -9.278  22.242  14.335  1.00  0.00    -0.000 C 
BRANCH   7   8
ATOM      8  C   UNL     1      -8.751  20.828  14.629  1.00  0.00    -0.003 C 
ATOM      9  C   UNL     1      -7.234  20.718  14.477  1.00  0.00     0.004 C 
ENDBRANCH   7   8
ENDBRANCH   6   7
ENDBRANCH   1   6
TORSDOF 5
ENDMDL
MODEL 3
REMARK VINA RESULT:    -3.604      3.329      4.971
REMARK INTER + INTRA:          -4.849
REMARK INTER:                  -4.716
REMARK INTRA:                  -0.133
REMARK UNBOUND:                -0.192
REMARK SMILES CCCCCCC(=O)[O-]
REMARK SMILES IDX 5 1 6 2 7 3 8 4 9 5 4 6 3 7 2 8 1 9
REMARK H PARENT
REMARK Flexibility Score: inf
ROOT
ATOM      1  C   UNL     1      -6.134  20.155  14.136  1.00  0.00     0.006 C 
ENDROOT
BRANCH   1   2
ATOM      2  C   UNL     1      -5.690  18.994  15.036  1.00  0.00     0.053 C 
BRANCH   2   3
ATOM      3  C   UNL     1      -4.590  18.219  14.382  1.00  0.00     0.041 C 
ATOM      4  O   UNL     1      -4.268  17.083  14.819  1.00  0.00    -0.550 OA
ATOM      5  O   UNL     1      -3.953  18.730  13.259  1.00  0.00    -0.550 OA
ENDBRANCH   2   3
ENDBRANCH   1   2
BRANCH   1   6
ATOM      6  C   UNL     1      -7.086  21.129  14.850  1.00  0.00     0.000 C 
BRANCH   6   7
ATOM      7  C   UNL     1      -8.563  20.869  14.507  1.00  0.00    -0.000 C 
BRANCH   7   8
ATOM      8  C   UNL     1      -9.384  22.165  14.423  1.00  0.00    -0.003 C 
ATOM      9  C   UNL     1      -8.533  23.384  14.070  1.00  0.00     0.004 C 
ENDBRANCH   7   8
ENDBRANCH   6   7
ENDBRANCH   1   6
TORSDOF 5
ENDMDL
MODEL 4
REMARK VINA RESULT:    -3.570      3.410      6.261
REMARK INTER + INTRA:          -4.805
REMARK INTER:                  -4.672
REMARK INTRA:                  -0.134
REMARK UNBOUND:                -0.192
REMARK SMILES CCCCCCC(=O)[O-]
REMARK SMILES IDX 5 1 6 2 7 3 8 4 9 5 4 6 3 7 2 8 1 9
REMARK H PARENT
REMARK Flexibility Score: inf
ROOT
ATOM      1  C   UNL     1      -7.018  20.586  14.290  1.00  0.00     0.006 C 
ENDROOT
BRANCH   1   2
ATOM      2  C   UNL     1      -7.378  21.998  14.772  1.00  0.00     0.053 C 
BRANCH   2   3
ATOM      3  C   UNL     1      -8.750  22.373  14.307  1.00  0.00     0.041 C 
ATOM      4  O   UNL     1      -9.647  21.496  14.204  1.00  0.00    -0.550 OA
ATOM      5  O   UNL     1      -9.051  23.701  14.033  1.00  0.00    -0.550 OA
ENDBRANCH   2   3
ENDBRANCH   1   2
BRANCH   1   6
ATOM      6  C   UNL     1      -5.633  20.128  14.777  1.00  0.00     0.000 C 
BRANCH   6   7
ATOM      7  C   UNL     1      -5.577  18.616  15.058  1.00  0.00    -0.000 C 
BRANCH   7   8
ATOM      8  C   UNL     1      -4.278  17.971  14.550  1.00  0.00    -0.003 C 
ATOM      9  C   UNL     1      -3.790  18.579  13.236  1.00  0.00     0.004 C 
ENDBRANCH   7   8
ENDBRANCH   6   7
ENDBRANCH   1   6
TORSDOF 5
ENDMDL
MODEL 5
REMARK VINA RESULT:    -3.105      1.201      2.114
REMARK INTER + INTRA:          -4.204
REMARK INTER:                  -4.086
REMARK INTRA:                  -0.118
REMARK UNBOUND:                -0.192
REMARK SMILES CCCCCCC(=O)[O-]
REMARK SMILES IDX 5 1 6 2 7 3 8 4 9 5 4 6 3 7 2 8 1 9
REMARK H PARENT
REMARK Flexibility Score: inf
ROOT
ATOM      1  C   UNL     1      -8.475  23.838  14.640  1.00  0.00     0.006 C 
ENDROOT
BRANCH   1   2
ATOM      2  C   UNL     1      -9.130  22.606  14.002  1.00  0.00     0.053 C 
BRANCH   2   3
ATOM      3  C   UNL     1      -8.414  21.360  14.417  1.00  0.00     0.041 C 
ATOM      4  O   UNL     1      -9.064  20.351  14.795  1.00  0.00    -0.550 OA
ATOM      5  O   UNL     1      -7.029  21.297  14.339  1.00  0.00    -0.550 OA
ENDBRANCH   2   3
ENDBRANCH   1   2
BRANCH   1   6
ATOM      6  C   UNL     1      -8.518  25.074  13.727  1.00  0.00     0.000 C 
BRANCH   6   7
ATOM      7  C   UNL     1      -8.254  26.383  14.492  1.00  0.00    -0.000 C 
BRANCH   7   8
ATOM      8  C   UNL     1      -6.852  26.424  15.122  1.00  0.00    -0.003 C 
ATOM      9  C   UNL     1      -6.061  27.670  14.724  1.00  0.00     0.004 C 
ENDBRANCH   7   8
ENDBRANCH   6   7
ENDBRANCH   1   6
TORSDOF 5
ENDMDL
MODEL 6
REMARK VINA RESULT:    -2.925     15.175     16.046
REMARK INTER + INTRA:          -3.972
REMARK INTER:                  -3.781
REMARK INTRA:                  -0.191
REMARK UNBOUND:                -0.192
REMARK SMILES CCCCCCC(=O)[O-]
REMARK SMILES IDX 5 1 6 2 7 3 8 4 9 5 4 6 3 7 2 8 1 9
REMARK H PARENT
REMARK Flexibility Score: inf
ROOT
ATOM      1  C   UNL     1     -16.352  28.203  -0.162  1.00  0.00     0.006 C 
ENDROOT
BRANCH   1   2
ATOM      2  C   UNL     1     -15.188  28.770   0.663  1.00  0.00     0.053 C 
BRANCH   2   3
ATOM      3  C   UNL     1     -13.879  28.382   0.052  1.00  0.00     0.041 C 
ATOM      4  O   UNL     1     -12.933  27.983   0.781  1.00  0.00    -0.550 OA
ATOM      5  O   UNL     1     -13.719  28.415  -1.327  1.00  0.00    -0.550 OA
ENDBRANCH   2   3
ENDBRANCH   1   2
BRANCH   1   6
ATOM      6  C   UNL     1     -17.536  27.756   0.711  1.00  0.00     0.000 C 
BRANCH   6   7
ATOM      7  C   UNL     1     -17.403  28.225   2.171  1.00  0.00    -0.000 C 
BRANCH   7   8
ATOM      8  C   UNL     1     -18.359  27.481   3.117  1.00  0.00    -0.003 C 
ATOM      9  C   UNL     1     -18.530  26.008   2.748  1.00  0.00     0.004 C 
ENDBRANCH   7   8
ENDBRANCH   6   7
ENDBRANCH   1   6
TORSDOF 5
ENDMDL
MODEL 7
REMARK VINA RESULT:    -2.911      8.235     10.802
REMARK INTER + INTRA:          -3.954
REMARK INTER:                  -3.809
REMARK INTRA:                  -0.144
REMARK UNBOUND:                -0.192
REMARK SMILES CCCCCCC(=O)[O-]
REMARK SMILES IDX 5 1 6 2 7 3 8 4 9 5 4 6 3 7 2 8 1 9
REMARK H PARENT
REMARK Flexibility Score: inf
ROOT
ATOM      1  C   UNL     1      -1.559  17.032  12.626  1.00  0.00     0.006 C 
ENDROOT
BRANCH   1   2
ATOM      2  C   UNL     1      -2.440  18.288  12.634  1.00  0.00     0.053 C 
BRANCH   2   3
ATOM      3  C   UNL     1      -3.590  18.112  13.575  1.00  0.00     0.041 C 
ATOM      4  O   UNL     1      -4.510  18.971  13.620  1.00  0.00    -0.550 OA
ATOM      5  O   UNL     1      -3.671  16.975  14.368  1.00  0.00    -0.550 OA
ENDBRANCH   2   3
ENDBRANCH   1   2
BRANCH   1   6
ATOM      6  C   UNL     1      -1.786  16.155  11.384  1.00  0.00     0.000 C 
BRANCH   6   7
ATOM      7  C   UNL     1      -1.964  14.668  11.738  1.00  0.00    -0.000 C 
BRANCH   7   8
ATOM      8  C   UNL     1      -2.606  13.864  10.595  1.00  0.00    -0.003 C 
ATOM      9  C   UNL     1      -3.279  12.580  11.079  1.00  0.00     0.004 C 
ENDBRANCH   7   8
ENDBRANCH   6   7
ENDBRANCH   1   6
TORSDOF 5
ENDMDL
MODEL 8
REMARK VINA RESULT:    -2.884      5.209      7.701
REMARK INTER + INTRA:          -3.918
REMARK INTER:                  -3.839
REMARK INTRA:                  -0.079
REMARK UNBOUND:                -0.192
REMARK SMILES CCCCCCC(=O)[O-]
REMARK SMILES IDX 5 1 6 2 7 3 8 4 9 5 4 6 3 7 2 8 1 9
REMARK H PARENT
REMARK Flexibility Score: inf
ROOT
ATOM      1  C   UNL     1      -5.147  19.372  13.731  1.00  0.00     0.006 C 
ENDROOT
BRANCH   1   2
ATOM      2  C   UNL     1      -5.882  19.716  15.034  1.00  0.00     0.053 C 
BRANCH   2   3
ATOM      3  C   UNL     1      -6.710  20.949  14.855  1.00  0.00     0.041 C 
ATOM      4  O   UNL     1      -6.229  22.081  15.125  1.00  0.00    -0.550 OA
ATOM      5  O   UNL     1      -7.998  20.853  14.344  1.00  0.00    -0.550 OA
ENDBRANCH   2   3
ENDBRANCH   1   2
BRANCH   1   6
ATOM      6  C   UNL     1      -3.951  18.432  13.955  1.00  0.00     0.000 C 
BRANCH   6   7
ATOM      7  C   UNL     1      -2.843  18.629  12.906  1.00  0.00    -0.000 C 
BRANCH   7   8
ATOM      8  C   UNL     1      -1.780  17.519  12.957  1.00  0.00    -0.003 C 
ATOM      9  C   UNL     1      -1.874  16.554  11.776  1.00  0.00     0.004 C 
ENDBRANCH   7   8
ENDBRANCH   6   7
ENDBRANCH   1   6
TORSDOF 5
ENDMDL
MODEL 9
REMARK VINA RESULT:    -2.866     16.735     17.550
REMARK INTER + INTRA:          -3.895
REMARK INTER:                  -3.504
REMARK INTRA:                  -0.391
REMARK UNBOUND:                -0.192
REMARK SMILES CCCCCCC(=O)[O-]
REMARK SMILES IDX 5 1 6 2 7 3 8 4 9 5 4 6 3 7 2 8 1 9
REMARK H PARENT
REMARK Flexibility Score: inf
ROOT
ATOM      1  C   UNL     1     -14.854  10.415   7.009  1.00  0.00     0.006 C 
ENDROOT
BRANCH   1   2
ATOM      2  C   UNL     1     -15.067  11.515   5.961  1.00  0.00     0.053 C 
BRANCH   2   3
ATOM      3  C   UNL     1     -16.074  11.077   4.944  1.00  0.00     0.041 C 
ATOM      4  O   UNL     1     -16.749  11.932   4.312  1.00  0.00    -0.550 OA
ATOM      5  O   UNL     1     -16.231   9.728   4.658  1.00  0.00    -0.550 OA
ENDBRANCH   2   3
ENDBRANCH   1   2
BRANCH   1   6
ATOM      6  C   UNL     1     -13.443   9.806   6.953  1.00  0.00     0.000 C 
BRANCH   6   7
ATOM      7  C   UNL     1     -12.583  10.413   5.830  1.00  0.00    -0.000 C 
BRANCH   7   8
ATOM      8  C   UNL     1     -12.166   9.371   4.780  1.00  0.00    -0.003 C 
ATOM      9  C   UNL     1     -12.902   9.541   3.452  1.00  0.00     0.004 C 
ENDBRANCH   7   8
ENDBRANCH   6   7
ENDBRANCH   1   6
TORSDOF 5
ENDMDL
