MODEL 1
REMARK VINA RESULT:    -3.540      0.000      0.000
REMARK INTER + INTRA:          -4.484
REMARK INTER:                  -4.264
REMARK INTRA:                  -0.219
REMARK UNBOUND:                -0.219
REMARK SMILES OCC(O)CO
REMARK SMILES IDX 3 1 5 2 6 3 2 5 1 6 4 8
REMARK H PARENT 6 4 1 7 4 9
REMARK Flexibility Score: inf
ROOT
ATOM      1  C   UNL     1     108.568 112.729 112.800  1.00  0.00     0.165 C 
ENDROOT
BRANCH   1   2
ATOM      2  C   UNL     1     110.053 113.142 112.794  1.00  0.00     0.190 C 
BRANCH   2   3
ATOM      3  O   UNL     1     110.186 114.532 112.924  1.00  0.00    -0.394 OA
ATOM      4  H   UNL     1     109.340 114.931 112.588  1.00  0.00     0.210 HD
ENDBRANCH   2   3
ENDBRANCH   1   2
BRANCH   1   5
ATOM      5  C   UNL     1     107.875 113.029 114.142  1.00  0.00     0.190 C 
BRANCH   5   6
ATOM      6  O   UNL     1     108.804 113.113 115.189  1.00  0.00    -0.394 OA
ATOM      7  H   UNL     1     108.295 113.344 116.009  1.00  0.00     0.210 HD
ENDBRANCH   5   6
ENDBRANCH   1   5
BRANCH   1   8
ATOM      8  O   UNL     1     107.877 113.338 111.737  1.00  0.00    -0.388 OA
ATOM      9  H   UNL     1     107.160 113.905 112.124  1.00  0.00     0.211 HD
ENDBRANCH   1   8
TORSDOF 5
ENDMDL
MODEL 2
REMARK VINA RESULT:    -3.528     10.493     11.805
REMARK INTER + INTRA:          -4.469
REMARK INTER:                  -4.260
REMARK INTRA:                  -0.209
REMARK UNBOUND:                -0.219
REMARK SMILES OCC(O)CO
REMARK SMILES IDX 3 1 5 2 6 3 2 5 1 6 4 8
REMARK H PARENT 6 4 1 7 4 9
REMARK Flexibility Score: inf
ROOT
ATOM      1  C   UNL     1     112.880 112.778 124.491  1.00  0.00     0.165 C 
ENDROOT
BRANCH   1   2
ATOM      2  C   UNL     1     112.454 111.296 124.458  1.00  0.00     0.190 C 
BRANCH   2   3
ATOM      3  O   UNL     1     111.070 111.171 124.644  1.00  0.00    -0.394 OA
ATOM      4  H   UNL     1     110.896 111.337 125.607  1.00  0.00     0.210 HD
ENDBRANCH   2   3
ENDBRANCH   1   2
BRANCH   1   5
ATOM      5  C   UNL     1     112.511 113.529 123.199  1.00  0.00     0.190 C 
BRANCH   5   6
ATOM      6  O   UNL     1     111.149 113.864 123.174  1.00  0.00    -0.394 OA
ATOM      7  H   UNL     1     110.695 113.182 122.614  1.00  0.00     0.210 HD
ENDBRANCH   5   6
ENDBRANCH   1   5
BRANCH   1   8
ATOM      8  O   UNL     1     112.340 113.427 125.616  1.00  0.00    -0.388 OA
ATOM      9  H   UNL     1     111.735 114.145 125.292  1.00  0.00     0.211 HD
ENDBRANCH   1   8
TORSDOF 5
ENDMDL
MODEL 3
REMARK VINA RESULT:    -3.523     11.938     12.616
REMARK INTER + INTRA:          -4.464
REMARK INTER:                  -4.241
REMARK INTRA:                  -0.223
REMARK UNBOUND:                -0.219
REMARK SMILES OCC(O)CO
REMARK SMILES IDX 3 1 5 2 6 3 2 5 1 6 4 8
REMARK H PARENT 6 4 1 7 4 9
REMARK Flexibility Score: inf
ROOT
ATOM      1  C   UNL     1     112.616 111.523 124.310  1.00  0.00     0.165 C 
ENDROOT
BRANCH   1   2
ATOM      2  C   UNL     1     112.716 113.061 124.278  1.00  0.00     0.190 C 
BRANCH   2   3
ATOM      3  O   UNL     1     112.365 113.610 125.520  1.00  0.00    -0.394 OA
ATOM      4  H   UNL     1     111.402 113.847 125.463  1.00  0.00     0.210 HD
ENDBRANCH   2   3
ENDBRANCH   1   2
BRANCH   1   5
ATOM      5  C   UNL     1     113.721 110.876 125.165  1.00  0.00     0.190 C 
BRANCH   5   6
ATOM      6  O   UNL     1     113.476 111.051 126.535  1.00  0.00    -0.394 OA
ATOM      7  H   UNL     1     112.493 111.127 126.644  1.00  0.00     0.210 HD
ENDBRANCH   5   6
ENDBRANCH   1   5
BRANCH   1   8
ATOM      8  O   UNL     1     111.344 111.114 124.748  1.00  0.00    -0.388 OA
ATOM      9  H   UNL     1     111.373 111.037 125.738  1.00  0.00     0.211 HD
ENDBRANCH   1   8
TORSDOF 5
ENDMDL
MODEL 4
REMARK VINA RESULT:    -3.413      1.053      2.565
REMARK INTER + INTRA:          -4.330
REMARK INTER:                  -4.153
REMARK INTRA:                  -0.178
REMARK UNBOUND:                -0.219
REMARK SMILES OCC(O)CO
REMARK SMILES IDX 3 1 5 2 6 3 2 5 1 6 4 8
REMARK H PARENT 6 4 1 7 4 9
REMARK Flexibility Score: inf
ROOT
ATOM      1  C   UNL     1     109.523 113.235 113.120  1.00  0.00     0.165 C 
ENDROOT
BRANCH   1   2
ATOM      2  C   UNL     1     109.358 113.058 114.643  1.00  0.00     0.190 C 
BRANCH   2   3
ATOM      3  O   UNL     1     108.002 113.054 115.001  1.00  0.00    -0.394 OA
ATOM      4  H   UNL     1     107.862 112.255 115.574  1.00  0.00     0.210 HD
ENDBRANCH   2   3
ENDBRANCH   1   2
BRANCH   1   5
ATOM      5  C   UNL     1     108.189 113.103 112.361  1.00  0.00     0.190 C 
BRANCH   5   6
ATOM      6  O   UNL     1     107.875 111.760 112.109  1.00  0.00    -0.394 OA
ATOM      7  H   UNL     1     106.886 111.686 112.132  1.00  0.00     0.210 HD
ENDBRANCH   5   6
ENDBRANCH   1   5
BRANCH   1   8
ATOM      8  O   UNL     1     110.144 114.461 112.824  1.00  0.00    -0.388 OA
ATOM      9  H   UNL     1     109.433 115.146 112.716  1.00  0.00     0.211 HD
ENDBRANCH   1   8
TORSDOF 5
ENDMDL
MODEL 5
REMARK VINA RESULT:    -3.214     11.378     11.885
REMARK INTER + INTRA:          -4.091
REMARK INTER:                  -3.868
REMARK INTRA:                  -0.224
REMARK UNBOUND:                -0.219
REMARK SMILES OCC(O)CO
REMARK SMILES IDX 3 1 5 2 6 3 2 5 1 6 4 8
REMARK H PARENT 6 4 1 7 4 9
REMARK Flexibility Score: inf
ROOT
ATOM      1  C   UNL     1     113.125 111.628 124.134  1.00  0.00     0.165 C 
ENDROOT
BRANCH   1   2
ATOM      2  C   UNL     1     112.945 113.151 124.287  1.00  0.00     0.190 C 
BRANCH   2   3
ATOM      3  O   UNL     1     112.293 113.458 125.490  1.00  0.00    -0.394 OA
ATOM      4  H   UNL     1     111.531 114.050 125.257  1.00  0.00     0.210 HD
ENDBRANCH   2   3
ENDBRANCH   1   2
BRANCH   1   5
ATOM      5  C   UNL     1     111.793 110.897 123.881  1.00  0.00     0.190 C 
BRANCH   5   6
ATOM      6  O   UNL     1     110.991 110.882 125.031  1.00  0.00    -0.394 OA
ATOM      7  H   UNL     1     111.205 110.046 125.521  1.00  0.00     0.210 HD
ENDBRANCH   5   6
ENDBRANCH   1   5
BRANCH   1   8
ATOM      8  O   UNL     1     114.054 111.334 123.119  1.00  0.00    -0.388 OA
ATOM      9  H   UNL     1     114.244 110.360 123.153  1.00  0.00     0.211 HD
ENDBRANCH   1   8
TORSDOF 5
ENDMDL
MODEL 6
REMARK VINA RESULT:    -3.146      0.666      2.400
REMARK INTER + INTRA:          -4.009
REMARK INTER:                  -3.822
REMARK INTRA:                  -0.187
REMARK UNBOUND:                -0.219
REMARK SMILES OCC(O)CO
REMARK SMILES IDX 3 1 5 2 6 3 2 5 1 6 4 8
REMARK H PARENT 6 4 1 7 4 9
REMARK Flexibility Score: inf
ROOT
ATOM      1  C   UNL     1     108.366 112.926 112.835  1.00  0.00     0.165 C 
ENDROOT
BRANCH   1   2
ATOM      2  C   UNL     1     107.875 112.762 114.288  1.00  0.00     0.190 C 
BRANCH   2   3
ATOM      3  O   UNL     1     108.881 113.120 115.197  1.00  0.00    -0.394 OA
ATOM      4  H   UNL     1     109.588 112.427 115.126  1.00  0.00     0.210 HD
ENDBRANCH   2   3
ENDBRANCH   1   2
BRANCH   1   5
ATOM      5  C   UNL     1     109.886 113.153 112.746  1.00  0.00     0.190 C 
BRANCH   5   6
ATOM      6  O   UNL     1     110.198 114.520 112.709  1.00  0.00    -0.394 OA
ATOM      7  H   UNL     1     109.897 114.908 113.571  1.00  0.00     0.210 HD
ENDBRANCH   5   6
ENDBRANCH   1   5
BRANCH   1   8
ATOM      8  O   UNL     1     107.981 111.823 112.051  1.00  0.00    -0.388 OA
ATOM      9  H   UNL     1     107.260 112.122 111.437  1.00  0.00     0.211 HD
ENDBRANCH   1   8
TORSDOF 5
ENDMDL
MODEL 7
REMARK VINA RESULT:    -3.049      9.779     10.412
REMARK INTER + INTRA:          -3.893
REMARK INTER:                  -3.669
REMARK INTRA:                  -0.224
REMARK UNBOUND:                -0.219
REMARK SMILES OCC(O)CO
REMARK SMILES IDX 3 1 5 2 6 3 2 5 1 6 4 8
REMARK H PARENT 6 4 1 7 4 9
REMARK Flexibility Score: inf
ROOT
ATOM      1  C   UNL     1     114.422 119.286 119.196  1.00  0.00     0.165 C 
ENDROOT
BRANCH   1   2
ATOM      2  C   UNL     1     114.657 120.385 118.141  1.00  0.00     0.190 C 
BRANCH   2   3
ATOM      3  O   UNL     1     114.361 119.912 116.854  1.00  0.00    -0.394 OA
ATOM      4  H   UNL     1     115.202 119.525 116.493  1.00  0.00     0.210 HD
ENDBRANCH   2   3
ENDBRANCH   1   2
BRANCH   1   5
ATOM      5  C   UNL     1     115.490 118.178 119.144  1.00  0.00     0.190 C 
BRANCH   5   6
ATOM      6  O   UNL     1     116.523 118.505 118.255  1.00  0.00    -0.394 OA
ATOM      7  H   UNL     1     116.117 119.040 117.524  1.00  0.00     0.210 HD
ENDBRANCH   5   6
ENDBRANCH   1   5
BRANCH   1   8
ATOM      8  O   UNL     1     114.343 119.841 120.486  1.00  0.00    -0.388 OA
ATOM      9  H   UNL     1     113.525 120.401 120.528  1.00  0.00     0.211 HD
ENDBRANCH   1   8
TORSDOF 5
ENDMDL
MODEL 8
REMARK VINA RESULT:    -2.961      9.771     10.336
REMARK INTER + INTRA:          -3.786
REMARK INTER:                  -3.577
REMARK INTRA:                  -0.209
REMARK UNBOUND:                -0.219
REMARK SMILES OCC(O)CO
REMARK SMILES IDX 3 1 5 2 6 3 2 5 1 6 4 8
REMARK H PARENT 6 4 1 7 4 9
REMARK Flexibility Score: inf
ROOT
ATOM      1  C   UNL     1     115.031 119.701 118.223  1.00  0.00     0.165 C 
ENDROOT
BRANCH   1   2
ATOM      2  C   UNL     1     113.912 119.514 119.266  1.00  0.00     0.190 C 
BRANCH   2   3
ATOM      3  O   UNL     1     114.367 119.845 120.551  1.00  0.00    -0.394 OA
ATOM      4  H   UNL     1     115.063 120.544 120.435  1.00  0.00     0.210 HD
ENDBRANCH   2   3
ENDBRANCH   1   2
BRANCH   1   5
ATOM      5  C   UNL     1     116.080 118.575 118.272  1.00  0.00     0.190 C 
BRANCH   5   6
ATOM      6  O   UNL     1     115.978 117.833 119.458  1.00  0.00    -0.394 OA
ATOM      7  H   UNL     1     115.645 116.933 119.206  1.00  0.00     0.210 HD
ENDBRANCH   5   6
ENDBRANCH   1   5
BRANCH   1   8
ATOM      8  O   UNL     1     114.493 119.823 116.929  1.00  0.00    -0.388 OA
ATOM      9  H   UNL     1     114.153 118.931 116.655  1.00  0.00     0.211 HD
ENDBRANCH   1   8
TORSDOF 5
ENDMDL
