MODEL 1
REMARK VINA RESULT:    -3.515      0.000      0.000
REMARK INTER + INTRA:          -3.515
REMARK INTER:                  -3.515
REMARK INTRA:                   0.000
REMARK UNBOUND:                 0.000
REMARK SMILES C=C1CCC[C@@]2(C)CC(=O)C(=C(C)C)C[C@@H]12
REMARK SMILES IDX 13 1 12 2 11 3 15 4 16 5 2 6 1 7 3 8 4 9 5 10 6 11 8 12 9 13
REMARK SMILES IDX 10 14 7 15 14 16
REMARK H PARENT
REMARK Flexibility Score: inf
ROOT
ATOM      1  C   UNL     1      79.911  18.287   5.968  1.00  0.00     0.039 C 
ATOM      2  C   UNL     1      79.725  16.793   6.029  1.00  0.00    -0.070 C 
ATOM      3  C   UNL     1      79.547  16.045   4.893  1.00  0.00    -0.006 C 
ATOM      4  C   UNL     1      79.470  16.637   3.498  1.00  0.00     0.047 C 
ATOM      5  C   UNL     1      78.268  16.040   2.708  1.00  0.00     0.025 C 
ATOM      6  C   UNL     1      78.240  16.596   1.295  1.00  0.00    -0.073 C 
ATOM      7  C   UNL     1      77.499  17.687   0.999  1.00  0.00     0.008 C 
ATOM      8  C   UNL     1      79.178  16.040   0.251  1.00  0.00     0.031 C 
ATOM      9  C   UNL     1      79.377  14.505   0.327  1.00  0.00     0.005 C 
ATOM     10  C   UNL     1      79.389  13.938   1.762  1.00  0.00     0.008 C 
ATOM     11  C   UNL     1      78.240  14.479   2.667  1.00  0.00    -0.018 C 
ATOM     12  C   UNL     1      78.411  13.875   4.097  1.00  0.00     0.088 C 
ATOM     13  C   UNL     1      79.444  14.573   4.938  1.00  0.00     0.159 C 
ATOM     14  O   UNL     1      80.186  13.892   5.698  1.00  0.00    -0.295 OA
ATOM     15  C   UNL     1      76.865  14.007   2.118  1.00  0.00     0.012 C 
ATOM     16  C   UNL     1      79.750  16.140   7.392  1.00  0.00     0.039 C 
ENDROOT
TORSDOF 0
ENDMDL
MODEL 2
REMARK VINA RESULT:    -2.915      1.676      3.258
REMARK INTER + INTRA:          -2.915
REMARK INTER:                  -2.915
REMARK INTRA:                   0.000
REMARK UNBOUND:                 0.000
REMARK SMILES C=C1CCC[C@@]2(C)CC(=O)C(=C(C)C)C[C@@H]12
REMARK SMILES IDX 13 1 12 2 11 3 15 4 16 5 2 6 1 7 3 8 4 9 5 10 6 11 8 12 9 13
REMARK SMILES IDX 10 14 7 15 14 16
REMARK H PARENT
REMARK Flexibility Score: inf
ROOT
ATOM      1  C   UNL     1      79.752  13.875   7.041  1.00  0.00     0.039 C 
ATOM      2  C   UNL     1      79.759  15.370   6.856  1.00  0.00    -0.070 C 
ATOM      3  C   UNL     1      79.436  15.946   5.654  1.00  0.00    -0.006 C 
ATOM      4  C   UNL     1      79.095  15.154   4.405  1.00  0.00     0.047 C 
ATOM      5  C   UNL     1      79.862  15.711   3.170  1.00  0.00     0.025 C 
ATOM      6  C   UNL     1      79.466  14.948   1.918  1.00  0.00    -0.073 C 
ATOM      7  C   UNL     1      80.188  13.884   1.503  1.00  0.00     0.008 C 
ATOM      8  C   UNL     1      78.161  15.266   1.227  1.00  0.00     0.031 C 
ATOM      9  C   UNL     1      77.812  16.775   1.191  1.00  0.00     0.005 C 
ATOM     10  C   UNL     1      78.229  17.554   2.456  1.00  0.00     0.008 C 
ATOM     11  C   UNL     1      79.679  17.245   2.940  1.00  0.00    -0.018 C 
ATOM     12  C   UNL     1      79.942  18.047   4.254  1.00  0.00     0.088 C 
ATOM     13  C   UNL     1      79.362  17.411   5.487  1.00  0.00     0.159 C 
ATOM     14  O   UNL     1      78.853  18.143   6.379  1.00  0.00    -0.295 OA
ATOM     15  C   UNL     1      80.706  17.729   1.879  1.00  0.00     0.012 C 
ATOM     16  C   UNL     1      80.129  16.221   8.050  1.00  0.00     0.039 C 
ENDROOT
TORSDOF 0
ENDMDL
