MODEL 1
REMARK VINA RESULT:    -6.253      0.000      0.000
REMARK INTER + INTRA:         -13.074
REMARK INTER:                 -11.736
REMARK INTRA:                  -1.338
REMARK UNBOUND:                -1.338
REMARK SMILES O=C([O-])CCCCCCCCCCCCCCC(=O)[O-]
REMARK SMILES IDX 10 1 9 2 8 3 7 4 6 5 5 6 4 7 2 8 1 9 3 10 11 11 12 12 13 13
REMARK SMILES IDX 14 14 15 15 16 16 17 17 18 18 19 19 20 20
REMARK H PARENT
REMARK Flexibility Score: inf
ROOT
ATOM      1  C   UNL     1       4.605   8.246  15.511  1.00  0.00     0.000 C 
ENDROOT
BRANCH   1   2
ATOM      2  C   UNL     1       5.991   7.630  15.251  1.00  0.00     0.000 C 
BRANCH   2   3
ATOM      3  C   UNL     1       6.121   7.043  13.837  1.00  0.00     0.000 C 
BRANCH   3   4
ATOM      4  C   UNL     1       4.780   6.538  13.274  1.00  0.00     0.000 C 
BRANCH   4   5
ATOM      5  C   UNL     1       4.608   5.015  13.460  1.00  0.00     0.000 C 
BRANCH   5   6
ATOM      6  C   UNL     1       4.137   4.617  14.870  1.00  0.00     0.006 C 
BRANCH   6   7
ATOM      7  C   UNL     1       2.862   3.766  14.855  1.00  0.00     0.053 C 
BRANCH   7   8
ATOM      8  C   UNL     1       3.138   2.404  15.411  1.00  0.00     0.041 C 
ATOM      9  O   UNL     1       2.247   1.514  15.374  1.00  0.00    -0.550 OA
ATOM     10  O   UNL     1       4.393   2.102  15.922  1.00  0.00    -0.550 OA
ENDBRANCH   7   8
ENDBRANCH   6   7
ENDBRANCH   5   6
ENDBRANCH   4   5
ENDBRANCH   3   4
ENDBRANCH   2   3
ENDBRANCH   1   2
BRANCH   1  11
ATOM     11  C   UNL     1       4.430   8.704  16.969  1.00  0.00     0.000 C 
BRANCH  11  12
ATOM     12  C   UNL     1       2.980   9.088  17.299  1.00  0.00     0.000 C 
BRANCH  12  13
ATOM     13  C   UNL     1       2.840   9.475  18.780  1.00  0.00     0.000 C 
BRANCH  13  14
ATOM     14  C   UNL     1       2.211   8.358  19.627  1.00  0.00     0.000 C 
BRANCH  14  15
ATOM     15  C   UNL     1       1.902   7.094  18.803  1.00  0.00     0.000 C 
BRANCH  15  16
ATOM     16  C   UNL     1       2.391   5.810  19.489  1.00  0.00     0.006 C 
BRANCH  16  17
ATOM     17  C   UNL     1       2.455   4.616  18.527  1.00  0.00     0.053 C 
BRANCH  17  18
ATOM     18  C   UNL     1       2.560   3.334  19.292  1.00  0.00     0.041 C 
ATOM     19  O   UNL     1       3.511   2.540  19.070  1.00  0.00    -0.550 OA
ATOM     20  O   UNL     1       1.575   2.990  20.209  1.00  0.00    -0.550 OA
ENDBRANCH  17  18
ENDBRANCH  16  17
ENDBRANCH  15  16
ENDBRANCH  14  15
ENDBRANCH  13  14
ENDBRANCH  12  13
ENDBRANCH  11  12
ENDBRANCH   1  11
TORSDOF 15
ENDMDL
MODEL 2
REMARK VINA RESULT:    -6.252      2.292      4.893
REMARK INTER + INTRA:         -13.073
REMARK INTER:                 -11.511
REMARK INTRA:                  -1.562
REMARK UNBOUND:                -1.338
REMARK SMILES O=C([O-])CCCCCCCCCCCCCCC(=O)[O-]
REMARK SMILES IDX 10 1 9 2 8 3 7 4 6 5 5 6 4 7 2 8 1 9 3 10 11 11 12 12 13 13
REMARK SMILES IDX 14 14 15 15 16 16 17 17 18 18 19 19 20 20
REMARK H PARENT
REMARK Flexibility Score: inf
ROOT
ATOM      1  C   UNL     1       5.296   5.557  13.681  1.00  0.00     0.000 C 
ENDROOT
BRANCH   1   2
ATOM      2  C   UNL     1       5.502   6.896  12.951  1.00  0.00     0.000 C 
BRANCH   2   3
ATOM      3  C   UNL     1       6.210   7.942  13.825  1.00  0.00     0.000 C 
BRANCH   3   4
ATOM      4  C   UNL     1       5.878   7.795  15.322  1.00  0.00     0.000 C 
BRANCH   4   5
ATOM      5  C   UNL     1       4.469   8.325  15.660  1.00  0.00     0.000 C 
BRANCH   5   6
ATOM      6  C   UNL     1       4.340   8.856  17.098  1.00  0.00     0.006 C 
BRANCH   6   7
ATOM      7  C   UNL     1       2.882   9.027  17.543  1.00  0.00     0.053 C 
BRANCH   7   8
ATOM      8  C   UNL     1       2.817   9.352  19.002  1.00  0.00     0.041 C 
ATOM      9  O   UNL     1       2.030   8.720  19.757  1.00  0.00    -0.550 OA
ATOM     10  O   UNL     1       3.661  10.316  19.540  1.00  0.00    -0.550 OA
ENDBRANCH   7   8
ENDBRANCH   6   7
ENDBRANCH   5   6
ENDBRANCH   4   5
ENDBRANCH   3   4
ENDBRANCH   2   3
ENDBRANCH   1   2
BRANCH   1  11
ATOM     11  C   UNL     1       4.144   4.732  13.082  1.00  0.00     0.000 C 
BRANCH  11  12
ATOM     12  C   UNL     1       3.924   3.402  13.817  1.00  0.00     0.000 C 
BRANCH  12  13
ATOM     13  C   UNL     1       4.039   3.592  15.338  1.00  0.00     0.000 C 
BRANCH  13  14
ATOM     14  C   UNL     1       2.763   4.184  15.959  1.00  0.00     0.000 C 
BRANCH  14  15
ATOM     15  C   UNL     1       3.065   5.306  16.970  1.00  0.00     0.000 C 
BRANCH  15  16
ATOM     16  C   UNL     1       2.039   5.361  18.112  1.00  0.00     0.006 C 
BRANCH  16  17
ATOM     17  C   UNL     1       2.636   4.941  19.461  1.00  0.00     0.053 C 
BRANCH  17  18
ATOM     18  C   UNL     1       2.529   3.459  19.641  1.00  0.00     0.041 C 
ATOM     19  O   UNL     1       3.384   2.694  19.122  1.00  0.00    -0.550 OA
ATOM     20  O   UNL     1       1.453   2.920  20.335  1.00  0.00    -0.550 OA
ENDBRANCH  17  18
ENDBRANCH  16  17
ENDBRANCH  15  16
ENDBRANCH  14  15
ENDBRANCH  13  14
ENDBRANCH  12  13
ENDBRANCH  11  12
ENDBRANCH   1  11
TORSDOF 15
ENDMDL
MODEL 3
REMARK VINA RESULT:    -6.241      0.625      5.095
REMARK INTER + INTRA:         -13.053
REMARK INTER:                 -11.678
REMARK INTRA:                  -1.374
REMARK UNBOUND:                -1.338
REMARK SMILES O=C([O-])CCCCCCCCCCCCCCC(=O)[O-]
REMARK SMILES IDX 10 1 9 2 8 3 7 4 6 5 5 6 4 7 2 8 1 9 3 10 11 11 12 12 13 13
REMARK SMILES IDX 14 14 15 15 16 16 17 17 18 18 19 19 20 20
REMARK H PARENT
REMARK Flexibility Score: inf
ROOT
ATOM      1  C   UNL     1       4.491   8.782  16.738  1.00  0.00     0.000 C 
ENDROOT
BRANCH   1   2
ATOM      2  C   UNL     1       3.033   8.897  17.215  1.00  0.00     0.000 C 
BRANCH   2   3
ATOM      3  C   UNL     1       2.923   9.359  18.676  1.00  0.00     0.000 C 
BRANCH   3   4
ATOM      4  C   UNL     1       2.165   8.356  19.566  1.00  0.00     0.000 C 
BRANCH   4   5
ATOM      5  C   UNL     1       1.838   7.047  18.817  1.00  0.00     0.000 C 
BRANCH   5   6
ATOM      6  C   UNL     1       2.516   5.806  19.424  1.00  0.00     0.006 C 
BRANCH   6   7
ATOM      7  C   UNL     1       2.646   4.649  18.425  1.00  0.00     0.053 C 
BRANCH   7   8
ATOM      8  C   UNL     1       2.564   3.335  19.136  1.00  0.00     0.041 C 
ATOM      9  O   UNL     1       1.504   3.002  19.729  1.00  0.00    -0.550 OA
ATOM     10  O   UNL     1       3.639   2.455  19.101  1.00  0.00    -0.550 OA
ENDBRANCH   7   8
ENDBRANCH   6   7
ENDBRANCH   5   6
ENDBRANCH   4   5
ENDBRANCH   3   4
ENDBRANCH   2   3
ENDBRANCH   1   2
BRANCH   1  11
ATOM     11  C   UNL     1       4.670   7.717  15.643  1.00  0.00     0.000 C 
BRANCH  11  12
ATOM     12  C   UNL     1       6.140   7.512  15.250  1.00  0.00     0.000 C 
BRANCH  12  13
ATOM     13  C   UNL     1       6.271   7.247  13.742  1.00  0.00     0.000 C 
BRANCH  13  14
ATOM     14  C   UNL     1       4.966   6.730  13.116  1.00  0.00     0.000 C 
BRANCH  14  15
ATOM     15  C   UNL     1       4.971   5.203  12.916  1.00  0.00     0.000 C 
BRANCH  15  16
ATOM     16  C   UNL     1       4.202   4.463  14.021  1.00  0.00     0.006 C 
BRANCH  16  17
ATOM     17  C   UNL     1       4.313   2.938  13.895  1.00  0.00     0.053 C 
BRANCH  17  18
ATOM     18  C   UNL     1       3.903   2.277  15.174  1.00  0.00     0.041 C 
ATOM     19  O   UNL     1       2.696   2.288  15.534  1.00  0.00    -0.550 OA
ATOM     20  O   UNL     1       4.862   1.699  15.996  1.00  0.00    -0.550 OA
ENDBRANCH  17  18
ENDBRANCH  16  17
ENDBRANCH  15  16
ENDBRANCH  14  15
ENDBRANCH  13  14
ENDBRANCH  12  13
ENDBRANCH  11  12
ENDBRANCH   1  11
TORSDOF 15
ENDMDL
MODEL 4
REMARK VINA RESULT:    -6.046      1.378      2.016
REMARK INTER + INTRA:         -12.686
REMARK INTER:                 -11.548
REMARK INTRA:                  -1.138
REMARK UNBOUND:                -1.338
REMARK SMILES O=C([O-])CCCCCCCCCCCCCCC(=O)[O-]
REMARK SMILES IDX 10 1 9 2 8 3 7 4 6 5 5 6 4 7 2 8 1 9 3 10 11 11 12 12 13 13
REMARK SMILES IDX 14 14 15 15 16 16 17 17 18 18 19 19 20 20
REMARK H PARENT
REMARK Flexibility Score: inf
ROOT
ATOM      1  C   UNL     1       5.487   7.975  14.499  1.00  0.00     0.000 C 
ENDROOT
BRANCH   1   2
ATOM      2  C   UNL     1       5.270   6.782  13.552  1.00  0.00     0.000 C 
BRANCH   2   3
ATOM      3  C   UNL     1       4.697   5.552  14.272  1.00  0.00     0.000 C 
BRANCH   3   4
ATOM      4  C   UNL     1       3.940   4.602  13.325  1.00  0.00     0.000 C 
BRANCH   4   5
ATOM      5  C   UNL     1       4.516   3.170  13.356  1.00  0.00     0.000 C 
BRANCH   5   6
ATOM      6  C   UNL     1       3.967   2.311  14.508  1.00  0.00     0.006 C 
BRANCH   6   7
ATOM      7  C   UNL     1       5.026   1.987  15.569  1.00  0.00     0.053 C 
BRANCH   7   8
ATOM      8  C   UNL     1       4.562   0.865  16.443  1.00  0.00     0.041 C 
ATOM      9  O   UNL     1       4.870   0.846  17.664  1.00  0.00    -0.550 OA
ATOM     10  O   UNL     1       3.748  -0.133  15.922  1.00  0.00    -0.550 OA
ENDBRANCH   7   8
ENDBRANCH   6   7
ENDBRANCH   5   6
ENDBRANCH   4   5
ENDBRANCH   3   4
ENDBRANCH   2   3
ENDBRANCH   1   2
BRANCH   1  11
ATOM     11  C   UNL     1       4.809   7.772  15.864  1.00  0.00     0.000 C 
BRANCH  11  12
ATOM     12  C   UNL     1       3.858   8.921  16.230  1.00  0.00     0.000 C 
BRANCH  12  13
ATOM     13  C   UNL     1       3.843   9.156  17.749  1.00  0.00     0.000 C 
BRANCH  13  14
ATOM     14  C   UNL     1       2.422   9.157  18.334  1.00  0.00     0.000 C 
BRANCH  14  15
ATOM     15  C   UNL     1       2.157   7.944  19.243  1.00  0.00     0.000 C 
BRANCH  15  16
ATOM     16  C   UNL     1       2.306   6.608  18.500  1.00  0.00     0.006 C 
BRANCH  16  17
ATOM     17  C   UNL     1       2.364   5.406  19.453  1.00  0.00     0.053 C 
BRANCH  17  18
ATOM     18  C   UNL     1       2.808   4.179  18.720  1.00  0.00     0.041 C 
ATOM     19  O   UNL     1       3.216   3.173  19.358  1.00  0.00    -0.550 OA
ATOM     20  O   UNL     1       2.825   4.168  17.331  1.00  0.00    -0.550 OA
ENDBRANCH  17  18
ENDBRANCH  16  17
ENDBRANCH  15  16
ENDBRANCH  14  15
ENDBRANCH  13  14
ENDBRANCH  12  13
ENDBRANCH  11  12
ENDBRANCH   1  11
TORSDOF 15
ENDMDL
MODEL 5
REMARK VINA RESULT:    -6.002      2.763      5.002
REMARK INTER + INTRA:         -12.604
REMARK INTER:                 -11.393
REMARK INTRA:                  -1.211
REMARK UNBOUND:                -1.338
REMARK SMILES O=C([O-])CCCCCCCCCCCCCCC(=O)[O-]
REMARK SMILES IDX 10 1 9 2 8 3 7 4 6 5 5 6 4 7 2 8 1 9 3 10 11 11 12 12 13 13
REMARK SMILES IDX 14 14 15 15 16 16 17 17 18 18 19 19 20 20
REMARK H PARENT
REMARK Flexibility Score: inf
ROOT
ATOM      1  C   UNL     1       2.386   5.599  19.439  1.00  0.00     0.000 C 
ENDROOT
BRANCH   1   2
ATOM      2  C   UNL     1       2.712   4.424  18.500  1.00  0.00     0.000 C 
BRANCH   2   3
ATOM      3  C   UNL     1       2.666   4.823  17.017  1.00  0.00     0.000 C 
BRANCH   3   4
ATOM      4  C   UNL     1       3.559   3.934  16.131  1.00  0.00     0.000 C 
BRANCH   4   5
ATOM      5  C   UNL     1       3.001   2.502  15.994  1.00  0.00     0.000 C 
BRANCH   5   6
ATOM      6  C   UNL     1       3.955   1.537  15.269  1.00  0.00     0.006 C 
BRANCH   6   7
ATOM      7  C   UNL     1       5.197   1.190  16.098  1.00  0.00     0.053 C 
BRANCH   7   8
ATOM      8  C   UNL     1       4.898   0.067  17.041  1.00  0.00     0.041 C 
ATOM      9  O   UNL     1       4.231  -0.927  16.649  1.00  0.00    -0.550 OA
ATOM     10  O   UNL     1       5.399   0.093  18.336  1.00  0.00    -0.550 OA
ENDBRANCH   7   8
ENDBRANCH   6   7
ENDBRANCH   5   6
ENDBRANCH   4   5
ENDBRANCH   3   4
ENDBRANCH   2   3
ENDBRANCH   1   2
BRANCH   1  11
ATOM     11  C   UNL     1       2.116   6.905  18.674  1.00  0.00     0.000 C 
BRANCH  11  12
ATOM     12  C   UNL     1       2.152   8.143  19.583  1.00  0.00     0.000 C 
BRANCH  12  13
ATOM     13  C   UNL     1       2.758   9.347  18.844  1.00  0.00     0.000 C 
BRANCH  13  14
ATOM     14  C   UNL     1       2.914   9.098  17.335  1.00  0.00     0.000 C 
BRANCH  14  15
ATOM     15  C   UNL     1       4.374   8.824  16.930  1.00  0.00     0.000 C 
BRANCH  15  16
ATOM     16  C   UNL     1       4.490   7.745  15.842  1.00  0.00     0.006 C 
BRANCH  16  17
ATOM     17  C   UNL     1       5.937   7.533  15.375  1.00  0.00     0.053 C 
BRANCH  17  18
ATOM     18  C   UNL     1       6.192   8.288  14.109  1.00  0.00     0.041 C 
ATOM     19  O   UNL     1       7.349   8.319  13.612  1.00  0.00    -0.550 OA
ATOM     20  O   UNL     1       5.165   9.005  13.508  1.00  0.00    -0.550 OA
ENDBRANCH  17  18
ENDBRANCH  16  17
ENDBRANCH  15  16
ENDBRANCH  14  15
ENDBRANCH  13  14
ENDBRANCH  12  13
ENDBRANCH  11  12
ENDBRANCH   1  11
TORSDOF 15
ENDMDL
MODEL 6
REMARK VINA RESULT:    -5.948      2.384      5.116
REMARK INTER + INTRA:         -12.502
REMARK INTER:                 -11.340
REMARK INTRA:                  -1.162
REMARK UNBOUND:                -1.338
REMARK SMILES O=C([O-])CCCCCCCCCCCCCCC(=O)[O-]
REMARK SMILES IDX 10 1 9 2 8 3 7 4 6 5 5 6 4 7 2 8 1 9 3 10 11 11 12 12 13 13
REMARK SMILES IDX 14 14 15 15 16 16 17 17 18 18 19 19 20 20
REMARK H PARENT
REMARK Flexibility Score: inf
ROOT
ATOM      1  C   UNL     1       4.216   4.271  13.263  1.00  0.00     0.000 C 
ENDROOT
BRANCH   1   2
ATOM      2  C   UNL     1       4.483   2.901  13.910  1.00  0.00     0.000 C 
BRANCH   2   3
ATOM      3  C   UNL     1       3.348   2.458  14.846  1.00  0.00     0.000 C 
BRANCH   3   4
ATOM      4  C   UNL     1       3.856   1.979  16.219  1.00  0.00     0.000 C 
BRANCH   4   5
ATOM      5  C   UNL     1       3.400   2.908  17.364  1.00  0.00     0.000 C 
BRANCH   5   6
ATOM      6  C   UNL     1       2.814   4.244  16.875  1.00  0.00     0.006 C 
BRANCH   6   7
ATOM      7  C   UNL     1       2.653   5.273  18.001  1.00  0.00     0.053 C 
BRANCH   7   8
ATOM      8  C   UNL     1       2.110   4.618  19.233  1.00  0.00     0.041 C 
ATOM      9  O   UNL     1       0.924   4.195  19.253  1.00  0.00    -0.550 OA
ATOM     10  O   UNL     1       2.929   4.427  20.339  1.00  0.00    -0.550 OA
ENDBRANCH   7   8
ENDBRANCH   6   7
ENDBRANCH   5   6
ENDBRANCH   4   5
ENDBRANCH   3   4
ENDBRANCH   2   3
ENDBRANCH   1   2
BRANCH   1  11
ATOM     11  C   UNL     1       4.867   5.426  14.041  1.00  0.00     0.000 C 
BRANCH  11  12
ATOM     12  C   UNL     1       5.291   6.589  13.131  1.00  0.00     0.000 C 
BRANCH  12  13
ATOM     13  C   UNL     1       6.203   7.570  13.886  1.00  0.00     0.000 C 
BRANCH  13  14
ATOM     14  C   UNL     1       5.834   7.696  15.373  1.00  0.00     0.000 C 
BRANCH  14  15
ATOM     15  C   UNL     1       4.479   8.393  15.589  1.00  0.00     0.000 C 
BRANCH  15  16
ATOM     16  C   UNL     1       4.322   8.948  17.013  1.00  0.00     0.006 C 
BRANCH  16  17
ATOM     17  C   UNL     1       2.877   8.862  17.523  1.00  0.00     0.053 C 
BRANCH  17  18
ATOM     18  C   UNL     1       2.795   9.334  18.941  1.00  0.00     0.041 C 
ATOM     19  O   UNL     1       3.633  10.163  19.382  1.00  0.00    -0.550 OA
ATOM     20  O   UNL     1       1.827   8.814  19.790  1.00  0.00    -0.550 OA
ENDBRANCH  17  18
ENDBRANCH  16  17
ENDBRANCH  15  16
ENDBRANCH  14  15
ENDBRANCH  13  14
ENDBRANCH  12  13
ENDBRANCH  11  12
ENDBRANCH   1  11
TORSDOF 15
ENDMDL
MODEL 7
REMARK VINA RESULT:    -5.918      2.458      5.926
REMARK INTER + INTRA:         -12.446
REMARK INTER:                 -11.130
REMARK INTRA:                  -1.316
REMARK UNBOUND:                -1.338
REMARK SMILES O=C([O-])CCCCCCCCCCCCCCC(=O)[O-]
REMARK SMILES IDX 10 1 9 2 8 3 7 4 6 5 5 6 4 7 2 8 1 9 3 10 11 11 12 12 13 13
REMARK SMILES IDX 14 14 15 15 16 16 17 17 18 18 19 19 20 20
REMARK H PARENT
REMARK Flexibility Score: inf
ROOT
ATOM      1  C   UNL     1       2.312   5.684  19.629  1.00  0.00     0.000 C 
ENDROOT
BRANCH   1   2
ATOM      2  C   UNL     1       2.221   6.793  18.567  1.00  0.00     0.000 C 
BRANCH   2   3
ATOM      3  C   UNL     1       2.158   8.199  19.183  1.00  0.00     0.000 C 
BRANCH   3   4
ATOM      4  C   UNL     1       2.556   9.306  18.190  1.00  0.00     0.000 C 
BRANCH   4   5
ATOM      5  C   UNL     1       3.972   9.090  17.614  1.00  0.00     0.000 C 
BRANCH   5   6
ATOM      6  C   UNL     1       3.993   8.903  16.087  1.00  0.00     0.006 C 
BRANCH   6   7
ATOM      7  C   UNL     1       4.872   7.729  15.641  1.00  0.00     0.053 C 
BRANCH   7   8
ATOM      8  C   UNL     1       5.326   7.924  14.229  1.00  0.00     0.041 C 
ATOM      9  O   UNL     1       5.898   6.986  13.612  1.00  0.00    -0.550 OA
ATOM     10  O   UNL     1       5.074   9.124  13.575  1.00  0.00    -0.550 OA
ENDBRANCH   7   8
ENDBRANCH   6   7
ENDBRANCH   5   6
ENDBRANCH   4   5
ENDBRANCH   3   4
ENDBRANCH   2   3
ENDBRANCH   1   2
BRANCH   1  11
ATOM     11  C   UNL     1       1.887   4.310  19.083  1.00  0.00     0.000 C 
BRANCH  11  12
ATOM     12  C   UNL     1       3.011   3.267  19.167  1.00  0.00     0.000 C 
BRANCH  12  13
ATOM     13  C   UNL     1       3.508   2.884  17.764  1.00  0.00     0.000 C 
BRANCH  13  14
ATOM     14  C   UNL     1       2.761   3.631  16.647  1.00  0.00     0.000 C 
BRANCH  14  15
ATOM     15  C   UNL     1       3.716   4.251  15.611  1.00  0.00     0.000 C 
BRANCH  15  16
ATOM     16  C   UNL     1       3.753   3.461  14.295  1.00  0.00     0.006 C 
BRANCH  16  17
ATOM     17  C   UNL     1       4.562   2.162  14.409  1.00  0.00     0.053 C 
BRANCH  17  18
ATOM     18  C   UNL     1       3.724   0.987  14.014  1.00  0.00     0.041 C 
ATOM     19  O   UNL     1       2.622   0.775  14.585  1.00  0.00    -0.550 OA
ATOM     20  O   UNL     1       4.187   0.095  13.055  1.00  0.00    -0.550 OA
ENDBRANCH  17  18
ENDBRANCH  16  17
ENDBRANCH  15  16
ENDBRANCH  14  15
ENDBRANCH  13  14
ENDBRANCH  12  13
ENDBRANCH  11  12
ENDBRANCH   1  11
TORSDOF 15
ENDMDL
MODEL 8
REMARK VINA RESULT:    -5.796      1.223      5.037
REMARK INTER + INTRA:         -12.216
REMARK INTER:                 -10.714
REMARK INTRA:                  -1.502
REMARK UNBOUND:                -1.338
REMARK SMILES O=C([O-])CCCCCCCCCCCCCCC(=O)[O-]
REMARK SMILES IDX 10 1 9 2 8 3 7 4 6 5 5 6 4 7 2 8 1 9 3 10 11 11 12 12 13 13
REMARK SMILES IDX 14 14 15 15 16 16 17 17 18 18 19 19 20 20
REMARK H PARENT
REMARK Flexibility Score: inf
ROOT
ATOM      1  C   UNL     1       6.002   7.942  15.508  1.00  0.00     0.000 C 
ENDROOT
BRANCH   1   2
ATOM      2  C   UNL     1       4.531   8.374  15.641  1.00  0.00     0.000 C 
BRANCH   2   3
ATOM      3  C   UNL     1       3.778   7.581  16.719  1.00  0.00     0.000 C 
BRANCH   3   4
ATOM      4  C   UNL     1       3.021   8.486  17.709  1.00  0.00     0.000 C 
BRANCH   4   5
ATOM      5  C   UNL     1       2.264   7.672  18.780  1.00  0.00     0.000 C 
BRANCH   5   6
ATOM      6  C   UNL     1       2.164   6.172  18.455  1.00  0.00     0.006 C 
BRANCH   6   7
ATOM      7  C   UNL     1       2.599   5.278  19.623  1.00  0.00     0.053 C 
BRANCH   7   8
ATOM      8  C   UNL     1       2.483   3.834  19.246  1.00  0.00     0.041 C 
ATOM      9  O   UNL     1       1.562   3.125  19.733  1.00  0.00    -0.550 OA
ATOM     10  O   UNL     1       3.358   3.284  18.318  1.00  0.00    -0.550 OA
ENDBRANCH   7   8
ENDBRANCH   6   7
ENDBRANCH   5   6
ENDBRANCH   4   5
ENDBRANCH   3   4
ENDBRANCH   2   3
ENDBRANCH   1   2
BRANCH   1  11
ATOM     11  C   UNL     1       6.249   7.065  14.269  1.00  0.00     0.000 C 
BRANCH  11  12
ATOM     12  C   UNL     1       5.101   7.143  13.252  1.00  0.00     0.000 C 
BRANCH  12  13
ATOM     13  C   UNL     1       4.530   5.745  12.964  1.00  0.00     0.000 C 
BRANCH  13  14
ATOM     14  C   UNL     1       4.760   4.761  14.122  1.00  0.00     0.000 C 
BRANCH  14  15
ATOM     15  C   UNL     1       3.443   4.238  14.723  1.00  0.00     0.000 C 
BRANCH  15  16
ATOM     16  C   UNL     1       3.377   2.703  14.751  1.00  0.00     0.006 C 
BRANCH  16  17
ATOM     17  C   UNL     1       4.539   2.049  13.992  1.00  0.00     0.053 C 
BRANCH  17  18
ATOM     18  C   UNL     1       5.258   1.077  14.874  1.00  0.00     0.041 C 
ATOM     19  O   UNL     1       5.435  -0.111  14.494  1.00  0.00    -0.550 OA
ATOM     20  O   UNL     1       5.681   1.466  16.138  1.00  0.00    -0.550 OA
ENDBRANCH  17  18
ENDBRANCH  16  17
ENDBRANCH  15  16
ENDBRANCH  14  15
ENDBRANCH  13  14
ENDBRANCH  12  13
ENDBRANCH  11  12
ENDBRANCH   1  11
TORSDOF 15
ENDMDL
MODEL 9
REMARK VINA RESULT:    -5.784      1.430      2.779
REMARK INTER + INTRA:         -12.193
REMARK INTER:                 -10.721
REMARK INTRA:                  -1.472
REMARK UNBOUND:                -1.338
REMARK SMILES O=C([O-])CCCCCCCCCCCCCCC(=O)[O-]
REMARK SMILES IDX 10 1 9 2 8 3 7 4 6 5 5 6 4 7 2 8 1 9 3 10 11 11 12 12 13 13
REMARK SMILES IDX 14 14 15 15 16 16 17 17 18 18 19 19 20 20
REMARK H PARENT
REMARK Flexibility Score: inf
ROOT
ATOM      1  C   UNL     1       5.283   6.385  14.309  1.00  0.00     0.000 C 
ENDROOT
BRANCH   1   2
ATOM      2  C   UNL     1       4.852   5.561  13.083  1.00  0.00     0.000 C 
BRANCH   2   3
ATOM      3  C   UNL     1       4.112   4.271  13.468  1.00  0.00     0.000 C 
BRANCH   3   4
ATOM      4  C   UNL     1       3.685   4.245  14.947  1.00  0.00     0.000 C 
BRANCH   4   5
ATOM      5  C   UNL     1       2.604   3.178  15.222  1.00  0.00     0.000 C 
BRANCH   5   6
ATOM      6  C   UNL     1       3.180   1.791  15.558  1.00  0.00     0.006 C 
BRANCH   6   7
ATOM      7  C   UNL     1       2.935   0.759  14.451  1.00  0.00     0.053 C 
BRANCH   7   8
ATOM      8  C   UNL     1       1.865  -0.203  14.863  1.00  0.00     0.041 C 
ATOM      9  O   UNL     1       0.658   0.156  14.864  1.00  0.00    -0.550 OA
ATOM     10  O   UNL     1       2.195  -1.511  15.195  1.00  0.00    -0.550 OA
ENDBRANCH   7   8
ENDBRANCH   6   7
ENDBRANCH   5   6
ENDBRANCH   4   5
ENDBRANCH   3   4
ENDBRANCH   2   3
ENDBRANCH   1   2
BRANCH   1  11
ATOM     11  C   UNL     1       5.422   7.883  13.991  1.00  0.00     0.000 C 
BRANCH  11  12
ATOM     12  C   UNL     1       4.793   8.777  15.070  1.00  0.00     0.000 C 
BRANCH  12  13
ATOM     13  C   UNL     1       4.328   7.940  16.272  1.00  0.00     0.000 C 
BRANCH  13  14
ATOM     14  C   UNL     1       3.389   8.717  17.208  1.00  0.00     0.000 C 
BRANCH  14  15
ATOM     15  C   UNL     1       2.634   7.797  18.185  1.00  0.00     0.000 C 
BRANCH  15  16
ATOM     16  C   UNL     1       2.757   6.313  17.809  1.00  0.00     0.006 C 
BRANCH  16  17
ATOM     17  C   UNL     1       1.578   5.475  18.323  1.00  0.00     0.053 C 
BRANCH  17  18
ATOM     18  C   UNL     1       2.071   4.211  18.953  1.00  0.00     0.041 C 
ATOM     19  O   UNL     1       1.435   3.688  19.906  1.00  0.00    -0.550 OA
ATOM     20  O   UNL     1       3.263   3.640  18.525  1.00  0.00    -0.550 OA
ENDBRANCH  17  18
ENDBRANCH  16  17
ENDBRANCH  15  16
ENDBRANCH  14  15
ENDBRANCH  13  14
ENDBRANCH  12  13
ENDBRANCH  11  12
ENDBRANCH   1  11
TORSDOF 15
ENDMDL
