MODEL 1
REMARK VINA RESULT:    -6.564      0.000      0.000
REMARK INTER + INTRA:          -7.331
REMARK INTER:                  -7.331
REMARK INTRA:                   0.000
REMARK UNBOUND:                 0.000
REMARK SMILES Oc1cc(O)c2c(c1)CCc1cc(O)c(O)cc1-2
REMARK SMILES IDX 10 1 9 2 7 3 6 4 18 5 17 6 15 7 13 8 12 9 11 10 4 11 3 12
REMARK SMILES IDX 2 13 8 14 14 15 5 17 1 19 16 21
REMARK H PARENT 14 16 5 18 1 20 16 22
REMARK Flexibility Score: inf
ROOT
ATOM      1  C   UNL     1      10.548   2.491  26.979  1.00  0.00     0.041 C 
ATOM      2  C   UNL     1      11.635   1.687  27.703  1.00  0.00     0.041 C 
ATOM      3  C   UNL     1      11.500   1.841  29.199  1.00  0.00    -0.032 A 
ATOM      4  C   UNL     1      10.215   1.939  29.788  1.00  0.00     0.027 A 
ATOM      5  C   UNL     1       9.020   1.855  28.888  1.00  0.00    -0.007 A 
ATOM      6  C   UNL     1       7.760   1.418  29.343  1.00  0.00     0.059 A 
ATOM      7  C   UNL     1       6.664   1.358  28.470  1.00  0.00     0.158 A 
ATOM      8  C   UNL     1       6.825   1.710  27.121  1.00  0.00     0.157 A 
ATOM      9  C   UNL     1       8.083   2.087  26.647  1.00  0.00     0.054 A 
ATOM     10  C   UNL     1       9.186   2.130  27.513  1.00  0.00    -0.036 A 
ATOM     11  C   UNL     1      10.124   2.186  31.181  1.00  0.00     0.127 A 
ATOM     12  C   UNL     1      11.286   2.197  31.966  1.00  0.00     0.093 A 
ATOM     13  C   UNL     1      12.543   2.019  31.382  1.00  0.00     0.119 A 
ATOM     14  C   UNL     1      12.648   1.849  30.003  1.00  0.00     0.050 A 
ENDROOT
BRANCH   8  15
ATOM     15  O   UNL     1       5.749   1.677  26.233  1.00  0.00    -0.504 OA
ATOM     16  H   UNL     1       5.860   1.868  25.245  1.00  0.00     0.293 HD
ENDBRANCH   8  15
BRANCH  11  17
ATOM     17  O   UNL     1       8.898   2.460  31.785  1.00  0.00    -0.507 OA
ATOM     18  H   UNL     1       8.031   2.068  31.437  1.00  0.00     0.293 HD
ENDBRANCH  11  17
BRANCH  13  19
ATOM     19  O   UNL     1      13.696   2.023  32.164  1.00  0.00    -0.508 OA
ATOM     20  H   UNL     1      14.530   1.521  31.882  1.00  0.00     0.293 HD
ENDBRANCH  13  19
BRANCH   7  21
ATOM     21  O   UNL     1       5.418   0.942  28.937  1.00  0.00    -0.504 OA
ATOM     22  H   UNL     1       4.619   0.863  28.320  1.00  0.00     0.293 HD
ENDBRANCH   7  21
TORSDOF 4
ENDMDL
MODEL 2
REMARK VINA RESULT:    -6.533      5.769      7.632
REMARK INTER + INTRA:          -7.297
REMARK INTER:                  -7.297
REMARK INTRA:                   0.000
REMARK UNBOUND:                 0.000
REMARK SMILES Oc1cc(O)c2c(c1)CCc1cc(O)c(O)cc1-2
REMARK SMILES IDX 10 1 9 2 7 3 6 4 18 5 17 6 15 7 13 8 12 9 11 10 4 11 3 12
REMARK SMILES IDX 2 13 8 14 14 15 5 17 1 19 16 21
REMARK H PARENT 14 16 5 18 1 20 16 22
REMARK Flexibility Score: inf
ROOT
ATOM      1  C   UNL     1      11.078  -5.286  28.849  1.00  0.00     0.041 C 
ATOM      2  C   UNL     1      11.080  -4.003  28.011  1.00  0.00     0.041 C 
ATOM      3  C   UNL     1      10.230  -2.941  28.664  1.00  0.00    -0.032 A 
ATOM      4  C   UNL     1      10.192  -2.834  30.076  1.00  0.00     0.027 A 
ATOM      5  C   UNL     1      11.035  -3.779  30.877  1.00  0.00    -0.007 A 
ATOM      6  C   UNL     1      11.497  -3.470  32.172  1.00  0.00     0.059 A 
ATOM      7  C   UNL     1      12.280  -4.385  32.891  1.00  0.00     0.158 A 
ATOM      8  C   UNL     1      12.634  -5.612  32.308  1.00  0.00     0.157 A 
ATOM      9  C   UNL     1      12.232  -5.902  31.004  1.00  0.00     0.054 A 
ATOM     10  C   UNL     1      11.464  -4.982  30.273  1.00  0.00    -0.036 A 
ATOM     11  C   UNL     1       9.306  -1.895  30.662  1.00  0.00     0.127 A 
ATOM     12  C   UNL     1       8.589  -1.007  29.848  1.00  0.00     0.093 A 
ATOM     13  C   UNL     1       8.698  -1.071  28.456  1.00  0.00     0.119 A 
ATOM     14  C   UNL     1       9.510  -2.040  27.868  1.00  0.00     0.050 A 
ENDROOT
BRANCH   8  15
ATOM     15  O   UNL     1      13.398  -6.548  33.006  1.00  0.00    -0.504 OA
ATOM     16  H   UNL     1      14.103  -6.273  33.679  1.00  0.00     0.293 HD
ENDBRANCH   8  15
BRANCH  11  17
ATOM     17  O   UNL     1       9.100  -1.863  32.041  1.00  0.00    -0.507 OA
ATOM     18  H   UNL     1       9.811  -1.528  32.680  1.00  0.00     0.293 HD
ENDBRANCH  11  17
BRANCH  13  19
ATOM     19  O   UNL     1       7.991  -0.184  27.647  1.00  0.00    -0.508 OA
ATOM     20  H   UNL     1       8.266  -0.007  26.688  1.00  0.00     0.293 HD
ENDBRANCH  13  19
BRANCH   7  21
ATOM     21  O   UNL     1      12.714  -4.074  34.178  1.00  0.00    -0.504 OA
ATOM     22  H   UNL     1      12.618  -3.142  34.562  1.00  0.00     0.293 HD
ENDBRANCH   7  21
TORSDOF 4
ENDMDL
MODEL 3
REMARK VINA RESULT:    -6.515      4.587      4.752
REMARK INTER + INTRA:          -7.277
REMARK INTER:                  -7.277
REMARK INTRA:                   0.000
REMARK UNBOUND:                 0.000
REMARK SMILES Oc1cc(O)c2c(c1)CCc1cc(O)c(O)cc1-2
REMARK SMILES IDX 10 1 9 2 7 3 6 4 18 5 17 6 15 7 13 8 12 9 11 10 4 11 3 12
REMARK SMILES IDX 2 13 8 14 14 15 5 17 1 19 16 21
REMARK H PARENT 14 16 5 18 1 20 16 22
REMARK Flexibility Score: inf
ROOT
ATOM      1  C   UNL     1      12.267  -1.820  28.218  1.00  0.00     0.041 C 
ATOM      2  C   UNL     1      12.602  -3.237  28.698  1.00  0.00     0.041 C 
ATOM      3  C   UNL     1      12.216  -3.412  30.147  1.00  0.00    -0.032 A 
ATOM      4  C   UNL     1      11.055  -2.776  30.652  1.00  0.00     0.027 A 
ATOM      5  C   UNL     1      10.226  -1.966  29.702  1.00  0.00    -0.007 A 
ATOM      6  C   UNL     1       8.850  -1.737  29.902  1.00  0.00     0.059 A 
ATOM      7  C   UNL     1       8.111  -0.969  28.991  1.00  0.00     0.158 A 
ATOM      8  C   UNL     1       8.738  -0.441  27.852  1.00  0.00     0.157 A 
ATOM      9  C   UNL     1      10.086  -0.710  27.614  1.00  0.00     0.054 A 
ATOM     10  C   UNL     1      10.825  -1.495  28.512  1.00  0.00    -0.036 A 
ATOM     11  C   UNL     1      10.775  -2.875  32.038  1.00  0.00     0.127 A 
ATOM     12  C   UNL     1      11.566  -3.696  32.854  1.00  0.00     0.093 A 
ATOM     13  C   UNL     1      12.663  -4.382  32.325  1.00  0.00     0.119 A 
ATOM     14  C   UNL     1      12.989  -4.233  30.978  1.00  0.00     0.050 A 
ENDROOT
BRANCH   8  15
ATOM     15  O   UNL     1       8.031   0.342  26.938  1.00  0.00    -0.504 OA
ATOM     16  H   UNL     1       7.096   0.681  27.130  1.00  0.00     0.293 HD
ENDBRANCH   8  15
BRANCH  11  17
ATOM     17  O   UNL     1       9.747  -2.134  32.619  1.00  0.00    -0.507 OA
ATOM     18  H   UNL     1       8.944  -2.579  33.047  1.00  0.00     0.293 HD
ENDBRANCH  11  17
BRANCH  13  19
ATOM     19  O   UNL     1      13.444  -5.204  33.135  1.00  0.00    -0.508 OA
ATOM     20  H   UNL     1      13.027  -5.900  33.742  1.00  0.00     0.293 HD
ENDBRANCH  13  19
BRANCH   7  21
ATOM     21  O   UNL     1       6.755  -0.735  29.212  1.00  0.00    -0.504 OA
ATOM     22  H   UNL     1       6.041  -1.346  28.832  1.00  0.00     0.293 HD
ENDBRANCH   7  21
TORSDOF 4
ENDMDL
MODEL 4
REMARK VINA RESULT:    -6.485      2.368      3.041
REMARK INTER + INTRA:          -7.244
REMARK INTER:                  -7.244
REMARK INTRA:                   0.000
REMARK UNBOUND:                 0.000
REMARK SMILES Oc1cc(O)c2c(c1)CCc1cc(O)c(O)cc1-2
REMARK SMILES IDX 10 1 9 2 7 3 6 4 18 5 17 6 15 7 13 8 12 9 11 10 4 11 3 12
REMARK SMILES IDX 2 13 8 14 14 15 5 17 1 19 16 21
REMARK H PARENT 14 16 5 18 1 20 16 22
REMARK Flexibility Score: inf
ROOT
ATOM      1  C   UNL     1       9.893   3.098  29.711  1.00  0.00     0.041 C 
ATOM      2  C   UNL     1      11.223   2.494  29.244  1.00  0.00     0.041 C 
ATOM      3  C   UNL     1      11.091   1.003  29.054  1.00  0.00    -0.032 A 
ATOM      4  C   UNL     1       9.881   0.456  28.559  1.00  0.00     0.027 A 
ATOM      5  C   UNL     1       8.772   1.402  28.211  1.00  0.00    -0.007 A 
ATOM      6  C   UNL     1       7.778   1.086  27.263  1.00  0.00     0.059 A 
ATOM      7  C   UNL     1       6.754   1.998  26.968  1.00  0.00     0.158 A 
ATOM      8  C   UNL     1       6.729   3.250  27.601  1.00  0.00     0.157 A 
ATOM      9  C   UNL     1       7.742   3.595  28.497  1.00  0.00     0.054 A 
ATOM     10  C   UNL     1       8.779   2.695  28.780  1.00  0.00    -0.036 A 
ATOM     11  C   UNL     1       9.751  -0.954  28.489  1.00  0.00     0.127 A 
ATOM     12  C   UNL     1      10.851  -1.772  28.781  1.00  0.00     0.093 A 
ATOM     13  C   UNL     1      12.066  -1.215  29.191  1.00  0.00     0.119 A 
ATOM     14  C   UNL     1      12.180   0.167  29.335  1.00  0.00     0.050 A 
ENDROOT
BRANCH   8  15
ATOM     15  O   UNL     1       5.712   4.170  27.340  1.00  0.00    -0.504 OA
ATOM     16  H   UNL     1       5.720   5.105  27.727  1.00  0.00     0.293 HD
ENDBRANCH   8  15
BRANCH  11  17
ATOM     17  O   UNL     1       8.531  -1.549  28.173  1.00  0.00    -0.507 OA
ATOM     18  H   UNL     1       8.152  -2.313  28.719  1.00  0.00     0.293 HD
ENDBRANCH  11  17
BRANCH  13  19
ATOM     19  O   UNL     1      13.161  -2.028  29.474  1.00  0.00    -0.508 OA
ATOM     20  H   UNL     1      13.416  -2.262  30.427  1.00  0.00     0.293 HD
ENDBRANCH  13  19
BRANCH   7  21
ATOM     21  O   UNL     1       5.766   1.666  26.042  1.00  0.00    -0.504 OA
ATOM     22  H   UNL     1       5.592   0.705  25.772  1.00  0.00     0.293 HD
ENDBRANCH   7  21
TORSDOF 4
ENDMDL
MODEL 5
REMARK VINA RESULT:    -6.407      5.206      6.099
REMARK INTER + INTRA:          -7.156
REMARK INTER:                  -7.156
REMARK INTRA:                   0.000
REMARK UNBOUND:                 0.000
REMARK SMILES Oc1cc(O)c2c(c1)CCc1cc(O)c(O)cc1-2
REMARK SMILES IDX 10 1 9 2 7 3 6 4 18 5 17 6 15 7 13 8 12 9 11 10 4 11 3 12
REMARK SMILES IDX 2 13 8 14 14 15 5 17 1 19 16 21
REMARK H PARENT 14 16 5 18 1 20 16 22
REMARK Flexibility Score: inf
ROOT
ATOM      1  C   UNL     1      11.494  -3.449  30.735  1.00  0.00     0.041 C 
ATOM      2  C   UNL     1      10.512  -3.023  31.832  1.00  0.00     0.041 C 
ATOM      3  C   UNL     1       9.600  -1.929  31.332  1.00  0.00    -0.032 A 
ATOM      4  C   UNL     1       9.161  -1.933  29.985  1.00  0.00     0.027 A 
ATOM      5  C   UNL     1       9.603  -3.062  29.104  1.00  0.00    -0.007 A 
ATOM      6  C   UNL     1       8.866  -3.476  27.977  1.00  0.00     0.059 A 
ATOM      7  C   UNL     1       9.317  -4.535  27.175  1.00  0.00     0.158 A 
ATOM      8  C   UNL     1      10.502  -5.209  27.509  1.00  0.00     0.157 A 
ATOM      9  C   UNL     1      11.208  -4.845  28.656  1.00  0.00     0.054 A 
ATOM     10  C   UNL     1      10.750  -3.800  29.473  1.00  0.00    -0.036 A 
ATOM     11  C   UNL     1       8.391  -0.839  29.519  1.00  0.00     0.127 A 
ATOM     12  C   UNL     1       7.969   0.153  30.416  1.00  0.00     0.093 A 
ATOM     13  C   UNL     1       8.344   0.102  31.762  1.00  0.00     0.119 A 
ATOM     14  C   UNL     1       9.163  -0.931  32.214  1.00  0.00     0.050 A 
ENDROOT
BRANCH   8  15
ATOM     15  O   UNL     1      10.984  -6.254  26.719  1.00  0.00    -0.504 OA
ATOM     16  H   UNL     1      11.882  -6.688  26.891  1.00  0.00     0.293 HD
ENDBRANCH   8  15
BRANCH  11  17
ATOM     17  O   UNL     1       8.075  -0.705  28.167  1.00  0.00    -0.507 OA
ATOM     18  H   UNL     1       8.025  -1.505  27.548  1.00  0.00     0.293 HD
ENDBRANCH  11  17
BRANCH  13  19
ATOM     19  O   UNL     1       7.919   1.083  32.654  1.00  0.00    -0.508 OA
ATOM     20  H   UNL     1       6.935   1.276  32.803  1.00  0.00     0.293 HD
ENDBRANCH  13  19
BRANCH   7  21
ATOM     21  O   UNL     1       8.588  -4.922  26.052  1.00  0.00    -0.504 OA
ATOM     22  H   UNL     1       9.033  -5.068  25.154  1.00  0.00     0.293 HD
ENDBRANCH   7  21
TORSDOF 4
ENDMDL
MODEL 6
REMARK VINA RESULT:    -6.361      6.510      6.827
REMARK INTER + INTRA:          -7.105
REMARK INTER:                  -7.105
REMARK INTRA:                   0.000
REMARK UNBOUND:                 0.000
REMARK SMILES Oc1cc(O)c2c(c1)CCc1cc(O)c(O)cc1-2
REMARK SMILES IDX 10 1 9 2 7 3 6 4 18 5 17 6 15 7 13 8 12 9 11 10 4 11 3 12
REMARK SMILES IDX 2 13 8 14 14 15 5 17 1 19 16 21
REMARK H PARENT 14 16 5 18 1 20 16 22
REMARK Flexibility Score: inf
ROOT
ATOM      1  C   UNL     1       8.504  -2.643  28.884  1.00  0.00     0.041 C 
ATOM      2  C   UNL     1       9.445  -1.789  29.742  1.00  0.00     0.041 C 
ATOM      3  C   UNL     1      10.222  -2.657  30.702  1.00  0.00    -0.032 A 
ATOM      4  C   UNL     1      10.644  -3.949  30.305  1.00  0.00     0.027 A 
ATOM      5  C   UNL     1      10.321  -4.399  28.913  1.00  0.00    -0.007 A 
ATOM      6  C   UNL     1      11.087  -5.366  28.232  1.00  0.00     0.059 A 
ATOM      7  C   UNL     1      10.749  -5.763  26.931  1.00  0.00     0.158 A 
ATOM      8  C   UNL     1       9.652  -5.174  26.283  1.00  0.00     0.157 A 
ATOM      9  C   UNL     1       8.922  -4.173  26.926  1.00  0.00     0.054 A 
ATOM     10  C   UNL     1       9.269  -3.759  28.220  1.00  0.00    -0.036 A 
ATOM     11  C   UNL     1      11.280  -4.779  31.262  1.00  0.00     0.127 A 
ATOM     12  C   UNL     1      11.597  -4.270  32.529  1.00  0.00     0.093 A 
ATOM     13  C   UNL     1      11.246  -2.963  32.880  1.00  0.00     0.119 A 
ATOM     14  C   UNL     1      10.554  -2.164  31.972  1.00  0.00     0.050 A 
ENDROOT
BRANCH   8  15
ATOM     15  O   UNL     1       9.281  -5.562  24.995  1.00  0.00    -0.504 OA
ATOM     16  H   UNL     1       9.957  -5.896  24.318  1.00  0.00     0.293 HD
ENDBRANCH   8  15
BRANCH  11  17
ATOM     17  O   UNL     1      11.564  -6.115  30.981  1.00  0.00    -0.507 OA
ATOM     18  H   UNL     1      12.345  -6.597  31.409  1.00  0.00     0.293 HD
ENDBRANCH  11  17
BRANCH  13  19
ATOM     19  O   UNL     1      11.567  -2.455  34.136  1.00  0.00    -0.508 OA
ATOM     20  H   UNL     1      12.303  -2.863  34.702  1.00  0.00     0.293 HD
ENDBRANCH  13  19
BRANCH   7  21
ATOM     21  O   UNL     1      11.504  -6.735  26.276  1.00  0.00    -0.504 OA
ATOM     22  H   UNL     1      11.164  -7.681  26.157  1.00  0.00     0.293 HD
ENDBRANCH   7  21
TORSDOF 4
ENDMDL
MODEL 7
REMARK VINA RESULT:    -6.326      6.729      8.450
REMARK INTER + INTRA:          -7.066
REMARK INTER:                  -7.066
REMARK INTRA:                   0.000
REMARK UNBOUND:                 0.000
REMARK SMILES Oc1cc(O)c2c(c1)CCc1cc(O)c(O)cc1-2
REMARK SMILES IDX 10 1 9 2 7 3 6 4 18 5 17 6 15 7 13 8 12 9 11 10 4 11 3 12
REMARK SMILES IDX 2 13 8 14 14 15 5 17 1 19 16 21
REMARK H PARENT 14 16 5 18 1 20 16 22
REMARK Flexibility Score: inf
ROOT
ATOM      1  C   UNL     1      12.565  -2.384  29.855  1.00  0.00     0.041 C 
ATOM      2  C   UNL     1      11.404  -1.804  29.038  1.00  0.00     0.041 C 
ATOM      3  C   UNL     1      11.061  -2.715  27.884  1.00  0.00    -0.032 A 
ATOM      4  C   UNL     1      11.153  -4.120  28.039  1.00  0.00     0.027 A 
ATOM      5  C   UNL     1      11.566  -4.655  29.376  1.00  0.00    -0.007 A 
ATOM      6  C   UNL     1      11.203  -5.943  29.821  1.00  0.00     0.059 A 
ATOM      7  C   UNL     1      11.614  -6.409  31.078  1.00  0.00     0.158 A 
ATOM      8  C   UNL     1      12.374  -5.579  31.917  1.00  0.00     0.157 A 
ATOM      9  C   UNL     1      12.687  -4.281  31.510  1.00  0.00     0.054 A 
ATOM     10  C   UNL     1      12.262  -3.803  30.262  1.00  0.00    -0.036 A 
ATOM     11  C   UNL     1      10.924  -4.943  26.908  1.00  0.00     0.127 A 
ATOM     12  C   UNL     1      10.488  -4.373  25.704  1.00  0.00     0.093 A 
ATOM     13  C   UNL     1      10.324  -2.989  25.589  1.00  0.00     0.119 A 
ATOM     14  C   UNL     1      10.618  -2.165  26.674  1.00  0.00     0.050 A 
ENDROOT
BRANCH   8  15
ATOM     15  O   UNL     1      12.811  -6.022  33.166  1.00  0.00    -0.504 OA
ATOM     16  H   UNL     1      12.201  -6.044  33.973  1.00  0.00     0.293 HD
ENDBRANCH   8  15
BRANCH  11  17
ATOM     17  O   UNL     1      11.165  -6.316  26.957  1.00  0.00    -0.507 OA
ATOM     18  H   UNL     1      11.493  -6.772  27.799  1.00  0.00     0.293 HD
ENDBRANCH  11  17
BRANCH  13  19
ATOM     19  O   UNL     1       9.883  -2.424  24.395  1.00  0.00    -0.508 OA
ATOM     20  H   UNL     1       9.957  -2.920  23.514  1.00  0.00     0.293 HD
ENDBRANCH  13  19
BRANCH   7  21
ATOM     21  O   UNL     1      11.265  -7.691  31.498  1.00  0.00    -0.504 OA
ATOM     22  H   UNL     1      11.563  -8.057  32.394  1.00  0.00     0.293 HD
ENDBRANCH   7  21
TORSDOF 4
ENDMDL
MODEL 8
REMARK VINA RESULT:    -6.326      1.551      6.130
REMARK INTER + INTRA:          -7.065
REMARK INTER:                  -7.065
REMARK INTRA:                   0.000
REMARK UNBOUND:                 0.000
REMARK SMILES Oc1cc(O)c2c(c1)CCc1cc(O)c(O)cc1-2
REMARK SMILES IDX 10 1 9 2 7 3 6 4 18 5 17 6 15 7 13 8 12 9 11 10 4 11 3 12
REMARK SMILES IDX 2 13 8 14 14 15 5 17 1 19 16 21
REMARK H PARENT 14 16 5 18 1 20 16 22
REMARK Flexibility Score: inf
ROOT
ATOM      1  C   UNL     1       9.266   1.954  31.684  1.00  0.00     0.041 C 
ATOM      2  C   UNL     1       8.381   1.033  30.835  1.00  0.00     0.041 C 
ATOM      3  C   UNL     1       8.452   1.423  29.379  1.00  0.00    -0.032 A 
ATOM      4  C   UNL     1       9.670   1.895  28.831  1.00  0.00     0.027 A 
ATOM      5  C   UNL     1      10.868   1.960  29.729  1.00  0.00    -0.007 A 
ATOM      6  C   UNL     1      12.187   1.892  29.239  1.00  0.00     0.059 A 
ATOM      7  C   UNL     1      13.282   1.961  30.113  1.00  0.00     0.158 A 
ATOM      8  C   UNL     1      13.066   2.073  31.495  1.00  0.00     0.157 A 
ATOM      9  C   UNL     1      11.764   2.082  31.996  1.00  0.00     0.054 A 
ATOM     10  C   UNL     1      10.666   1.993  31.127  1.00  0.00    -0.036 A 
ATOM     11  C   UNL     1       9.680   2.350  27.489  1.00  0.00     0.127 A 
ATOM     12  C   UNL     1       8.534   2.207  26.694  1.00  0.00     0.093 A 
ATOM     13  C   UNL     1       7.360   1.664  27.226  1.00  0.00     0.119 A 
ATOM     14  C   UNL     1       7.319   1.283  28.566  1.00  0.00     0.050 A 
ENDROOT
BRANCH   8  15
ATOM     15  O   UNL     1      14.136   2.162  32.386  1.00  0.00    -0.504 OA
ATOM     16  H   UNL     1      14.303   1.462  33.098  1.00  0.00     0.293 HD
ENDBRANCH   8  15
BRANCH  11  17
ATOM     17  O   UNL     1      10.801   2.980  26.950  1.00  0.00    -0.507 OA
ATOM     18  H   UNL     1      11.681   2.494  26.829  1.00  0.00     0.293 HD
ENDBRANCH  11  17
BRANCH  13  19
ATOM     19  O   UNL     1       6.224   1.516  26.434  1.00  0.00    -0.508 OA
ATOM     20  H   UNL     1       5.599   0.726  26.546  1.00  0.00     0.293 HD
ENDBRANCH  13  19
BRANCH   7  21
ATOM     21  O   UNL     1      14.581   1.912  29.612  1.00  0.00    -0.504 OA
ATOM     22  H   UNL     1      15.389   1.976  30.221  1.00  0.00     0.293 HD
ENDBRANCH   7  21
TORSDOF 4
ENDMDL
MODEL 9
REMARK VINA RESULT:    -6.289      1.864      5.308
REMARK INTER + INTRA:          -7.024
REMARK INTER:                  -7.024
REMARK INTRA:                   0.000
REMARK UNBOUND:                 0.000
REMARK SMILES Oc1cc(O)c2c(c1)CCc1cc(O)c(O)cc1-2
REMARK SMILES IDX 10 1 9 2 7 3 6 4 18 5 17 6 15 7 13 8 12 9 11 10 4 11 3 12
REMARK SMILES IDX 2 13 8 14 14 15 5 17 1 19 16 21
REMARK H PARENT 14 16 5 18 1 20 16 22
REMARK Flexibility Score: inf
ROOT
ATOM      1  C   UNL     1      11.196   0.596  28.175  1.00  0.00     0.041 C 
ATOM      2  C   UNL     1       9.749   0.728  27.685  1.00  0.00     0.041 C 
ATOM      3  C   UNL     1       8.814   0.949  28.849  1.00  0.00    -0.032 A 
ATOM      4  C   UNL     1       9.233   1.725  29.957  1.00  0.00     0.027 A 
ATOM      5  C   UNL     1      10.603   2.330  29.915  1.00  0.00    -0.007 A 
ATOM      6  C   UNL     1      10.941   3.492  30.637  1.00  0.00     0.059 A 
ATOM      7  C   UNL     1      12.237   4.025  30.574  1.00  0.00     0.158 A 
ATOM      8  C   UNL     1      13.205   3.412  29.764  1.00  0.00     0.157 A 
ATOM      9  C   UNL     1      12.865   2.296  28.999  1.00  0.00     0.054 A 
ATOM     10  C   UNL     1      11.564   1.772  29.043  1.00  0.00    -0.036 A 
ATOM     11  C   UNL     1       8.372   1.829  31.078  1.00  0.00     0.127 A 
ATOM     12  C   UNL     1       7.082   1.281  31.022  1.00  0.00     0.093 A 
ATOM     13  C   UNL     1       6.652   0.586  29.889  1.00  0.00     0.119 A 
ATOM     14  C   UNL     1       7.519   0.415  28.811  1.00  0.00     0.050 A 
ENDROOT
BRANCH   8  15
ATOM     15  O   UNL     1      14.507   3.910  29.696  1.00  0.00    -0.504 OA
ATOM     16  H   UNL     1      15.308   3.305  29.557  1.00  0.00     0.293 HD
ENDBRANCH   8  15
BRANCH  11  17
ATOM     17  O   UNL     1       8.798   2.435  32.259  1.00  0.00    -0.507 OA
ATOM     18  H   UNL     1       9.438   3.219  32.258  1.00  0.00     0.293 HD
ENDBRANCH  11  17
BRANCH  13  19
ATOM     19  O   UNL     1       5.368   0.048  29.831  1.00  0.00    -0.508 OA
ATOM     20  H   UNL     1       5.213  -0.953  29.825  1.00  0.00     0.293 HD
ENDBRANCH  13  19
BRANCH   7  21
ATOM     21  O   UNL     1      12.562   5.164  31.309  1.00  0.00    -0.504 OA
ATOM     22  H   UNL     1      13.508   5.339  31.627  1.00  0.00     0.293 HD
ENDBRANCH   7  21
TORSDOF 4
ENDMDL
