MODEL 1
REMARK VINA RESULT:    -8.006      0.000      0.000
REMARK INTER + INTRA:         -12.098
REMARK INTER:                 -11.049
REMARK INTRA:                  -1.049
REMARK UNBOUND:                -1.049
REMARK SMILES O=C([O-])[C@H]1O[C@H](Oc2cc3oc(-c4ccccc4)cc(=O)c3c(O)c2O)[C@@H](O)[C@H](O)[C@@H]1O
REMARK SMILES IDX 7 1 6 2 4 3 31 4 5 5 29 6 27 7 2 8 1 9 3 10 32 11 30 13
REMARK SMILES IDX 28 15 8 17 25 18 9 19 23 20 10 21 22 22 11 23 20 24 12 25
REMARK SMILES IDX 19 26 21 27 26 28 24 30 13 32 14 33 18 34 15 35 17 36 16 37
REMARK H PARENT 32 12 30 14 28 16 26 29 24 31
REMARK Flexibility Score: inf
ROOT
ATOM      1  O   UNL     1     125.421 130.604 111.332  1.00  0.00    -0.458 OA
ENDROOT
BRANCH   1   2
ATOM      2  C   UNL     1     125.136 132.003 111.196  1.00  0.00     0.339 C 
ATOM      3  C   UNL     1     122.897 131.640 110.582  1.00  0.00     0.199 C 
ATOM      4  C   UNL     1     122.338 132.334 111.847  1.00  0.00     0.180 C 
ATOM      5  O   UNL     1     124.139 132.212 110.205  1.00  0.00    -0.328 OA
ATOM      6  C   UNL     1     123.339 132.212 113.012  1.00  0.00     0.181 C 
ATOM      7  C   UNL     1     124.748 132.646 112.554  1.00  0.00     0.214 C 
BRANCH   3   8
ATOM      8  C   UNL     1     121.933 131.806 109.444  1.00  0.00     0.073 C 
ATOM      9  O   UNL     1     121.175 132.811 109.395  1.00  0.00    -0.547 OA
ATOM     10  O   UNL     1     121.910 130.880 108.410  1.00  0.00    -0.547 OA
ENDBRANCH   3   8
BRANCH   4  11
ATOM     11  O   UNL     1     121.077 131.820 112.210  1.00  0.00    -0.387 OA
ATOM     12  H   UNL     1     120.723 131.301 111.440  1.00  0.00     0.211 HD
ENDBRANCH   4  11
BRANCH   6  13
ATOM     13  O   UNL     1     123.372 130.886 113.477  1.00  0.00    -0.387 OA
ATOM     14  H   UNL     1     124.290 130.729 113.824  1.00  0.00     0.211 HD
ENDBRANCH   6  13
BRANCH   7  15
ATOM     15  O   UNL     1     124.838 134.051 112.495  1.00  0.00    -0.384 OA
ATOM     16  H   UNL     1     125.773 134.300 112.280  1.00  0.00     0.211 HD
ENDBRANCH   7  15
ENDBRANCH   1   2
BRANCH   1  17
ATOM     17  C   UNL     1     126.625 130.124 111.864  1.00  0.00     0.172 A 
ATOM     18  C   UNL     1     127.695 129.723 111.039  1.00  0.00     0.201 A 
ATOM     19  C   UNL     1     126.753 130.045 113.252  1.00  0.00     0.098 A 
ATOM     20  C   UNL     1     128.932 129.368 111.614  1.00  0.00     0.176 A 
ATOM     21  C   UNL     1     127.965 129.677 113.833  1.00  0.00     0.146 A 
ATOM     22  C   UNL     1     129.077 129.356 113.022  1.00  0.00     0.111 A 
ATOM     23  O   UNL     1     128.062 129.647 115.158  1.00  0.00    -0.456 OA
ATOM     24  C   UNL     1     130.284 129.029 113.673  1.00  0.00     0.197 A 
ATOM     25  C   UNL     1     129.180 129.330 115.804  1.00  0.00     0.138 A 
ATOM     26  C   UNL     1     130.337 129.023 115.066  1.00  0.00     0.100 A 
ATOM     27  O   UNL     1     131.324 128.742 113.022  1.00  0.00    -0.289 OA
BRANCH  18  28
ATOM     28  O   UNL     1     127.537 129.633 109.656  1.00  0.00    -0.502 OA
ATOM     29  H   UNL     1     127.670 130.425 109.041  1.00  0.00     0.293 HD
ENDBRANCH  18  28
BRANCH  20  30
ATOM     30  O   UNL     1     130.006 129.015 110.791  1.00  0.00    -0.504 OA
ATOM     31  H   UNL     1     130.431 128.095 110.813  1.00  0.00     0.293 HD
ENDBRANCH  20  30
BRANCH  25  32
ATOM     32  C   UNL     1     129.165 129.329 117.293  1.00  0.00     0.017 A 
ATOM     33  C   UNL     1     128.071 129.831 118.032  1.00  0.00     0.012 A 
ATOM     34  C   UNL     1     130.288 128.846 117.995  1.00  0.00     0.012 A 
ATOM     35  C   UNL     1     128.097 129.829 119.429  1.00  0.00     0.001 A 
ATOM     36  C   UNL     1     130.307 128.846 119.394  1.00  0.00     0.001 A 
ATOM     37  C   UNL     1     129.212 129.335 120.111  1.00  0.00     0.000 A 
ENDBRANCH  25  32
ENDBRANCH   1  17
TORSDOF 9
ENDMDL
MODEL 2
REMARK VINA RESULT:    -7.749      1.145      2.389
REMARK INTER + INTRA:         -11.743
REMARK INTER:                 -10.615
REMARK INTRA:                  -1.128
REMARK UNBOUND:                -1.049
REMARK SMILES O=C([O-])[C@H]1O[C@H](Oc2cc3oc(-c4ccccc4)cc(=O)c3c(O)c2O)[C@@H](O)[C@H](O)[C@@H]1O
REMARK SMILES IDX 7 1 6 2 4 3 31 4 5 5 29 6 27 7 2 8 1 9 3 10 32 11 30 13
REMARK SMILES IDX 28 15 8 17 25 18 9 19 23 20 10 21 22 22 11 23 20 24 12 25
REMARK SMILES IDX 19 26 21 27 26 28 24 30 13 32 14 33 18 34 15 35 17 36 16 37
REMARK H PARENT 32 12 30 14 28 16 26 29 24 31
REMARK Flexibility Score: inf
ROOT
ATOM      1  O   UNL     1     125.142 130.922 111.844  1.00  0.00    -0.458 OA
ENDROOT
BRANCH   1   2
ATOM      2  C   UNL     1     124.370 131.808 112.668  1.00  0.00     0.339 C 
ATOM      3  C   UNL     1     124.518 133.592 111.145  1.00  0.00     0.199 C 
ATOM      4  C   UNL     1     122.996 133.606 110.867  1.00  0.00     0.180 C 
ATOM      5  O   UNL     1     124.781 133.154 112.469  1.00  0.00    -0.328 OA
ATOM      6  C   UNL     1     122.400 132.201 111.075  1.00  0.00     0.181 C 
ATOM      7  C   UNL     1     122.846 131.626 112.437  1.00  0.00     0.214 C 
BRANCH   3   8
ATOM      8  C   UNL     1     125.076 134.976 110.984  1.00  0.00     0.073 C 
ATOM      9  O   UNL     1     124.363 135.982 111.238  1.00  0.00    -0.547 OA
ATOM     10  O   UNL     1     126.401 135.153 110.606  1.00  0.00    -0.547 OA
ENDBRANCH   3   8
BRANCH   4  11
ATOM     11  O   UNL     1     122.706 134.092 109.576  1.00  0.00    -0.387 OA
ATOM     12  H   UNL     1     122.699 135.084 109.616  1.00  0.00     0.211 HD
ENDBRANCH   4  11
BRANCH   6  13
ATOM     13  O   UNL     1     122.812 131.349 110.035  1.00  0.00    -0.387 OA
ATOM     14  H   UNL     1     123.596 131.784 109.606  1.00  0.00     0.211 HD
ENDBRANCH   6  13
BRANCH   7  15
ATOM     15  O   UNL     1     122.101 132.204 113.485  1.00  0.00    -0.384 OA
ATOM     16  H   UNL     1     122.398 133.143 113.603  1.00  0.00     0.211 HD
ENDBRANCH   7  15
ENDBRANCH   1   2
BRANCH   1  17
ATOM     17  C   UNL     1     126.360 130.370 112.259  1.00  0.00     0.172 A 
ATOM     18  C   UNL     1     127.338 129.947 111.336  1.00  0.00     0.201 A 
ATOM     19  C   UNL     1     126.599 130.240 113.628  1.00  0.00     0.098 A 
ATOM     20  C   UNL     1     128.599 129.517 111.795  1.00  0.00     0.176 A 
ATOM     21  C   UNL     1     127.835 129.797 114.095  1.00  0.00     0.146 A 
ATOM     22  C   UNL     1     128.859 129.452 113.185  1.00  0.00     0.111 A 
ATOM     23  O   UNL     1     128.038 129.719 115.406  1.00  0.00    -0.456 OA
ATOM     24  C   UNL     1     130.098 129.047 113.722  1.00  0.00     0.197 A 
ATOM     25  C   UNL     1     129.190 129.329 115.946  1.00  0.00     0.138 A 
ATOM     26  C   UNL     1     130.266 128.994 115.105  1.00  0.00     0.100 A 
ATOM     27  O   UNL     1     131.066 128.735 112.978  1.00  0.00    -0.289 OA
BRANCH  18  28
ATOM     28  O   UNL     1     127.063 129.910 109.969  1.00  0.00    -0.502 OA
ATOM     29  H   UNL     1     126.225 129.484 109.594  1.00  0.00     0.293 HD
ENDBRANCH  18  28
BRANCH  20  30
ATOM     30  O   UNL     1     129.583 129.141 110.875  1.00  0.00    -0.504 OA
ATOM     31  H   UNL     1     130.033 128.233 110.897  1.00  0.00     0.293 HD
ENDBRANCH  20  30
BRANCH  25  32
ATOM     32  C   UNL     1     129.297 129.280 117.430  1.00  0.00     0.017 A 
ATOM     33  C   UNL     1     130.419 128.725 118.084  1.00  0.00     0.012 A 
ATOM     34  C   UNL     1     128.234 129.770 118.216  1.00  0.00     0.012 A 
ATOM     35  C   UNL     1     130.479 128.682 119.479  1.00  0.00     0.001 A 
ATOM     36  C   UNL     1     128.300 129.725 119.613  1.00  0.00     0.001 A 
ATOM     37  C   UNL     1     129.423 129.183 120.244  1.00  0.00     0.000 A 
ENDBRANCH  25  32
ENDBRANCH   1  17
TORSDOF 9
ENDMDL
MODEL 3
REMARK VINA RESULT:    -7.377      3.956      8.904
REMARK INTER + INTRA:         -11.229
REMARK INTER:                 -10.156
REMARK INTRA:                  -1.073
REMARK UNBOUND:                -1.049
REMARK SMILES O=C([O-])[C@H]1O[C@H](Oc2cc3oc(-c4ccccc4)cc(=O)c3c(O)c2O)[C@@H](O)[C@H](O)[C@@H]1O
REMARK SMILES IDX 7 1 6 2 4 3 31 4 5 5 29 6 27 7 2 8 1 9 3 10 32 11 30 13
REMARK SMILES IDX 28 15 8 17 25 18 9 19 23 20 10 21 22 22 11 23 20 24 12 25
REMARK SMILES IDX 19 26 21 27 26 28 24 30 13 32 14 33 18 34 15 35 17 36 16 37
REMARK H PARENT 32 12 30 14 28 16 26 29 24 31
REMARK Flexibility Score: inf
ROOT
ATOM      1  O   UNL     1     133.160 127.534 111.755  1.00  0.00    -0.458 OA
ENDROOT
BRANCH   1   2
ATOM      2  C   UNL     1     133.939 126.627 112.548  1.00  0.00     0.339 C 
ATOM      3  C   UNL     1     134.219 125.095 110.788  1.00  0.00     0.199 C 
ATOM      4  C   UNL     1     135.751 125.301 110.726  1.00  0.00     0.180 C 
ATOM      5  O   UNL     1     133.741 125.290 112.110  1.00  0.00    -0.328 OA
ATOM      6  C   UNL     1     136.122 126.716 111.206  1.00  0.00     0.181 C 
ATOM      7  C   UNL     1     135.441 127.017 112.560  1.00  0.00     0.214 C 
BRANCH   3   8
ATOM      8  C   UNL     1     133.876 123.697 110.361  1.00  0.00     0.073 C 
ATOM      9  O   UNL     1     133.501 123.468 109.181  1.00  0.00    -0.547 OA
ATOM     10  O   UNL     1     134.024 122.641 111.250  1.00  0.00    -0.547 OA
ENDBRANCH   3   8
BRANCH   4  11
ATOM     11  O   UNL     1     136.258 125.057 109.433  1.00  0.00    -0.387 OA
ATOM     12  H   UNL     1     135.647 124.421 108.978  1.00  0.00     0.211 HD
ENDBRANCH   4  11
BRANCH   6  13
ATOM     13  O   UNL     1     135.727 127.665 110.248  1.00  0.00    -0.387 OA
ATOM     14  H   UNL     1     134.854 127.358 109.887  1.00  0.00     0.211 HD
ENDBRANCH   6  13
BRANCH   7  15
ATOM     15  O   UNL     1     136.125 126.375 113.611  1.00  0.00    -0.384 OA
ATOM     16  H   UNL     1     135.694 125.498 113.779  1.00  0.00     0.211 HD
ENDBRANCH   7  15
ENDBRANCH   1   2
BRANCH   1  17
ATOM     17  C   UNL     1     131.946 128.076 112.197  1.00  0.00     0.172 A 
ATOM     18  C   UNL     1     130.926 128.446 111.296  1.00  0.00     0.201 A 
ATOM     19  C   UNL     1     131.756 128.251 113.568  1.00  0.00     0.098 A 
ATOM     20  C   UNL     1     129.674 128.867 111.787  1.00  0.00     0.176 A 
ATOM     21  C   UNL     1     130.529 128.684 114.065  1.00  0.00     0.146 A 
ATOM     22  C   UNL     1     129.465 128.976 113.183  1.00  0.00     0.111 A 
ATOM     23  O   UNL     1     130.372 128.806 115.379  1.00  0.00    -0.456 OA
ATOM     24  C   UNL     1     128.238 129.375 113.752  1.00  0.00     0.197 A 
ATOM     25  C   UNL     1     129.233 129.191 115.949  1.00  0.00     0.138 A 
ATOM     26  C   UNL     1     128.120 129.475 115.138  1.00  0.00     0.100 A 
ATOM     27  O   UNL     1     127.236 129.640 113.035  1.00  0.00    -0.289 OA
BRANCH  18  28
ATOM     28  O   UNL     1     131.150 128.439 109.920  1.00  0.00    -0.502 OA
ATOM     29  H   UNL     1     131.402 127.600 109.414  1.00  0.00     0.293 HD
ENDBRANCH  18  28
BRANCH  20  30
ATOM     30  O   UNL     1     128.649 129.189 110.893  1.00  0.00    -0.504 OA
ATOM     31  H   UNL     1     128.826 129.608 109.987  1.00  0.00     0.293 HD
ENDBRANCH  20  30
BRANCH  25  32
ATOM     32  C   UNL     1     129.180 129.291 117.433  1.00  0.00     0.017 A 
ATOM     33  C   UNL     1     130.266 128.907 118.250  1.00  0.00     0.012 A 
ATOM     34  C   UNL     1     128.000 129.750 118.053  1.00  0.00     0.012 A 
ATOM     35  C   UNL     1     130.176 129.000 119.642  1.00  0.00     0.001 A 
ATOM     36  C   UNL     1     127.916 129.841 119.447  1.00  0.00     0.001 A 
ATOM     37  C   UNL     1     129.004 129.469 120.241  1.00  0.00     0.000 A 
ENDBRANCH  25  32
ENDBRANCH   1  17
TORSDOF 9
ENDMDL
MODEL 4
REMARK VINA RESULT:    -7.318      3.861      8.918
REMARK INTER + INTRA:         -11.148
REMARK INTER:                 -10.056
REMARK INTRA:                  -1.092
REMARK UNBOUND:                -1.049
REMARK SMILES O=C([O-])[C@H]1O[C@H](Oc2cc3oc(-c4ccccc4)cc(=O)c3c(O)c2O)[C@@H](O)[C@H](O)[C@@H]1O
REMARK SMILES IDX 7 1 6 2 4 3 31 4 5 5 29 6 27 7 2 8 1 9 3 10 32 11 30 13
REMARK SMILES IDX 28 15 8 17 25 18 9 19 23 20 10 21 22 22 11 23 20 24 12 25
REMARK SMILES IDX 19 26 21 27 26 28 24 30 13 32 14 33 18 34 15 35 17 36 16 37
REMARK H PARENT 32 12 30 14 28 16 26 29 24 31
REMARK Flexibility Score: inf
ROOT
ATOM      1  O   UNL     1     133.015 127.866 111.380  1.00  0.00    -0.458 OA
ENDROOT
BRANCH   1   2
ATOM      2  C   UNL     1     133.301 126.475 111.180  1.00  0.00     0.339 C 
ATOM      3  C   UNL     1     135.548 126.865 110.615  1.00  0.00     0.199 C 
ATOM      4  C   UNL     1     136.089 126.110 111.853  1.00  0.00     0.180 C 
ATOM      5  O   UNL     1     134.311 126.313 110.194  1.00  0.00    -0.328 OA
ATOM      6  C   UNL     1     135.073 126.177 113.008  1.00  0.00     0.181 C 
ATOM      7  C   UNL     1     133.670 125.766 112.511  1.00  0.00     0.214 C 
BRANCH   3   8
ATOM      8  C   UNL     1     136.528 126.753 109.483  1.00  0.00     0.073 C 
ATOM      9  O   UNL     1     136.419 125.825 108.639  1.00  0.00    -0.547 OA
ATOM     10  O   UNL     1     137.527 127.705 109.330  1.00  0.00    -0.547 OA
ENDBRANCH   3   8
BRANCH   4  11
ATOM     11  O   UNL     1     137.346 126.604 112.257  1.00  0.00    -0.387 OA
ATOM     12  H   UNL     1     137.678 126.032 112.997  1.00  0.00     0.211 HD
ENDBRANCH   4  11
BRANCH   6  13
ATOM     13  O   UNL     1     135.035 127.479 113.536  1.00  0.00    -0.387 OA
ATOM     14  H   UNL     1     135.607 128.040 112.949  1.00  0.00     0.211 HD
ENDBRANCH   6  13
BRANCH   7  15
ATOM     15  O   UNL     1     133.581 124.366 112.382  1.00  0.00    -0.384 OA
ATOM     16  H   UNL     1     132.673 124.136 112.056  1.00  0.00     0.211 HD
ENDBRANCH   7  15
ENDBRANCH   1   2
BRANCH   1  17
ATOM     17  C   UNL     1     131.797 128.323 111.900  1.00  0.00     0.172 A 
ATOM     18  C   UNL     1     130.706 128.644 111.066  1.00  0.00     0.201 A 
ATOM     19  C   UNL     1     131.673 128.459 113.283  1.00  0.00     0.098 A 
ATOM     20  C   UNL     1     129.460 128.976 111.634  1.00  0.00     0.176 A 
ATOM     21  C   UNL     1     130.452 128.805 113.857  1.00  0.00     0.146 A 
ATOM     22  C   UNL     1     129.324 129.045 113.042  1.00  0.00     0.111 A 
ATOM     23  O   UNL     1     130.363 128.892 115.180  1.00  0.00    -0.456 OA
ATOM     24  C   UNL     1     128.109 129.355 113.687  1.00  0.00     0.197 A 
ATOM     25  C   UNL     1     129.236 129.194 115.821  1.00  0.00     0.138 A 
ATOM     26  C   UNL     1     128.064 129.421 115.079  1.00  0.00     0.100 A 
ATOM     27  O   UNL     1     127.053 129.570 113.032  1.00  0.00    -0.289 OA
BRANCH  18  28
ATOM     28  O   UNL     1     130.851 128.677 109.679  1.00  0.00    -0.502 OA
ATOM     29  H   UNL     1     131.721 128.934 109.230  1.00  0.00     0.293 HD
ENDBRANCH  18  28
BRANCH  20  30
ATOM     30  O   UNL     1     128.368 129.249 110.805  1.00  0.00    -0.504 OA
ATOM     31  H   UNL     1     128.385 129.082 109.806  1.00  0.00     0.293 HD
ENDBRANCH  20  30
BRANCH  25  32
ATOM     32  C   UNL     1     129.261 129.262 117.307  1.00  0.00     0.017 A 
ATOM     33  C   UNL     1     130.359 128.793 118.062  1.00  0.00     0.012 A 
ATOM     34  C   UNL     1     128.143 129.778 117.994  1.00  0.00     0.012 A 
ATOM     35  C   UNL     1     130.342 128.859 119.458  1.00  0.00     0.001 A 
ATOM     36  C   UNL     1     128.132 129.842 119.392  1.00  0.00     0.001 A 
ATOM     37  C   UNL     1     129.232 129.385 120.123  1.00  0.00     0.000 A 
ENDBRANCH  25  32
ENDBRANCH   1  17
TORSDOF 9
ENDMDL
MODEL 5
REMARK VINA RESULT:    -7.235      1.103      1.702
REMARK INTER + INTRA:         -11.034
REMARK INTER:                  -9.951
REMARK INTRA:                  -1.083
REMARK UNBOUND:                -1.049
REMARK SMILES O=C([O-])[C@H]1O[C@H](Oc2cc3oc(-c4ccccc4)cc(=O)c3c(O)c2O)[C@@H](O)[C@H](O)[C@@H]1O
REMARK SMILES IDX 7 1 6 2 4 3 31 4 5 5 29 6 27 7 2 8 1 9 3 10 32 11 30 13
REMARK SMILES IDX 28 15 8 17 25 18 9 19 23 20 10 21 22 22 11 23 20 24 12 25
REMARK SMILES IDX 19 26 21 27 26 28 24 30 13 32 14 33 18 34 15 35 17 36 16 37
REMARK H PARENT 32 12 30 14 28 16 26 29 24 31
REMARK Flexibility Score: inf
ROOT
ATOM      1  O   UNL     1     124.768 130.866 110.921  1.00  0.00    -0.458 OA
ENDROOT
BRANCH   1   2
ATOM      2  C   UNL     1     124.456 132.266 110.928  1.00  0.00     0.339 C 
ATOM      3  C   UNL     1     122.138 131.902 110.796  1.00  0.00     0.199 C 
ATOM      4  C   UNL     1     121.866 132.519 112.190  1.00  0.00     0.180 C 
ATOM      5  O   UNL     1     123.267 132.513 110.191  1.00  0.00    -0.328 OA
ATOM      6  C   UNL     1     123.097 132.350 113.100  1.00  0.00     0.181 C 
ATOM      7  C   UNL     1     124.371 132.829 112.372  1.00  0.00     0.214 C 
BRANCH   3   8
ATOM      8  C   UNL     1     120.949 132.115 109.906  1.00  0.00     0.073 C 
ATOM      9  O   UNL     1     120.245 133.153 110.024  1.00  0.00    -0.547 OA
ATOM     10  O   UNL     1     120.650 131.194 108.911  1.00  0.00    -0.547 OA
ENDBRANCH   3   8
BRANCH   4  11
ATOM     11  O   UNL     1     120.715 131.967 112.788  1.00  0.00    -0.387 OA
ATOM     12  H   UNL     1     120.400 132.599 113.487  1.00  0.00     0.211 HD
ENDBRANCH   4  11
BRANCH   6  13
ATOM     13  O   UNL     1     123.234 131.001 113.472  1.00  0.00    -0.387 OA
ATOM     14  H   UNL     1     123.784 130.989 114.300  1.00  0.00     0.211 HD
ENDBRANCH   6  13
BRANCH   7  15
ATOM     15  O   UNL     1     124.442 134.237 112.373  1.00  0.00    -0.384 OA
ATOM     16  H   UNL     1     124.737 134.539 111.476  1.00  0.00     0.211 HD
ENDBRANCH   7  15
ENDBRANCH   1   2
BRANCH   1  17
ATOM     17  C   UNL     1     126.072 130.379 111.077  1.00  0.00     0.172 A 
ATOM     18  C   UNL     1     126.886 130.064 109.970  1.00  0.00     0.201 A 
ATOM     19  C   UNL     1     126.566 130.206 112.371  1.00  0.00     0.098 A 
ATOM     20  C   UNL     1     128.233 129.700 110.169  1.00  0.00     0.176 A 
ATOM     21  C   UNL     1     127.891 129.828 112.581  1.00  0.00     0.146 A 
ATOM     22  C   UNL     1     128.747 129.592 111.483  1.00  0.00     0.111 A 
ATOM     23  O   UNL     1     128.337 129.707 113.827  1.00  0.00    -0.456 OA
ATOM     24  C   UNL     1     130.086 129.249 111.764  1.00  0.00     0.197 A 
ATOM     25  C   UNL     1     129.589 129.373 114.128  1.00  0.00     0.138 A 
ATOM     26  C   UNL     1     130.509 129.147 113.088  1.00  0.00     0.100 A 
ATOM     27  O   UNL     1     130.917 129.035 110.841  1.00  0.00    -0.289 OA
BRANCH  18  28
ATOM     28  O   UNL     1     126.366 130.067 108.676  1.00  0.00    -0.502 OA
ATOM     29  H   UNL     1     125.390 129.883 108.481  1.00  0.00     0.293 HD
ENDBRANCH  18  28
BRANCH  20  30
ATOM     30  O   UNL     1     129.050 129.432 109.067  1.00  0.00    -0.504 OA
ATOM     31  H   UNL     1     129.719 130.103 108.706  1.00  0.00     0.293 HD
ENDBRANCH  20  30
BRANCH  25  32
ATOM     32  C   UNL     1     129.970 129.267 115.563  1.00  0.00     0.017 A 
ATOM     33  C   UNL     1     131.316 129.150 115.975  1.00  0.00     0.012 A 
ATOM     34  C   UNL     1     128.960 129.247 116.546  1.00  0.00     0.012 A 
ATOM     35  C   UNL     1     131.637 129.038 117.330  1.00  0.00     0.001 A 
ATOM     36  C   UNL     1     129.288 129.135 117.902  1.00  0.00     0.001 A 
ATOM     37  C   UNL     1     130.625 129.032 118.294  1.00  0.00     0.000 A 
ENDBRANCH  25  32
ENDBRANCH   1  17
TORSDOF 9
ENDMDL
MODEL 6
REMARK VINA RESULT:    -7.151      3.101      7.433
REMARK INTER + INTRA:         -10.918
REMARK INTER:                  -9.796
REMARK INTRA:                  -1.122
REMARK UNBOUND:                -1.049
REMARK SMILES O=C([O-])[C@H]1O[C@H](Oc2cc3oc(-c4ccccc4)cc(=O)c3c(O)c2O)[C@@H](O)[C@H](O)[C@@H]1O
REMARK SMILES IDX 7 1 6 2 4 3 31 4 5 5 29 6 27 7 2 8 1 9 3 10 32 11 30 13
REMARK SMILES IDX 28 15 8 17 25 18 9 19 23 20 10 21 22 22 11 23 20 24 12 25
REMARK SMILES IDX 19 26 21 27 26 28 24 30 13 32 14 33 18 34 15 35 17 36 16 37
REMARK H PARENT 32 12 30 14 28 16 26 29 24 31
REMARK Flexibility Score: inf
ROOT
ATOM      1  O   UNL     1     130.857 128.642 110.868  1.00  0.00    -0.458 OA
ENDROOT
BRANCH   1   2
ATOM      2  C   UNL     1     130.937 127.332 110.289  1.00  0.00     0.339 C 
ATOM      3  C   UNL     1     133.115 127.664 109.472  1.00  0.00     0.199 C 
ATOM      4  C   UNL     1     133.725 126.569 110.380  1.00  0.00     0.180 C 
ATOM      5  O   UNL     1     131.773 127.348 109.140  1.00  0.00    -0.328 OA
ATOM      6  C   UNL     1     132.895 126.418 111.669  1.00  0.00     0.181 C 
ATOM      7  C   UNL     1     131.396 126.272 111.326  1.00  0.00     0.214 C 
BRANCH   3   8
ATOM      8  C   UNL     1     133.907 127.769 108.201  1.00  0.00     0.073 C 
ATOM      9  O   UNL     1     133.396 127.421 107.105  1.00  0.00    -0.547 OA
ATOM     10  O   UNL     1     135.188 128.303 108.221  1.00  0.00    -0.547 OA
ENDBRANCH   3   8
BRANCH   4  11
ATOM     11  O   UNL     1     135.077 126.833 110.679  1.00  0.00    -0.387 OA
ATOM     12  H   UNL     1     135.608 126.683 109.853  1.00  0.00     0.211 HD
ENDBRANCH   4  11
BRANCH   6  13
ATOM     13  O   UNL     1     133.092 127.535 112.498  1.00  0.00    -0.387 OA
ATOM     14  H   UNL     1     132.691 128.313 112.027  1.00  0.00     0.211 HD
ENDBRANCH   6  13
BRANCH   7  15
ATOM     15  O   UNL     1     131.116 124.967 110.875  1.00  0.00    -0.384 OA
ATOM     16  H   UNL     1     131.774 124.345 111.280  1.00  0.00     0.211 HD
ENDBRANCH   7  15
ENDBRANCH   1   2
BRANCH   1  17
ATOM     17  C   UNL     1     129.833 129.021 111.746  1.00  0.00     0.172 A 
ATOM     18  C   UNL     1     128.562 129.415 111.281  1.00  0.00     0.201 A 
ATOM     19  C   UNL     1     130.093 129.004 113.117  1.00  0.00     0.098 A 
ATOM     20  C   UNL     1     127.523 129.665 112.199  1.00  0.00     0.176 A 
ATOM     21  C   UNL     1     129.080 129.267 114.036  1.00  0.00     0.146 A 
ATOM     22  C   UNL     1     127.776 129.579 113.590  1.00  0.00     0.111 A 
ATOM     23  O   UNL     1     129.355 129.208 115.335  1.00  0.00    -0.456 OA
ATOM     24  C   UNL     1     126.787 129.798 114.571  1.00  0.00     0.197 A 
ATOM     25  C   UNL     1     128.450 129.422 116.286  1.00  0.00     0.138 A 
ATOM     26  C   UNL     1     127.124 129.712 115.921  1.00  0.00     0.100 A 
ATOM     27  O   UNL     1     125.597 130.068 114.255  1.00  0.00    -0.289 OA
BRANCH  18  28
ATOM     28  O   UNL     1     128.325 129.602 109.919  1.00  0.00    -0.502 OA
ATOM     29  H   UNL     1     127.603 129.100 109.419  1.00  0.00     0.293 HD
ENDBRANCH  18  28
BRANCH  20  30
ATOM     30  O   UNL     1     126.251 130.011 111.734  1.00  0.00    -0.504 OA
ATOM     31  H   UNL     1     125.408 129.544 112.049  1.00  0.00     0.293 HD
ENDBRANCH  20  30
BRANCH  25  32
ATOM     32  C   UNL     1     128.880 129.328 117.708  1.00  0.00     0.017 A 
ATOM     33  C   UNL     1     128.068 129.785 118.769  1.00  0.00     0.012 A 
ATOM     34  C   UNL     1     130.151 128.800 118.013  1.00  0.00     0.012 A 
ATOM     35  C   UNL     1     128.509 129.695 120.092  1.00  0.00     0.001 A 
ATOM     36  C   UNL     1     130.588 128.712 119.339  1.00  0.00     0.001 A 
ATOM     37  C   UNL     1     129.767 129.157 120.379  1.00  0.00     0.000 A 
ENDBRANCH  25  32
ENDBRANCH   1  17
TORSDOF 9
ENDMDL
MODEL 7
REMARK VINA RESULT:    -7.110      3.141      7.198
REMARK INTER + INTRA:         -10.860
REMARK INTER:                  -9.783
REMARK INTRA:                  -1.077
REMARK UNBOUND:                -1.049
REMARK SMILES O=C([O-])[C@H]1O[C@H](Oc2cc3oc(-c4ccccc4)cc(=O)c3c(O)c2O)[C@@H](O)[C@H](O)[C@@H]1O
REMARK SMILES IDX 7 1 6 2 4 3 31 4 5 5 29 6 27 7 2 8 1 9 3 10 32 11 30 13
REMARK SMILES IDX 28 15 8 17 25 18 9 19 23 20 10 21 22 22 11 23 20 24 12 25
REMARK SMILES IDX 19 26 21 27 26 28 24 30 13 32 14 33 18 34 15 35 17 36 16 37
REMARK H PARENT 32 12 30 14 28 16 26 29 24 31
REMARK Flexibility Score: inf
ROOT
ATOM      1  O   UNL     1     130.845 128.335 110.959  1.00  0.00    -0.458 OA
ENDROOT
BRANCH   1   2
ATOM      2  C   UNL     1     131.934 127.517 111.406  1.00  0.00     0.339 C 
ATOM      3  C   UNL     1     131.015 125.547 110.513  1.00  0.00     0.199 C 
ATOM      4  C   UNL     1     132.167 125.356 109.497  1.00  0.00     0.180 C 
ATOM      5  O   UNL     1     131.483 126.198 111.683  1.00  0.00    -0.328 OA
ATOM      6  C   UNL     1     132.781 126.717 109.121  1.00  0.00     0.181 C 
ATOM      7  C   UNL     1     133.113 127.525 110.395  1.00  0.00     0.214 C 
BRANCH   3   8
ATOM      8  C   UNL     1     130.457 124.210 110.905  1.00  0.00     0.073 C 
ATOM      9  O   UNL     1     129.363 124.135 111.523  1.00  0.00    -0.547 OA
ATOM     10  O   UNL     1     131.118 123.045 110.540  1.00  0.00    -0.547 OA
ENDBRANCH   3   8
BRANCH   4  11
ATOM     11  O   UNL     1     131.739 124.660 108.349  1.00  0.00    -0.387 OA
ATOM     12  H   UNL     1     131.667 123.697 108.582  1.00  0.00     0.211 HD
ENDBRANCH   4  11
BRANCH   6  13
ATOM     13  O   UNL     1     131.885 127.439 108.314  1.00  0.00    -0.387 OA
ATOM     14  H   UNL     1     131.466 126.782 107.696  1.00  0.00     0.211 HD
ENDBRANCH   6  13
BRANCH   7  15
ATOM     15  O   UNL     1     134.296 127.045 110.990  1.00  0.00    -0.384 OA
ATOM     16  H   UNL     1     134.921 126.767 110.272  1.00  0.00     0.211 HD
ENDBRANCH   7  15
ENDBRANCH   1   2
BRANCH   1  17
ATOM     17  C   UNL     1     129.836 128.789 111.818  1.00  0.00     0.172 A 
ATOM     18  C   UNL     1     128.587 129.227 111.332  1.00  0.00     0.201 A 
ATOM     19  C   UNL     1     130.088 128.803 113.190  1.00  0.00     0.098 A 
ATOM     20  C   UNL     1     127.556 129.553 112.235  1.00  0.00     0.176 A 
ATOM     21  C   UNL     1     129.083 129.143 114.094  1.00  0.00     0.146 A 
ATOM     22  C   UNL     1     127.797 129.500 113.629  1.00  0.00     0.111 A 
ATOM     23  O   UNL     1     129.349 129.112 115.395  1.00  0.00    -0.456 OA
ATOM     24  C   UNL     1     126.815 129.796 114.597  1.00  0.00     0.197 A 
ATOM     25  C   UNL     1     128.450 129.397 116.334  1.00  0.00     0.138 A 
ATOM     26  C   UNL     1     127.140 129.737 115.951  1.00  0.00     0.100 A 
ATOM     27  O   UNL     1     125.640 130.111 114.265  1.00  0.00    -0.289 OA
BRANCH  18  28
ATOM     28  O   UNL     1     128.366 129.381 109.964  1.00  0.00    -0.502 OA
ATOM     29  H   UNL     1     127.995 130.234 109.565  1.00  0.00     0.293 HD
ENDBRANCH  18  28
BRANCH  20  30
ATOM     30  O   UNL     1     126.304 129.943 111.751  1.00  0.00    -0.504 OA
ATOM     31  H   UNL     1     125.996 130.909 111.746  1.00  0.00     0.293 HD
ENDBRANCH  20  30
BRANCH  25  32
ATOM     32  C   UNL     1     128.868 129.329 117.761  1.00  0.00     0.017 A 
ATOM     33  C   UNL     1     128.070 129.853 118.802  1.00  0.00     0.012 A 
ATOM     34  C   UNL     1     130.113 128.756 118.090  1.00  0.00     0.012 A 
ATOM     35  C   UNL     1     128.500 129.785 120.130  1.00  0.00     0.001 A 
ATOM     36  C   UNL     1     130.538 128.690 119.421  1.00  0.00     0.001 A 
ATOM     37  C   UNL     1     129.732 129.202 120.441  1.00  0.00     0.000 A 
ENDBRANCH  25  32
ENDBRANCH   1  17
TORSDOF 9
ENDMDL
MODEL 8
REMARK VINA RESULT:    -7.096      1.444      2.031
REMARK INTER + INTRA:         -10.841
REMARK INTER:                  -9.804
REMARK INTRA:                  -1.037
REMARK UNBOUND:                -1.049
REMARK SMILES O=C([O-])[C@H]1O[C@H](Oc2cc3oc(-c4ccccc4)cc(=O)c3c(O)c2O)[C@@H](O)[C@H](O)[C@@H]1O
REMARK SMILES IDX 7 1 6 2 4 3 31 4 5 5 29 6 27 7 2 8 1 9 3 10 32 11 30 13
REMARK SMILES IDX 28 15 8 17 25 18 9 19 23 20 10 21 22 22 11 23 20 24 12 25
REMARK SMILES IDX 19 26 21 27 26 28 24 30 13 32 14 33 18 34 15 35 17 36 16 37
REMARK H PARENT 32 12 30 14 28 16 26 29 24 31
REMARK Flexibility Score: inf
ROOT
ATOM      1  O   UNL     1     127.203 129.814 110.883  1.00  0.00    -0.458 OA
ENDROOT
BRANCH   1   2
ATOM      2  C   UNL     1     127.079 131.144 110.360  1.00  0.00     0.339 C 
ATOM      3  C   UNL     1     124.850 130.832 109.687  1.00  0.00     0.199 C 
ATOM      4  C   UNL     1     124.303 131.889 110.676  1.00  0.00     0.180 C 
ATOM      5  O   UNL     1     126.165 131.167 109.273  1.00  0.00    -0.328 OA
ATOM      6  C   UNL     1     125.221 131.996 111.908  1.00  0.00     0.181 C 
ATOM      7  C   UNL     1     126.692 132.162 111.466  1.00  0.00     0.214 C 
BRANCH   3   8
ATOM      8  C   UNL     1     123.971 130.771 108.472  1.00  0.00     0.073 C 
ATOM      9  O   UNL     1     122.758 130.450 108.581  1.00  0.00    -0.547 OA
ATOM     10  O   UNL     1     124.477 131.121 107.228  1.00  0.00    -0.547 OA
ENDBRANCH   3   8
BRANCH   4  11
ATOM     11  O   UNL     1     122.976 131.608 111.059  1.00  0.00    -0.387 OA
ATOM     12  H   UNL     1     122.379 132.245 110.587  1.00  0.00     0.211 HD
ENDBRANCH   4  11
BRANCH   6  13
ATOM     13  O   UNL     1     125.086 130.848 112.707  1.00  0.00    -0.387 OA
ATOM     14  H   UNL     1     124.528 130.207 112.191  1.00  0.00     0.211 HD
ENDBRANCH   6  13
BRANCH   7  15
ATOM     15  O   UNL     1     126.936 133.485 111.047  1.00  0.00    -0.384 OA
ATOM     16  H   UNL     1     127.760 133.495 110.495  1.00  0.00     0.211 HD
ENDBRANCH   7  15
ENDBRANCH   1   2
BRANCH   1  17
ATOM     17  C   UNL     1     128.272 129.416 111.696  1.00  0.00     0.172 A 
ATOM     18  C   UNL     1     129.487 128.951 111.153  1.00  0.00     0.201 A 
ATOM     19  C   UNL     1     128.115 129.486 113.081  1.00  0.00     0.098 A 
ATOM     20  C   UNL     1     130.580 128.682 112.002  1.00  0.00     0.176 A 
ATOM     21  C   UNL     1     129.182 129.205 113.932  1.00  0.00     0.146 A 
ATOM     22  C   UNL     1     130.434 128.821 113.403  1.00  0.00     0.111 A 
ATOM     23  O   UNL     1     129.006 129.316 115.245  1.00  0.00    -0.456 OA
ATOM     24  C   UNL     1     131.483 128.587 114.316  1.00  0.00     0.197 A 
ATOM     25  C   UNL     1     129.969 129.090 116.135  1.00  0.00     0.138 A 
ATOM     26  C   UNL     1     131.251 128.730 115.684  1.00  0.00     0.100 A 
ATOM     27  O   UNL     1     132.634 128.254 113.924  1.00  0.00    -0.289 OA
BRANCH  18  28
ATOM     28  O   UNL     1     129.614 128.713 109.785  1.00  0.00    -0.502 OA
ATOM     29  H   UNL     1     130.512 128.682 109.319  1.00  0.00     0.293 HD
ENDBRANCH  18  28
BRANCH  20  30
ATOM     30  O   UNL     1     131.798 128.265 111.457  1.00  0.00    -0.504 OA
ATOM     31  H   UNL     1     131.886 127.943 110.499  1.00  0.00     0.293 HD
ENDBRANCH  20  30
BRANCH  25  32
ATOM     32  C   UNL     1     129.650 129.246 117.580  1.00  0.00     0.017 A 
ATOM     33  C   UNL     1     130.522 128.790 118.594  1.00  0.00     0.012 A 
ATOM     34  C   UNL     1     128.427 129.835 117.959  1.00  0.00     0.012 A 
ATOM     35  C   UNL     1     130.183 128.940 119.942  1.00  0.00     0.001 A 
ATOM     36  C   UNL     1     128.094 129.982 119.309  1.00  0.00     0.001 A 
ATOM     37  C   UNL     1     128.972 129.537 120.301  1.00  0.00     0.000 A 
ENDBRANCH  25  32
ENDBRANCH   1  17
TORSDOF 9
ENDMDL
MODEL 9
REMARK VINA RESULT:    -6.913      3.174      7.818
REMARK INTER + INTRA:         -10.589
REMARK INTER:                  -9.472
REMARK INTRA:                  -1.117
REMARK UNBOUND:                -1.049
REMARK SMILES O=C([O-])[C@H]1O[C@H](Oc2cc3oc(-c4ccccc4)cc(=O)c3c(O)c2O)[C@@H](O)[C@H](O)[C@@H]1O
REMARK SMILES IDX 7 1 6 2 4 3 31 4 5 5 29 6 27 7 2 8 1 9 3 10 32 11 30 13
REMARK SMILES IDX 28 15 8 17 25 18 9 19 23 20 10 21 22 22 11 23 20 24 12 25
REMARK SMILES IDX 19 26 21 27 26 28 24 30 13 32 14 33 18 34 15 35 17 36 16 37
REMARK H PARENT 32 12 30 14 28 16 26 29 24 31
REMARK Flexibility Score: inf
ROOT
ATOM      1  O   UNL     1     130.860 127.982 110.781  1.00  0.00    -0.458 OA
ENDROOT
BRANCH   1   2
ATOM      2  C   UNL     1     132.181 128.530 110.672  1.00  0.00     0.339 C 
ATOM      3  C   UNL     1     133.230 126.446 110.953  1.00  0.00     0.199 C 
ATOM      4  C   UNL     1     133.834 126.452 109.528  1.00  0.00     0.180 C 
ATOM      5  O   UNL     1     133.099 127.770 111.446  1.00  0.00    -0.328 OA
ATOM      6  C   UNL     1     132.949 127.274 108.573  1.00  0.00     0.181 C 
ATOM      7  C   UNL     1     132.632 128.653 109.192  1.00  0.00     0.214 C 
BRANCH   3   8
ATOM      8  C   UNL     1     134.126 125.680 111.882  1.00  0.00     0.073 C 
ATOM      9  O   UNL     1     133.646 125.097 112.889  1.00  0.00    -0.547 OA
ATOM     10  O   UNL     1     135.482 125.565 111.605  1.00  0.00    -0.547 OA
ENDBRANCH   3   8
BRANCH   4  11
ATOM     11  O   UNL     1     134.027 125.144 109.038  1.00  0.00    -0.387 OA
ATOM     12  H   UNL     1     133.162 124.824 108.670  1.00  0.00     0.211 HD
ENDBRANCH   4  11
BRANCH   6  13
ATOM     13  O   UNL     1     131.756 126.579 108.310  1.00  0.00    -0.387 OA
ATOM     14  H   UNL     1     131.458 126.859 107.404  1.00  0.00     0.211 HD
ENDBRANCH   6  13
BRANCH   7  15
ATOM     15  O   UNL     1     133.738 129.517 109.068  1.00  0.00    -0.384 OA
ATOM     16  H   UNL     1     134.296 129.209 108.308  1.00  0.00     0.211 HD
ENDBRANCH   7  15
ENDBRANCH   1   2
BRANCH   1  17
ATOM     17  C   UNL     1     129.885 128.517 111.633  1.00  0.00     0.172 A 
ATOM     18  C   UNL     1     128.658 129.008 111.143  1.00  0.00     0.201 A 
ATOM     19  C   UNL     1     130.150 128.560 113.003  1.00  0.00     0.098 A 
ATOM     20  C   UNL     1     127.655 129.419 112.043  1.00  0.00     0.176 A 
ATOM     21  C   UNL     1     129.173 128.982 113.903  1.00  0.00     0.146 A 
ATOM     22  C   UNL     1     127.905 129.395 113.436  1.00  0.00     0.111 A 
ATOM     23  O   UNL     1     129.449 128.977 115.202  1.00  0.00    -0.456 OA
ATOM     24  C   UNL     1     126.950 129.775 114.401  1.00  0.00     0.197 A 
ATOM     25  C   UNL     1     128.576 129.341 116.138  1.00  0.00     0.138 A 
ATOM     26  C   UNL     1     127.283 129.740 115.754  1.00  0.00     0.100 A 
ATOM     27  O   UNL     1     125.791 130.144 114.068  1.00  0.00    -0.289 OA
BRANCH  18  28
ATOM     28  O   UNL     1     128.433 129.132 109.772  1.00  0.00    -0.502 OA
ATOM     29  H   UNL     1     128.212 128.339 109.183  1.00  0.00     0.293 HD
ENDBRANCH  18  28
BRANCH  20  30
ATOM     30  O   UNL     1     126.421 129.862 111.556  1.00  0.00    -0.504 OA
ATOM     31  H   UNL     1     126.312 130.266 110.632  1.00  0.00     0.293 HD
ENDBRANCH  20  30
BRANCH  25  32
ATOM     32  C   UNL     1     129.002 129.294 117.564  1.00  0.00     0.017 A 
ATOM     33  C   UNL     1     130.254 128.770 117.956  1.00  0.00     0.012 A 
ATOM     34  C   UNL     1     128.121 129.752 118.564  1.00  0.00     0.012 A 
ATOM     35  C   UNL     1     130.615 128.727 119.305  1.00  0.00     0.001 A 
ATOM     36  C   UNL     1     128.488 129.707 119.913  1.00  0.00     0.001 A 
ATOM     37  C   UNL     1     129.735 129.197 120.284  1.00  0.00     0.000 A 
ENDBRANCH  25  32
ENDBRANCH   1  17
TORSDOF 9
ENDMDL
