MODEL 1
REMARK VINA RESULT:    -3.194      0.000      0.000
REMARK INTER + INTRA:          -3.856
REMARK INTER:                  -3.754
REMARK INTRA:                  -0.102
REMARK UNBOUND:                -0.102
REMARK SMILES O=C([O-])CCC(=O)[O-]
REMARK SMILES IDX 4 1 2 2 1 3 3 4 5 5 6 6 7 7 8 8
REMARK H PARENT
REMARK Flexibility Score: inf
ROOT
ATOM      1  C   UNL     1      -3.124  -2.782   9.857  1.00  0.00     0.059 C 
ENDROOT
BRANCH   1   2
ATOM      2  C   UNL     1      -3.910  -1.514   9.719  1.00  0.00     0.042 C 
ATOM      3  O   UNL     1      -3.936  -0.678  10.660  1.00  0.00    -0.550 OA
ATOM      4  O   UNL     1      -4.646  -1.274   8.565  1.00  0.00    -0.550 OA
ENDBRANCH   1   2
BRANCH   1   5
ATOM      5  C   UNL     1      -3.863  -3.972   9.238  1.00  0.00     0.059 C 
BRANCH   5   6
ATOM      6  C   UNL     1      -4.714  -4.680  10.249  1.00  0.00     0.042 C 
ATOM      7  O   UNL     1      -4.411  -4.642  11.470  1.00  0.00    -0.550 OA
ATOM      8  O   UNL     1      -5.818  -5.413   9.836  1.00  0.00    -0.550 OA
ENDBRANCH   5   6
ENDBRANCH   1   5
TORSDOF 3
ENDMDL
MODEL 2
REMARK VINA RESULT:    -3.192      0.200      3.565
REMARK INTER + INTRA:          -3.854
REMARK INTER:                  -3.764
REMARK INTRA:                  -0.091
REMARK UNBOUND:                -0.102
REMARK SMILES O=C([O-])CCC(=O)[O-]
REMARK SMILES IDX 4 1 2 2 1 3 3 4 5 5 6 6 7 7 8 8
REMARK H PARENT
REMARK Flexibility Score: inf
ROOT
ATOM      1  C   UNL     1      -3.833  -3.899   9.243  1.00  0.00     0.059 C 
ENDROOT
BRANCH   1   2
ATOM      2  C   UNL     1      -4.803  -4.666  10.088  1.00  0.00     0.042 C 
ATOM      3  O   UNL     1      -4.641  -4.738  11.334  1.00  0.00    -0.550 OA
ATOM      4  O   UNL     1      -5.865  -5.335   9.493  1.00  0.00    -0.550 OA
ENDBRANCH   1   2
BRANCH   1   5
ATOM      5  C   UNL     1      -3.202  -2.739  10.020  1.00  0.00     0.059 C 
BRANCH   5   6
ATOM      6  C   UNL     1      -3.899  -1.443   9.739  1.00  0.00     0.042 C 
ATOM      7  O   UNL     1      -3.931  -0.537  10.612  1.00  0.00    -0.550 OA
ATOM      8  O   UNL     1      -4.548  -1.252   8.526  1.00  0.00    -0.550 OA
ENDBRANCH   5   6
ENDBRANCH   1   5
TORSDOF 3
ENDMDL
MODEL 3
REMARK VINA RESULT:    -3.189      7.785      9.352
REMARK INTER + INTRA:          -3.851
REMARK INTER:                  -3.686
REMARK INTRA:                  -0.165
REMARK UNBOUND:                -0.102
REMARK SMILES O=C([O-])CCC(=O)[O-]
REMARK SMILES IDX 4 1 2 2 1 3 3 4 5 5 6 6 7 7 8 8
REMARK H PARENT
REMARK Flexibility Score: inf
ROOT
ATOM      1  C   UNL     1      -5.615   3.048  16.001  1.00  0.00     0.059 C 
ENDROOT
BRANCH   1   2
ATOM      2  C   UNL     1      -5.550   3.123  14.506  1.00  0.00     0.042 C 
ATOM      3  O   UNL     1      -5.828   2.114  13.808  1.00  0.00    -0.550 OA
ATOM      4  O   UNL     1      -5.144   4.298  13.886  1.00  0.00    -0.550 OA
ENDBRANCH   1   2
BRANCH   1   5
ATOM      5  C   UNL     1      -7.055   2.888  16.495  1.00  0.00     0.059 C 
BRANCH   5   6
ATOM      6  C   UNL     1      -7.889   4.088  16.161  1.00  0.00     0.042 C 
ATOM      7  O   UNL     1      -7.757   5.154  16.817  1.00  0.00    -0.550 OA
ATOM      8  O   UNL     1      -8.839   4.014  15.150  1.00  0.00    -0.550 OA
ENDBRANCH   5   6
ENDBRANCH   1   5
TORSDOF 3
ENDMDL
MODEL 4
REMARK VINA RESULT:    -3.189      0.227      3.932
REMARK INTER + INTRA:          -3.851
REMARK INTER:                  -3.770
REMARK INTRA:                  -0.081
REMARK UNBOUND:                -0.102
REMARK SMILES O=C([O-])CCC(=O)[O-]
REMARK SMILES IDX 4 1 2 2 1 3 3 4 5 5 6 6 7 7 8 8
REMARK H PARENT
REMARK Flexibility Score: inf
ROOT
ATOM      1  C   UNL     1      -3.989  -3.942   9.204  1.00  0.00     0.059 C 
ENDROOT
BRANCH   1   2
ATOM      2  C   UNL     1      -4.894  -4.770  10.064  1.00  0.00     0.042 C 
ATOM      3  O   UNL     1      -5.871  -5.378   9.556  1.00  0.00    -0.550 OA
ATOM      4  O   UNL     1      -4.678  -4.838  11.435  1.00  0.00    -0.550 OA
ENDBRANCH   1   2
BRANCH   1   5
ATOM      5  C   UNL     1      -3.330  -2.813  10.001  1.00  0.00     0.059 C 
BRANCH   5   6
ATOM      6  C   UNL     1      -3.969  -1.488   9.712  1.00  0.00     0.042 C 
ATOM      7  O   UNL     1      -4.528  -1.282   8.603  1.00  0.00    -0.550 OA
ATOM      8  O   UNL     1      -3.912  -0.469  10.654  1.00  0.00    -0.550 OA
ENDBRANCH   5   6
ENDBRANCH   1   5
TORSDOF 3
ENDMDL
MODEL 5
REMARK VINA RESULT:    -3.177      7.773      9.328
REMARK INTER + INTRA:          -3.836
REMARK INTER:                  -3.673
REMARK INTRA:                  -0.164
REMARK UNBOUND:                -0.102
REMARK SMILES O=C([O-])CCC(=O)[O-]
REMARK SMILES IDX 4 1 2 2 1 3 3 4 5 5 6 6 7 7 8 8
REMARK H PARENT
REMARK Flexibility Score: inf
ROOT
ATOM      1  C   UNL     1      -7.066   2.900  16.464  1.00  0.00     0.059 C 
ENDROOT
BRANCH   1   2
ATOM      2  C   UNL     1      -7.916   4.087  16.128  1.00  0.00     0.042 C 
ATOM      3  O   UNL     1      -7.813   5.149  16.795  1.00  0.00    -0.550 OA
ATOM      4  O   UNL     1      -8.849   4.006  15.102  1.00  0.00    -0.550 OA
ENDBRANCH   1   2
BRANCH   1   5
ATOM      5  C   UNL     1      -5.621   3.089  15.994  1.00  0.00     0.059 C 
BRANCH   5   6
ATOM      6  C   UNL     1      -5.526   3.115  14.498  1.00  0.00     0.042 C 
ATOM      7  O   UNL     1      -5.830   2.095  13.826  1.00  0.00    -0.550 OA
ATOM      8  O   UNL     1      -5.065   4.254  13.851  1.00  0.00    -0.550 OA
ENDBRANCH   5   6
ENDBRANCH   1   5
TORSDOF 3
ENDMDL
MODEL 6
REMARK VINA RESULT:    -3.174      7.777      9.312
REMARK INTER + INTRA:          -3.833
REMARK INTER:                  -3.664
REMARK INTRA:                  -0.169
REMARK UNBOUND:                -0.102
REMARK SMILES O=C([O-])CCC(=O)[O-]
REMARK SMILES IDX 4 1 2 2 1 3 3 4 5 5 6 6 7 7 8 8
REMARK H PARENT
REMARK Flexibility Score: inf
ROOT
ATOM      1  C   UNL     1      -5.579   3.128  16.020  1.00  0.00     0.059 C 
ENDROOT
BRANCH   1   2
ATOM      2  C   UNL     1      -5.475   3.180  14.526  1.00  0.00     0.042 C 
ATOM      3  O   UNL     1      -5.099   4.236  13.954  1.00  0.00    -0.550 OA
ATOM      4  O   UNL     1      -5.830   2.073  13.766  1.00  0.00    -0.550 OA
ENDBRANCH   1   2
BRANCH   1   5
ATOM      5  C   UNL     1      -7.022   2.893  16.477  1.00  0.00     0.059 C 
BRANCH   5   6
ATOM      6  C   UNL     1      -7.901   4.060  16.144  1.00  0.00     0.042 C 
ATOM      7  O   UNL     1      -7.821   5.125  16.811  1.00  0.00    -0.550 OA
ATOM      8  O   UNL     1      -8.837   3.956  15.124  1.00  0.00    -0.550 OA
ENDBRANCH   5   6
ENDBRANCH   1   5
TORSDOF 3
ENDMDL
MODEL 7
REMARK VINA RESULT:    -3.147      9.845     11.131
REMARK INTER + INTRA:          -3.801
REMARK INTER:                  -3.683
REMARK INTRA:                  -0.119
REMARK UNBOUND:                -0.102
REMARK SMILES O=C([O-])CCC(=O)[O-]
REMARK SMILES IDX 4 1 2 2 1 3 3 4 5 5 6 6 7 7 8 8
REMARK H PARENT
REMARK Flexibility Score: inf
ROOT
ATOM      1  C   UNL     1      -0.377  -0.293  18.752  1.00  0.00     0.059 C 
ENDROOT
BRANCH   1   2
ATOM      2  C   UNL     1      -0.100   0.276  20.110  1.00  0.00     0.042 C 
ATOM      3  O   UNL     1      -1.044   0.709  20.821  1.00  0.00    -0.550 OA
ATOM      4  O   UNL     1       1.207   0.364  20.573  1.00  0.00    -0.550 OA
ENDBRANCH   1   2
BRANCH   1   5
ATOM      5  C   UNL     1      -0.322   0.786  17.667  1.00  0.00     0.059 C 
BRANCH   5   6
ATOM      6  C   UNL     1       1.075   0.993  17.165  1.00  0.00     0.042 C 
ATOM      7  O   UNL     1       1.559   0.217  16.299  1.00  0.00    -0.550 OA
ATOM      8  O   UNL     1       1.854   2.019  17.683  1.00  0.00    -0.550 OA
ENDBRANCH   5   6
ENDBRANCH   1   5
TORSDOF 3
ENDMDL
MODEL 8
REMARK VINA RESULT:    -3.139      7.765      9.272
REMARK INTER + INTRA:          -3.792
REMARK INTER:                  -3.625
REMARK INTRA:                  -0.168
REMARK UNBOUND:                -0.102
REMARK SMILES O=C([O-])CCC(=O)[O-]
REMARK SMILES IDX 4 1 2 2 1 3 3 4 5 5 6 6 7 7 8 8
REMARK H PARENT
REMARK Flexibility Score: inf
ROOT
ATOM      1  C   UNL     1      -7.062   2.912  16.434  1.00  0.00     0.059 C 
ENDROOT
BRANCH   1   2
ATOM      2  C   UNL     1      -7.931   4.090  16.116  1.00  0.00     0.042 C 
ATOM      3  O   UNL     1      -7.840   5.146  16.794  1.00  0.00    -0.550 OA
ATOM      4  O   UNL     1      -8.869   4.006  15.095  1.00  0.00    -0.550 OA
ENDBRANCH   1   2
BRANCH   1   5
ATOM      5  C   UNL     1      -5.613   3.145  15.995  1.00  0.00     0.059 C 
BRANCH   5   6
ATOM      6  C   UNL     1      -5.479   3.126  14.503  1.00  0.00     0.042 C 
ATOM      7  O   UNL     1      -4.979   4.111  13.899  1.00  0.00    -0.550 OA
ATOM      8  O   UNL     1      -5.943   2.037  13.777  1.00  0.00    -0.550 OA
ENDBRANCH   5   6
ENDBRANCH   1   5
TORSDOF 3
ENDMDL
MODEL 9
REMARK VINA RESULT:    -3.132      0.490      1.642
REMARK INTER + INTRA:          -3.783
REMARK INTER:                  -3.713
REMARK INTRA:                  -0.071
REMARK UNBOUND:                -0.102
REMARK SMILES O=C([O-])CCC(=O)[O-]
REMARK SMILES IDX 4 1 2 2 1 3 3 4 5 5 6 6 7 7 8 8
REMARK H PARENT
REMARK Flexibility Score: inf
ROOT
ATOM      1  C   UNL     1      -3.537  -2.552  10.142  1.00  0.00     0.059 C 
ENDROOT
BRANCH   1   2
ATOM      2  C   UNL     1      -4.007  -1.261   9.545  1.00  0.00     0.042 C 
ATOM      3  O   UNL     1      -4.737  -1.265   8.520  1.00  0.00    -0.550 OA
ATOM      4  O   UNL     1      -3.606  -0.052  10.099  1.00  0.00    -0.550 OA
ENDBRANCH   1   2
BRANCH   1   5
ATOM      5  C   UNL     1      -3.906  -3.748   9.260  1.00  0.00     0.059 C 
BRANCH   5   6
ATOM      6  C   UNL     1      -4.857  -4.674   9.955  1.00  0.00     0.042 C 
ATOM      7  O   UNL     1      -5.839  -5.160   9.334  1.00  0.00    -0.550 OA
ATOM      8  O   UNL     1      -4.681  -4.969  11.301  1.00  0.00    -0.550 OA
ENDBRANCH   5   6
ENDBRANCH   1   5
TORSDOF 3
ENDMDL
