MODEL 1
REMARK VINA RESULT:    -4.841      0.000      0.000
REMARK INTER + INTRA:          -5.647
REMARK INTER:                  -5.549
REMARK INTRA:                  -0.098
REMARK UNBOUND:                -0.098
REMARK SMILES COc1cc(C(=O)[O-])ccc1O
REMARK SMILES IDX 5 1 9 2 4 3 10 4 3 5 11 6 6 7 7 8 8 9 2 10 1 11 12 12
REMARK H PARENT 12 13
REMARK Flexibility Score: inf
ROOT
ATOM      1  C   UNL     1       3.088  -8.355   6.265  1.00  0.00     0.001 A 
ATOM      2  C   UNL     1       3.636  -8.594   7.536  1.00  0.00     0.014 A 
ATOM      3  C   UNL     1       3.905  -8.497   5.130  1.00  0.00     0.060 A 
ATOM      4  C   UNL     1       4.975  -8.967   7.669  1.00  0.00     0.051 A 
ATOM      5  C   UNL     1       5.257  -8.874   5.260  1.00  0.00     0.161 A 
ATOM      6  C   UNL     1       5.786  -9.108   6.537  1.00  0.00     0.157 A 
ENDROOT
BRANCH   1   7
ATOM      7  C   UNL     1       1.668  -7.959   6.120  1.00  0.00     0.072 C 
ATOM      8  O   UNL     1       0.915  -8.562   5.311  1.00  0.00    -0.545 OA
ATOM      9  O   UNL     1       1.148  -6.915   6.875  1.00  0.00    -0.545 OA
ENDBRANCH   1   7
BRANCH   5  10
ATOM     10  O   UNL     1       6.102  -9.025   4.149  1.00  0.00    -0.493 OA
ATOM     11  C   UNL     1       6.022 -10.094   3.212  1.00  0.00     0.278 C 
ENDBRANCH   5  10
BRANCH   6  12
ATOM     12  O   UNL     1       7.122  -9.480   6.672  1.00  0.00    -0.504 OA
ATOM     13  H   UNL     1       7.596 -10.022   5.960  1.00  0.00     0.293 HD
ENDBRANCH   6  12
TORSDOF 3
ENDMDL
MODEL 2
REMARK VINA RESULT:    -4.564      1.849      4.180
REMARK INTER + INTRA:          -5.329
REMARK INTER:                  -5.249
REMARK INTRA:                  -0.080
REMARK UNBOUND:                -0.098
REMARK SMILES COc1cc(C(=O)[O-])ccc1O
REMARK SMILES IDX 5 1 9 2 4 3 10 4 3 5 11 6 6 7 7 8 8 9 2 10 1 11 12 12
REMARK H PARENT 12 13
REMARK Flexibility Score: inf
ROOT
ATOM      1  C   UNL     1       5.989  -9.585   6.761  1.00  0.00     0.001 A 
ATOM      2  C   UNL     1       6.940 -10.125   5.879  1.00  0.00     0.014 A 
ATOM      3  C   UNL     1       4.818  -9.010   6.238  1.00  0.00     0.060 A 
ATOM      4  C   UNL     1       6.723 -10.089   4.499  1.00  0.00     0.051 A 
ATOM      5  C   UNL     1       4.596  -8.973   4.847  1.00  0.00     0.161 A 
ATOM      6  C   UNL     1       5.555  -9.516   3.982  1.00  0.00     0.157 A 
ENDROOT
BRANCH   1   7
ATOM      7  C   UNL     1       6.216  -9.620   8.224  1.00  0.00     0.072 C 
ATOM      8  O   UNL     1       7.386  -9.659   8.690  1.00  0.00    -0.545 OA
ATOM      9  O   UNL     1       5.140  -9.613   9.104  1.00  0.00    -0.545 OA
ENDBRANCH   1   7
BRANCH   5  10
ATOM     10  O   UNL     1       3.438  -8.406   4.288  1.00  0.00    -0.493 OA
ATOM     11  C   UNL     1       2.343  -7.897   5.043  1.00  0.00     0.278 C 
ENDBRANCH   5  10
BRANCH   6  12
ATOM     12  O   UNL     1       5.341  -9.482   2.605  1.00  0.00    -0.504 OA
ATOM     13  H   UNL     1       5.181 -10.328   2.072  1.00  0.00     0.293 HD
ENDBRANCH   6  12
TORSDOF 3
ENDMDL
MODEL 3
REMARK VINA RESULT:    -4.520      0.996      2.707
REMARK INTER + INTRA:          -5.278
REMARK INTER:                  -5.199
REMARK INTRA:                  -0.079
REMARK UNBOUND:                -0.098
REMARK SMILES COc1cc(C(=O)[O-])ccc1O
REMARK SMILES IDX 5 1 9 2 4 3 10 4 3 5 11 6 6 7 7 8 8 9 2 10 1 11 12 12
REMARK H PARENT 12 13
REMARK Flexibility Score: inf
ROOT
ATOM      1  C   UNL     1       3.300  -8.416   5.893  1.00  0.00     0.001 A 
ATOM      2  C   UNL     1       4.000  -8.716   4.713  1.00  0.00     0.014 A 
ATOM      3  C   UNL     1       3.953  -8.555   7.131  1.00  0.00     0.060 A 
ATOM      4  C   UNL     1       5.327  -9.148   4.769  1.00  0.00     0.051 A 
ATOM      5  C   UNL     1       5.292  -8.989   7.191  1.00  0.00     0.161 A 
ATOM      6  C   UNL     1       5.974  -9.285   6.003  1.00  0.00     0.157 A 
ENDROOT
BRANCH   1   7
ATOM      7  C   UNL     1       1.892  -7.958   5.838  1.00  0.00     0.072 C 
ATOM      8  O   UNL     1       1.102  -8.423   4.975  1.00  0.00    -0.545 OA
ATOM      9  O   UNL     1       1.425  -7.008   6.737  1.00  0.00    -0.545 OA
ENDBRANCH   1   7
BRANCH   5  10
ATOM     10  O   UNL     1       5.976  -9.140   8.408  1.00  0.00    -0.493 OA
ATOM     11  C   UNL     1       5.465  -8.743   9.677  1.00  0.00     0.278 C 
ENDBRANCH   5  10
BRANCH   6  12
ATOM     12  O   UNL     1       7.299  -9.716   6.056  1.00  0.00    -0.504 OA
ATOM     13  H   UNL     1       8.064  -9.064   6.180  1.00  0.00     0.293 HD
ENDBRANCH   6  12
TORSDOF 3
ENDMDL
MODEL 4
REMARK VINA RESULT:    -4.480      1.519      4.799
REMARK INTER + INTRA:          -5.232
REMARK INTER:                  -5.129
REMARK INTRA:                  -0.103
REMARK UNBOUND:                -0.098
REMARK SMILES COc1cc(C(=O)[O-])ccc1O
REMARK SMILES IDX 5 1 9 2 4 3 10 4 3 5 11 6 6 7 7 8 8 9 2 10 1 11 12 12
REMARK H PARENT 12 13
REMARK Flexibility Score: inf
ROOT
ATOM      1  C   UNL     1       4.316  -8.357   5.457  1.00  0.00     0.001 A 
ATOM      2  C   UNL     1       3.051  -8.263   4.855  1.00  0.00     0.014 A 
ATOM      3  C   UNL     1       4.504  -7.819   6.743  1.00  0.00     0.060 A 
ATOM      4  C   UNL     1       1.994  -7.641   5.524  1.00  0.00     0.051 A 
ATOM      5  C   UNL     1       3.441  -7.191   7.421  1.00  0.00     0.161 A 
ATOM      6  C   UNL     1       2.185  -7.106   6.804  1.00  0.00     0.157 A 
ENDROOT
BRANCH   1   7
ATOM      7  C   UNL     1       5.439  -9.015   4.750  1.00  0.00     0.072 C 
ATOM      8  O   UNL     1       6.506  -9.290   5.360  1.00  0.00    -0.545 OA
ATOM      9  O   UNL     1       5.331  -9.336   3.403  1.00  0.00    -0.545 OA
ENDBRANCH   1   7
BRANCH   5  10
ATOM     10  O   UNL     1       3.592  -6.642   8.705  1.00  0.00    -0.493 OA
ATOM     11  C   UNL     1       3.703  -7.405   9.902  1.00  0.00     0.278 C 
ENDBRANCH   5  10
BRANCH   6  12
ATOM     12  O   UNL     1       1.129  -6.487   7.470  1.00  0.00    -0.504 OA
ATOM     13  H   UNL     1       1.028  -6.548   8.476  1.00  0.00     0.293 HD
ENDBRANCH   6  12
TORSDOF 3
ENDMDL
MODEL 5
REMARK VINA RESULT:    -4.395      1.823      2.944
REMARK INTER + INTRA:          -5.135
REMARK INTER:                  -5.044
REMARK INTRA:                  -0.091
REMARK UNBOUND:                -0.098
REMARK SMILES COc1cc(C(=O)[O-])ccc1O
REMARK SMILES IDX 5 1 9 2 4 3 10 4 3 5 11 6 6 7 7 8 8 9 2 10 1 11 12 12
REMARK H PARENT 12 13
REMARK Flexibility Score: inf
ROOT
ATOM      1  C   UNL     1       3.005  -6.998   6.966  1.00  0.00     0.001 A 
ATOM      2  C   UNL     1       2.287  -7.293   5.795  1.00  0.00     0.014 A 
ATOM      3  C   UNL     1       4.267  -7.588   7.162  1.00  0.00     0.060 A 
ATOM      4  C   UNL     1       2.820  -8.161   4.840  1.00  0.00     0.051 A 
ATOM      5  C   UNL     1       4.808  -8.464   6.200  1.00  0.00     0.161 A 
ATOM      6  C   UNL     1       4.076  -8.746   5.038  1.00  0.00     0.157 A 
ENDROOT
BRANCH   1   7
ATOM      7  C   UNL     1       2.443  -6.078   7.982  1.00  0.00     0.072 C 
ATOM      8  O   UNL     1       1.200  -5.889   8.056  1.00  0.00    -0.545 OA
ATOM      9  O   UNL     1       3.281  -5.410   8.867  1.00  0.00    -0.545 OA
ENDBRANCH   1   7
BRANCH   5  10
ATOM     10  O   UNL     1       6.063  -9.071   6.363  1.00  0.00    -0.493 OA
ATOM     11  C   UNL     1       6.487  -9.748   7.542  1.00  0.00     0.278 C 
ENDBRANCH   5  10
BRANCH   6  12
ATOM     12  O   UNL     1       4.606  -9.612   4.083  1.00  0.00    -0.504 OA
ATOM     13  H   UNL     1       5.326  -9.313   3.438  1.00  0.00     0.293 HD
ENDBRANCH   6  12
TORSDOF 3
ENDMDL
MODEL 6
REMARK VINA RESULT:    -4.357      1.854      4.399
REMARK INTER + INTRA:          -5.092
REMARK INTER:                  -5.046
REMARK INTRA:                  -0.046
REMARK UNBOUND:                -0.098
REMARK SMILES COc1cc(C(=O)[O-])ccc1O
REMARK SMILES IDX 5 1 9 2 4 3 10 4 3 5 11 6 6 7 7 8 8 9 2 10 1 11 12 12
REMARK H PARENT 12 13
REMARK Flexibility Score: inf
ROOT
ATOM      1  C   UNL     1       4.872  -8.676   6.538  1.00  0.00     0.001 A 
ATOM      2  C   UNL     1       5.293  -9.026   7.831  1.00  0.00     0.014 A 
ATOM      3  C   UNL     1       3.979  -7.603   6.375  1.00  0.00     0.060 A 
ATOM      4  C   UNL     1       4.828  -8.317   8.941  1.00  0.00     0.051 A 
ATOM      5  C   UNL     1       3.508  -6.885   7.493  1.00  0.00     0.161 A 
ATOM      6  C   UNL     1       3.939  -7.248   8.776  1.00  0.00     0.157 A 
ENDROOT
BRANCH   1   7
ATOM      7  C   UNL     1       5.362  -9.426   5.359  1.00  0.00     0.072 C 
ATOM      8  O   UNL     1       4.553  -9.879   4.506  1.00  0.00    -0.545 OA
ATOM      9  O   UNL     1       6.723  -9.643   5.178  1.00  0.00    -0.545 OA
ENDBRANCH   1   7
BRANCH   5  10
ATOM     10  O   UNL     1       2.615  -5.808   7.369  1.00  0.00    -0.493 OA
ATOM     11  C   UNL     1       1.200  -5.915   7.484  1.00  0.00     0.278 C 
ENDBRANCH   5  10
BRANCH   6  12
ATOM     12  O   UNL     1       3.476  -6.542   9.885  1.00  0.00    -0.504 OA
ATOM     13  H   UNL     1       3.613  -5.542   9.971  1.00  0.00     0.293 HD
ENDBRANCH   6  12
TORSDOF 3
ENDMDL
MODEL 7
REMARK VINA RESULT:    -4.348      1.656      4.885
REMARK INTER + INTRA:          -5.081
REMARK INTER:                  -4.980
REMARK INTRA:                  -0.101
REMARK UNBOUND:                -0.098
REMARK SMILES COc1cc(C(=O)[O-])ccc1O
REMARK SMILES IDX 5 1 9 2 4 3 10 4 3 5 11 6 6 7 7 8 8 9 2 10 1 11 12 12
REMARK H PARENT 12 13
REMARK Flexibility Score: inf
ROOT
ATOM      1  C   UNL     1       5.974  -9.373   6.563  1.00  0.00     0.001 A 
ATOM      2  C   UNL     1       5.951  -9.587   5.175  1.00  0.00     0.014 A 
ATOM      3  C   UNL     1       4.861  -8.776   7.182  1.00  0.00     0.060 A 
ATOM      4  C   UNL     1       4.837  -9.211   4.421  1.00  0.00     0.051 A 
ATOM      5  C   UNL     1       3.736  -8.396   6.425  1.00  0.00     0.161 A 
ATOM      6  C   UNL     1       3.731  -8.617   5.041  1.00  0.00     0.157 A 
ENDROOT
BRANCH   1   7
ATOM      7  C   UNL     1       7.153  -9.770   7.367  1.00  0.00     0.072 C 
ATOM      8  O   UNL     1       7.019 -10.125   8.568  1.00  0.00    -0.545 OA
ATOM      9  O   UNL     1       8.425  -9.754   6.806  1.00  0.00    -0.545 OA
ENDBRANCH   1   7
BRANCH   5  10
ATOM     10  O   UNL     1       2.608  -7.797   7.008  1.00  0.00    -0.493 OA
ATOM     11  C   UNL     1       2.512  -6.418   7.352  1.00  0.00     0.278 C 
ENDBRANCH   5  10
BRANCH   6  12
ATOM     12  O   UNL     1       2.621  -8.243   4.286  1.00  0.00    -0.504 OA
ATOM     13  H   UNL     1       2.662  -8.186   3.275  1.00  0.00     0.293 HD
ENDBRANCH   6  12
TORSDOF 3
ENDMDL
MODEL 8
REMARK VINA RESULT:    -4.140      3.322      5.329
REMARK INTER + INTRA:          -4.843
REMARK INTER:                  -4.762
REMARK INTRA:                  -0.082
REMARK UNBOUND:                -0.098
REMARK SMILES COc1cc(C(=O)[O-])ccc1O
REMARK SMILES IDX 5 1 9 2 4 3 10 4 3 5 11 6 6 7 7 8 8 9 2 10 1 11 12 12
REMARK H PARENT 12 13
REMARK Flexibility Score: inf
ROOT
ATOM      1  C   UNL     1       1.998  -7.510   7.071  1.00  0.00     0.001 A 
ATOM      2  C   UNL     1       3.335  -7.082   7.114  1.00  0.00     0.014 A 
ATOM      3  C   UNL     1       1.084  -6.994   8.006  1.00  0.00     0.060 A 
ATOM      4  C   UNL     1       3.751  -6.158   8.075  1.00  0.00     0.051 A 
ATOM      5  C   UNL     1       1.499  -6.061   8.978  1.00  0.00     0.161 A 
ATOM      6  C   UNL     1       2.838  -5.647   9.005  1.00  0.00     0.157 A 
ENDROOT
BRANCH   1   7
ATOM      7  C   UNL     1       1.554  -8.490   6.053  1.00  0.00     0.072 C 
ATOM      8  O   UNL     1       1.036  -9.584   6.401  1.00  0.00    -0.545 OA
ATOM      9  O   UNL     1       1.705  -8.216   4.699  1.00  0.00    -0.545 OA
ENDBRANCH   1   7
BRANCH   5  10
ATOM     10  O   UNL     1       0.615  -5.526   9.928  1.00  0.00    -0.493 OA
ATOM     11  C   UNL     1      -0.741  -5.181   9.665  1.00  0.00     0.278 C 
ENDBRANCH   5  10
BRANCH   6  12
ATOM     12  O   UNL     1       3.254  -4.724   9.964  1.00  0.00    -0.504 OA
ATOM     13  H   UNL     1       2.814  -3.817  10.053  1.00  0.00     0.293 HD
ENDBRANCH   6  12
TORSDOF 3
ENDMDL
MODEL 9
REMARK VINA RESULT:    -4.037      1.769      3.676
REMARK INTER + INTRA:          -4.725
REMARK INTER:                  -4.643
REMARK INTRA:                  -0.081
REMARK UNBOUND:                -0.098
REMARK SMILES COc1cc(C(=O)[O-])ccc1O
REMARK SMILES IDX 5 1 9 2 4 3 10 4 3 5 11 6 6 7 7 8 8 9 2 10 1 11 12 12
REMARK H PARENT 12 13
REMARK Flexibility Score: inf
ROOT
ATOM      1  C   UNL     1       4.477  -8.432   7.760  1.00  0.00     0.001 A 
ATOM      2  C   UNL     1       3.297  -7.670   7.765  1.00  0.00     0.014 A 
ATOM      3  C   UNL     1       4.909  -9.014   6.555  1.00  0.00     0.060 A 
ATOM      4  C   UNL     1       2.563  -7.495   6.589  1.00  0.00     0.051 A 
ATOM      5  C   UNL     1       4.173  -8.840   5.367  1.00  0.00     0.161 A 
ATOM      6  C   UNL     1       2.998  -8.076   5.392  1.00  0.00     0.157 A 
ENDROOT
BRANCH   1   7
ATOM      7  C   UNL     1       5.256  -8.620   9.004  1.00  0.00     0.072 C 
ATOM      8  O   UNL     1       4.750  -8.346  10.125  1.00  0.00    -0.545 OA
ATOM      9  O   UNL     1       6.560  -9.101   8.953  1.00  0.00    -0.545 OA
ENDBRANCH   1   7
BRANCH   5  10
ATOM     10  O   UNL     1       4.574  -9.407   4.147  1.00  0.00    -0.493 OA
ATOM     11  C   UNL     1       5.789 -10.123   3.950  1.00  0.00     0.278 C 
ENDBRANCH   5  10
BRANCH   6  12
ATOM     12  O   UNL     1       2.264  -7.900   4.220  1.00  0.00    -0.504 OA
ATOM     13  H   UNL     1       1.268  -7.717   4.240  1.00  0.00     0.293 HD
ENDBRANCH   6  12
TORSDOF 3
ENDMDL
