MODEL 1
REMARK VINA RESULT:    -4.102      0.000      0.000
REMARK INTER + INTRA:          -8.361
REMARK INTER:                  -7.220
REMARK INTRA:                  -1.141
REMARK UNBOUND:                -1.141
REMARK SMILES CCCCCCC=CCCCCCCCC(=O)[O-]
REMARK SMILES IDX 10 1 11 2 12 3 13 4 14 5 15 6 16 7 17 8 18 9 9 10 8 11 7 12
REMARK SMILES IDX 6 13 5 14 4 15 3 16 2 17 1 18
REMARK H PARENT
REMARK Flexibility Score: inf
ROOT
ATOM      1  C   UNL     1       0.398  11.817  -2.975  1.00  0.00     0.004 C 
ENDROOT
BRANCH   1   2
ATOM      2  C   UNL     1       1.589  10.879  -3.231  1.00  0.00     0.000 C 
BRANCH   2   3
ATOM      3  C   UNL     1       1.879   9.938  -2.048  1.00  0.00     0.000 C 
BRANCH   3   4
ATOM      4  C   UNL     1       0.747   9.819  -1.012  1.00  0.00     0.000 C 
BRANCH   4   5
ATOM      5  C   UNL     1       1.174   9.082   0.265  1.00  0.00     0.006 C 
BRANCH   5   6
ATOM      6  C   UNL     1       1.601   7.645  -0.049  1.00  0.00     0.053 C 
BRANCH   6   7
ATOM      7  C   UNL     1       3.053   7.451   0.258  1.00  0.00     0.041 C 
ATOM      8  O   UNL     1       3.474   7.578   1.439  1.00  0.00    -0.550 OA
ATOM      9  O   UNL     1       3.950   7.180  -0.767  1.00  0.00    -0.550 OA
ENDBRANCH   6   7
ENDBRANCH   5   6
ENDBRANCH   4   5
ENDBRANCH   3   4
ENDBRANCH   2   3
ENDBRANCH   1   2
BRANCH   1  10
ATOM     10  C   UNL     1      -0.380  12.147  -4.256  1.00  0.00     0.027 C 
BRANCH  10  11
ATOM     11  C   UNL     1      -1.743  11.499  -4.279  1.00  0.00    -0.031 C 
ATOM     12  C   UNL     1      -2.829  11.960  -4.933  1.00  0.00    -0.031 C 
BRANCH  12  13
ATOM     13  C   UNL     1      -2.898  13.227  -5.753  1.00  0.00     0.027 C 
BRANCH  13  14
ATOM     14  C   UNL     1      -3.211  14.449  -4.876  1.00  0.00     0.004 C 
BRANCH  14  15
ATOM     15  C   UNL     1      -2.011  15.394  -4.657  1.00  0.00     0.000 C 
BRANCH  15  16
ATOM     16  C   UNL     1      -1.803  15.860  -3.202  1.00  0.00    -0.000 C 
BRANCH  16  17
ATOM     17  C   UNL     1      -0.344  15.841  -2.715  1.00  0.00    -0.003 C 
ATOM     18  C   UNL     1      -0.225  15.801  -1.193  1.00  0.00     0.004 C 
ENDBRANCH  16  17
ENDBRANCH  15  16
ENDBRANCH  14  15
ENDBRANCH  13  14
ENDBRANCH  12  13
ENDBRANCH  10  11
ENDBRANCH   1  10
TORSDOF 13
ENDMDL
MODEL 2
REMARK VINA RESULT:    -4.094      4.007      7.873
REMARK INTER + INTRA:          -8.346
REMARK INTER:                  -7.217
REMARK INTRA:                  -1.130
REMARK UNBOUND:                -1.141
REMARK SMILES CCCCCCC=CCCCCCCCC(=O)[O-]
REMARK SMILES IDX 10 1 11 2 12 3 13 4 14 5 15 6 16 7 17 8 18 9 9 10 8 11 7 12
REMARK SMILES IDX 6 13 5 14 4 15 3 16 2 17 1 18
REMARK H PARENT
REMARK Flexibility Score: inf
ROOT
ATOM      1  C   UNL     1      -3.037  12.279  -5.049  1.00  0.00     0.004 C 
ENDROOT
BRANCH   1   2
ATOM      2  C   UNL     1      -3.075  13.756  -4.626  1.00  0.00     0.000 C 
BRANCH   2   3
ATOM      3  C   UNL     1      -2.983  14.727  -5.817  1.00  0.00     0.000 C 
BRANCH   3   4
ATOM      4  C   UNL     1      -1.898  15.812  -5.696  1.00  0.00     0.000 C 
BRANCH   4   5
ATOM      5  C   UNL     1      -1.609  16.215  -4.243  1.00  0.00     0.006 C 
BRANCH   5   6
ATOM      6  C   UNL     1      -0.131  16.007  -3.900  1.00  0.00     0.053 C 
BRANCH   6   7
ATOM      7  C   UNL     1       0.659  17.238  -4.217  1.00  0.00     0.041 C 
ATOM      8  O   UNL     1       1.916  17.190  -4.266  1.00  0.00    -0.550 OA
ATOM      9  O   UNL     1       0.008  18.450  -4.409  1.00  0.00    -0.550 OA
ENDBRANCH   6   7
ENDBRANCH   5   6
ENDBRANCH   4   5
ENDBRANCH   3   4
ENDBRANCH   2   3
ENDBRANCH   1   2
BRANCH   1  10
ATOM     10  C   UNL     1      -1.863  11.515  -4.421  1.00  0.00     0.027 C 
BRANCH  10  11
ATOM     11  C   UNL     1      -0.614  12.357  -4.334  1.00  0.00    -0.031 C 
ATOM     12  C   UNL     1       0.477  12.083  -3.591  1.00  0.00    -0.031 C 
BRANCH  12  13
ATOM     13  C   UNL     1       0.653  10.888  -2.683  1.00  0.00     0.027 C 
BRANCH  13  14
ATOM     14  C   UNL     1       2.060  10.285  -2.810  1.00  0.00     0.004 C 
BRANCH  14  15
ATOM     15  C   UNL     1       2.448   9.336  -1.659  1.00  0.00     0.000 C 
BRANCH  15  16
ATOM     16  C   UNL     1       1.616   9.495  -0.371  1.00  0.00    -0.000 C 
BRANCH  16  17
ATOM     17  C   UNL     1       1.091   8.181   0.232  1.00  0.00    -0.003 C 
ATOM     18  C   UNL     1       2.156   7.421   1.021  1.00  0.00     0.004 C 
ENDBRANCH  16  17
ENDBRANCH  15  16
ENDBRANCH  14  15
ENDBRANCH  13  14
ENDBRANCH  12  13
ENDBRANCH  10  11
ENDBRANCH   1  10
TORSDOF 13
ENDMDL
MODEL 3
REMARK VINA RESULT:    -3.987      1.146      1.504
REMARK INTER + INTRA:          -8.158
REMARK INTER:                  -7.236
REMARK INTRA:                  -0.922
REMARK UNBOUND:                -1.141
REMARK SMILES CCCCCCC=CCCCCCCCC(=O)[O-]
REMARK SMILES IDX 10 1 11 2 12 3 13 4 14 5 15 6 16 7 17 8 18 9 9 10 8 11 7 12
REMARK SMILES IDX 6 13 5 14 4 15 3 16 2 17 1 18
REMARK H PARENT
REMARK Flexibility Score: inf
ROOT
ATOM      1  C   UNL     1       0.409  11.662  -2.861  1.00  0.00     0.004 C 
ENDROOT
BRANCH   1   2
ATOM      2  C   UNL     1       1.687  10.851  -3.130  1.00  0.00     0.000 C 
BRANCH   2   3
ATOM      3  C   UNL     1       2.021   9.862  -1.999  1.00  0.00     0.000 C 
BRANCH   3   4
ATOM      4  C   UNL     1       3.375   9.142  -2.137  1.00  0.00     0.000 C 
BRANCH   4   5
ATOM      5  C   UNL     1       3.511   7.932  -1.202  1.00  0.00     0.006 C 
BRANCH   5   6
ATOM      6  C   UNL     1       3.411   8.359   0.266  1.00  0.00     0.053 C 
BRANCH   6   7
ATOM      7  C   UNL     1       2.406   7.518   0.988  1.00  0.00     0.041 C 
ATOM      8  O   UNL     1       2.785   6.570   1.725  1.00  0.00    -0.550 OA
ATOM      9  O   UNL     1       1.048   7.750   0.809  1.00  0.00    -0.550 OA
ENDBRANCH   6   7
ENDBRANCH   5   6
ENDBRANCH   4   5
ENDBRANCH   3   4
ENDBRANCH   2   3
ENDBRANCH   1   2
BRANCH   1  10
ATOM     10  C   UNL     1      -0.222  12.212  -4.148  1.00  0.00     0.027 C 
BRANCH  10  11
ATOM     11  C   UNL     1      -1.627  11.702  -4.359  1.00  0.00    -0.031 C 
ATOM     12  C   UNL     1      -2.643  12.386  -4.922  1.00  0.00    -0.031 C 
BRANCH  12  13
ATOM     13  C   UNL     1      -2.579  13.807  -5.432  1.00  0.00     0.027 C 
BRANCH  13  14
ATOM     14  C   UNL     1      -2.643  14.823  -4.281  1.00  0.00     0.004 C 
BRANCH  14  15
ATOM     15  C   UNL     1      -1.586  15.943  -4.367  1.00  0.00     0.000 C 
BRANCH  15  16
ATOM     16  C   UNL     1      -0.471  15.873  -3.305  1.00  0.00    -0.000 C 
BRANCH  16  17
ATOM     17  C   UNL     1      -0.930  16.142  -1.861  1.00  0.00    -0.003 C 
ATOM     18  C   UNL     1       0.118  15.752  -0.820  1.00  0.00     0.004 C 
ENDBRANCH  16  17
ENDBRANCH  15  16
ENDBRANCH  14  15
ENDBRANCH  13  14
ENDBRANCH  12  13
ENDBRANCH  10  11
ENDBRANCH   1  10
TORSDOF 13
ENDMDL
MODEL 4
REMARK VINA RESULT:    -3.922      3.492      7.028
REMARK INTER + INTRA:          -8.043
REMARK INTER:                  -6.654
REMARK INTRA:                  -1.388
REMARK UNBOUND:                -1.141
REMARK SMILES CCCCCCC=CCCCCCCCC(=O)[O-]
REMARK SMILES IDX 10 1 11 2 12 3 13 4 14 5 15 6 16 7 17 8 18 9 9 10 8 11 7 12
REMARK SMILES IDX 6 13 5 14 4 15 3 16 2 17 1 18
REMARK H PARENT
REMARK Flexibility Score: inf
ROOT
ATOM      1  C   UNL     1      -3.344  14.249  -4.956  1.00  0.00     0.004 C 
ENDROOT
BRANCH   1   2
ATOM      2  C   UNL     1      -2.636  15.585  -5.228  1.00  0.00     0.000 C 
BRANCH   2   3
ATOM      3  C   UNL     1      -1.325  15.422  -6.019  1.00  0.00     0.000 C 
BRANCH   3   4
ATOM      4  C   UNL     1      -0.065  15.962  -5.319  1.00  0.00     0.000 C 
BRANCH   4   5
ATOM      5  C   UNL     1      -0.364  16.614  -3.961  1.00  0.00     0.006 C 
BRANCH   5   6
ATOM      6  C   UNL     1      -0.040  15.657  -2.810  1.00  0.00     0.053 C 
BRANCH   6   7
ATOM      7  C   UNL     1      -0.897  15.958  -1.621  1.00  0.00     0.041 C 
ATOM      8  O   UNL     1      -2.152  15.946  -1.726  1.00  0.00    -0.550 OA
ATOM      9  O   UNL     1      -0.310  16.300  -0.410  1.00  0.00    -0.550 OA
ENDBRANCH   6   7
ENDBRANCH   5   6
ENDBRANCH   4   5
ENDBRANCH   3   4
ENDBRANCH   2   3
ENDBRANCH   1   2
BRANCH   1  10
ATOM     10  C   UNL     1      -2.745  13.088  -5.762  1.00  0.00     0.027 C 
BRANCH  10  11
ATOM     11  C   UNL     1      -2.592  11.836  -4.933  1.00  0.00    -0.031 C 
ATOM     12  C   UNL     1      -1.518  11.504  -4.189  1.00  0.00    -0.031 C 
BRANCH  12  13
ATOM     13  C   UNL     1      -0.248  12.312  -4.057  1.00  0.00     0.027 C 
BRANCH  13  14
ATOM     14  C   UNL     1       0.893  11.475  -3.460  1.00  0.00     0.004 C 
BRANCH  14  15
ATOM     15  C   UNL     1       0.684  11.083  -1.983  1.00  0.00     0.000 C 
BRANCH  15  16
ATOM     16  C   UNL     1       1.540   9.898  -1.493  1.00  0.00    -0.000 C 
BRANCH  16  17
ATOM     17  C   UNL     1       1.130   9.320  -0.127  1.00  0.00    -0.003 C 
ATOM     18  C   UNL     1       1.820   7.995   0.190  1.00  0.00     0.004 C 
ENDBRANCH  16  17
ENDBRANCH  15  16
ENDBRANCH  14  15
ENDBRANCH  13  14
ENDBRANCH  12  13
ENDBRANCH  10  11
ENDBRANCH   1  10
TORSDOF 13
ENDMDL
MODEL 5
REMARK VINA RESULT:    -3.904      1.093      1.724
REMARK INTER + INTRA:          -8.011
REMARK INTER:                  -6.813
REMARK INTRA:                  -1.198
REMARK UNBOUND:                -1.141
REMARK SMILES CCCCCCC=CCCCCCCCC(=O)[O-]
REMARK SMILES IDX 10 1 11 2 12 3 13 4 14 5 15 6 16 7 17 8 18 9 9 10 8 11 7 12
REMARK SMILES IDX 6 13 5 14 4 15 3 16 2 17 1 18
REMARK H PARENT
REMARK Flexibility Score: inf
ROOT
ATOM      1  C   UNL     1      -1.156  11.622  -3.808  1.00  0.00     0.004 C 
ENDROOT
BRANCH   1   2
ATOM      2  C   UNL     1       0.314  12.063  -3.875  1.00  0.00     0.000 C 
BRANCH   2   3
ATOM      3  C   UNL     1       1.282  11.025  -3.279  1.00  0.00     0.000 C 
BRANCH   3   4
ATOM      4  C   UNL     1       0.981  10.606  -1.828  1.00  0.00     0.000 C 
BRANCH   4   5
ATOM      5  C   UNL     1       1.942   9.532  -1.300  1.00  0.00     0.006 C 
BRANCH   5   6
ATOM      6  C   UNL     1       1.198   8.503  -0.444  1.00  0.00     0.053 C 
BRANCH   6   7
ATOM      7  C   UNL     1       2.119   7.899   0.569  1.00  0.00     0.041 C 
ATOM      8  O   UNL     1       1.752   6.902   1.244  1.00  0.00    -0.550 OA
ATOM      9  O   UNL     1       3.364   8.469   0.802  1.00  0.00    -0.550 OA
ENDBRANCH   6   7
ENDBRANCH   5   6
ENDBRANCH   4   5
ENDBRANCH   3   4
ENDBRANCH   2   3
ENDBRANCH   1   2
BRANCH   1  10
ATOM     10  C   UNL     1      -2.003  12.215  -4.943  1.00  0.00     0.027 C 
BRANCH  10  11
ATOM     11  C   UNL     1      -3.049  13.176  -4.433  1.00  0.00    -0.031 C 
ATOM     12  C   UNL     1      -3.326  14.392  -4.946  1.00  0.00    -0.031 C 
BRANCH  12  13
ATOM     13  C   UNL     1      -2.627  15.039  -6.119  1.00  0.00     0.027 C 
BRANCH  13  14
ATOM     14  C   UNL     1      -2.039  16.406  -5.741  1.00  0.00     0.004 C 
BRANCH  14  15
ATOM     15  C   UNL     1      -0.612  16.342  -5.159  1.00  0.00     0.000 C 
BRANCH  15  16
ATOM     16  C   UNL     1      -0.496  16.716  -3.668  1.00  0.00    -0.000 C 
BRANCH  16  17
ATOM     17  C   UNL     1      -0.359  15.522  -2.707  1.00  0.00    -0.003 C 
ATOM     18  C   UNL     1      -0.318  15.942  -1.238  1.00  0.00     0.004 C 
ENDBRANCH  16  17
ENDBRANCH  15  16
ENDBRANCH  14  15
ENDBRANCH  13  14
ENDBRANCH  12  13
ENDBRANCH  10  11
ENDBRANCH   1  10
TORSDOF 13
ENDMDL
MODEL 6
REMARK VINA RESULT:    -3.843      1.532      3.198
REMARK INTER + INTRA:          -7.905
REMARK INTER:                  -6.619
REMARK INTRA:                  -1.286
REMARK UNBOUND:                -1.141
REMARK SMILES CCCCCCC=CCCCCCCCC(=O)[O-]
REMARK SMILES IDX 10 1 11 2 12 3 13 4 14 5 15 6 16 7 17 8 18 9 9 10 8 11 7 12
REMARK SMILES IDX 6 13 5 14 4 15 3 16 2 17 1 18
REMARK H PARENT
REMARK Flexibility Score: inf
ROOT
ATOM      1  C   UNL     1      -2.677  12.967  -4.757  1.00  0.00     0.004 C 
ENDROOT
BRANCH   1   2
ATOM      2  C   UNL     1      -1.639  11.852  -4.554  1.00  0.00     0.000 C 
BRANCH   2   3
ATOM      3  C   UNL     1      -0.345  12.350  -3.886  1.00  0.00     0.000 C 
BRANCH   3   4
ATOM      4  C   UNL     1       0.656  11.247  -3.495  1.00  0.00     0.000 C 
BRANCH   4   5
ATOM      5  C   UNL     1       0.820  11.093  -1.977  1.00  0.00     0.006 C 
BRANCH   5   6
ATOM      6  C   UNL     1       1.781   9.948  -1.641  1.00  0.00     0.053 C 
BRANCH   6   7
ATOM      7  C   UNL     1       1.426   9.335  -0.323  1.00  0.00     0.041 C 
ATOM      8  O   UNL     1       2.302   8.733   0.352  1.00  0.00    -0.550 OA
ATOM      9  O   UNL     1       0.116   9.385   0.136  1.00  0.00    -0.550 OA
ENDBRANCH   6   7
ENDBRANCH   5   6
ENDBRANCH   4   5
ENDBRANCH   3   4
ENDBRANCH   2   3
ENDBRANCH   1   2
BRANCH   1  10
ATOM     10  C   UNL     1      -2.436  13.771  -6.043  1.00  0.00     0.027 C 
BRANCH  10  11
ATOM     11  C   UNL     1      -3.064  15.142  -5.986  1.00  0.00    -0.031 C 
ATOM     12  C   UNL     1      -2.404  16.318  -5.992  1.00  0.00    -0.031 C 
BRANCH  12  13
ATOM     13  C   UNL     1      -0.903  16.491  -6.034  1.00  0.00     0.027 C 
BRANCH  13  14
ATOM     14  C   UNL     1      -0.367  17.090  -4.726  1.00  0.00     0.004 C 
BRANCH  14  15
ATOM     15  C   UNL     1      -0.243  16.077  -3.570  1.00  0.00     0.000 C 
BRANCH  15  16
ATOM     16  C   UNL     1      -1.509  15.910  -2.706  1.00  0.00    -0.000 C 
BRANCH  16  17
ATOM     17  C   UNL     1      -1.285  16.043  -1.190  1.00  0.00    -0.003 C 
ATOM     18  C   UNL     1       0.171  15.826  -0.782  1.00  0.00     0.004 C 
ENDBRANCH  16  17
ENDBRANCH  15  16
ENDBRANCH  14  15
ENDBRANCH  13  14
ENDBRANCH  12  13
ENDBRANCH  10  11
ENDBRANCH   1  10
TORSDOF 13
ENDMDL
MODEL 7
REMARK VINA RESULT:    -3.817      3.826      8.316
REMARK INTER + INTRA:          -7.859
REMARK INTER:                  -6.738
REMARK INTRA:                  -1.121
REMARK UNBOUND:                -1.141
REMARK SMILES CCCCCCC=CCCCCCCCC(=O)[O-]
REMARK SMILES IDX 10 1 11 2 12 3 13 4 14 5 15 6 16 7 17 8 18 9 9 10 8 11 7 12
REMARK SMILES IDX 6 13 5 14 4 15 3 16 2 17 1 18
REMARK H PARENT
REMARK Flexibility Score: inf
ROOT
ATOM      1  C   UNL     1      -0.254  12.316  -3.859  1.00  0.00     0.004 C 
ENDROOT
BRANCH   1   2
ATOM      2  C   UNL     1      -1.427  11.514  -4.444  1.00  0.00     0.000 C 
BRANCH   2   3
ATOM      3  C   UNL     1      -2.740  12.317  -4.494  1.00  0.00     0.000 C 
BRANCH   3   4
ATOM      4  C   UNL     1      -3.016  13.040  -5.825  1.00  0.00     0.000 C 
BRANCH   4   5
ATOM      5  C   UNL     1      -3.038  14.569  -5.687  1.00  0.00     0.006 C 
BRANCH   5   6
ATOM      6  C   UNL     1      -1.622  15.148  -5.770  1.00  0.00     0.053 C 
BRANCH   6   7
ATOM      7  C   UNL     1      -1.304  15.933  -4.537  1.00  0.00     0.041 C 
ATOM      8  O   UNL     1      -1.903  15.688  -3.457  1.00  0.00    -0.550 OA
ATOM      9  O   UNL     1      -0.381  16.970  -4.593  1.00  0.00    -0.550 OA
ENDBRANCH   6   7
ENDBRANCH   5   6
ENDBRANCH   4   5
ENDBRANCH   3   4
ENDBRANCH   2   3
ENDBRANCH   1   2
BRANCH   1  10
ATOM     10  C   UNL     1       0.914  11.420  -3.424  1.00  0.00     0.027 C 
BRANCH  10  11
ATOM     11  C   UNL     1       0.707  10.840  -2.046  1.00  0.00    -0.031 C 
ATOM     12  C   UNL     1       1.466   9.892  -1.462  1.00  0.00    -0.031 C 
BRANCH  12  13
ATOM     13  C   UNL     1       2.661   9.206  -2.085  1.00  0.00     0.027 C 
BRANCH  13  14
ATOM     14  C   UNL     1       3.857   9.174  -1.122  1.00  0.00     0.004 C 
BRANCH  14  15
ATOM     15  C   UNL     1       3.472   8.977   0.359  1.00  0.00     0.000 C 
BRANCH  15  16
ATOM     16  C   UNL     1       3.924   7.641   0.980  1.00  0.00    -0.000 C 
BRANCH  16  17
ATOM     17  C   UNL     1       2.782   6.726   1.455  1.00  0.00    -0.003 C 
ATOM     18  C   UNL     1       1.405   7.206   0.999  1.00  0.00     0.004 C 
ENDBRANCH  16  17
ENDBRANCH  15  16
ENDBRANCH  14  15
ENDBRANCH  13  14
ENDBRANCH  12  13
ENDBRANCH  10  11
ENDBRANCH   1  10
TORSDOF 13
ENDMDL
MODEL 8
REMARK VINA RESULT:    -3.721      1.231      2.959
REMARK INTER + INTRA:          -7.689
REMARK INTER:                  -6.403
REMARK INTRA:                  -1.287
REMARK UNBOUND:                -1.141
REMARK SMILES CCCCCCC=CCCCCCCCC(=O)[O-]
REMARK SMILES IDX 10 1 11 2 12 3 13 4 14 5 15 6 16 7 17 8 18 9 9 10 8 11 7 12
REMARK SMILES IDX 6 13 5 14 4 15 3 16 2 17 1 18
REMARK H PARENT
REMARK Flexibility Score: inf
ROOT
ATOM      1  C   UNL     1       1.083  12.663  -4.274  1.00  0.00     0.004 C 
ENDROOT
BRANCH   1   2
ATOM      2  C   UNL     1       0.381  11.849  -3.176  1.00  0.00     0.000 C 
BRANCH   2   3
ATOM      3  C   UNL     1       1.195  10.625  -2.721  1.00  0.00     0.000 C 
BRANCH   3   4
ATOM      4  C   UNL     1       1.034  10.245  -1.238  1.00  0.00     0.000 C 
BRANCH   4   5
ATOM      5  C   UNL     1       1.608   8.861  -0.904  1.00  0.00     0.006 C 
BRANCH   5   6
ATOM      6  C   UNL     1       2.638   8.952   0.225  1.00  0.00     0.053 C 
BRANCH   6   7
ATOM      7  C   UNL     1       2.703   7.662   0.981  1.00  0.00     0.041 C 
ATOM      8  O   UNL     1       3.795   7.267   1.469  1.00  0.00    -0.550 OA
ATOM      9  O   UNL     1       1.568   6.870   1.102  1.00  0.00    -0.550 OA
ENDBRANCH   6   7
ENDBRANCH   5   6
ENDBRANCH   4   5
ENDBRANCH   3   4
ENDBRANCH   2   3
ENDBRANCH   1   2
BRANCH   1  10
ATOM     10  C   UNL     1       0.296  13.920  -4.672  1.00  0.00     0.027 C 
BRANCH  10  11
ATOM     11  C   UNL     1      -0.206  14.683  -3.470  1.00  0.00    -0.031 C 
ATOM     12  C   UNL     1      -0.734  15.924  -3.482  1.00  0.00    -0.031 C 
BRANCH  12  13
ATOM     13  C   UNL     1      -0.906  16.801  -4.701  1.00  0.00     0.027 C 
BRANCH  13  14
ATOM     14  C   UNL     1      -2.354  16.779  -5.212  1.00  0.00     0.004 C 
BRANCH  14  15
ATOM     15  C   UNL     1      -2.684  15.580  -6.125  1.00  0.00     0.000 C 
BRANCH  15  16
ATOM     16  C   UNL     1      -3.423  14.416  -5.435  1.00  0.00    -0.000 C 
BRANCH  16  17
ATOM     17  C   UNL     1      -3.066  13.016  -5.962  1.00  0.00    -0.003 C 
ATOM     18  C   UNL     1      -2.820  12.004  -4.845  1.00  0.00     0.004 C 
ENDBRANCH  16  17
ENDBRANCH  15  16
ENDBRANCH  14  15
ENDBRANCH  13  14
ENDBRANCH  12  13
ENDBRANCH  10  11
ENDBRANCH   1  10
TORSDOF 13
ENDMDL
MODEL 9
REMARK VINA RESULT:    -3.637      3.748      7.181
REMARK INTER + INTRA:          -7.543
REMARK INTER:                  -6.220
REMARK INTRA:                  -1.323
REMARK UNBOUND:                -1.141
REMARK SMILES CCCCCCC=CCCCCCCCC(=O)[O-]
REMARK SMILES IDX 10 1 11 2 12 3 13 4 14 5 15 6 16 7 17 8 18 9 9 10 8 11 7 12
REMARK SMILES IDX 6 13 5 14 4 15 3 16 2 17 1 18
REMARK H PARENT
REMARK Flexibility Score: inf
ROOT
ATOM      1  C   UNL     1      -3.338  14.170  -4.610  1.00  0.00     0.004 C 
ENDROOT
BRANCH   1   2
ATOM      2  C   UNL     1      -2.389  15.375  -4.706  1.00  0.00     0.000 C 
BRANCH   2   3
ATOM      3  C   UNL     1      -1.812  15.797  -3.343  1.00  0.00     0.000 C 
BRANCH   3   4
ATOM      4  C   UNL     1      -0.277  15.746  -3.238  1.00  0.00     0.000 C 
BRANCH   4   5
ATOM      5  C   UNL     1       0.425  15.894  -4.595  1.00  0.00     0.006 C 
BRANCH   5   6
ATOM      6  C   UNL     1       1.318  17.138  -4.619  1.00  0.00     0.053 C 
BRANCH   6   7
ATOM      7  C   UNL     1       2.696  16.786  -5.083  1.00  0.00     0.041 C 
ATOM      8  O   UNL     1       2.887  15.747  -5.769  1.00  0.00    -0.550 OA
ATOM      9  O   UNL     1       3.776  17.577  -4.715  1.00  0.00    -0.550 OA
ENDBRANCH   6   7
ENDBRANCH   5   6
ENDBRANCH   4   5
ENDBRANCH   3   4
ENDBRANCH   2   3
ENDBRANCH   1   2
BRANCH   1  10
ATOM     10  C   UNL     1      -2.946  13.032  -5.562  1.00  0.00     0.027 C 
BRANCH  10  11
ATOM     11  C   UNL     1      -2.737  11.725  -4.834  1.00  0.00    -0.031 C 
ATOM     12  C   UNL     1      -1.607  11.338  -4.209  1.00  0.00    -0.031 C 
BRANCH  12  13
ATOM     13  C   UNL     1      -0.320  12.128  -4.134  1.00  0.00     0.027 C 
BRANCH  13  14
ATOM     14  C   UNL     1       0.497  11.757  -2.887  1.00  0.00     0.004 C 
BRANCH  14  15
ATOM     15  C   UNL     1       1.515  10.621  -3.114  1.00  0.00     0.000 C 
BRANCH  15  16
ATOM     16  C   UNL     1       2.039   9.945  -1.831  1.00  0.00    -0.000 C 
BRANCH  16  17
ATOM     17  C   UNL     1       1.002   9.799  -0.704  1.00  0.00    -0.003 C 
ATOM     18  C   UNL     1       1.115   8.469   0.039  1.00  0.00     0.004 C 
ENDBRANCH  16  17
ENDBRANCH  15  16
ENDBRANCH  14  15
ENDBRANCH  13  14
ENDBRANCH  12  13
ENDBRANCH  10  11
ENDBRANCH   1  10
TORSDOF 13
ENDMDL
