MODEL 1
REMARK VINA RESULT:    -5.126      0.000      0.000
REMARK INTER + INTRA:          -9.083
REMARK INTER:                  -8.123
REMARK INTRA:                  -0.961
REMARK UNBOUND:                -0.961
REMARK SMILES CCCCCCCCCCCC(=O)[O-]
REMARK SMILES IDX 7 1 8 2 9 3 10 4 11 5 12 6 13 7 14 8 6 9 5 10 4 11 3 12 2 13
REMARK SMILES IDX 1 14
REMARK H PARENT
REMARK Flexibility Score: inf
ROOT
ATOM      1  C   UNL     1      39.706  54.617  60.269  1.00  0.00     0.000 C 
ENDROOT
BRANCH   1   2
ATOM      2  C   UNL     1      39.354  56.079  60.599  1.00  0.00     0.000 C 
BRANCH   2   3
ATOM      3  C   UNL     1      38.283  56.665  59.662  1.00  0.00     0.000 C 
BRANCH   3   4
ATOM      4  C   UNL     1      36.863  56.204  60.030  1.00  0.00     0.006 C 
BRANCH   4   5
ATOM      5  C   UNL     1      36.110  55.602  58.836  1.00  0.00     0.053 C 
BRANCH   5   6
ATOM      6  C   UNL     1      35.899  54.135  59.040  1.00  0.00     0.041 C 
ATOM      7  O   UNL     1      36.652  53.487  59.815  1.00  0.00    -0.550 OA
ATOM      8  O   UNL     1      34.902  53.471  58.336  1.00  0.00    -0.550 OA
ENDBRANCH   5   6
ENDBRANCH   4   5
ENDBRANCH   3   4
ENDBRANCH   2   3
ENDBRANCH   1   2
BRANCH   1   9
ATOM      9  C   UNL     1      41.142  54.187  60.623  1.00  0.00     0.000 C 
BRANCH   9  10
ATOM     10  C   UNL     1      42.177  54.634  59.577  1.00  0.00    -0.000 C 
BRANCH  10  11
ATOM     11  C   UNL     1      43.102  55.752  60.089  1.00  0.00    -0.000 C 
BRANCH  11  12
ATOM     12  C   UNL     1      43.414  56.870  59.073  1.00  0.00    -0.000 C 
BRANCH  12  13
ATOM     13  C   UNL     1      42.271  57.197  58.095  1.00  0.00    -0.003 C 
ATOM     14  C   UNL     1      41.450  58.411  58.525  1.00  0.00     0.004 C 
ENDBRANCH  12  13
ENDBRANCH  11  12
ENDBRANCH  10  11
ENDBRANCH   9  10
ENDBRANCH   1   9
TORSDOF 10
ENDMDL
MODEL 2
REMARK VINA RESULT:    -5.089      2.923      5.886
REMARK INTER + INTRA:          -9.025
REMARK INTER:                  -8.139
REMARK INTRA:                  -0.886
REMARK UNBOUND:                -0.961
REMARK SMILES CCCCCCCCCCCC(=O)[O-]
REMARK SMILES IDX 7 1 8 2 9 3 10 4 11 5 12 6 13 7 14 8 6 9 5 10 4 11 3 12 2 13
REMARK SMILES IDX 1 14
REMARK H PARENT
REMARK Flexibility Score: inf
ROOT
ATOM      1  C   UNL     1      40.300  53.890  61.006  1.00  0.00     0.000 C 
ENDROOT
BRANCH   1   2
ATOM      2  C   UNL     1      41.338  54.306  59.948  1.00  0.00     0.000 C 
BRANCH   2   3
ATOM      3  C   UNL     1      42.635  54.858  60.564  1.00  0.00     0.000 C 
BRANCH   3   4
ATOM      4  C   UNL     1      43.154  56.103  59.827  1.00  0.00     0.006 C 
BRANCH   4   5
ATOM      5  C   UNL     1      42.292  57.345  60.088  1.00  0.00     0.053 C 
BRANCH   5   6
ATOM      6  C   UNL     1      42.073  58.103  58.817  1.00  0.00     0.041 C 
ATOM      7  O   UNL     1      43.057  58.520  58.149  1.00  0.00    -0.550 OA
ATOM      8  O   UNL     1      40.782  58.392  58.393  1.00  0.00    -0.550 OA
ENDBRANCH   5   6
ENDBRANCH   4   5
ENDBRANCH   3   4
ENDBRANCH   2   3
ENDBRANCH   1   2
BRANCH   1   9
ATOM      9  C   UNL     1      38.932  54.591  60.903  1.00  0.00     0.000 C 
BRANCH   9  10
ATOM     10  C   UNL     1      39.052  56.104  60.651  1.00  0.00    -0.000 C 
BRANCH  10  11
ATOM     11  C   UNL     1      38.014  56.627  59.642  1.00  0.00    -0.000 C 
BRANCH  11  12
ATOM     12  C   UNL     1      36.559  56.184  59.901  1.00  0.00    -0.000 C 
BRANCH  12  13
ATOM     13  C   UNL     1      35.877  55.472  58.720  1.00  0.00    -0.003 C 
ATOM     14  C   UNL     1      35.842  53.952  58.880  1.00  0.00     0.004 C 
ENDBRANCH  12  13
ENDBRANCH  11  12
ENDBRANCH  10  11
ENDBRANCH   9  10
ENDBRANCH   1   9
TORSDOF 10
ENDMDL
MODEL 3
REMARK VINA RESULT:    -5.086      3.283      5.464
REMARK INTER + INTRA:          -9.021
REMARK INTER:                  -7.994
REMARK INTRA:                  -1.027
REMARK UNBOUND:                -0.961
REMARK SMILES CCCCCCCCCCCC(=O)[O-]
REMARK SMILES IDX 7 1 8 2 9 3 10 4 11 5 12 6 13 7 14 8 6 9 5 10 4 11 3 12 2 13
REMARK SMILES IDX 1 14
REMARK H PARENT
REMARK Flexibility Score: inf
ROOT
ATOM      1  C   UNL     1      42.693  54.792  60.545  1.00  0.00     0.000 C 
ENDROOT
BRANCH   1   2
ATOM      2  C   UNL     1      43.188  56.163  60.048  1.00  0.00     0.000 C 
BRANCH   2   3
ATOM      3  C   UNL     1      42.365  56.706  58.867  1.00  0.00     0.000 C 
BRANCH   3   4
ATOM      4  C   UNL     1      41.566  57.966  59.236  1.00  0.00     0.006 C 
BRANCH   4   5
ATOM      5  C   UNL     1      40.442  58.266  58.236  1.00  0.00     0.053 C 
BRANCH   5   6
ATOM      6  C   UNL     1      40.698  59.565  57.539  1.00  0.00     0.041 C 
ATOM      7  O   UNL     1      39.757  60.171  56.960  1.00  0.00    -0.550 OA
ATOM      8  O   UNL     1      41.985  60.085  57.488  1.00  0.00    -0.550 OA
ENDBRANCH   5   6
ENDBRANCH   4   5
ENDBRANCH   3   4
ENDBRANCH   2   3
ENDBRANCH   1   2
BRANCH   1   9
ATOM      9  C   UNL     1      41.345  54.325  59.964  1.00  0.00     0.000 C 
BRANCH   9  10
ATOM     10  C   UNL     1      40.329  53.928  61.049  1.00  0.00    -0.000 C 
BRANCH  10  11
ATOM     11  C   UNL     1      38.898  54.397  60.730  1.00  0.00    -0.000 C 
BRANCH  11  12
ATOM     12  C   UNL     1      38.724  55.921  60.562  1.00  0.00    -0.000 C 
BRANCH  12  13
ATOM     13  C   UNL     1      37.539  56.347  59.678  1.00  0.00    -0.003 C 
ATOM     14  C   UNL     1      36.504  55.237  59.495  1.00  0.00     0.004 C 
ENDBRANCH  12  13
ENDBRANCH  11  12
ENDBRANCH  10  11
ENDBRANCH   9  10
ENDBRANCH   1   9
TORSDOF 10
ENDMDL
MODEL 4
REMARK VINA RESULT:    -5.034      3.331      6.671
REMARK INTER + INTRA:          -8.937
REMARK INTER:                  -8.334
REMARK INTRA:                  -0.603
REMARK UNBOUND:                -0.961
REMARK SMILES CCCCCCCCCCCC(=O)[O-]
REMARK SMILES IDX 7 1 8 2 9 3 10 4 11 5 12 6 13 7 14 8 6 9 5 10 4 11 3 12 2 13
REMARK SMILES IDX 1 14
REMARK H PARENT
REMARK Flexibility Score: inf
ROOT
ATOM      1  C   UNL     1      39.087  56.122  60.635  1.00  0.00     0.000 C 
ENDROOT
BRANCH   1   2
ATOM      2  C   UNL     1      39.218  54.597  60.798  1.00  0.00     0.000 C 
BRANCH   2   3
ATOM      3  C   UNL     1      40.556  54.050  60.273  1.00  0.00     0.000 C 
BRANCH   3   4
ATOM      4  C   UNL     1      41.737  54.986  60.579  1.00  0.00     0.006 C 
BRANCH   4   5
ATOM      5  C   UNL     1      42.499  55.407  59.315  1.00  0.00     0.053 C 
BRANCH   5   6
ATOM      6  C   UNL     1      43.215  56.700  59.547  1.00  0.00     0.041 C 
ATOM      7  O   UNL     1      44.120  57.075  58.755  1.00  0.00    -0.550 OA
ATOM      8  O   UNL     1      42.918  57.470  60.665  1.00  0.00    -0.550 OA
ENDBRANCH   5   6
ENDBRANCH   4   5
ENDBRANCH   3   4
ENDBRANCH   2   3
ENDBRANCH   1   2
BRANCH   1   9
ATOM      9  C   UNL     1      38.080  56.589  59.567  1.00  0.00     0.000 C 
BRANCH   9  10
ATOM     10  C   UNL     1      36.625  56.236  59.920  1.00  0.00    -0.000 C 
BRANCH  10  11
ATOM     11  C   UNL     1      35.917  55.438  58.811  1.00  0.00    -0.000 C 
BRANCH  11  12
ATOM     12  C   UNL     1      35.927  53.906  58.990  1.00  0.00    -0.000 C 
BRANCH  12  13
ATOM     13  C   UNL     1      34.944  53.139  58.088  1.00  0.00    -0.003 C 
ATOM     14  C   UNL     1      35.212  51.635  58.059  1.00  0.00     0.004 C 
ENDBRANCH  12  13
ENDBRANCH  11  12
ENDBRANCH  10  11
ENDBRANCH   9  10
ENDBRANCH   1   9
TORSDOF 10
ENDMDL
MODEL 5
REMARK VINA RESULT:    -4.986      0.922      2.533
REMARK INTER + INTRA:          -8.862
REMARK INTER:                  -7.845
REMARK INTRA:                  -1.017
REMARK UNBOUND:                -0.961
REMARK SMILES CCCCCCCCCCCC(=O)[O-]
REMARK SMILES IDX 7 1 8 2 9 3 10 4 11 5 12 6 13 7 14 8 6 9 5 10 4 11 3 12 2 13
REMARK SMILES IDX 1 14
REMARK H PARENT
REMARK Flexibility Score: inf
ROOT
ATOM      1  C   UNL     1      40.120  57.837  58.815  1.00  0.00     0.000 C 
ENDROOT
BRANCH   1   2
ATOM      2  C   UNL     1      40.023  57.373  60.280  1.00  0.00     0.000 C 
BRANCH   2   3
ATOM      3  C   UNL     1      38.659  56.753  60.626  1.00  0.00     0.000 C 
BRANCH   3   4
ATOM      4  C   UNL     1      37.821  56.439  59.376  1.00  0.00     0.006 C 
BRANCH   4   5
ATOM      5  C   UNL     1      36.417  55.925  59.719  1.00  0.00     0.053 C 
BRANCH   5   6
ATOM      6  C   UNL     1      36.324  54.453  59.464  1.00  0.00     0.041 C 
ATOM      7  O   UNL     1      37.139  53.662  60.009  1.00  0.00    -0.550 OA
ATOM      8  O   UNL     1      35.369  53.959  58.584  1.00  0.00    -0.550 OA
ENDBRANCH   5   6
ENDBRANCH   4   5
ENDBRANCH   3   4
ENDBRANCH   2   3
ENDBRANCH   1   2
BRANCH   1   9
ATOM      9  C   UNL     1      41.529  57.785  58.196  1.00  0.00     0.000 C 
BRANCH   9  10
ATOM     10  C   UNL     1      42.647  57.991  59.233  1.00  0.00    -0.000 C 
BRANCH  10  11
ATOM     11  C   UNL     1      43.590  56.779  59.346  1.00  0.00    -0.000 C 
BRANCH  11  12
ATOM     12  C   UNL     1      42.910  55.399  59.226  1.00  0.00    -0.000 C 
BRANCH  12  13
ATOM     13  C   UNL     1      42.507  54.754  60.563  1.00  0.00    -0.003 C 
ATOM     14  C   UNL     1      41.168  54.021  60.491  1.00  0.00     0.004 C 
ENDBRANCH  12  13
ENDBRANCH  11  12
ENDBRANCH  10  11
ENDBRANCH   9  10
ENDBRANCH   1   9
TORSDOF 10
ENDMDL
MODEL 6
REMARK VINA RESULT:    -4.942      0.935      1.585
REMARK INTER + INTRA:          -8.792
REMARK INTER:                  -7.884
REMARK INTRA:                  -0.908
REMARK UNBOUND:                -0.961
REMARK SMILES CCCCCCCCCCCC(=O)[O-]
REMARK SMILES IDX 7 1 8 2 9 3 10 4 11 5 12 6 13 7 14 8 6 9 5 10 4 11 3 12 2 13
REMARK SMILES IDX 1 14
REMARK H PARENT
REMARK Flexibility Score: inf
ROOT
ATOM      1  C   UNL     1      41.288  54.369  60.676  1.00  0.00     0.000 C 
ENDROOT
BRANCH   1   2
ATOM      2  C   UNL     1      39.789  54.424  60.330  1.00  0.00     0.000 C 
BRANCH   2   3
ATOM      3  C   UNL     1      39.213  55.850  60.375  1.00  0.00     0.000 C 
BRANCH   3   4
ATOM      4  C   UNL     1      37.677  55.867  60.325  1.00  0.00     0.006 C 
BRANCH   4   5
ATOM      5  C   UNL     1      37.083  54.501  59.959  1.00  0.00     0.053 C 
BRANCH   5   6
ATOM      6  C   UNL     1      36.003  54.660  58.936  1.00  0.00     0.041 C 
ATOM      7  O   UNL     1      35.679  55.807  58.529  1.00  0.00    -0.550 OA
ATOM      8  O   UNL     1      35.320  53.545  58.466  1.00  0.00    -0.550 OA
ENDBRANCH   5   6
ENDBRANCH   4   5
ENDBRANCH   3   4
ENDBRANCH   2   3
ENDBRANCH   1   2
BRANCH   1   9
ATOM      9  C   UNL     1      42.243  54.794  59.545  1.00  0.00     0.000 C 
BRANCH   9  10
ATOM     10  C   UNL     1      43.329  55.777  60.015  1.00  0.00    -0.000 C 
BRANCH  10  11
ATOM     11  C   UNL     1      43.643  56.866  58.973  1.00  0.00    -0.000 C 
BRANCH  11  12
ATOM     12  C   UNL     1      42.453  57.301  58.093  1.00  0.00    -0.000 C 
BRANCH  12  13
ATOM     13  C   UNL     1      41.500  58.318  58.746  1.00  0.00    -0.003 C 
ATOM     14  C   UNL     1      40.144  58.397  58.045  1.00  0.00     0.004 C 
ENDBRANCH  12  13
ENDBRANCH  11  12
ENDBRANCH  10  11
ENDBRANCH   9  10
ENDBRANCH   1   9
TORSDOF 10
ENDMDL
MODEL 7
REMARK VINA RESULT:    -4.857      2.269      5.532
REMARK INTER + INTRA:          -8.657
REMARK INTER:                  -7.738
REMARK INTRA:                  -0.919
REMARK UNBOUND:                -0.961
REMARK SMILES CCCCCCCCCCCC(=O)[O-]
REMARK SMILES IDX 7 1 8 2 9 3 10 4 11 5 12 6 13 7 14 8 6 9 5 10 4 11 3 12 2 13
REMARK SMILES IDX 1 14
REMARK H PARENT
REMARK Flexibility Score: inf
ROOT
ATOM      1  C   UNL     1      41.313  57.678  58.825  1.00  0.00     0.000 C 
ENDROOT
BRANCH   1   2
ATOM      2  C   UNL     1      42.087  58.315  59.994  1.00  0.00     0.000 C 
BRANCH   2   3
ATOM      3  C   UNL     1      43.205  57.410  60.538  1.00  0.00     0.000 C 
BRANCH   3   4
ATOM      4  C   UNL     1      43.294  56.069  59.791  1.00  0.00     0.006 C 
BRANCH   4   5
ATOM      5  C   UNL     1      42.929  54.873  60.679  1.00  0.00     0.053 C 
BRANCH   5   6
ATOM      6  C   UNL     1      41.722  54.173  60.140  1.00  0.00     0.041 C 
ATOM      7  O   UNL     1      41.561  54.053  58.896  1.00  0.00    -0.550 OA
ATOM      8  O   UNL     1      40.750  53.693  61.008  1.00  0.00    -0.550 OA
ENDBRANCH   5   6
ENDBRANCH   4   5
ENDBRANCH   3   4
ENDBRANCH   2   3
ENDBRANCH   1   2
BRANCH   1   9
ATOM      9  C   UNL     1      39.789  57.573  59.021  1.00  0.00     0.000 C 
BRANCH   9  10
ATOM     10  C   UNL     1      39.399  57.064  60.419  1.00  0.00    -0.000 C 
BRANCH  10  11
ATOM     11  C   UNL     1      38.431  55.868  60.373  1.00  0.00    -0.000 C 
BRANCH  11  12
ATOM     12  C   UNL     1      37.149  56.087  59.543  1.00  0.00    -0.000 C 
BRANCH  12  13
ATOM     13  C   UNL     1      36.212  54.869  59.460  1.00  0.00    -0.003 C 
ATOM     14  C   UNL     1      36.887  53.569  59.893  1.00  0.00     0.004 C 
ENDBRANCH  12  13
ENDBRANCH  11  12
ENDBRANCH  10  11
ENDBRANCH   9  10
ENDBRANCH   1   9
TORSDOF 10
ENDMDL
MODEL 8
REMARK VINA RESULT:    -4.823      3.525      5.814
REMARK INTER + INTRA:          -8.604
REMARK INTER:                  -7.795
REMARK INTRA:                  -0.809
REMARK UNBOUND:                -0.961
REMARK SMILES CCCCCCCCCCCC(=O)[O-]
REMARK SMILES IDX 7 1 8 2 9 3 10 4 11 5 12 6 13 7 14 8 6 9 5 10 4 11 3 12 2 13
REMARK SMILES IDX 1 14
REMARK H PARENT
REMARK Flexibility Score: inf
ROOT
ATOM      1  C   UNL     1      42.589  54.828  60.550  1.00  0.00     0.000 C 
ENDROOT
BRANCH   1   2
ATOM      2  C   UNL     1      42.964  56.159  59.875  1.00  0.00     0.000 C 
BRANCH   2   3
ATOM      3  C   UNL     1      42.101  57.339  60.354  1.00  0.00     0.000 C 
BRANCH   3   4
ATOM      4  C   UNL     1      41.006  57.717  59.343  1.00  0.00     0.006 C 
BRANCH   4   5
ATOM      5  C   UNL     1      41.558  57.941  57.929  1.00  0.00     0.053 C 
BRANCH   5   6
ATOM      6  C   UNL     1      42.009  59.358  57.765  1.00  0.00     0.041 C 
ATOM      7  O   UNL     1      43.197  59.681  58.031  1.00  0.00    -0.550 OA
ATOM      8  O   UNL     1      41.104  60.334  57.365  1.00  0.00    -0.550 OA
ENDBRANCH   5   6
ENDBRANCH   4   5
ENDBRANCH   3   4
ENDBRANCH   2   3
ENDBRANCH   1   2
BRANCH   1   9
ATOM      9  C   UNL     1      41.343  54.124  59.979  1.00  0.00     0.000 C 
BRANCH   9  10
ATOM     10  C   UNL     1      40.216  53.968  61.013  1.00  0.00    -0.000 C 
BRANCH  10  11
ATOM     11  C   UNL     1      38.920  54.691  60.601  1.00  0.00    -0.000 C 
BRANCH  11  12
ATOM     12  C   UNL     1      37.698  53.777  60.373  1.00  0.00    -0.000 C 
BRANCH  12  13
ATOM     13  C   UNL     1      36.530  54.431  59.615  1.00  0.00    -0.003 C 
ATOM     14  C   UNL     1      36.649  55.952  59.536  1.00  0.00     0.004 C 
ENDBRANCH  12  13
ENDBRANCH  11  12
ENDBRANCH  10  11
ENDBRANCH   9  10
ENDBRANCH   1   9
TORSDOF 10
ENDMDL
MODEL 9
REMARK VINA RESULT:    -4.756      4.696      6.702
REMARK INTER + INTRA:          -8.497
REMARK INTER:                  -7.453
REMARK INTRA:                  -1.045
REMARK UNBOUND:                -0.961
REMARK SMILES CCCCCCCCCCCC(=O)[O-]
REMARK SMILES IDX 7 1 8 2 9 3 10 4 11 5 12 6 13 7 14 8 6 9 5 10 4 11 3 12 2 13
REMARK SMILES IDX 1 14
REMARK H PARENT
REMARK Flexibility Score: inf
ROOT
ATOM      1  C   UNL     1      41.193  54.080  60.042  1.00  0.00     0.000 C 
ENDROOT
BRANCH   1   2
ATOM      2  C   UNL     1      42.449  54.793  60.575  1.00  0.00     0.000 C 
BRANCH   2   3
ATOM      3  C   UNL     1      43.216  55.557  59.482  1.00  0.00     0.000 C 
BRANCH   3   4
ATOM      4  C   UNL     1      43.972  56.776  60.036  1.00  0.00     0.006 C 
BRANCH   4   5
ATOM      5  C   UNL     1      44.605  57.630  58.930  1.00  0.00     0.053 C 
BRANCH   5   6
ATOM      6  C   UNL     1      45.621  58.562  59.509  1.00  0.00     0.041 C 
ATOM      7  O   UNL     1      45.636  59.776  59.171  1.00  0.00    -0.550 OA
ATOM      8  O   UNL     1      46.585  58.082  60.387  1.00  0.00    -0.550 OA
ENDBRANCH   5   6
ENDBRANCH   4   5
ENDBRANCH   3   4
ENDBRANCH   2   3
ENDBRANCH   1   2
BRANCH   1   9
ATOM      9  C   UNL     1      40.059  53.885  61.066  1.00  0.00     0.000 C 
BRANCH   9  10
ATOM     10  C   UNL     1      38.708  54.434  60.577  1.00  0.00    -0.000 C 
BRANCH  10  11
ATOM     11  C   UNL     1      38.537  55.939  60.855  1.00  0.00    -0.000 C 
BRANCH  11  12
ATOM     12  C   UNL     1      38.818  56.868  59.656  1.00  0.00    -0.000 C 
BRANCH  12  13
ATOM     13  C   UNL     1      40.184  57.576  59.688  1.00  0.00    -0.003 C 
ATOM     14  C   UNL     1      40.652  58.027  58.305  1.00  0.00     0.004 C 
ENDBRANCH  12  13
ENDBRANCH  11  12
ENDBRANCH  10  11
ENDBRANCH   9  10
ENDBRANCH   1   9
TORSDOF 10
ENDMDL
