MODEL 1
REMARK VINA RESULT:    -3.912      0.000      0.000
REMARK INTER + INTRA:          -5.140
REMARK INTER:                  -4.713
REMARK INTRA:                  -0.427
REMARK UNBOUND:                -0.427
REMARK SMILES NC(=O)C[C@H]([NH3+])C(=O)[O-]
REMARK SMILES IDX 4 1 5 2 6 3 7 7 8 8 9 9 2 10 3 11 1 12
REMARK H PARENT 6 4 6 5 6 6 1 13 1 14
REMARK Flexibility Score: inf
ROOT
ATOM      1  C   UNL     1     181.581 -22.354  24.148  1.00  0.00     0.171 C 
ENDROOT
BRANCH   1   2
ATOM      2  C   UNL     1     180.317 -21.680  24.717  1.00  0.00     0.237 C 
BRANCH   2   3
ATOM      3  N   UNL     1     179.120 -22.455  24.367  1.00  0.00    -0.350 N 
ATOM      4  H   UNL     1     178.583 -21.958  23.621  1.00  0.00     0.345 HD
ATOM      5  H   UNL     1     178.505 -22.584  25.203  1.00  0.00     0.345 HD
ATOM      6  H   UNL     1     179.400 -23.394  23.998  1.00  0.00     0.345 HD
ENDBRANCH   2   3
BRANCH   2   7
ATOM      7  C   UNL     1     180.185 -20.264  24.216  1.00  0.00     0.100 C 
ATOM      8  O   UNL     1     180.792 -19.895  23.176  1.00  0.00    -0.544 OA
ATOM      9  O   UNL     1     179.404 -19.352  24.914  1.00  0.00    -0.544 OA
ENDBRANCH   2   7
ENDBRANCH   1   2
BRANCH   1  10
ATOM     10  C   UNL     1     181.282 -23.121  22.892  1.00  0.00     0.223 C 
ATOM     11  O   UNL     1     180.799 -24.283  22.969  1.00  0.00    -0.275 OA
ATOM     12  N   UNL     1     181.579 -22.563  21.613  1.00  0.00    -0.369 N 
ATOM     13  H   UNL     1     181.383 -23.106  20.742  1.00  0.00     0.159 HD
ATOM     14  H   UNL     1     181.997 -21.610  21.530  1.00  0.00     0.159 HD
ENDBRANCH   1  10
TORSDOF 4
ENDMDL
MODEL 2
REMARK VINA RESULT:    -3.853      1.946      2.171
REMARK INTER + INTRA:          -5.069
REMARK INTER:                  -4.836
REMARK INTRA:                  -0.233
REMARK UNBOUND:                -0.427
REMARK SMILES NC(=O)C[C@H]([NH3+])C(=O)[O-]
REMARK SMILES IDX 4 1 5 2 6 3 7 7 8 8 9 9 2 10 3 11 1 12
REMARK H PARENT 6 4 6 5 6 6 1 13 1 14
REMARK Flexibility Score: inf
ROOT
ATOM      1  C   UNL     1     180.963 -21.170  23.552  1.00  0.00     0.171 C 
ENDROOT
BRANCH   1   2
ATOM      2  C   UNL     1     180.560 -21.900  24.849  1.00  0.00     0.237 C 
BRANCH   2   3
ATOM      3  N   UNL     1     180.869 -23.331  24.751  1.00  0.00    -0.350 N 
ATOM      4  H   UNL     1     181.713 -23.551  25.328  1.00  0.00     0.345 HD
ATOM      5  H   UNL     1     181.054 -23.603  23.758  1.00  0.00     0.345 HD
ATOM      6  H   UNL     1     180.067 -23.894  25.118  1.00  0.00     0.345 HD
ENDBRANCH   2   3
BRANCH   2   7
ATOM      7  C   UNL     1     179.096 -21.702  25.150  1.00  0.00     0.100 C 
ATOM      8  O   UNL     1     178.250 -22.570  24.807  1.00  0.00    -0.544 OA
ATOM      9  O   UNL     1     178.671 -20.547  25.795  1.00  0.00    -0.544 OA
ENDBRANCH   2   7
ENDBRANCH   1   2
BRANCH   1  10
ATOM     10  C   UNL     1     181.998 -21.938  22.783  1.00  0.00     0.223 C 
ATOM     11  O   UNL     1     183.187 -21.976  23.199  1.00  0.00    -0.275 OA
ATOM     12  N   UNL     1     181.656 -22.594  21.562  1.00  0.00    -0.369 N 
ATOM     13  H   UNL     1     182.383 -23.115  21.022  1.00  0.00     0.159 HD
ATOM     14  H   UNL     1     180.682 -22.558  21.192  1.00  0.00     0.159 HD
ENDBRANCH   1  10
TORSDOF 4
ENDMDL
MODEL 3
REMARK VINA RESULT:    -3.811      2.061      2.585
REMARK INTER + INTRA:          -5.018
REMARK INTER:                  -4.694
REMARK INTRA:                  -0.325
REMARK UNBOUND:                -0.427
REMARK SMILES NC(=O)C[C@H]([NH3+])C(=O)[O-]
REMARK SMILES IDX 4 1 5 2 6 3 7 7 8 8 9 9 2 10 3 11 1 12
REMARK H PARENT 6 4 6 5 6 6 1 13 1 14
REMARK Flexibility Score: inf
ROOT
ATOM      1  C   UNL     1     180.841 -23.294  23.993  1.00  0.00     0.171 C 
ENDROOT
BRANCH   1   2
ATOM      2  C   UNL     1     179.831 -22.375  24.709  1.00  0.00     0.237 C 
BRANCH   2   3
ATOM      3  N   UNL     1     179.781 -21.060  24.059  1.00  0.00    -0.350 N 
ATOM      4  H   UNL     1     180.655 -20.907  23.505  1.00  0.00     0.345 HD
ATOM      5  H   UNL     1     179.688 -20.299  24.770  1.00  0.00     0.345 HD
ATOM      6  H   UNL     1     178.967 -21.020  23.402  1.00  0.00     0.345 HD
ENDBRANCH   2   3
BRANCH   2   7
ATOM      7  C   UNL     1     180.177 -22.222  26.169  1.00  0.00     0.100 C 
ATOM      8  O   UNL     1     179.554 -21.399  26.891  1.00  0.00    -0.544 OA
ATOM      9  O   UNL     1     181.201 -22.981  26.722  1.00  0.00    -0.544 OA
ENDBRANCH   2   7
ENDBRANCH   1   2
BRANCH   1  10
ATOM     10  C   UNL     1     181.715 -22.523  23.046  1.00  0.00     0.223 C 
ATOM     11  O   UNL     1     182.564 -21.709  23.499  1.00  0.00    -0.275 OA
ATOM     12  N   UNL     1     181.565 -22.675  21.635  1.00  0.00    -0.369 N 
ATOM     13  H   UNL     1     182.164 -22.126  20.979  1.00  0.00     0.159 HD
ATOM     14  H   UNL     1     180.854 -23.330  21.241  1.00  0.00     0.159 HD
ENDBRANCH   1  10
TORSDOF 4
ENDMDL
MODEL 4
REMARK VINA RESULT:    -3.731      1.966      2.385
REMARK INTER + INTRA:          -4.922
REMARK INTER:                  -4.599
REMARK INTRA:                  -0.323
REMARK UNBOUND:                -0.427
REMARK SMILES NC(=O)C[C@H]([NH3+])C(=O)[O-]
REMARK SMILES IDX 4 1 5 2 6 3 7 7 8 8 9 9 2 10 3 11 1 12
REMARK H PARENT 6 4 6 5 6 6 1 13 1 14
REMARK Flexibility Score: inf
ROOT
ATOM      1  C   UNL     1     180.752 -21.697  23.809  1.00  0.00     0.171 C 
ENDROOT
BRANCH   1   2
ATOM      2  C   UNL     1     180.615 -20.172  23.628  1.00  0.00     0.237 C 
BRANCH   2   3
ATOM      3  N   UNL     1     181.385 -19.722  22.462  1.00  0.00    -0.350 N 
ATOM      4  H   UNL     1     181.104 -20.272  21.618  1.00  0.00     0.345 HD
ATOM      5  H   UNL     1     182.411 -19.846  22.625  1.00  0.00     0.345 HD
ATOM      6  H   UNL     1     181.187 -18.712  22.273  1.00  0.00     0.345 HD
ENDBRANCH   2   3
BRANCH   2   7
ATOM      7  C   UNL     1     181.065 -19.436  24.865  1.00  0.00     0.100 C 
ATOM      8  O   UNL     1     180.241 -19.150  25.773  1.00  0.00    -0.544 OA
ATOM      9  O   UNL     1     182.394 -19.055  25.000  1.00  0.00    -0.544 OA
ENDBRANCH   2   7
ENDBRANCH   1   2
BRANCH   1  10
ATOM     10  C   UNL     1     181.797 -22.271  22.898  1.00  0.00     0.223 C 
ATOM     11  O   UNL     1     183.008 -21.962  23.061  1.00  0.00    -0.275 OA
ATOM     12  N   UNL     1     181.427 -23.134  21.822  1.00  0.00    -0.369 N 
ATOM     13  H   UNL     1     182.156 -23.520  21.181  1.00  0.00     0.159 HD
ATOM     14  H   UNL     1     180.428 -23.385  21.660  1.00  0.00     0.159 HD
ENDBRANCH   1  10
TORSDOF 4
ENDMDL
MODEL 5
REMARK VINA RESULT:    -3.724      2.061      3.134
REMARK INTER + INTRA:          -4.913
REMARK INTER:                  -4.781
REMARK INTRA:                  -0.132
REMARK UNBOUND:                -0.427
REMARK SMILES NC(=O)C[C@H]([NH3+])C(=O)[O-]
REMARK SMILES IDX 4 1 5 2 6 3 7 7 8 8 9 9 2 10 3 11 1 12
REMARK H PARENT 6 4 6 5 6 6 1 13 1 14
REMARK Flexibility Score: inf
ROOT
ATOM      1  C   UNL     1     180.929 -23.103  24.043  1.00  0.00     0.171 C 
ENDROOT
BRANCH   1   2
ATOM      2  C   UNL     1     181.286 -22.017  23.008  1.00  0.00     0.237 C 
BRANCH   2   3
ATOM      3  N   UNL     1     181.594 -22.626  21.709  1.00  0.00    -0.350 N 
ATOM      4  H   UNL     1     182.625 -22.774  21.624  1.00  0.00     0.345 HD
ATOM      5  H   UNL     1     181.270 -22.012  20.926  1.00  0.00     0.345 HD
ATOM      6  H   UNL     1     181.123 -23.557  21.633  1.00  0.00     0.345 HD
ENDBRANCH   2   3
BRANCH   2   7
ATOM      7  C   UNL     1     182.448 -21.180  23.480  1.00  0.00     0.100 C 
ATOM      8  O   UNL     1     183.417 -21.713  24.081  1.00  0.00    -0.544 OA
ATOM      9  O   UNL     1     182.444 -19.806  23.267  1.00  0.00    -0.544 OA
ENDBRANCH   2   7
ENDBRANCH   1   2
BRANCH   1  10
ATOM     10  C   UNL     1     179.959 -22.593  25.069  1.00  0.00     0.223 C 
ATOM     11  O   UNL     1     180.370 -22.285  26.220  1.00  0.00    -0.275 OA
ATOM     12  N   UNL     1     178.568 -22.493  24.765  1.00  0.00    -0.369 N 
ATOM     13  H   UNL     1     177.894 -22.152  25.487  1.00  0.00     0.159 HD
ATOM     14  H   UNL     1     178.207 -22.763  23.824  1.00  0.00     0.159 HD
ENDBRANCH   1  10
TORSDOF 4
ENDMDL
MODEL 6
REMARK VINA RESULT:    -3.694      2.303      2.715
REMARK INTER + INTRA:          -4.878
REMARK INTER:                  -4.510
REMARK INTRA:                  -0.367
REMARK UNBOUND:                -0.427
REMARK SMILES NC(=O)C[C@H]([NH3+])C(=O)[O-]
REMARK SMILES IDX 4 1 5 2 6 3 7 7 8 8 9 9 2 10 3 11 1 12
REMARK H PARENT 6 4 6 5 6 6 1 13 1 14
REMARK Flexibility Score: inf
ROOT
ATOM      1  C   UNL     1     180.964 -20.716  23.166  1.00  0.00     0.171 C 
ENDROOT
BRANCH   1   2
ATOM      2  C   UNL     1     180.738 -20.824  24.687  1.00  0.00     0.237 C 
BRANCH   2   3
ATOM      3  N   UNL     1     181.965 -20.481  25.415  1.00  0.00    -0.350 N 
ATOM      4  H   UNL     1     182.398 -19.626  24.996  1.00  0.00     0.345 HD
ATOM      5  H   UNL     1     182.653 -21.268  25.373  1.00  0.00     0.345 HD
ATOM      6  H   UNL     1     181.739 -20.274  26.416  1.00  0.00     0.345 HD
ENDBRANCH   2   3
BRANCH   2   7
ATOM      7  C   UNL     1     180.274 -22.206  25.070  1.00  0.00     0.100 C 
ATOM      8  O   UNL     1     179.114 -22.597  24.771  1.00  0.00    -0.544 OA
ATOM      9  O   UNL     1     181.122 -23.052  25.773  1.00  0.00    -0.544 OA
ENDBRANCH   2   7
ENDBRANCH   1   2
BRANCH   1  10
ATOM     10  C   UNL     1     181.922 -21.762  22.674  1.00  0.00     0.223 C 
ATOM     11  O   UNL     1     183.095 -21.803  23.134  1.00  0.00    -0.275 OA
ATOM     12  N   UNL     1     181.529 -22.686  21.660  1.00  0.00    -0.369 N 
ATOM     13  H   UNL     1     182.203 -23.403  21.309  1.00  0.00     0.159 HD
ATOM     14  H   UNL     1     180.568 -22.655  21.253  1.00  0.00     0.159 HD
ENDBRANCH   1  10
TORSDOF 4
ENDMDL
MODEL 7
REMARK VINA RESULT:    -3.683      2.073      4.142
REMARK INTER + INTRA:          -4.864
REMARK INTER:                  -4.594
REMARK INTRA:                  -0.270
REMARK UNBOUND:                -0.427
REMARK SMILES NC(=O)C[C@H]([NH3+])C(=O)[O-]
REMARK SMILES IDX 4 1 5 2 6 3 7 7 8 8 9 9 2 10 3 11 1 12
REMARK H PARENT 6 4 6 5 6 6 1 13 1 14
REMARK Flexibility Score: inf
ROOT
ATOM      1  C   UNL     1     180.031 -20.678  24.362  1.00  0.00     0.171 C 
ENDROOT
BRANCH   1   2
ATOM      2  C   UNL     1     181.365 -20.831  23.605  1.00  0.00     0.237 C 
BRANCH   2   3
ATOM      3  N   UNL     1     181.467 -19.832  22.535  1.00  0.00    -0.350 N 
ATOM      4  H   UNL     1     181.882 -18.950  22.913  1.00  0.00     0.345 HD
ATOM      5  H   UNL     1     180.525 -19.622  22.132  1.00  0.00     0.345 HD
ATOM      6  H   UNL     1     182.094 -20.187  21.775  1.00  0.00     0.345 HD
ENDBRANCH   2   3
BRANCH   2   7
ATOM      7  C   UNL     1     181.509 -22.220  23.036  1.00  0.00     0.100 C 
ATOM      8  O   UNL     1     182.098 -22.404  21.938  1.00  0.00    -0.544 OA
ATOM      9  O   UNL     1     180.975 -23.307  23.718  1.00  0.00    -0.544 OA
ENDBRANCH   2   7
ENDBRANCH   1   2
BRANCH   1  10
ATOM     10  C   UNL     1     179.933 -19.345  25.046  1.00  0.00     0.223 C 
ATOM     11  O   UNL     1     180.984 -18.726  25.365  1.00  0.00    -0.275 OA
ATOM     12  N   UNL     1     178.659 -18.791  25.375  1.00  0.00    -0.369 N 
ATOM     13  H   UNL     1     178.596 -17.870  25.865  1.00  0.00     0.159 HD
ATOM     14  H   UNL     1     177.779 -19.298  25.136  1.00  0.00     0.159 HD
ENDBRANCH   1  10
TORSDOF 4
ENDMDL
MODEL 8
REMARK VINA RESULT:    -3.569      2.611      3.227
REMARK INTER + INTRA:          -4.726
REMARK INTER:                  -4.658
REMARK INTRA:                  -0.068
REMARK UNBOUND:                -0.427
REMARK SMILES NC(=O)C[C@H]([NH3+])C(=O)[O-]
REMARK SMILES IDX 4 1 5 2 6 3 7 7 8 8 9 9 2 10 3 11 1 12
REMARK H PARENT 6 4 6 5 6 6 1 13 1 14
REMARK Flexibility Score: inf
ROOT
ATOM      1  C   UNL     1     183.082 -21.127  23.471  1.00  0.00     0.171 C 
ENDROOT
BRANCH   1   2
ATOM      2  C   UNL     1     181.945 -22.135  23.210  1.00  0.00     0.237 C 
BRANCH   2   3
ATOM      3  N   UNL     1     181.670 -22.238  21.771  1.00  0.00    -0.350 N 
ATOM      4  H   UNL     1     181.470 -23.234  21.521  1.00  0.00     0.345 HD
ATOM      5  H   UNL     1     182.489 -21.903  21.213  1.00  0.00     0.345 HD
ATOM      6  H   UNL     1     180.829 -21.665  21.528  1.00  0.00     0.345 HD
ENDBRANCH   2   3
BRANCH   2   7
ATOM      7  C   UNL     1     180.692 -21.743  23.952  1.00  0.00     0.100 C 
ATOM      8  O   UNL     1     180.127 -22.559  24.726  1.00  0.00    -0.544 OA
ATOM      9  O   UNL     1     180.145 -20.479  23.770  1.00  0.00    -0.544 OA
ENDBRANCH   2   7
ENDBRANCH   1   2
BRANCH   1  10
ATOM     10  C   UNL     1     184.034 -21.627  24.518  1.00  0.00     0.223 C 
ATOM     11  O   UNL     1     183.599 -21.961  25.653  1.00  0.00    -0.275 OA
ATOM     12  N   UNL     1     185.436 -21.690  24.253  1.00  0.00    -0.369 N 
ATOM     13  H   UNL     1     186.097 -22.024  24.990  1.00  0.00     0.159 HD
ATOM     14  H   UNL     1     185.817 -21.399  23.326  1.00  0.00     0.159 HD
ENDBRANCH   1  10
TORSDOF 4
ENDMDL
MODEL 9
REMARK VINA RESULT:    -3.538      2.262      3.337
REMARK INTER + INTRA:          -4.689
REMARK INTER:                  -4.382
REMARK INTRA:                  -0.307
REMARK UNBOUND:                -0.427
REMARK SMILES NC(=O)C[C@H]([NH3+])C(=O)[O-]
REMARK SMILES IDX 4 1 5 2 6 3 7 7 8 8 9 9 2 10 3 11 1 12
REMARK H PARENT 6 4 6 5 6 6 1 13 1 14
REMARK Flexibility Score: inf
ROOT
ATOM      1  C   UNL     1     180.864 -23.091  24.589  1.00  0.00     0.171 C 
ENDROOT
BRANCH   1   2
ATOM      2  C   UNL     1     181.914 -21.988  24.349  1.00  0.00     0.237 C 
BRANCH   2   3
ATOM      3  N   UNL     1     181.686 -20.856  25.255  1.00  0.00    -0.350 N 
ATOM      4  H   UNL     1     181.367 -20.024  24.708  1.00  0.00     0.345 HD
ATOM      5  H   UNL     1     182.563 -20.611  25.770  1.00  0.00     0.345 HD
ATOM      6  H   UNL     1     180.938 -21.098  25.945  1.00  0.00     0.345 HD
ENDBRANCH   2   3
BRANCH   2   7
ATOM      7  C   UNL     1     181.891 -21.521  22.915  1.00  0.00     0.100 C 
ATOM      8  O   UNL     1     181.867 -20.291  22.644  1.00  0.00    -0.544 OA
ATOM      9  O   UNL     1     181.878 -22.451  21.883  1.00  0.00    -0.544 OA
ENDBRANCH   2   7
ENDBRANCH   1   2
BRANCH   1  10
ATOM     10  C   UNL     1     179.699 -22.582  25.387  1.00  0.00     0.223 C 
ATOM     11  O   UNL     1     178.941 -21.702  24.897  1.00  0.00    -0.275 OA
ATOM     12  N   UNL     1     179.464 -23.058  26.712  1.00  0.00    -0.369 N 
ATOM     13  H   UNL     1     178.661 -22.690  27.270  1.00  0.00     0.159 HD
ATOM     14  H   UNL     1     180.092 -23.772  27.141  1.00  0.00     0.159 HD
ENDBRANCH   1  10
TORSDOF 4
ENDMDL
