MODEL 1
REMARK VINA RESULT:    -3.974      0.000      0.000
REMARK INTER + INTRA:          -5.474
REMARK INTER:                  -5.368
REMARK INTRA:                  -0.106
REMARK UNBOUND:                -0.106
REMARK SMILES [NH3+]CCCC[C@H]([NH3+])C(=O)[O-]
REMARK SMILES IDX 4 1 3 2 2 3 1 4 5 8 6 9 7 10 8 14 9 15 10 16
REMARK H PARENT 1 5 1 6 1 7 7 11 7 12 7 13
REMARK Flexibility Score: inf
ROOT
ATOM      1  C   UNL     1      13.612 -16.616  18.673  1.00  0.00     0.012 C 
ENDROOT
BRANCH   1   2
ATOM      2  C   UNL     1      12.716 -17.558  17.857  1.00  0.00     0.061 C 
BRANCH   2   3
ATOM      3  C   UNL     1      12.607 -18.959  18.482  1.00  0.00     0.258 C 
BRANCH   3   4
ATOM      4  N   UNL     1      13.132 -20.001  17.598  1.00  0.00    -0.358 N 
ATOM      5  H   UNL     1      14.031 -19.692  17.164  1.00  0.00     0.344 HD
ATOM      6  H   UNL     1      12.436 -20.233  16.852  1.00  0.00     0.344 HD
ATOM      7  H   UNL     1      13.319 -20.862  18.161  1.00  0.00     0.344 HD
ENDBRANCH   3   4
ENDBRANCH   2   3
ENDBRANCH   1   2
BRANCH   1   8
ATOM      8  C   UNL     1      13.836 -15.290  17.930  1.00  0.00     0.072 C 
BRANCH   8   9
ATOM      9  C   UNL     1      12.786 -14.223  18.307  1.00  0.00     0.227 C 
BRANCH   9  10
ATOM     10  N   UNL     1      11.799 -14.070  17.232  1.00  0.00    -0.350 N 
ATOM     11  H   UNL     1      11.389 -15.002  16.989  1.00  0.00     0.345 HD
ATOM     12  H   UNL     1      11.031 -13.422  17.526  1.00  0.00     0.345 HD
ATOM     13  H   UNL     1      12.263 -13.685  16.377  1.00  0.00     0.345 HD
ENDBRANCH   9  10
BRANCH   9  14
ATOM     14  C   UNL     1      13.437 -12.897  18.606  1.00  0.00     0.099 C 
ATOM     15  O   UNL     1      14.125 -12.745  19.650  1.00  0.00    -0.544 OA
ATOM     16  O   UNL     1      13.273 -11.830  17.733  1.00  0.00    -0.544 OA
ENDBRANCH   9  14
ENDBRANCH   8   9
ENDBRANCH   1   8
TORSDOF 7
ENDMDL
MODEL 2
REMARK VINA RESULT:    -3.960      1.307      1.440
REMARK INTER + INTRA:          -5.455
REMARK INTER:                  -5.281
REMARK INTRA:                  -0.174
REMARK UNBOUND:                -0.106
REMARK SMILES [NH3+]CCCC[C@H]([NH3+])C(=O)[O-]
REMARK SMILES IDX 4 1 3 2 2 3 1 4 5 8 6 9 7 10 8 14 9 15 10 16
REMARK H PARENT 1 5 1 6 1 7 7 11 7 12 7 13
REMARK Flexibility Score: inf
ROOT
ATOM      1  C   UNL     1      14.037 -15.609  18.010  1.00  0.00     0.012 C 
ENDROOT
BRANCH   1   2
ATOM      2  C   UNL     1      12.530 -15.893  17.922  1.00  0.00     0.061 C 
BRANCH   2   3
ATOM      3  C   UNL     1      12.166 -17.304  18.413  1.00  0.00     0.258 C 
BRANCH   3   4
ATOM      4  N   UNL     1      12.443 -18.329  17.405  1.00  0.00    -0.358 N 
ATOM      5  H   UNL     1      12.836 -19.186  17.855  1.00  0.00     0.344 HD
ATOM      6  H   UNL     1      13.111 -17.963  16.687  1.00  0.00     0.344 HD
ATOM      7  H   UNL     1      11.549 -18.587  16.929  1.00  0.00     0.344 HD
ENDBRANCH   3   4
ENDBRANCH   2   3
ENDBRANCH   1   2
BRANCH   1   8
ATOM      8  C   UNL     1      14.356 -14.182  17.537  1.00  0.00     0.072 C 
BRANCH   8   9
ATOM      9  C   UNL     1      13.172 -13.215  17.753  1.00  0.00     0.227 C 
BRANCH   9  10
ATOM     10  N   UNL     1      12.895 -12.458  16.526  1.00  0.00    -0.350 N 
ATOM     11  H   UNL     1      12.086 -11.812  16.680  1.00  0.00     0.345 HD
ATOM     12  H   UNL     1      13.733 -11.899  16.240  1.00  0.00     0.345 HD
ATOM     13  H   UNL     1      12.643 -13.117  15.752  1.00  0.00     0.345 HD
ENDBRANCH   9  10
BRANCH   9  14
ATOM     14  C   UNL     1      13.439 -12.271  18.896  1.00  0.00     0.099 C 
ATOM     15  O   UNL     1      14.063 -12.664  19.917  1.00  0.00    -0.544 OA
ATOM     16  O   UNL     1      12.986 -10.959  18.833  1.00  0.00    -0.544 OA
ENDBRANCH   9  14
ENDBRANCH   8   9
ENDBRANCH   1   8
TORSDOF 7
ENDMDL
MODEL 3
REMARK VINA RESULT:    -3.937      1.295      1.729
REMARK INTER + INTRA:          -5.423
REMARK INTER:                  -5.274
REMARK INTRA:                  -0.150
REMARK UNBOUND:                -0.106
REMARK SMILES [NH3+]CCCC[C@H]([NH3+])C(=O)[O-]
REMARK SMILES IDX 4 1 3 2 2 3 1 4 5 8 6 9 7 10 8 14 9 15 10 16
REMARK H PARENT 1 5 1 6 1 7 7 11 7 12 7 13
REMARK Flexibility Score: inf
ROOT
ATOM      1  C   UNL     1      13.988 -15.543  18.138  1.00  0.00     0.012 C 
ENDROOT
BRANCH   1   2
ATOM      2  C   UNL     1      12.521 -15.926  17.899  1.00  0.00     0.061 C 
BRANCH   2   3
ATOM      3  C   UNL     1      12.186 -17.335  18.415  1.00  0.00     0.258 C 
BRANCH   3   4
ATOM      4  N   UNL     1      12.415 -18.365  17.400  1.00  0.00    -0.358 N 
ATOM      5  H   UNL     1      11.890 -19.236  17.640  1.00  0.00     0.344 HD
ATOM      6  H   UNL     1      13.436 -18.574  17.315  1.00  0.00     0.344 HD
ATOM      7  H   UNL     1      12.067 -18.015  16.478  1.00  0.00     0.344 HD
ENDBRANCH   3   4
ENDBRANCH   2   3
ENDBRANCH   1   2
BRANCH   1   8
ATOM      8  C   UNL     1      14.306 -14.171  17.524  1.00  0.00     0.072 C 
BRANCH   8   9
ATOM      9  C   UNL     1      13.142 -13.171  17.692  1.00  0.00     0.227 C 
BRANCH   9  10
ATOM     10  N   UNL     1      12.894 -12.454  16.435  1.00  0.00    -0.350 N 
ATOM     11  H   UNL     1      12.573 -11.479  16.639  1.00  0.00     0.345 HD
ATOM     12  H   UNL     1      13.763 -12.416  15.854  1.00  0.00     0.345 HD
ATOM     13  H   UNL     1      12.141 -12.939  15.894  1.00  0.00     0.345 HD
ENDBRANCH   9  10
BRANCH   9  14
ATOM     14  C   UNL     1      13.420 -12.191  18.802  1.00  0.00     0.099 C 
ATOM     15  O   UNL     1      13.092 -10.981  18.683  1.00  0.00    -0.544 OA
ATOM     16  O   UNL     1      14.051 -12.618  19.964  1.00  0.00    -0.544 OA
ENDBRANCH   9  14
ENDBRANCH   8   9
ENDBRANCH   1   8
TORSDOF 7
ENDMDL
MODEL 4
REMARK VINA RESULT:    -3.879      2.307      2.797
REMARK INTER + INTRA:          -5.345
REMARK INTER:                  -4.817
REMARK INTRA:                  -0.529
REMARK UNBOUND:                -0.106
REMARK SMILES [NH3+]CCCC[C@H]([NH3+])C(=O)[O-]
REMARK SMILES IDX 4 1 3 2 2 3 1 4 5 8 6 9 7 10 8 14 9 15 10 16
REMARK H PARENT 1 5 1 6 1 7 7 11 7 12 7 13
REMARK Flexibility Score: inf
ROOT
ATOM      1  C   UNL     1      11.856 -14.461  17.528  1.00  0.00     0.012 C 
ENDROOT
BRANCH   1   2
ATOM      2  C   UNL     1      12.135 -15.813  18.201  1.00  0.00     0.061 C 
BRANCH   2   3
ATOM      3  C   UNL     1      13.638 -16.130  18.289  1.00  0.00     0.258 C 
BRANCH   3   4
ATOM      4  N   UNL     1      14.462 -15.071  17.703  1.00  0.00    -0.358 N 
ATOM      5  H   UNL     1      15.436 -15.415  17.543  1.00  0.00     0.344 HD
ATOM      6  H   UNL     1      14.476 -14.232  18.327  1.00  0.00     0.344 HD
ATOM      7  H   UNL     1      14.054 -14.796  16.781  1.00  0.00     0.344 HD
ENDBRANCH   3   4
ENDBRANCH   2   3
ENDBRANCH   1   2
BRANCH   1   8
ATOM      8  C   UNL     1      11.379 -13.423  18.556  1.00  0.00     0.072 C 
BRANCH   8   9
ATOM      9  C   UNL     1      12.161 -12.096  18.455  1.00  0.00     0.227 C 
BRANCH   9  10
ATOM     10  N   UNL     1      12.785 -11.967  17.132  1.00  0.00    -0.350 N 
ATOM     11  H   UNL     1      12.451 -11.091  16.665  1.00  0.00     0.345 HD
ATOM     12  H   UNL     1      13.828 -11.936  17.218  1.00  0.00     0.345 HD
ATOM     13  H   UNL     1      12.515 -12.780  16.532  1.00  0.00     0.345 HD
ENDBRANCH   9  10
BRANCH   9  14
ATOM     14  C   UNL     1      13.207 -11.995  19.534  1.00  0.00     0.099 C 
ATOM     15  O   UNL     1      14.192 -12.781  19.545  1.00  0.00    -0.544 OA
ATOM     16  O   UNL     1      13.084 -11.037  20.533  1.00  0.00    -0.544 OA
ENDBRANCH   9  14
ENDBRANCH   8   9
ENDBRANCH   1   8
TORSDOF 7
ENDMDL
MODEL 5
REMARK VINA RESULT:    -3.861      2.839      4.668
REMARK INTER + INTRA:          -5.322
REMARK INTER:                  -4.837
REMARK INTRA:                  -0.484
REMARK UNBOUND:                -0.106
REMARK SMILES [NH3+]CCCC[C@H]([NH3+])C(=O)[O-]
REMARK SMILES IDX 4 1 3 2 2 3 1 4 5 8 6 9 7 10 8 14 9 15 10 16
REMARK H PARENT 1 5 1 6 1 7 7 11 7 12 7 13
REMARK Flexibility Score: inf
ROOT
ATOM      1  C   UNL     1      14.498 -14.042  17.531  1.00  0.00     0.012 C 
ENDROOT
BRANCH   1   2
ATOM      2  C   UNL     1      14.167 -12.886  18.487  1.00  0.00     0.061 C 
BRANCH   2   3
ATOM      3  C   UNL     1      13.253 -11.831  17.844  1.00  0.00     0.258 C 
BRANCH   3   4
ATOM      4  N   UNL     1      12.790 -12.235  16.516  1.00  0.00    -0.358 N 
ATOM      5  H   UNL     1      12.215 -11.477  16.084  1.00  0.00     0.344 HD
ATOM      6  H   UNL     1      12.232 -13.118  16.576  1.00  0.00     0.344 HD
ATOM      7  H   UNL     1      13.622 -12.405  15.905  1.00  0.00     0.344 HD
ENDBRANCH   3   4
ENDBRANCH   2   3
ENDBRANCH   1   2
BRANCH   1   8
ATOM      8  C   UNL     1      13.932 -15.370  18.058  1.00  0.00     0.072 C 
BRANCH   8   9
ATOM      9  C   UNL     1      12.857 -15.158  19.146  1.00  0.00     0.227 C 
BRANCH   9  10
ATOM     10  N   UNL     1      13.063 -16.091  20.261  1.00  0.00    -0.350 N 
ATOM     11  H   UNL     1      13.570 -16.942  19.924  1.00  0.00     0.345 HD
ATOM     12  H   UNL     1      13.618 -15.637  21.024  1.00  0.00     0.345 HD
ATOM     13  H   UNL     1      12.137 -16.393  20.645  1.00  0.00     0.345 HD
ENDBRANCH   9  10
BRANCH   9  14
ATOM     14  C   UNL     1      11.470 -15.321  18.582  1.00  0.00     0.099 C 
ATOM     15  O   UNL     1      10.998 -14.464  17.788  1.00  0.00    -0.544 OA
ATOM     16  O   UNL     1      10.698 -16.418  18.944  1.00  0.00    -0.544 OA
ENDBRANCH   9  14
ENDBRANCH   8   9
ENDBRANCH   1   8
TORSDOF 7
ENDMDL
MODEL 6
REMARK VINA RESULT:    -3.803      3.025      3.397
REMARK INTER + INTRA:          -5.243
REMARK INTER:                  -4.761
REMARK INTRA:                  -0.482
REMARK UNBOUND:                -0.106
REMARK SMILES [NH3+]CCCC[C@H]([NH3+])C(=O)[O-]
REMARK SMILES IDX 4 1 3 2 2 3 1 4 5 8 6 9 7 10 8 14 9 15 10 16
REMARK H PARENT 1 5 1 6 1 7 7 11 7 12 7 13
REMARK Flexibility Score: inf
ROOT
ATOM      1  C   UNL     1      13.155 -15.132  18.479  1.00  0.00     0.012 C 
ENDROOT
BRANCH   1   2
ATOM      2  C   UNL     1      11.809 -15.071  17.743  1.00  0.00     0.061 C 
BRANCH   2   3
ATOM      3  C   UNL     1      10.672 -14.538  18.632  1.00  0.00     0.258 C 
BRANCH   3   4
ATOM      4  N   UNL     1      10.339 -13.145  18.327  1.00  0.00    -0.358 N 
ATOM      5  H   UNL     1      11.067 -12.503  18.716  1.00  0.00     0.344 HD
ATOM      6  H   UNL     1       9.400 -12.900  18.718  1.00  0.00     0.344 HD
ATOM      7  H   UNL     1      10.313 -13.022  17.290  1.00  0.00     0.344 HD
ENDBRANCH   3   4
ENDBRANCH   2   3
ENDBRANCH   1   2
BRANCH   1   8
ATOM      8  C   UNL     1      14.118 -14.056  17.954  1.00  0.00     0.072 C 
BRANCH   8   9
ATOM      9  C   UNL     1      14.138 -12.801  18.852  1.00  0.00     0.227 C 
BRANCH   9  10
ATOM     10  N   UNL     1      13.652 -13.124  20.200  1.00  0.00    -0.350 N 
ATOM     11  H   UNL     1      13.996 -12.410  20.883  1.00  0.00     0.345 HD
ATOM     12  H   UNL     1      12.605 -13.144  20.219  1.00  0.00     0.345 HD
ATOM     13  H   UNL     1      14.017 -14.060  20.493  1.00  0.00     0.345 HD
ENDBRANCH   9  10
BRANCH   9  14
ATOM     14  C   UNL     1      13.314 -11.689  18.257  1.00  0.00     0.099 C 
ATOM     15  O   UNL     1      12.978 -10.697  18.957  1.00  0.00    -0.544 OA
ATOM     16  O   UNL     1      12.911 -11.758  16.929  1.00  0.00    -0.544 OA
ENDBRANCH   9  14
ENDBRANCH   8   9
ENDBRANCH   1   8
TORSDOF 7
ENDMDL
MODEL 7
REMARK VINA RESULT:    -3.799      3.318      4.936
REMARK INTER + INTRA:          -5.238
REMARK INTER:                  -5.005
REMARK INTRA:                  -0.233
REMARK UNBOUND:                -0.106
REMARK SMILES [NH3+]CCCC[C@H]([NH3+])C(=O)[O-]
REMARK SMILES IDX 4 1 3 2 2 3 1 4 5 8 6 9 7 10 8 14 9 15 10 16
REMARK H PARENT 1 5 1 6 1 7 7 11 7 12 7 13
REMARK Flexibility Score: inf
ROOT
ATOM      1  C   UNL     1      14.370 -14.204  17.486  1.00  0.00     0.012 C 
ENDROOT
BRANCH   1   2
ATOM      2  C   UNL     1      14.360 -12.889  18.277  1.00  0.00     0.061 C 
BRANCH   2   3
ATOM      3  C   UNL     1      13.222 -11.948  17.846  1.00  0.00     0.258 C 
BRANCH   3   4
ATOM      4  N   UNL     1      12.812 -12.176  16.459  1.00  0.00    -0.358 N 
ATOM      5  H   UNL     1      13.261 -13.043  16.085  1.00  0.00     0.344 HD
ATOM      6  H   UNL     1      13.067 -11.355  15.863  1.00  0.00     0.344 HD
ATOM      7  H   UNL     1      11.775 -12.303  16.429  1.00  0.00     0.344 HD
ENDBRANCH   3   4
ENDBRANCH   2   3
ENDBRANCH   1   2
BRANCH   1   8
ATOM      8  C   UNL     1      13.804 -15.358  18.329  1.00  0.00     0.072 C 
BRANCH   8   9
ATOM      9  C   UNL     1      12.402 -15.795  17.854  1.00  0.00     0.227 C 
BRANCH   9  10
ATOM     10  N   UNL     1      11.367 -14.948  18.459  1.00  0.00    -0.350 N 
ATOM     11  H   UNL     1      11.062 -15.356  19.374  1.00  0.00     0.345 HD
ATOM     12  H   UNL     1      11.729 -13.979  18.618  1.00  0.00     0.345 HD
ATOM     13  H   UNL     1      10.533 -14.903  17.829  1.00  0.00     0.345 HD
ENDBRANCH   9  10
BRANCH   9  14
ATOM     14  C   UNL     1      12.143 -17.244  18.180  1.00  0.00     0.099 C 
ATOM     15  O   UNL     1      11.390 -17.558  19.139  1.00  0.00    -0.544 OA
ATOM     16  O   UNL     1      12.744 -18.243  17.425  1.00  0.00    -0.544 OA
ENDBRANCH   9  14
ENDBRANCH   8   9
ENDBRANCH   1   8
TORSDOF 7
ENDMDL
MODEL 8
REMARK VINA RESULT:    -3.778      2.278      2.503
REMARK INTER + INTRA:          -5.209
REMARK INTER:                  -5.041
REMARK INTRA:                  -0.168
REMARK UNBOUND:                -0.106
REMARK SMILES [NH3+]CCCC[C@H]([NH3+])C(=O)[O-]
REMARK SMILES IDX 4 1 3 2 2 3 1 4 5 8 6 9 7 10 8 14 9 15 10 16
REMARK H PARENT 1 5 1 6 1 7 7 11 7 12 7 13
REMARK Flexibility Score: inf
ROOT
ATOM      1  C   UNL     1      13.611 -16.529  18.227  1.00  0.00     0.012 C 
ENDROOT
BRANCH   1   2
ATOM      2  C   UNL     1      12.615 -17.589  17.735  1.00  0.00     0.061 C 
BRANCH   2   3
ATOM      3  C   UNL     1      12.739 -18.917  18.501  1.00  0.00     0.258 C 
BRANCH   3   4
ATOM      4  N   UNL     1      13.073 -20.036  17.618  1.00  0.00    -0.358 N 
ATOM      5  H   UNL     1      13.778 -20.660  18.072  1.00  0.00     0.344 HD
ATOM      6  H   UNL     1      13.443 -19.683  16.705  1.00  0.00     0.344 HD
ATOM      7  H   UNL     1      12.208 -20.594  17.437  1.00  0.00     0.344 HD
ENDBRANCH   3   4
ENDBRANCH   2   3
ENDBRANCH   1   2
BRANCH   1   8
ATOM      8  C   UNL     1      12.875 -15.295  18.773  1.00  0.00     0.072 C 
BRANCH   8   9
ATOM      9  C   UNL     1      11.747 -14.822  17.830  1.00  0.00     0.227 C 
BRANCH   9  10
ATOM     10  N   UNL     1      12.141 -13.591  17.134  1.00  0.00    -0.350 N 
ATOM     11  H   UNL     1      11.292 -13.108  16.758  1.00  0.00     0.345 HD
ATOM     12  H   UNL     1      12.646 -12.945  17.785  1.00  0.00     0.345 HD
ATOM     13  H   UNL     1      12.767 -13.824  16.329  1.00  0.00     0.345 HD
ENDBRANCH   9  10
BRANCH   9  14
ATOM     14  C   UNL     1      10.461 -14.604  18.584  1.00  0.00     0.099 C 
ATOM     15  O   UNL     1      10.054 -13.437  18.827  1.00  0.00    -0.544 OA
ATOM     16  O   UNL     1       9.721 -15.694  19.025  1.00  0.00    -0.544 OA
ENDBRANCH   9  14
ENDBRANCH   8   9
ENDBRANCH   1   8
TORSDOF 7
ENDMDL
MODEL 9
REMARK VINA RESULT:    -3.746      3.313      4.272
REMARK INTER + INTRA:          -5.166
REMARK INTER:                  -4.602
REMARK INTRA:                  -0.564
REMARK UNBOUND:                -0.106
REMARK SMILES [NH3+]CCCC[C@H]([NH3+])C(=O)[O-]
REMARK SMILES IDX 4 1 3 2 2 3 1 4 5 8 6 9 7 10 8 14 9 15 10 16
REMARK H PARENT 1 5 1 6 1 7 7 11 7 12 7 13
REMARK Flexibility Score: inf
ROOT
ATOM      1  C   UNL     1      12.514 -12.008  19.266  1.00  0.00     0.012 C 
ENDROOT
BRANCH   1   2
ATOM      2  C   UNL     1      13.483 -12.159  20.447  1.00  0.00     0.061 C 
BRANCH   2   3
ATOM      3  C   UNL     1      13.087 -13.305  21.393  1.00  0.00     0.258 C 
BRANCH   3   4
ATOM      4  N   UNL     1      12.354 -14.366  20.700  1.00  0.00    -0.358 N 
ATOM      5  H   UNL     1      13.012 -14.961  20.148  1.00  0.00     0.344 HD
ATOM      6  H   UNL     1      11.627 -13.956  20.070  1.00  0.00     0.344 HD
ATOM      7  H   UNL     1      11.881 -14.970  21.410  1.00  0.00     0.344 HD
ENDBRANCH   3   4
ENDBRANCH   2   3
ENDBRANCH   1   2
BRANCH   1   8
ATOM      8  C   UNL     1      13.277 -11.953  17.933  1.00  0.00     0.072 C 
BRANCH   8   9
ATOM      9  C   UNL     1      13.133 -13.259  17.123  1.00  0.00     0.227 C 
BRANCH   9  10
ATOM     10  N   UNL     1      11.795 -13.836  17.309  1.00  0.00    -0.350 N 
ATOM     11  H   UNL     1      11.210 -13.195  17.893  1.00  0.00     0.345 HD
ATOM     12  H   UNL     1      11.326 -13.985  16.385  1.00  0.00     0.345 HD
ATOM     13  H   UNL     1      11.871 -14.753  17.806  1.00  0.00     0.345 HD
ENDBRANCH   9  10
BRANCH   9  14
ATOM     14  C   UNL     1      14.188 -14.262  17.511  1.00  0.00     0.099 C 
ATOM     15  O   UNL     1      15.374 -14.129  17.108  1.00  0.00    -0.544 OA
ATOM     16  O   UNL     1      13.854 -15.348  18.310  1.00  0.00    -0.544 OA
ENDBRANCH   9  14
ENDBRANCH   8   9
ENDBRANCH   1   8
TORSDOF 7
ENDMDL
