MODEL 1
REMARK VINA RESULT:    -5.674      0.000      0.000
REMARK INTER + INTRA:          -6.005
REMARK INTER:                  -6.005
REMARK INTRA:                   0.000
REMARK UNBOUND:                 0.000
REMARK SMILES O=c1ccc2cc(O)c(O)cc2o1
REMARK SMILES IDX 4 1 3 2 2 3 1 4 13 5 12 6 11 7 9 8 7 9 6 10 5 11 8 12 10 14
REMARK H PARENT 8 13 10 15
REMARK Flexibility Score: inf
ROOT
ATOM      1  C   UNL     1     -41.716   1.876 -13.988  1.00  0.00     0.019 A 
ATOM      2  C   UNL     1     -42.711   2.559 -14.687  1.00  0.00     0.094 A 
ATOM      3  C   UNL     1     -42.611   3.949 -14.822  1.00  0.00     0.336 A 
ATOM      4  O   UNL     1     -43.498   4.584 -15.448  1.00  0.00    -0.246 OA
ATOM      5  O   UNL     1     -41.581   4.605 -14.291  1.00  0.00    -0.423 OA
ATOM      6  C   UNL     1     -40.611   3.990 -13.618  1.00  0.00     0.142 A 
ATOM      7  C   UNL     1     -39.554   4.732 -13.083  1.00  0.00     0.098 A 
ATOM      8  C   UNL     1     -38.530   4.094 -12.373  1.00  0.00     0.161 A 
ATOM      9  C   UNL     1     -38.563   2.698 -12.196  1.00  0.00     0.158 A 
ATOM     10  C   UNL     1     -39.622   1.950 -12.730  1.00  0.00     0.062 A 
ATOM     11  C   UNL     1     -40.645   2.591 -13.441  1.00  0.00     0.022 A 
ENDROOT
BRANCH   9  12
ATOM     12  O   UNL     1     -37.544   2.062 -11.489  1.00  0.00    -0.504 OA
ATOM     13  H   UNL     1     -37.078   1.238 -11.854  1.00  0.00     0.293 HD
ENDBRANCH   9  12
BRANCH   8  14
ATOM     14  O   UNL     1     -37.489   4.861 -11.852  1.00  0.00    -0.504 OA
ATOM     15  H   UNL     1     -37.589   5.853 -11.673  1.00  0.00     0.293 HD
ENDBRANCH   8  14
TORSDOF 2
ENDMDL
MODEL 2
REMARK VINA RESULT:    -5.413      1.125      2.258
REMARK INTER + INTRA:          -5.730
REMARK INTER:                  -5.730
REMARK INTRA:                   0.000
REMARK UNBOUND:                 0.000
REMARK SMILES O=c1ccc2cc(O)c(O)cc2o1
REMARK SMILES IDX 4 1 3 2 2 3 1 4 13 5 12 6 11 7 9 8 7 9 6 10 5 11 8 12 10 14
REMARK H PARENT 8 13 10 15
REMARK Flexibility Score: inf
ROOT
ATOM      1  C   UNL     1     -41.654   4.684 -14.429  1.00  0.00     0.019 A 
ATOM      2  C   UNL     1     -42.715   3.942 -14.949  1.00  0.00     0.094 A 
ATOM      3  C   UNL     1     -42.755   2.563 -14.717  1.00  0.00     0.336 A 
ATOM      4  O   UNL     1     -43.703   1.875 -15.177  1.00  0.00    -0.246 OA
ATOM      5  O   UNL     1     -41.796   1.970 -14.008  1.00  0.00    -0.423 OA
ATOM      6  C   UNL     1     -40.768   2.642 -13.494  1.00  0.00     0.142 A 
ATOM      7  C   UNL     1     -39.790   1.967 -12.759  1.00  0.00     0.098 A 
ATOM      8  C   UNL     1     -38.705   2.664 -12.215  1.00  0.00     0.161 A 
ATOM      9  C   UNL     1     -38.596   4.055 -12.408  1.00  0.00     0.158 A 
ATOM     10  C   UNL     1     -39.575   4.736 -13.146  1.00  0.00     0.062 A 
ATOM     11  C   UNL     1     -40.660   4.036 -13.689  1.00  0.00     0.022 A 
ENDROOT
BRANCH   9  12
ATOM     12  O   UNL     1     -37.517   4.750 -11.867  1.00  0.00    -0.504 OA
ATOM     13  H   UNL     1     -37.453   5.760 -11.926  1.00  0.00     0.293 HD
ENDBRANCH   9  12
BRANCH   8  14
ATOM     14  O   UNL     1     -37.746   1.962 -11.486  1.00  0.00    -0.504 OA
ATOM     15  H   UNL     1     -37.874   0.994 -11.221  1.00  0.00     0.293 HD
ENDBRANCH   8  14
TORSDOF 2
ENDMDL
MODEL 3
REMARK VINA RESULT:    -4.984      1.181      5.086
REMARK INTER + INTRA:          -5.276
REMARK INTER:                  -5.276
REMARK INTRA:                   0.000
REMARK UNBOUND:                 0.000
REMARK SMILES O=c1ccc2cc(O)c(O)cc2o1
REMARK SMILES IDX 4 1 3 2 2 3 1 4 13 5 12 6 11 7 9 8 7 9 6 10 5 11 8 12 10 14
REMARK H PARENT 8 13 10 15
REMARK Flexibility Score: inf
ROOT
ATOM      1  C   UNL     1     -39.616   4.659 -13.147  1.00  0.00     0.019 A 
ATOM      2  C   UNL     1     -38.698   3.937 -12.384  1.00  0.00     0.094 A 
ATOM      3  C   UNL     1     -38.891   2.561 -12.216  1.00  0.00     0.336 A 
ATOM      4  O   UNL     1     -38.075   1.891 -11.532  1.00  0.00    -0.246 OA
ATOM      5  O   UNL     1     -39.935   1.953 -12.777  1.00  0.00    -0.423 OA
ATOM      6  C   UNL     1     -40.832   2.606 -13.512  1.00  0.00     0.142 A 
ATOM      7  C   UNL     1     -41.908   1.915 -14.077  1.00  0.00     0.098 A 
ATOM      8  C   UNL     1     -42.858   2.593 -14.851  1.00  0.00     0.161 A 
ATOM      9  C   UNL     1     -42.730   3.978 -15.063  1.00  0.00     0.158 A 
ATOM     10  C   UNL     1     -41.652   4.676 -14.498  1.00  0.00     0.062 A 
ATOM     11  C   UNL     1     -40.703   3.995 -13.724  1.00  0.00     0.022 A 
ENDROOT
BRANCH   9  12
ATOM     12  O   UNL     1     -43.674   4.654 -15.833  1.00  0.00    -0.504 OA
ATOM     13  H   UNL     1     -43.413   5.154 -16.676  1.00  0.00     0.293 HD
ENDBRANCH   9  12
BRANCH   8  14
ATOM     14  O   UNL     1     -43.919   1.875 -15.401  1.00  0.00    -0.504 OA
ATOM     15  H   UNL     1     -44.281   1.034 -14.968  1.00  0.00     0.293 HD
ENDBRANCH   8  14
TORSDOF 2
ENDMDL
MODEL 4
REMARK VINA RESULT:    -4.793     12.631     13.990
REMARK INTER + INTRA:          -5.073
REMARK INTER:                  -5.073
REMARK INTRA:                   0.000
REMARK UNBOUND:                 0.000
REMARK SMILES O=c1ccc2cc(O)c(O)cc2o1
REMARK SMILES IDX 4 1 3 2 2 3 1 4 13 5 12 6 11 7 9 8 7 9 6 10 5 11 8 12 10 14
REMARK H PARENT 8 13 10 15
REMARK Flexibility Score: inf
ROOT
ATOM      1  C   UNL     1     -43.747  17.475 -18.954  1.00  0.00     0.019 A 
ATOM      2  C   UNL     1     -44.867  17.260 -18.151  1.00  0.00     0.094 A 
ATOM      3  C   UNL     1     -44.784  16.333 -17.107  1.00  0.00     0.336 A 
ATOM      4  O   UNL     1     -45.783  16.124 -16.371  1.00  0.00    -0.246 OA
ATOM      5  O   UNL     1     -43.651  15.669 -16.883  1.00  0.00    -0.423 OA
ATOM      6  C   UNL     1     -42.561  15.846 -17.626  1.00  0.00     0.142 A 
ATOM      7  C   UNL     1     -41.400  15.120 -17.345  1.00  0.00     0.098 A 
ATOM      8  C   UNL     1     -40.248  15.298 -18.120  1.00  0.00     0.161 A 
ATOM      9  C   UNL     1     -40.256  16.214 -19.190  1.00  0.00     0.158 A 
ATOM     10  C   UNL     1     -41.420  16.943 -19.475  1.00  0.00     0.062 A 
ATOM     11  C   UNL     1     -42.571  16.763 -18.698  1.00  0.00     0.022 A 
ENDROOT
BRANCH   9  12
ATOM     12  O   UNL     1     -39.111  16.392 -19.962  1.00  0.00    -0.504 OA
ATOM     13  H   UNL     1     -38.198  16.094 -19.636  1.00  0.00     0.293 HD
ENDBRANCH   9  12
BRANCH   8  14
ATOM     14  O   UNL     1     -39.105  14.559 -17.814  1.00  0.00    -0.504 OA
ATOM     15  H   UNL     1     -39.145  13.570 -17.605  1.00  0.00     0.293 HD
ENDBRANCH   8  14
TORSDOF 2
ENDMDL
MODEL 5
REMARK VINA RESULT:    -4.780     12.629     14.368
REMARK INTER + INTRA:          -5.059
REMARK INTER:                  -5.059
REMARK INTRA:                   0.000
REMARK UNBOUND:                 0.000
REMARK SMILES O=c1ccc2cc(O)c(O)cc2o1
REMARK SMILES IDX 4 1 3 2 2 3 1 4 13 5 12 6 11 7 9 8 7 9 6 10 5 11 8 12 10 14
REMARK H PARENT 8 13 10 15
REMARK Flexibility Score: inf
ROOT
ATOM      1  C   UNL     1     -40.608  18.279 -16.833  1.00  0.00     0.019 A 
ATOM      2  C   UNL     1     -39.439  17.829 -17.449  1.00  0.00     0.094 A 
ATOM      3  C   UNL     1     -39.355  16.491 -17.846  1.00  0.00     0.336 A 
ATOM      4  O   UNL     1     -38.309  16.065 -18.403  1.00  0.00    -0.246 OA
ATOM      5  O   UNL     1     -40.375  15.660 -17.640  1.00  0.00    -0.423 OA
ATOM      6  C   UNL     1     -41.507  16.050 -17.057  1.00  0.00     0.142 A 
ATOM      7  C   UNL     1     -42.545  15.133 -16.867  1.00  0.00     0.098 A 
ATOM      8  C   UNL     1     -43.739  15.533 -16.255  1.00  0.00     0.161 A 
ATOM      9  C   UNL     1     -43.897  16.865 -15.827  1.00  0.00     0.158 A 
ATOM     10  C   UNL     1     -42.857  17.787 -16.016  1.00  0.00     0.062 A 
ATOM     11  C   UNL     1     -41.664  17.385 -16.629  1.00  0.00     0.022 A 
ENDROOT
BRANCH   9  12
ATOM     12  O   UNL     1     -45.085  17.264 -15.218  1.00  0.00    -0.504 OA
ATOM     13  H   UNL     1     -45.312  18.243 -15.088  1.00  0.00     0.293 HD
ENDBRANCH   9  12
BRANCH   8  14
ATOM     14  O   UNL     1     -44.756  14.595 -16.080  1.00  0.00    -0.504 OA
ATOM     15  H   UNL     1     -45.575  14.788 -15.516  1.00  0.00     0.293 HD
ENDBRANCH   8  14
TORSDOF 2
ENDMDL
MODEL 6
REMARK VINA RESULT:    -4.687     12.489     14.090
REMARK INTER + INTRA:          -4.961
REMARK INTER:                  -4.961
REMARK INTRA:                   0.000
REMARK UNBOUND:                 0.000
REMARK SMILES O=c1ccc2cc(O)c(O)cc2o1
REMARK SMILES IDX 4 1 3 2 2 3 1 4 13 5 12 6 11 7 9 8 7 9 6 10 5 11 8 12 10 14
REMARK H PARENT 8 13 10 15
REMARK Flexibility Score: inf
ROOT
ATOM      1  C   UNL     1     -40.294  15.166 -17.959  1.00  0.00     0.019 A 
ATOM      2  C   UNL     1     -39.200  16.004 -18.174  1.00  0.00     0.094 A 
ATOM      3  C   UNL     1     -39.245  17.315 -17.689  1.00  0.00     0.336 A 
ATOM      4  O   UNL     1     -38.269  18.088 -17.872  1.00  0.00    -0.246 OA
ATOM      5  O   UNL     1     -40.317  17.754 -17.032  1.00  0.00    -0.423 OA
ATOM      6  C   UNL     1     -41.381  16.986 -16.806  1.00  0.00     0.142 A 
ATOM      7  C   UNL     1     -42.478  17.502 -16.110  1.00  0.00     0.098 A 
ATOM      8  C   UNL     1     -43.602  16.702 -15.868  1.00  0.00     0.161 A 
ATOM      9  C   UNL     1     -43.629  15.371 -16.327  1.00  0.00     0.158 A 
ATOM     10  C   UNL     1     -42.530  14.851 -17.026  1.00  0.00     0.062 A 
ATOM     11  C   UNL     1     -41.407  15.653 -17.266  1.00  0.00     0.022 A 
ENDROOT
BRANCH   9  12
ATOM     12  O   UNL     1     -44.747  14.575 -16.086  1.00  0.00    -0.504 OA
ATOM     13  H   UNL     1     -45.666  14.832 -16.429  1.00  0.00     0.293 HD
ENDBRANCH   9  12
BRANCH   8  14
ATOM     14  O   UNL     1     -44.681  17.245 -15.171  1.00  0.00    -0.504 OA
ATOM     15  H   UNL     1     -45.130  18.106 -15.459  1.00  0.00     0.293 HD
ENDBRANCH   8  14
TORSDOF 2
ENDMDL
MODEL 7
REMARK VINA RESULT:    -4.629     17.459     19.032
REMARK INTER + INTRA:          -4.899
REMARK INTER:                  -4.899
REMARK INTRA:                   0.000
REMARK UNBOUND:                 0.000
REMARK SMILES O=c1ccc2cc(O)c(O)cc2o1
REMARK SMILES IDX 4 1 3 2 2 3 1 4 13 5 12 6 11 7 9 8 7 9 6 10 5 11 8 12 10 14
REMARK H PARENT 8 13 10 15
REMARK Flexibility Score: inf
ROOT
ATOM      1  C   UNL     1     -31.143  19.589 -22.204  1.00  0.00     0.019 A 
ATOM      2  C   UNL     1     -31.052  20.316 -21.017  1.00  0.00     0.094 A 
ATOM      3  C   UNL     1     -31.761  19.872 -19.895  1.00  0.00     0.336 A 
ATOM      4  O   UNL     1     -31.693  20.513 -18.814  1.00  0.00    -0.246 OA
ATOM      5  O   UNL     1     -32.510  18.773 -19.962  1.00  0.00    -0.423 OA
ATOM      6  C   UNL     1     -32.623  18.052 -21.076  1.00  0.00     0.142 A 
ATOM      7  C   UNL     1     -33.424  16.907 -21.087  1.00  0.00     0.098 A 
ATOM      8  C   UNL     1     -33.550  16.142 -22.253  1.00  0.00     0.161 A 
ATOM      9  C   UNL     1     -32.866  16.527 -23.422  1.00  0.00     0.158 A 
ATOM     10  C   UNL     1     -32.062  17.676 -23.415  1.00  0.00     0.062 A 
ATOM     11  C   UNL     1     -31.937  18.439 -22.246  1.00  0.00     0.022 A 
ENDROOT
BRANCH   9  12
ATOM     12  O   UNL     1     -32.990  15.767 -24.583  1.00  0.00    -0.504 OA
ATOM     13  H   UNL     1     -32.453  14.918 -24.723  1.00  0.00     0.293 HD
ENDBRANCH   9  12
BRANCH   8  14
ATOM     14  O   UNL     1     -34.356  15.005 -22.233  1.00  0.00    -0.504 OA
ATOM     15  H   UNL     1     -35.358  15.053 -22.370  1.00  0.00     0.293 HD
ENDBRANCH   8  14
TORSDOF 2
ENDMDL
MODEL 8
REMARK VINA RESULT:    -4.581     16.194     17.583
REMARK INTER + INTRA:          -4.849
REMARK INTER:                  -4.849
REMARK INTRA:                   0.000
REMARK UNBOUND:                 0.000
REMARK SMILES O=c1ccc2cc(O)c(O)cc2o1
REMARK SMILES IDX 4 1 3 2 2 3 1 4 13 5 12 6 11 7 9 8 7 9 6 10 5 11 8 12 10 14
REMARK H PARENT 8 13 10 15
REMARK Flexibility Score: inf
ROOT
ATOM      1  C   UNL     1     -33.807  18.836 -20.292  1.00  0.00     0.019 A 
ATOM      2  C   UNL     1     -34.708  18.558 -19.264  1.00  0.00     0.094 A 
ATOM      3  C   UNL     1     -35.370  17.326 -19.259  1.00  0.00     0.336 A 
ATOM      4  O   UNL     1     -36.187  17.055 -18.340  1.00  0.00    -0.246 OA
ATOM      5  O   UNL     1     -35.141  16.433 -20.220  1.00  0.00    -0.423 OA
ATOM      6  C   UNL     1     -34.290  16.660 -21.218  1.00  0.00     0.142 A 
ATOM      7  C   UNL     1     -34.090  15.685 -22.200  1.00  0.00     0.098 A 
ATOM      8  C   UNL     1     -33.197  15.914 -23.254  1.00  0.00     0.161 A 
ATOM      9  C   UNL     1     -32.494  17.132 -23.326  1.00  0.00     0.158 A 
ATOM     10  C   UNL     1     -32.693  18.113 -22.343  1.00  0.00     0.062 A 
ATOM     11  C   UNL     1     -33.587  17.881 -21.289  1.00  0.00     0.022 A 
ENDROOT
BRANCH   9  12
ATOM     12  O   UNL     1     -31.605  17.361 -24.374  1.00  0.00    -0.504 OA
ATOM     13  H   UNL     1     -30.673  17.725 -24.210  1.00  0.00     0.293 HD
ENDBRANCH   9  12
BRANCH   8  14
ATOM     14  O   UNL     1     -33.019  14.922 -24.217  1.00  0.00    -0.504 OA
ATOM     15  H   UNL     1     -33.786  14.350 -24.548  1.00  0.00     0.293 HD
ENDBRANCH   8  14
TORSDOF 2
ENDMDL
MODEL 9
REMARK VINA RESULT:    -4.531     13.613     14.897
REMARK INTER + INTRA:          -4.796
REMARK INTER:                  -4.796
REMARK INTRA:                   0.000
REMARK UNBOUND:                 0.000
REMARK SMILES O=c1ccc2cc(O)c(O)cc2o1
REMARK SMILES IDX 4 1 3 2 2 3 1 4 13 5 12 6 11 7 9 8 7 9 6 10 5 11 8 12 10 14
REMARK H PARENT 8 13 10 15
REMARK Flexibility Score: inf
ROOT
ATOM      1  C   UNL     1     -41.020  18.085 -20.754  1.00  0.00     0.019 A 
ATOM      2  C   UNL     1     -42.116  18.859 -21.132  1.00  0.00     0.094 A 
ATOM      3  C   UNL     1     -43.332  18.685 -20.461  1.00  0.00     0.336 A 
ATOM      4  O   UNL     1     -44.334  19.374 -20.786  1.00  0.00    -0.246 OA
ATOM      5  O   UNL     1     -43.437  17.795 -19.477  1.00  0.00    -0.423 OA
ATOM      6  C   UNL     1     -42.415  17.037 -19.085  1.00  0.00     0.142 A 
ATOM      7  C   UNL     1     -42.585  16.118 -18.046  1.00  0.00     0.098 A 
ATOM      8  C   UNL     1     -41.515  15.316 -17.628  1.00  0.00     0.161 A 
ATOM      9  C   UNL     1     -40.261  15.435 -18.257  1.00  0.00     0.158 A 
ATOM     10  C   UNL     1     -40.087  16.355 -19.301  1.00  0.00     0.062 A 
ATOM     11  C   UNL     1     -41.159  17.157 -19.717  1.00  0.00     0.022 A 
ENDROOT
BRANCH   9  12
ATOM     12  O   UNL     1     -39.197  14.638 -17.842  1.00  0.00    -0.504 OA
ATOM     13  H   UNL     1     -39.348  13.745 -17.385  1.00  0.00     0.293 HD
ENDBRANCH   9  12
BRANCH   8  14
ATOM     14  O   UNL     1     -41.716  14.410 -16.588  1.00  0.00    -0.504 OA
ATOM     15  H   UNL     1     -42.639  14.197 -16.231  1.00  0.00     0.293 HD
ENDBRANCH   8  14
TORSDOF 2
ENDMDL
