MODEL 1
REMARK VINA RESULT:    -5.397      0.000      0.000
REMARK INTER + INTRA:          -7.950
REMARK INTER:                  -7.290
REMARK INTRA:                  -0.660
REMARK UNBOUND:                -0.660
REMARK SMILES COc1ccc(-c2cc(=O)c3c(OC)c(OC)c(OC)cc3o2)cc1OC
REMARK SMILES IDX 7 1 8 2 9 3 10 4 11 5 12 6 15 7 18 8 21 9 22 10 23 11 6 12
REMARK SMILES IDX 3 13 25 14 4 15 24 16 5 17 2 18 1 19 26 20 27 21 13 22 14 23
REMARK SMILES IDX 19 24 20 25 16 26 17 27
REMARK H PARENT
REMARK Flexibility Score: inf
ROOT
ATOM      1  C   UNL     1      -8.802   5.885   5.896  1.00  0.00     0.138 A 
ATOM      2  C   UNL     1      -8.853   7.271   5.678  1.00  0.00     0.100 A 
ATOM      3  C   UNL     1      -8.611   7.775   4.401  1.00  0.00     0.197 A 
ATOM      4  O   UNL     1      -8.626   9.023   4.227  1.00  0.00    -0.289 OA
ATOM      5  C   UNL     1      -8.332   6.887   3.340  1.00  0.00     0.111 A 
ATOM      6  C   UNL     1      -8.099   7.312   2.008  1.00  0.00     0.179 A 
ATOM      7  C   UNL     1      -7.711   6.368   1.024  1.00  0.00     0.204 A 
ATOM      8  C   UNL     1      -7.675   5.002   1.346  1.00  0.00     0.168 A 
ATOM      9  C   UNL     1      -7.968   4.582   2.653  1.00  0.00     0.098 A 
ATOM     10  C   UNL     1      -8.274   5.510   3.646  1.00  0.00     0.146 A 
ATOM     11  O   UNL     1      -8.510   5.078   4.880  1.00  0.00    -0.456 OA
ENDROOT
BRANCH   1  12
ATOM     12  C   UNL     1      -9.043   5.289   7.236  1.00  0.00     0.021 A 
ATOM     13  C   UNL     1      -9.482   4.103   9.760  1.00  0.00     0.160 A 
ATOM     14  C   UNL     1      -8.624   3.488   8.838  1.00  0.00     0.161 A 
ATOM     15  C   UNL     1     -10.124   5.305   9.415  1.00  0.00     0.051 A 
ATOM     16  C   UNL     1      -8.412   4.081   7.578  1.00  0.00     0.062 A 
ATOM     17  C   UNL     1      -9.910   5.890   8.166  1.00  0.00     0.016 A 
BRANCH  13  18
ATOM     18  O   UNL     1      -9.671   3.488  11.008  1.00  0.00    -0.493 OA
ATOM     19  C   UNL     1      -8.963   3.835  12.194  1.00  0.00     0.278 C 
ENDBRANCH  13  18
BRANCH  14  20
ATOM     20  O   UNL     1      -8.000   2.286   9.209  1.00  0.00    -0.493 OA
ATOM     21  C   UNL     1      -7.906   1.134   8.377  1.00  0.00     0.278 C 
ENDBRANCH  14  20
ENDBRANCH   1  12
BRANCH   6  22
ATOM     22  O   UNL     1      -8.280   8.651   1.657  1.00  0.00    -0.492 OA
ATOM     23  C   UNL     1      -9.377   9.052   0.840  1.00  0.00     0.278 C 
ENDBRANCH   6  22
BRANCH   8  24
ATOM     24  O   UNL     1      -7.330   4.091   0.334  1.00  0.00    -0.493 OA
ATOM     25  C   UNL     1      -6.383   3.038   0.483  1.00  0.00     0.278 C 
ENDBRANCH   8  24
BRANCH   7  26
ATOM     26  O   UNL     1      -7.348   6.721  -0.288  1.00  0.00    -0.490 OA
ATOM     27  C   UNL     1      -6.042   7.083  -0.723  1.00  0.00     0.278 C 
ENDBRANCH   7  26
TORSDOF 6
ENDMDL
MODEL 2
REMARK VINA RESULT:    -5.390     18.082     20.608
REMARK INTER + INTRA:          -7.940
REMARK INTER:                  -7.363
REMARK INTRA:                  -0.576
REMARK UNBOUND:                -0.660
REMARK SMILES COc1ccc(-c2cc(=O)c3c(OC)c(OC)c(OC)cc3o2)cc1OC
REMARK SMILES IDX 7 1 8 2 9 3 10 4 11 5 12 6 15 7 18 8 21 9 22 10 23 11 6 12
REMARK SMILES IDX 3 13 25 14 4 15 24 16 5 17 2 18 1 19 26 20 27 21 13 22 14 23
REMARK SMILES IDX 19 24 20 25 16 26 17 27
REMARK H PARENT
REMARK Flexibility Score: inf
ROOT
ATOM      1  C   UNL     1       9.158  -4.905   7.832  1.00  0.00     0.138 A 
ATOM      2  C   UNL     1       9.654  -6.219   7.854  1.00  0.00     0.100 A 
ATOM      3  C   UNL     1       9.382  -7.074   6.786  1.00  0.00     0.197 A 
ATOM      4  O   UNL     1       9.804  -8.260   6.835  1.00  0.00    -0.289 OA
ATOM      5  C   UNL     1       8.626  -6.605   5.691  1.00  0.00     0.111 A 
ATOM      6  C   UNL     1       8.325  -7.398   4.555  1.00  0.00     0.179 A 
ATOM      7  C   UNL     1       7.463  -6.892   3.550  1.00  0.00     0.204 A 
ATOM      8  C   UNL     1       7.006  -5.567   3.627  1.00  0.00     0.168 A 
ATOM      9  C   UNL     1       7.359  -4.767   4.725  1.00  0.00     0.098 A 
ATOM     10  C   UNL     1       8.142  -5.280   5.756  1.00  0.00     0.146 A 
ATOM     11  O   UNL     1       8.425  -4.504   6.797  1.00  0.00    -0.456 OA
ENDROOT
BRANCH   1  12
ATOM     12  C   UNL     1       9.407  -3.952   8.944  1.00  0.00     0.021 A 
ATOM     13  C   UNL     1       9.885  -2.094  11.015  1.00  0.00     0.160 A 
ATOM     14  C   UNL     1       9.432  -1.647   9.766  1.00  0.00     0.161 A 
ATOM     15  C   UNL     1      10.107  -3.466  11.223  1.00  0.00     0.051 A 
ATOM     16  C   UNL     1       9.199  -2.577   8.735  1.00  0.00     0.062 A 
ATOM     17  C   UNL     1       9.873  -4.384  10.197  1.00  0.00     0.016 A 
BRANCH  13  18
ATOM     18  O   UNL     1      10.106  -1.142  12.024  1.00  0.00    -0.493 OA
ATOM     19  C   UNL     1       9.345  -1.047  13.224  1.00  0.00     0.278 C 
ENDBRANCH  13  18
BRANCH  14  20
ATOM     20  O   UNL     1       9.224  -0.270   9.588  1.00  0.00    -0.493 OA
ATOM     21  C   UNL     1       7.959   0.376   9.692  1.00  0.00     0.278 C 
ENDBRANCH  14  20
ENDBRANCH   1  12
BRANCH   6  22
ATOM     22  O   UNL     1       8.901  -8.662   4.408  1.00  0.00    -0.492 OA
ATOM     23  C   UNL     1       8.116  -9.844   4.537  1.00  0.00     0.278 C 
ENDBRANCH   6  22
BRANCH   8  24
ATOM     24  O   UNL     1       6.190  -5.086   2.590  1.00  0.00    -0.493 OA
ATOM     25  C   UNL     1       6.637  -4.238   1.537  1.00  0.00     0.278 C 
ENDBRANCH   8  24
BRANCH   7  26
ATOM     26  O   UNL     1       7.021  -7.653   2.452  1.00  0.00    -0.490 OA
ATOM     27  C   UNL     1       7.744  -7.873   1.246  1.00  0.00     0.278 C 
ENDBRANCH   7  26
TORSDOF 6
ENDMDL
MODEL 3
REMARK VINA RESULT:    -5.371      1.745      2.576
REMARK INTER + INTRA:          -7.915
REMARK INTER:                  -7.392
REMARK INTRA:                  -0.523
REMARK UNBOUND:                -0.660
REMARK SMILES COc1ccc(-c2cc(=O)c3c(OC)c(OC)c(OC)cc3o2)cc1OC
REMARK SMILES IDX 7 1 8 2 9 3 10 4 11 5 12 6 15 7 18 8 21 9 22 10 23 11 6 12
REMARK SMILES IDX 3 13 25 14 4 15 24 16 5 17 2 18 1 19 26 20 27 21 13 22 14 23
REMARK SMILES IDX 19 24 20 25 16 26 17 27
REMARK H PARENT
REMARK Flexibility Score: inf
ROOT
ATOM      1  C   UNL     1      -9.191   4.967   7.947  1.00  0.00     0.138 A 
ATOM      2  C   UNL     1      -9.665   6.288   7.944  1.00  0.00     0.100 A 
ATOM      3  C   UNL     1      -9.406   7.108   6.844  1.00  0.00     0.197 A 
ATOM      4  O   UNL     1      -9.807   8.302   6.870  1.00  0.00    -0.289 OA
ATOM      5  C   UNL     1      -8.686   6.595   5.744  1.00  0.00     0.111 A 
ATOM      6  C   UNL     1      -8.402   7.350   4.579  1.00  0.00     0.179 A 
ATOM      7  C   UNL     1      -7.574   6.800   3.568  1.00  0.00     0.204 A 
ATOM      8  C   UNL     1      -7.138   5.470   3.671  1.00  0.00     0.168 A 
ATOM      9  C   UNL     1      -7.475   4.708   4.801  1.00  0.00     0.098 A 
ATOM     10  C   UNL     1      -8.223   5.264   5.836  1.00  0.00     0.146 A 
ATOM     11  O   UNL     1      -8.492   4.523   6.906  1.00  0.00    -0.456 OA
ENDROOT
BRANCH   1  12
ATOM     12  C   UNL     1      -9.427   4.050   9.092  1.00  0.00     0.021 A 
ATOM     13  C   UNL     1      -9.888   2.262  11.228  1.00  0.00     0.160 A 
ATOM     14  C   UNL     1      -9.567   1.765   9.957  1.00  0.00     0.161 A 
ATOM     15  C   UNL     1      -9.986   3.650  11.426  1.00  0.00     0.051 A 
ATOM     16  C   UNL     1      -9.343   2.661   8.894  1.00  0.00     0.062 A 
ATOM     17  C   UNL     1      -9.762   4.534  10.369  1.00  0.00     0.016 A 
BRANCH  13  18
ATOM     18  O   UNL     1     -10.104   1.343  12.269  1.00  0.00    -0.493 OA
ATOM     19  C   UNL     1      -9.355   1.305  13.479  1.00  0.00     0.278 C 
ENDBRANCH  13  18
BRANCH  14  20
ATOM     20  O   UNL     1      -9.480   0.374   9.789  1.00  0.00    -0.493 OA
ATOM     21  C   UNL     1      -8.259  -0.355   9.706  1.00  0.00     0.278 C 
ENDBRANCH  14  20
ENDBRANCH   1  12
BRANCH   6  22
ATOM     22  O   UNL     1      -8.960   8.619   4.410  1.00  0.00    -0.492 OA
ATOM     23  C   UNL     1      -8.156   9.791   4.502  1.00  0.00     0.278 C 
ENDBRANCH   6  22
BRANCH   8  24
ATOM     24  O   UNL     1      -6.357   4.945   2.629  1.00  0.00    -0.493 OA
ATOM     25  C   UNL     1      -5.483   3.829   2.758  1.00  0.00     0.278 C 
ENDBRANCH   8  24
BRANCH   7  26
ATOM     26  O   UNL     1      -7.149   7.522   2.438  1.00  0.00    -0.490 OA
ATOM     27  C   UNL     1      -7.902   7.727   1.247  1.00  0.00     0.278 C 
ENDBRANCH   7  26
TORSDOF 6
ENDMDL
MODEL 4
REMARK VINA RESULT:    -5.280      8.236     11.922
REMARK INTER + INTRA:          -7.792
REMARK INTER:                  -7.144
REMARK INTRA:                  -0.648
REMARK UNBOUND:                -0.660
REMARK SMILES COc1ccc(-c2cc(=O)c3c(OC)c(OC)c(OC)cc3o2)cc1OC
REMARK SMILES IDX 7 1 8 2 9 3 10 4 11 5 12 6 15 7 18 8 21 9 22 10 23 11 6 12
REMARK SMILES IDX 3 13 25 14 4 15 24 16 5 17 2 18 1 19 26 20 27 21 13 22 14 23
REMARK SMILES IDX 19 24 20 25 16 26 17 27
REMARK H PARENT
REMARK Flexibility Score: inf
ROOT
ATOM      1  C   UNL     1       0.250  -0.011   2.667  1.00  0.00     0.138 A 
ATOM      2  C   UNL     1      -0.088  -1.300   2.226  1.00  0.00     0.100 A 
ATOM      3  C   UNL     1      -1.428  -1.683   2.186  1.00  0.00     0.197 A 
ATOM      4  O   UNL     1      -1.715  -2.854   1.821  1.00  0.00    -0.289 OA
ATOM      5  C   UNL     1      -2.429  -0.766   2.574  1.00  0.00     0.111 A 
ATOM      6  C   UNL     1      -3.814  -1.065   2.540  1.00  0.00     0.179 A 
ATOM      7  C   UNL     1      -4.749  -0.131   3.056  1.00  0.00     0.204 A 
ATOM      8  C   UNL     1      -4.308   1.129   3.489  1.00  0.00     0.168 A 
ATOM      9  C   UNL     1      -2.940   1.440   3.462  1.00  0.00     0.098 A 
ATOM     10  C   UNL     1      -2.006   0.501   3.030  1.00  0.00     0.146 A 
ATOM     11  O   UNL     1      -0.716   0.819   3.052  1.00  0.00    -0.456 OA
ENDROOT
BRANCH   1  12
ATOM     12  C   UNL     1       1.660   0.451   2.741  1.00  0.00     0.021 A 
ATOM     13  C   UNL     1       4.332   1.360   2.828  1.00  0.00     0.160 A 
ATOM     14  C   UNL     1       3.379   2.061   2.075  1.00  0.00     0.161 A 
ATOM     15  C   UNL     1       3.949   0.203   3.527  1.00  0.00     0.051 A 
ATOM     16  C   UNL     1       2.049   1.600   2.031  1.00  0.00     0.062 A 
ATOM     17  C   UNL     1       2.629  -0.248   3.482  1.00  0.00     0.016 A 
BRANCH  13  18
ATOM     18  O   UNL     1       5.650   1.845   2.853  1.00  0.00    -0.493 OA
ATOM     19  C   UNL     1       6.810   1.023   2.931  1.00  0.00     0.278 C 
ENDBRANCH  13  18
BRANCH  14  20
ATOM     20  O   UNL     1       3.792   3.211   1.383  1.00  0.00    -0.493 OA
ATOM     21  C   UNL     1       4.145   3.240   0.003  1.00  0.00     0.278 C 
ENDBRANCH  14  20
ENDBRANCH   1  12
BRANCH   6  22
ATOM     22  O   UNL     1      -4.262  -2.259   1.972  1.00  0.00    -0.492 OA
ATOM     23  C   UNL     1      -4.876  -2.274   0.686  1.00  0.00     0.278 C 
ENDBRANCH   6  22
BRANCH   8  24
ATOM     24  O   UNL     1      -5.268   2.044   3.952  1.00  0.00    -0.493 OA
ATOM     25  C   UNL     1      -5.645   3.235   3.267  1.00  0.00     0.278 C 
ENDBRANCH   8  24
BRANCH   7  26
ATOM     26  O   UNL     1      -6.126  -0.396   3.167  1.00  0.00    -0.490 OA
ATOM     27  C   UNL     1      -6.747  -1.166   4.190  1.00  0.00     0.278 C 
ENDBRANCH   7  26
TORSDOF 6
ENDMDL
MODEL 5
REMARK VINA RESULT:    -5.255      9.530     12.198
REMARK INTER + INTRA:          -7.758
REMARK INTER:                  -7.124
REMARK INTRA:                  -0.634
REMARK UNBOUND:                -0.660
REMARK SMILES COc1ccc(-c2cc(=O)c3c(OC)c(OC)c(OC)cc3o2)cc1OC
REMARK SMILES IDX 7 1 8 2 9 3 10 4 11 5 12 6 15 7 18 8 21 9 22 10 23 11 6 12
REMARK SMILES IDX 3 13 25 14 4 15 24 16 5 17 2 18 1 19 26 20 27 21 13 22 14 23
REMARK SMILES IDX 19 24 20 25 16 26 17 27
REMARK H PARENT
REMARK Flexibility Score: inf
ROOT
ATOM      1  C   UNL     1      -0.218   0.226   2.658  1.00  0.00     0.138 A 
ATOM      2  C   UNL     1       0.141   1.480   2.140  1.00  0.00     0.100 A 
ATOM      3  C   UNL     1       1.484   1.856   2.121  1.00  0.00     0.197 A 
ATOM      4  O   UNL     1       1.789   2.999   1.685  1.00  0.00    -0.289 OA
ATOM      5  C   UNL     1       2.466   0.967   2.609  1.00  0.00     0.111 A 
ATOM      6  C   UNL     1       3.853   1.259   2.604  1.00  0.00     0.179 A 
ATOM      7  C   UNL     1       4.764   0.362   3.217  1.00  0.00     0.204 A 
ATOM      8  C   UNL     1       4.302  -0.864   3.722  1.00  0.00     0.168 A 
ATOM      9  C   UNL     1       2.934  -1.173   3.667  1.00  0.00     0.098 A 
ATOM     10  C   UNL     1       2.021  -0.265   3.136  1.00  0.00     0.146 A 
ATOM     11  O   UNL     1       0.729  -0.577   3.135  1.00  0.00    -0.456 OA
ENDROOT
BRANCH   1  12
ATOM     12  C   UNL     1      -1.632  -0.227   2.712  1.00  0.00     0.021 A 
ATOM     13  C   UNL     1      -4.311  -1.118   2.763  1.00  0.00     0.160 A 
ATOM     14  C   UNL     1      -3.354  -1.823   2.021  1.00  0.00     0.161 A 
ATOM     15  C   UNL     1      -3.929   0.035   3.470  1.00  0.00     0.051 A 
ATOM     16  C   UNL     1      -2.020  -1.372   1.995  1.00  0.00     0.062 A 
ATOM     17  C   UNL     1      -2.606   0.478   3.442  1.00  0.00     0.016 A 
BRANCH  13  18
ATOM     18  O   UNL     1      -5.633  -1.594   2.771  1.00  0.00    -0.493 OA
ATOM     19  C   UNL     1      -6.787  -0.767   2.885  1.00  0.00     0.278 C 
ENDBRANCH  13  18
BRANCH  14  20
ATOM     20  O   UNL     1      -3.766  -2.969   1.322  1.00  0.00    -0.493 OA
ATOM     21  C   UNL     1      -4.121  -2.989  -0.058  1.00  0.00     0.278 C 
ENDBRANCH  14  20
ENDBRANCH   1  12
BRANCH   6  22
ATOM     22  O   UNL     1       4.326   2.409   1.970  1.00  0.00    -0.492 OA
ATOM     23  C   UNL     1       5.000   2.331   0.717  1.00  0.00     0.278 C 
ENDBRANCH   6  22
BRANCH   8  24
ATOM     24  O   UNL     1       5.240  -1.746   4.282  1.00  0.00    -0.493 OA
ATOM     25  C   UNL     1       5.796  -2.869   3.606  1.00  0.00     0.278 C 
ENDBRANCH   8  24
BRANCH   7  26
ATOM     26  O   UNL     1       6.138   0.631   3.360  1.00  0.00    -0.490 OA
ATOM     27  C   UNL     1       6.727   1.453   4.361  1.00  0.00     0.278 C 
ENDBRANCH   7  26
TORSDOF 6
ENDMDL
MODEL 6
REMARK VINA RESULT:    -5.214      4.870      9.104
REMARK INTER + INTRA:          -7.703
REMARK INTER:                  -7.036
REMARK INTRA:                  -0.667
REMARK UNBOUND:                -0.660
REMARK SMILES COc1ccc(-c2cc(=O)c3c(OC)c(OC)c(OC)cc3o2)cc1OC
REMARK SMILES IDX 7 1 8 2 9 3 10 4 11 5 12 6 15 7 18 8 21 9 22 10 23 11 6 12
REMARK SMILES IDX 3 13 25 14 4 15 24 16 5 17 2 18 1 19 26 20 27 21 13 22 14 23
REMARK SMILES IDX 19 24 20 25 16 26 17 27
REMARK H PARENT
REMARK Flexibility Score: inf
ROOT
ATOM      1  C   UNL     1      -6.427   1.841   2.395  1.00  0.00     0.138 A 
ATOM      2  C   UNL     1      -5.873   1.802   3.684  1.00  0.00     0.100 A 
ATOM      3  C   UNL     1      -5.210   0.652   4.112  1.00  0.00     0.197 A 
ATOM      4  O   UNL     1      -4.748   0.618   5.284  1.00  0.00    -0.289 OA
ATOM      5  C   UNL     1      -5.092  -0.452   3.241  1.00  0.00     0.111 A 
ATOM      6  C   UNL     1      -4.415  -1.648   3.586  1.00  0.00     0.179 A 
ATOM      7  C   UNL     1      -4.440  -2.754   2.699  1.00  0.00     0.204 A 
ATOM      8  C   UNL     1      -5.035  -2.619   1.435  1.00  0.00     0.168 A 
ATOM      9  C   UNL     1      -5.650  -1.410   1.075  1.00  0.00     0.098 A 
ATOM     10  C   UNL     1      -5.698  -0.344   1.970  1.00  0.00     0.146 A 
ATOM     11  O   UNL     1      -6.321   0.773   1.609  1.00  0.00    -0.456 OA
ENDROOT
BRANCH   1  12
ATOM     12  C   UNL     1      -7.152   3.034   1.886  1.00  0.00     0.021 A 
ATOM     13  C   UNL     1      -8.475   5.325   0.898  1.00  0.00     0.160 A 
ATOM     14  C   UNL     1      -7.222   4.964   0.383  1.00  0.00     0.161 A 
ATOM     15  C   UNL     1      -9.059   4.545   1.911  1.00  0.00     0.051 A 
ATOM     16  C   UNL     1      -6.564   3.824   0.882  1.00  0.00     0.062 A 
ATOM     17  C   UNL     1      -8.403   3.414   2.402  1.00  0.00     0.016 A 
BRANCH  13  18
ATOM     18  O   UNL     1      -9.107   6.466   0.379  1.00  0.00    -0.493 OA
ATOM     19  C   UNL     1      -9.271   7.690   1.088  1.00  0.00     0.278 C 
ENDBRANCH  13  18
BRANCH  14  20
ATOM     20  O   UNL     1      -6.662   5.765  -0.625  1.00  0.00    -0.493 OA
ATOM     21  C   UNL     1      -5.668   6.761  -0.407  1.00  0.00     0.278 C 
ENDBRANCH  14  20
ENDBRANCH   1  12
BRANCH   6  22
ATOM     22  O   UNL     1      -3.697  -1.729   4.782  1.00  0.00    -0.492 OA
ATOM     23  C   UNL     1      -2.274  -1.666   4.788  1.00  0.00     0.278 C 
ENDBRANCH   6  22
BRANCH   8  24
ATOM     24  O   UNL     1      -5.001  -3.721   0.565  1.00  0.00    -0.493 OA
ATOM     25  C   UNL     1      -5.296  -3.661  -0.827  1.00  0.00     0.278 C 
ENDBRANCH   8  24
BRANCH   7  26
ATOM     26  O   UNL     1      -3.895  -4.012   3.014  1.00  0.00    -0.490 OA
ATOM     27  C   UNL     1      -4.515  -5.012   3.815  1.00  0.00     0.278 C 
ENDBRANCH   7  26
TORSDOF 6
ENDMDL
MODEL 7
REMARK VINA RESULT:    -5.196      4.260      7.139
REMARK INTER + INTRA:          -7.679
REMARK INTER:                  -6.984
REMARK INTRA:                  -0.694
REMARK UNBOUND:                -0.660
REMARK SMILES COc1ccc(-c2cc(=O)c3c(OC)c(OC)c(OC)cc3o2)cc1OC
REMARK SMILES IDX 7 1 8 2 9 3 10 4 11 5 12 6 15 7 18 8 21 9 22 10 23 11 6 12
REMARK SMILES IDX 3 13 25 14 4 15 24 16 5 17 2 18 1 19 26 20 27 21 13 22 14 23
REMARK SMILES IDX 19 24 20 25 16 26 17 27
REMARK H PARENT
REMARK Flexibility Score: inf
ROOT
ATOM      1  C   UNL     1      -6.062   1.247   2.869  1.00  0.00     0.138 A 
ATOM      2  C   UNL     1      -6.201   1.922   4.092  1.00  0.00     0.100 A 
ATOM      3  C   UNL     1      -6.663   3.239   4.101  1.00  0.00     0.197 A 
ATOM      4  O   UNL     1      -6.750   3.844   5.203  1.00  0.00    -0.289 OA
ATOM      5  C   UNL     1      -6.998   3.870   2.884  1.00  0.00     0.111 A 
ATOM      6  C   UNL     1      -7.497   5.195   2.805  1.00  0.00     0.179 A 
ATOM      7  C   UNL     1      -7.699   5.797   1.538  1.00  0.00     0.204 A 
ATOM      8  C   UNL     1      -7.517   5.040   0.370  1.00  0.00     0.168 A 
ATOM      9  C   UNL     1      -7.081   3.708   0.458  1.00  0.00     0.098 A 
ATOM     10  C   UNL     1      -6.805   3.132   1.696  1.00  0.00     0.146 A 
ATOM     11  O   UNL     1      -6.360   1.881   1.738  1.00  0.00    -0.456 OA
ENDROOT
BRANCH   1  12
ATOM     12  C   UNL     1      -5.567  -0.152   2.795  1.00  0.00     0.021 A 
ATOM     13  C   UNL     1      -4.664  -2.821   2.608  1.00  0.00     0.160 A 
ATOM     14  C   UNL     1      -5.277  -2.211   1.504  1.00  0.00     0.161 A 
ATOM     15  C   UNL     1      -4.512  -2.099   3.804  1.00  0.00     0.051 A 
ATOM     16  C   UNL     1      -5.729  -0.881   1.605  1.00  0.00     0.062 A 
ATOM     17  C   UNL     1      -4.961  -0.780   3.898  1.00  0.00     0.016 A 
BRANCH  13  18
ATOM     18  O   UNL     1      -4.222  -4.147   2.476  1.00  0.00    -0.493 OA
ATOM     19  C   UNL     1      -4.488  -5.183   3.416  1.00  0.00     0.278 C 
ENDBRANCH  13  18
BRANCH  14  20
ATOM     20  O   UNL     1      -5.419  -2.958   0.325  1.00  0.00    -0.493 OA
ATOM     21  C   UNL     1      -4.602  -2.804  -0.833  1.00  0.00     0.278 C 
ENDBRANCH  14  20
ENDBRANCH   1  12
BRANCH   6  22
ATOM     22  O   UNL     1      -7.819   5.894   3.970  1.00  0.00    -0.492 OA
ATOM     23  C   UNL     1      -9.174   6.056   4.376  1.00  0.00     0.278 C 
ENDBRANCH   6  22
BRANCH   8  24
ATOM     24  O   UNL     1      -7.770   5.656  -0.867  1.00  0.00    -0.493 OA
ATOM     25  C   UNL     1      -8.866   5.339  -1.718  1.00  0.00     0.278 C 
ENDBRANCH   8  24
BRANCH   7  26
ATOM     26  O   UNL     1      -8.079   7.141   1.371  1.00  0.00    -0.490 OA
ATOM     27  C   UNL     1      -7.212   8.267   1.445  1.00  0.00     0.278 C 
ENDBRANCH   7  26
TORSDOF 6
ENDMDL
MODEL 8
REMARK VINA RESULT:    -5.183     14.213     17.285
REMARK INTER + INTRA:          -7.661
REMARK INTER:                  -6.994
REMARK INTRA:                  -0.668
REMARK UNBOUND:                -0.660
REMARK SMILES COc1ccc(-c2cc(=O)c3c(OC)c(OC)c(OC)cc3o2)cc1OC
REMARK SMILES IDX 7 1 8 2 9 3 10 4 11 5 12 6 15 7 18 8 21 9 22 10 23 11 6 12
REMARK SMILES IDX 3 13 25 14 4 15 24 16 5 17 2 18 1 19 26 20 27 21 13 22 14 23
REMARK SMILES IDX 19 24 20 25 16 26 17 27
REMARK H PARENT
REMARK Flexibility Score: inf
ROOT
ATOM      1  C   UNL     1       6.547  -1.842   2.391  1.00  0.00     0.138 A 
ATOM      2  C   UNL     1       6.033  -1.839   3.697  1.00  0.00     0.100 A 
ATOM      3  C   UNL     1       5.367  -0.709   4.170  1.00  0.00     0.197 A 
ATOM      4  O   UNL     1       4.940  -0.708   5.356  1.00  0.00    -0.289 OA
ATOM      5  C   UNL     1       5.205   0.411   3.327  1.00  0.00     0.111 A 
ATOM      6  C   UNL     1       4.521   1.589   3.720  1.00  0.00     0.179 A 
ATOM      7  C   UNL     1       4.502   2.714   2.857  1.00  0.00     0.204 A 
ATOM      8  C   UNL     1       5.060   2.616   1.572  1.00  0.00     0.168 A 
ATOM      9  C   UNL     1       5.682   1.424   1.168  1.00  0.00     0.098 A 
ATOM     10  C   UNL     1       5.774   0.340   2.037  1.00  0.00     0.146 A 
ATOM     11  O   UNL     1       6.402  -0.759   1.632  1.00  0.00    -0.456 OA
ENDROOT
BRANCH   1  12
ATOM     12  C   UNL     1       7.274  -3.012   1.834  1.00  0.00     0.021 A 
ATOM     13  C   UNL     1       8.601  -5.260   0.756  1.00  0.00     0.160 A 
ATOM     14  C   UNL     1       7.326  -4.910   0.289  1.00  0.00     0.161 A 
ATOM     15  C   UNL     1       9.204  -4.491   1.766  1.00  0.00     0.051 A 
ATOM     16  C   UNL     1       6.667  -3.791   0.834  1.00  0.00     0.062 A 
ATOM     17  C   UNL     1       8.547  -3.382   2.301  1.00  0.00     0.016 A 
BRANCH  13  18
ATOM     18  O   UNL     1       9.233  -6.380   0.193  1.00  0.00    -0.493 OA
ATOM     19  C   UNL     1       9.417  -7.624   0.862  1.00  0.00     0.278 C 
ENDBRANCH  13  18
BRANCH  14  20
ATOM     20  O   UNL     1       6.746  -5.699  -0.717  1.00  0.00    -0.493 OA
ATOM     21  C   UNL     1       5.698  -6.639  -0.502  1.00  0.00     0.278 C 
ENDBRANCH  14  20
ENDBRANCH   1  12
BRANCH   6  22
ATOM     22  O   UNL     1       3.839   1.633   4.938  1.00  0.00    -0.492 OA
ATOM     23  C   UNL     1       2.419   1.538   4.986  1.00  0.00     0.278 C 
ENDBRANCH   6  22
BRANCH   8  24
ATOM     24  O   UNL     1       4.983   3.736   0.728  1.00  0.00    -0.493 OA
ATOM     25  C   UNL     1       5.501   3.786  -0.597  1.00  0.00     0.278 C 
ENDBRANCH   8  24
BRANCH   7  26
ATOM     26  O   UNL     1       3.948   3.956   3.215  1.00  0.00    -0.490 OA
ATOM     27  C   UNL     1       4.566   4.937   4.043  1.00  0.00     0.278 C 
ENDBRANCH   7  26
TORSDOF 6
ENDMDL
MODEL 9
REMARK VINA RESULT:    -5.139     14.820     18.018
REMARK INTER + INTRA:          -7.602
REMARK INTER:                  -6.905
REMARK INTRA:                  -0.696
REMARK UNBOUND:                -0.660
REMARK SMILES COc1ccc(-c2cc(=O)c3c(OC)c(OC)c(OC)cc3o2)cc1OC
REMARK SMILES IDX 7 1 8 2 9 3 10 4 11 5 12 6 15 7 18 8 21 9 22 10 23 11 6 12
REMARK SMILES IDX 3 13 25 14 4 15 24 16 5 17 2 18 1 19 26 20 27 21 13 22 14 23
REMARK SMILES IDX 19 24 20 25 16 26 17 27
REMARK H PARENT
REMARK Flexibility Score: inf
ROOT
ATOM      1  C   UNL     1       6.033  -1.117   2.842  1.00  0.00     0.138 A 
ATOM      2  C   UNL     1       6.187  -1.780   4.069  1.00  0.00     0.100 A 
ATOM      3  C   UNL     1       6.673  -3.088   4.086  1.00  0.00     0.197 A 
ATOM      4  O   UNL     1       6.773  -3.684   5.192  1.00  0.00    -0.289 OA
ATOM      5  C   UNL     1       7.017  -3.722   2.873  1.00  0.00     0.111 A 
ATOM      6  C   UNL     1       7.540  -5.037   2.802  1.00  0.00     0.179 A 
ATOM      7  C   UNL     1       7.752  -5.644   1.539  1.00  0.00     0.204 A 
ATOM      8  C   UNL     1       7.553  -4.899   0.366  1.00  0.00     0.168 A 
ATOM      9  C   UNL     1       7.094  -3.575   0.446  1.00  0.00     0.098 A 
ATOM     10  C   UNL     1       6.809  -2.996   1.680  1.00  0.00     0.146 A 
ATOM     11  O   UNL     1       6.341  -1.752   1.715  1.00  0.00    -0.456 OA
ENDROOT
BRANCH   1  12
ATOM     12  C   UNL     1       5.513   0.273   2.759  1.00  0.00     0.021 A 
ATOM     13  C   UNL     1       4.564   2.925   2.558  1.00  0.00     0.160 A 
ATOM     14  C   UNL     1       5.266   2.350   1.489  1.00  0.00     0.161 A 
ATOM     15  C   UNL     1       4.347   2.176   3.727  1.00  0.00     0.051 A 
ATOM     16  C   UNL     1       5.741   1.028   1.596  1.00  0.00     0.062 A 
ATOM     17  C   UNL     1       4.818   0.866   3.828  1.00  0.00     0.016 A 
BRANCH  13  18
ATOM     18  O   UNL     1       4.102   4.244   2.420  1.00  0.00    -0.493 OA
ATOM     19  C   UNL     1       4.571   5.347   3.188  1.00  0.00     0.278 C 
ENDBRANCH  13  18
BRANCH  14  20
ATOM     20  O   UNL     1       5.472   3.124   0.336  1.00  0.00    -0.493 OA
ATOM     21  C   UNL     1       4.679   3.042  -0.845  1.00  0.00     0.278 C 
ENDBRANCH  14  20
ENDBRANCH   1  12
BRANCH   6  22
ATOM     22  O   UNL     1       7.877  -5.723   3.971  1.00  0.00    -0.492 OA
ATOM     23  C   UNL     1       9.238  -5.884   4.360  1.00  0.00     0.278 C 
ENDBRANCH   6  22
BRANCH   8  24
ATOM     24  O   UNL     1       7.816  -5.520  -0.866  1.00  0.00    -0.493 OA
ATOM     25  C   UNL     1       8.952  -5.250  -1.681  1.00  0.00     0.278 C 
ENDBRANCH   8  24
BRANCH   7  26
ATOM     26  O   UNL     1       8.156  -6.983   1.380  1.00  0.00    -0.490 OA
ATOM     27  C   UNL     1       7.318  -8.127   1.508  1.00  0.00     0.278 C 
ENDBRANCH   7  26
TORSDOF 6
ENDMDL
