MODEL 1
REMARK VINA RESULT:    -5.991      0.000      0.000
REMARK INTER + INTRA:          -6.628
REMARK INTER:                  -6.516
REMARK INTRA:                  -0.112
REMARK UNBOUND:                -0.112
REMARK SMILES Cc1ccc(C(C)C)cc1O
REMARK SMILES IDX 1 1 2 2 10 3 9 4 5 5 4 6 3 7 11 8 6 10 7 11 8 12
REMARK H PARENT 11 9
REMARK Flexibility Score: inf
ROOT
ATOM      1  C   UNL     1       9.960   7.371  -5.951  1.00  0.00     0.048 C 
ATOM      2  C   UNL     1       9.655   6.681  -4.651  1.00  0.00    -0.009 A 
ATOM      3  C   UNL     1       9.781   7.356  -3.417  1.00  0.00     0.118 A 
ATOM      4  C   UNL     1       9.488   6.686  -2.223  1.00  0.00     0.050 A 
ATOM      5  C   UNL     1       9.069   5.343  -2.233  1.00  0.00    -0.042 A 
ATOM      6  C   UNL     1       8.948   4.679  -3.464  1.00  0.00     0.004 A 
ATOM      7  C   UNL     1       9.236   5.340  -4.658  1.00  0.00     0.007 A 
ENDROOT
BRANCH   3   8
ATOM      8  O   UNL     1      10.191   8.689  -3.343  1.00  0.00    -0.508 OA
ATOM      9  H   UNL     1      10.910   9.011  -2.707  1.00  0.00     0.293 HD
ENDBRANCH   3   8
BRANCH   5  10
ATOM     10  C   UNL     1       8.752   4.611  -0.942  1.00  0.00     0.013 C 
ATOM     11  C   UNL     1       8.632   5.590   0.233  1.00  0.00     0.012 C 
ATOM     12  C   UNL     1       9.795   3.526  -0.651  1.00  0.00     0.012 C 
ENDBRANCH   5  10
TORSDOF 2
ENDMDL
MODEL 2
REMARK VINA RESULT:    -5.698      1.549      2.729
REMARK INTER + INTRA:          -6.309
REMARK INTER:                  -6.189
REMARK INTRA:                  -0.121
REMARK UNBOUND:                -0.112
REMARK SMILES Cc1ccc(C(C)C)cc1O
REMARK SMILES IDX 1 1 2 2 10 3 9 4 5 5 4 6 3 7 11 8 6 10 7 11 8 12
REMARK H PARENT 11 9
REMARK Flexibility Score: inf
ROOT
ATOM      1  C   UNL     1       8.200   9.386  -1.670  1.00  0.00     0.048 C 
ATOM      2  C   UNL     1       8.628   7.955  -1.838  1.00  0.00    -0.009 A 
ATOM      3  C   UNL     1       9.630   7.596  -2.767  1.00  0.00     0.118 A 
ATOM      4  C   UNL     1      10.007   6.254  -2.900  1.00  0.00     0.050 A 
ATOM      5  C   UNL     1       9.402   5.252  -2.119  1.00  0.00    -0.042 A 
ATOM      6  C   UNL     1       8.407   5.619  -1.199  1.00  0.00     0.004 A 
ATOM      7  C   UNL     1       8.025   6.954  -1.059  1.00  0.00     0.007 A 
ENDROOT
BRANCH   3   8
ATOM      8  O   UNL     1      10.267   8.544  -3.570  1.00  0.00    -0.508 OA
ATOM      9  H   UNL     1      10.750   9.350  -3.194  1.00  0.00     0.293 HD
ENDBRANCH   3   8
BRANCH   5  10
ATOM     10  C   UNL     1       9.806   3.797  -2.259  1.00  0.00     0.013 C 
ATOM     11  C   UNL     1      10.124   3.177  -0.893  1.00  0.00     0.012 C 
ATOM     12  C   UNL     1      10.988   3.642  -3.223  1.00  0.00     0.012 C 
ENDBRANCH   5  10
TORSDOF 2
ENDMDL
MODEL 3
REMARK VINA RESULT:    -5.628      2.142      4.687
REMARK INTER + INTRA:          -6.233
REMARK INTER:                  -6.107
REMARK INTRA:                  -0.126
REMARK UNBOUND:                -0.112
REMARK SMILES Cc1ccc(C(C)C)cc1O
REMARK SMILES IDX 1 1 2 2 10 3 9 4 5 5 4 6 3 7 11 8 6 10 7 11 8 12
REMARK H PARENT 11 9
REMARK Flexibility Score: inf
ROOT
ATOM      1  C   UNL     1       9.982   3.248  -0.652  1.00  0.00     0.048 C 
ATOM      2  C   UNL     1       9.895   4.137  -1.860  1.00  0.00    -0.009 A 
ATOM      3  C   UNL     1      10.722   3.925  -2.986  1.00  0.00     0.118 A 
ATOM      4  C   UNL     1      10.616   4.771  -4.097  1.00  0.00     0.050 A 
ATOM      5  C   UNL     1       9.695   5.834  -4.110  1.00  0.00    -0.042 A 
ATOM      6  C   UNL     1       8.877   6.037  -2.987  1.00  0.00     0.004 A 
ATOM      7  C   UNL     1       8.976   5.199  -1.876  1.00  0.00     0.007 A 
ENDROOT
BRANCH   3   8
ATOM      8  O   UNL     1      11.655   2.887  -3.032  1.00  0.00    -0.508 OA
ATOM      9  H   UNL     1      12.267   2.660  -2.259  1.00  0.00     0.293 HD
ENDBRANCH   3   8
BRANCH   5  10
ATOM     10  C   UNL     1       9.577   6.753  -5.311  1.00  0.00     0.013 C 
ATOM     11  C   UNL     1      10.884   6.786  -6.113  1.00  0.00     0.012 C 
ATOM     12  C   UNL     1       9.154   8.165  -4.888  1.00  0.00     0.012 C 
ENDBRANCH   5  10
TORSDOF 2
ENDMDL
MODEL 4
REMARK VINA RESULT:    -5.613      1.773      4.303
REMARK INTER + INTRA:          -6.217
REMARK INTER:                  -6.119
REMARK INTRA:                  -0.099
REMARK UNBOUND:                -0.112
REMARK SMILES Cc1ccc(C(C)C)cc1O
REMARK SMILES IDX 1 1 2 2 10 3 9 4 5 5 4 6 3 7 11 8 6 10 7 11 8 12
REMARK H PARENT 11 9
REMARK Flexibility Score: inf
ROOT
ATOM      1  C   UNL     1      10.110   3.267  -1.003  1.00  0.00     0.048 C 
ATOM      2  C   UNL     1       9.956   4.261  -2.120  1.00  0.00    -0.009 A 
ATOM      3  C   UNL     1      10.611   5.512  -2.081  1.00  0.00     0.118 A 
ATOM      4  C   UNL     1      10.448   6.416  -3.138  1.00  0.00     0.050 A 
ATOM      5  C   UNL     1       9.638   6.097  -4.243  1.00  0.00    -0.042 A 
ATOM      6  C   UNL     1       8.991   4.851  -4.273  1.00  0.00     0.004 A 
ATOM      7  C   UNL     1       9.149   3.944  -3.225  1.00  0.00     0.007 A 
ENDROOT
BRANCH   3   8
ATOM      8  O   UNL     1      11.427   5.886  -1.012  1.00  0.00    -0.508 OA
ATOM      9  H   UNL     1      12.427   5.733  -1.001  1.00  0.00     0.293 HD
ENDBRANCH   3   8
BRANCH   5  10
ATOM     10  C   UNL     1       9.458   7.073  -5.390  1.00  0.00     0.013 C 
ATOM     11  C   UNL     1      10.738   7.185  -6.228  1.00  0.00     0.012 C 
ATOM     12  C   UNL     1       9.010   8.448  -4.882  1.00  0.00     0.012 C 
ENDBRANCH   5  10
TORSDOF 2
ENDMDL
MODEL 5
REMARK VINA RESULT:    -5.538      2.190      3.517
REMARK INTER + INTRA:          -6.136
REMARK INTER:                  -6.011
REMARK INTRA:                  -0.125
REMARK UNBOUND:                -0.112
REMARK SMILES Cc1ccc(C(C)C)cc1O
REMARK SMILES IDX 1 1 2 2 10 3 9 4 5 5 4 6 3 7 11 8 6 10 7 11 8 12
REMARK H PARENT 11 9
REMARK Flexibility Score: inf
ROOT
ATOM      1  C   UNL     1       7.604   8.657  -0.871  1.00  0.00     0.048 C 
ATOM      2  C   UNL     1       8.171   7.398  -1.464  1.00  0.00    -0.009 A 
ATOM      3  C   UNL     1       8.460   6.274  -0.659  1.00  0.00     0.118 A 
ATOM      4  C   UNL     1       8.986   5.116  -1.243  1.00  0.00     0.050 A 
ATOM      5  C   UNL     1       9.235   5.052  -2.626  1.00  0.00    -0.042 A 
ATOM      6  C   UNL     1       8.945   6.174  -3.419  1.00  0.00     0.004 A 
ATOM      7  C   UNL     1       8.419   7.332  -2.845  1.00  0.00     0.007 A 
ENDROOT
BRANCH   3   8
ATOM      8  O   UNL     1       8.234   6.276   0.719  1.00  0.00    -0.508 OA
ATOM      9  H   UNL     1       8.171   7.124   1.267  1.00  0.00     0.293 HD
ENDBRANCH   3   8
BRANCH   5  10
ATOM     10  C   UNL     1       9.806   3.800  -3.263  1.00  0.00     0.013 C 
ATOM     11  C   UNL     1      10.529   2.932  -2.224  1.00  0.00     0.012 C 
ATOM     12  C   UNL     1      10.735   4.148  -4.432  1.00  0.00     0.012 C 
ENDBRANCH   5  10
TORSDOF 2
ENDMDL
MODEL 6
REMARK VINA RESULT:    -5.533      1.447      4.229
REMARK INTER + INTRA:          -6.130
REMARK INTER:                  -6.009
REMARK INTRA:                  -0.121
REMARK UNBOUND:                -0.112
REMARK SMILES Cc1ccc(C(C)C)cc1O
REMARK SMILES IDX 1 1 2 2 10 3 9 4 5 5 4 6 3 7 11 8 6 10 7 11 8 12
REMARK H PARENT 11 9
REMARK Flexibility Score: inf
ROOT
ATOM      1  C   UNL     1       8.260   4.727   0.108  1.00  0.00     0.048 C 
ATOM      2  C   UNL     1       8.658   5.216  -1.256  1.00  0.00    -0.009 A 
ATOM      3  C   UNL     1       8.623   6.591  -1.581  1.00  0.00     0.118 A 
ATOM      4  C   UNL     1       9.001   7.014  -2.861  1.00  0.00     0.050 A 
ATOM      5  C   UNL     1       9.418   6.087  -3.834  1.00  0.00    -0.042 A 
ATOM      6  C   UNL     1       9.449   4.723  -3.503  1.00  0.00     0.004 A 
ATOM      7  C   UNL     1       9.075   4.293  -2.230  1.00  0.00     0.007 A 
ENDROOT
BRANCH   3   8
ATOM      8  O   UNL     1       8.220   7.557  -0.657  1.00  0.00    -0.508 OA
ATOM      9  H   UNL     1       7.249   7.779  -0.479  1.00  0.00     0.293 HD
ENDBRANCH   3   8
BRANCH   5  10
ATOM     10  C   UNL     1       9.827   6.541  -5.223  1.00  0.00     0.013 C 
ATOM     11  C   UNL     1      11.173   5.927  -5.630  1.00  0.00     0.012 C 
ATOM     12  C   UNL     1       9.868   8.070  -5.316  1.00  0.00     0.012 C 
ENDBRANCH   5  10
TORSDOF 2
ENDMDL
MODEL 7
REMARK VINA RESULT:    -5.431      2.234      4.347
REMARK INTER + INTRA:          -6.019
REMARK INTER:                  -5.891
REMARK INTRA:                  -0.128
REMARK UNBOUND:                -0.112
REMARK SMILES Cc1ccc(C(C)C)cc1O
REMARK SMILES IDX 1 1 2 2 10 3 9 4 5 5 4 6 3 7 11 8 6 10 7 11 8 12
REMARK H PARENT 11 9
REMARK Flexibility Score: inf
ROOT
ATOM      1  C   UNL     1       7.882   4.135   0.855  1.00  0.00     0.048 C 
ATOM      2  C   UNL     1       8.865   4.577  -0.194  1.00  0.00    -0.009 A 
ATOM      3  C   UNL     1       8.941   5.927  -0.603  1.00  0.00     0.118 A 
ATOM      4  C   UNL     1       9.868   6.306  -1.581  1.00  0.00     0.050 A 
ATOM      5  C   UNL     1      10.729   5.361  -2.166  1.00  0.00    -0.042 A 
ATOM      6  C   UNL     1      10.646   4.021  -1.754  1.00  0.00     0.004 A 
ATOM      7  C   UNL     1       9.726   3.634  -0.779  1.00  0.00     0.007 A 
ENDROOT
BRANCH   3   8
ATOM      8  O   UNL     1       8.113   6.911  -0.058  1.00  0.00    -0.508 OA
ATOM      9  H   UNL     1       8.227   7.271   0.880  1.00  0.00     0.293 HD
ENDBRANCH   3   8
BRANCH   5  10
ATOM     10  C   UNL     1      11.734   5.767  -3.227  1.00  0.00     0.013 C 
ATOM     11  C   UNL     1      11.258   5.356  -4.626  1.00  0.00     0.012 C 
ATOM     12  C   UNL     1      13.122   5.190  -2.925  1.00  0.00     0.012 C 
ENDBRANCH   5  10
TORSDOF 2
ENDMDL
MODEL 8
REMARK VINA RESULT:    -5.357      1.609      2.123
REMARK INTER + INTRA:          -5.939
REMARK INTER:                  -5.811
REMARK INTRA:                  -0.127
REMARK UNBOUND:                -0.112
REMARK SMILES Cc1ccc(C(C)C)cc1O
REMARK SMILES IDX 1 1 2 2 10 3 9 4 5 5 4 6 3 7 11 8 6 10 7 11 8 12
REMARK H PARENT 11 9
REMARK Flexibility Score: inf
ROOT
ATOM      1  C   UNL     1      10.541   6.951  -5.873  1.00  0.00     0.048 C 
ATOM      2  C   UNL     1      10.061   6.337  -4.587  1.00  0.00    -0.009 A 
ATOM      3  C   UNL     1      10.062   4.937  -4.399  1.00  0.00     0.118 A 
ATOM      4  C   UNL     1       9.610   4.397  -3.189  1.00  0.00     0.050 A 
ATOM      5  C   UNL     1       9.151   5.230  -2.153  1.00  0.00    -0.042 A 
ATOM      6  C   UNL     1       9.153   6.620  -2.348  1.00  0.00     0.004 A 
ATOM      7  C   UNL     1       9.604   7.167  -3.550  1.00  0.00     0.007 A 
ENDROOT
BRANCH   3   8
ATOM      8  O   UNL     1      10.506   4.060  -5.391  1.00  0.00    -0.508 OA
ATOM      9  H   UNL     1      10.363   4.225  -6.379  1.00  0.00     0.293 HD
ENDBRANCH   3   8
BRANCH   5  10
ATOM     10  C   UNL     1       8.659   4.649  -0.841  1.00  0.00     0.013 C 
ATOM     11  C   UNL     1       8.525   5.738   0.231  1.00  0.00     0.012 C 
ATOM     12  C   UNL     1       9.571   3.514  -0.361  1.00  0.00     0.012 C 
ENDBRANCH   5  10
TORSDOF 2
ENDMDL
MODEL 9
REMARK VINA RESULT:    -5.178      2.129      4.129
REMARK INTER + INTRA:          -5.743
REMARK INTER:                  -5.616
REMARK INTRA:                  -0.127
REMARK UNBOUND:                -0.112
REMARK SMILES Cc1ccc(C(C)C)cc1O
REMARK SMILES IDX 1 1 2 2 10 3 9 4 5 5 4 6 3 7 11 8 6 10 7 11 8 12
REMARK H PARENT 11 9
REMARK Flexibility Score: inf
ROOT
ATOM      1  C   UNL     1      10.279   3.273  -0.810  1.00  0.00     0.048 C 
ATOM      2  C   UNL     1       9.813   4.655  -1.174  1.00  0.00    -0.009 A 
ATOM      3  C   UNL     1      10.544   5.460  -2.075  1.00  0.00     0.118 A 
ATOM      4  C   UNL     1      10.083   6.743  -2.394  1.00  0.00     0.050 A 
ATOM      5  C   UNL     1       8.897   7.246  -1.828  1.00  0.00    -0.042 A 
ATOM      6  C   UNL     1       8.177   6.439  -0.933  1.00  0.00     0.004 A 
ATOM      7  C   UNL     1       8.629   5.159  -0.611  1.00  0.00     0.007 A 
ENDROOT
BRANCH   3   8
ATOM      8  O   UNL     1      11.727   5.017  -2.669  1.00  0.00    -0.508 OA
ATOM      9  H   UNL     1      12.463   5.643  -2.969  1.00  0.00     0.293 HD
ENDBRANCH   3   8
BRANCH   5  10
ATOM     10  C   UNL     1       8.394   8.636  -2.170  1.00  0.00     0.013 C 
ATOM     11  C   UNL     1       6.963   8.847  -1.659  1.00  0.00     0.012 C 
ATOM     12  C   UNL     1       8.486   8.903  -3.676  1.00  0.00     0.012 C 
ENDBRANCH   5  10
TORSDOF 2
ENDMDL
