MODEL 1
REMARK VINA RESULT:    -4.467      0.000      0.000
REMARK INTER + INTRA:          -5.088
REMARK INTER:                  -5.119
REMARK INTRA:                   0.031
REMARK UNBOUND:                 0.031
REMARK SMILES CC(C)[C@H]([NH3+])C(=O)[O-]
REMARK SMILES IDX 4 1 5 2 6 6 7 7 8 8 2 9 1 10 3 11
REMARK H PARENT 5 3 5 4 5 5
REMARK Flexibility Score: inf
ROOT
ATOM      1  C   UNL     1     148.299 166.261 152.739  1.00  0.00     0.230 C 
ENDROOT
BRANCH   1   2
ATOM      2  N   UNL     1     146.909 165.861 153.007  1.00  0.00    -0.350 N 
ATOM      3  H   UNL     1     146.835 165.487 153.981  1.00  0.00     0.345 HD
ATOM      4  H   UNL     1     146.622 165.103 152.345  1.00  0.00     0.345 HD
ATOM      5  H   UNL     1     146.252 166.668 152.910  1.00  0.00     0.345 HD
ENDBRANCH   1   2
BRANCH   1   6
ATOM      6  C   UNL     1     148.775 167.251 153.776  1.00  0.00     0.099 C 
ATOM      7  O   UNL     1     147.985 168.125 154.221  1.00  0.00    -0.544 OA
ATOM      8  O   UNL     1     150.074 167.193 154.268  1.00  0.00    -0.544 OA
ENDBRANCH   1   6
BRANCH   1   9
ATOM      9  C   UNL     1     148.478 166.784 151.282  1.00  0.00     0.047 C 
ATOM     10  C   UNL     1     148.166 165.685 150.253  1.00  0.00     0.014 C 
ATOM     11  C   UNL     1     149.867 167.383 151.006  1.00  0.00     0.014 C 
ENDBRANCH   1   9
TORSDOF 3
ENDMDL
MODEL 2
REMARK VINA RESULT:    -4.419      3.559      4.303
REMARK INTER + INTRA:          -5.033
REMARK INTER:                  -5.026
REMARK INTRA:                  -0.007
REMARK UNBOUND:                 0.031
REMARK SMILES CC(C)[C@H]([NH3+])C(=O)[O-]
REMARK SMILES IDX 4 1 5 2 6 6 7 7 8 8 2 9 1 10 3 11
REMARK H PARENT 5 3 5 4 5 5
REMARK Flexibility Score: inf
ROOT
ATOM      1  C   UNL     1     149.756 165.777 149.422  1.00  0.00     0.230 C 
ENDROOT
BRANCH   1   2
ATOM      2  N   UNL     1     149.102 164.506 149.077  1.00  0.00    -0.350 N 
ATOM      3  H   UNL     1     148.241 164.387 149.659  1.00  0.00     0.345 HD
ATOM      4  H   UNL     1     149.745 163.706 149.282  1.00  0.00     0.345 HD
ATOM      5  H   UNL     1     148.830 164.475 148.069  1.00  0.00     0.345 HD
ENDBRANCH   1   2
BRANCH   1   6
ATOM      6  C   UNL     1     151.253 165.666 149.257  1.00  0.00     0.099 C 
ATOM      7  O   UNL     1     151.734 165.091 148.245  1.00  0.00    -0.544 OA
ATOM      8  O   UNL     1     152.113 166.219 150.199  1.00  0.00    -0.544 OA
ENDBRANCH   1   6
BRANCH   1   9
ATOM      9  C   UNL     1     149.342 166.271 150.841  1.00  0.00     0.047 C 
ATOM     10  C   UNL     1     148.045 165.594 151.311  1.00  0.00     0.014 C 
ATOM     11  C   UNL     1     149.205 167.800 150.947  1.00  0.00     0.014 C 
ENDBRANCH   1   9
TORSDOF 3
ENDMDL
MODEL 3
REMARK VINA RESULT:    -4.397     20.207     20.747
REMARK INTER + INTRA:          -5.009
REMARK INTER:                  -5.011
REMARK INTRA:                   0.003
REMARK UNBOUND:                 0.031
REMARK SMILES CC(C)[C@H]([NH3+])C(=O)[O-]
REMARK SMILES IDX 4 1 5 2 6 6 7 7 8 8 2 9 1 10 3 11
REMARK H PARENT 5 3 5 4 5 5
REMARK Flexibility Score: inf
ROOT
ATOM      1  C   UNL     1     165.270 165.897 165.536  1.00  0.00     0.230 C 
ENDROOT
BRANCH   1   2
ATOM      2  N   UNL     1     165.916 164.629 165.906  1.00  0.00    -0.350 N 
ATOM      3  H   UNL     1     166.766 164.826 166.484  1.00  0.00     0.345 HD
ATOM      4  H   UNL     1     166.222 164.119 165.044  1.00  0.00     0.345 HD
ATOM      5  H   UNL     1     165.273 164.017 166.456  1.00  0.00     0.345 HD
ENDBRANCH   1   2
BRANCH   1   6
ATOM      6  C   UNL     1     163.773 165.799 165.707  1.00  0.00     0.099 C 
ATOM      7  O   UNL     1     163.007 166.357 164.877  1.00  0.00    -0.544 OA
ATOM      8  O   UNL     1     163.225 165.074 166.759  1.00  0.00    -0.544 OA
ENDBRANCH   1   6
BRANCH   1   9
ATOM      9  C   UNL     1     165.684 166.360 164.107  1.00  0.00     0.047 C 
ATOM     10  C   UNL     1     166.952 165.634 163.630  1.00  0.00     0.014 C 
ATOM     11  C   UNL     1     165.869 167.881 163.979  1.00  0.00     0.014 C 
ENDBRANCH   1   9
TORSDOF 3
ENDMDL
MODEL 4
REMARK VINA RESULT:    -4.240      3.976      4.893
REMARK INTER + INTRA:          -4.829
REMARK INTER:                  -4.782
REMARK INTRA:                  -0.046
REMARK UNBOUND:                 0.031
REMARK SMILES CC(C)[C@H]([NH3+])C(=O)[O-]
REMARK SMILES IDX 4 1 5 2 6 6 7 7 8 8 2 9 1 10 3 11
REMARK H PARENT 5 3 5 4 5 5
REMARK Flexibility Score: inf
ROOT
ATOM      1  C   UNL     1     150.873 166.702 149.755  1.00  0.00     0.230 C 
ENDROOT
BRANCH   1   2
ATOM      2  N   UNL     1     149.526 167.291 149.772  1.00  0.00    -0.350 N 
ATOM      3  H   UNL     1     149.601 168.329 149.886  1.00  0.00     0.345 HD
ATOM      4  H   UNL     1     148.981 166.914 150.581  1.00  0.00     0.345 HD
ATOM      5  H   UNL     1     149.008 167.090 148.887  1.00  0.00     0.345 HD
ENDBRANCH   1   2
BRANCH   1   6
ATOM      6  C   UNL     1     150.875 165.405 148.980  1.00  0.00     0.099 C 
ATOM      7  O   UNL     1     151.879 165.086 148.290  1.00  0.00    -0.544 OA
ATOM      8  O   UNL     1     149.789 164.540 149.042  1.00  0.00    -0.544 OA
ENDBRANCH   1   6
BRANCH   1   9
ATOM      9  C   UNL     1     151.451 166.543 151.194  1.00  0.00     0.047 C 
ATOM     10  C   UNL     1     150.658 167.382 152.209  1.00  0.00     0.014 C 
ATOM     11  C   UNL     1     152.950 166.872 151.298  1.00  0.00     0.014 C 
ENDBRANCH   1   9
TORSDOF 3
ENDMDL
MODEL 5
REMARK VINA RESULT:    -4.225     18.906     19.879
REMARK INTER + INTRA:          -4.812
REMARK INTER:                  -4.765
REMARK INTRA:                  -0.046
REMARK UNBOUND:                 0.031
REMARK SMILES CC(C)[C@H]([NH3+])C(=O)[O-]
REMARK SMILES IDX 4 1 5 2 6 6 7 7 8 8 2 9 1 10 3 11
REMARK H PARENT 5 3 5 4 5 5
REMARK Flexibility Score: inf
ROOT
ATOM      1  C   UNL     1     164.057 166.714 165.250  1.00  0.00     0.230 C 
ENDROOT
BRANCH   1   2
ATOM      2  N   UNL     1     165.392 167.329 165.242  1.00  0.00    -0.350 N 
ATOM      3  H   UNL     1     165.629 167.662 166.205  1.00  0.00     0.345 HD
ATOM      4  H   UNL     1     165.400 168.157 164.602  1.00  0.00     0.345 HD
ATOM      5  H   UNL     1     166.125 166.651 164.934  1.00  0.00     0.345 HD
ENDBRANCH   1   2
BRANCH   1   6
ATOM      6  C   UNL     1     164.076 165.414 166.019  1.00  0.00     0.099 C 
ATOM      7  O   UNL     1     163.061 165.054 166.672  1.00  0.00    -0.544 OA
ATOM      8  O   UNL     1     165.196 164.592 165.994  1.00  0.00    -0.544 OA
ENDBRANCH   1   6
BRANCH   1   9
ATOM      9  C   UNL     1     163.488 166.551 163.808  1.00  0.00     0.047 C 
ATOM     10  C   UNL     1     164.300 167.371 162.792  1.00  0.00     0.014 C 
ATOM     11  C   UNL     1     161.994 166.898 163.690  1.00  0.00     0.014 C 
ENDBRANCH   1   9
TORSDOF 3
ENDMDL
MODEL 6
REMARK VINA RESULT:    -4.205      2.045      2.393
REMARK INTER + INTRA:          -4.788
REMARK INTER:                  -4.748
REMARK INTRA:                  -0.040
REMARK UNBOUND:                 0.031
REMARK SMILES CC(C)[C@H]([NH3+])C(=O)[O-]
REMARK SMILES IDX 4 1 5 2 6 6 7 7 8 8 2 9 1 10 3 11
REMARK H PARENT 5 3 5 4 5 5
REMARK Flexibility Score: inf
ROOT
ATOM      1  C   UNL     1     148.847 165.853 150.864  1.00  0.00     0.230 C 
ENDROOT
BRANCH   1   2
ATOM      2  N   UNL     1     147.981 165.498 149.729  1.00  0.00    -0.350 N 
ATOM      3  H   UNL     1     148.087 166.213 148.972  1.00  0.00     0.345 HD
ATOM      4  H   UNL     1     146.980 165.493 150.032  1.00  0.00     0.345 HD
ATOM      5  H   UNL     1     148.226 164.561 149.339  1.00  0.00     0.345 HD
ENDBRANCH   1   2
BRANCH   1   6
ATOM      6  C   UNL     1     148.017 166.169 152.086  1.00  0.00     0.099 C 
ATOM      7  O   UNL     1     146.875 166.682 151.956  1.00  0.00    -0.544 OA
ATOM      8  O   UNL     1     148.490 165.871 153.359  1.00  0.00    -0.544 OA
ENDBRANCH   1   6
BRANCH   1   9
ATOM      9  C   UNL     1     149.837 167.000 150.497  1.00  0.00     0.047 C 
ATOM     10  C   UNL     1     150.184 166.980 148.999  1.00  0.00     0.014 C 
ATOM     11  C   UNL     1     151.126 166.995 151.335  1.00  0.00     0.014 C 
ENDBRANCH   1   9
TORSDOF 3
ENDMDL
MODEL 7
REMARK VINA RESULT:    -4.128     20.776     21.478
REMARK INTER + INTRA:          -4.700
REMARK INTER:                  -4.645
REMARK INTRA:                  -0.055
REMARK UNBOUND:                 0.031
REMARK SMILES CC(C)[C@H]([NH3+])C(=O)[O-]
REMARK SMILES IDX 4 1 5 2 6 6 7 7 8 8 2 9 1 10 3 11
REMARK H PARENT 5 3 5 4 5 5
REMARK Flexibility Score: inf
ROOT
ATOM      1  C   UNL     1     148.977 147.922 163.329  1.00  0.00     0.230 C 
ENDROOT
BRANCH   1   2
ATOM      2  N   UNL     1     150.390 148.209 163.040  1.00  0.00    -0.350 N 
ATOM      3  H   UNL     1     150.505 148.403 162.018  1.00  0.00     0.345 HD
ATOM      4  H   UNL     1     150.980 147.379 163.282  1.00  0.00     0.345 HD
ATOM      5  H   UNL     1     150.730 149.039 163.577  1.00  0.00     0.345 HD
ENDBRANCH   1   2
BRANCH   1   6
ATOM      6  C   UNL     1     148.109 148.286 162.148  1.00  0.00     0.099 C 
ATOM      7  O   UNL     1     146.882 148.003 162.157  1.00  0.00    -0.544 OA
ATOM      8  O   UNL     1     148.644 148.959 161.055  1.00  0.00    -0.544 OA
ENDBRANCH   1   6
BRANCH   1   9
ATOM      9  C   UNL     1     148.509 148.601 164.651  1.00  0.00     0.047 C 
ATOM     10  C   UNL     1     148.326 150.116 164.465  1.00  0.00     0.014 C 
ATOM     11  C   UNL     1     149.434 148.326 165.848  1.00  0.00     0.014 C 
ENDBRANCH   1   9
TORSDOF 3
ENDMDL
MODEL 8
REMARK VINA RESULT:    -4.110     19.377     20.190
REMARK INTER + INTRA:          -4.679
REMARK INTER:                  -4.714
REMARK INTRA:                   0.035
REMARK UNBOUND:                 0.031
REMARK SMILES CC(C)[C@H]([NH3+])C(=O)[O-]
REMARK SMILES IDX 4 1 5 2 6 6 7 7 8 8 2 9 1 10 3 11
REMARK H PARENT 5 3 5 4 5 5
REMARK Flexibility Score: inf
ROOT
ATOM      1  C   UNL     1     165.279 167.588 162.619  1.00  0.00     0.230 C 
ENDROOT
BRANCH   1   2
ATOM      2  N   UNL     1     163.958 166.946 162.549  1.00  0.00    -0.350 N 
ATOM      3  H   UNL     1     164.076 165.929 162.333  1.00  0.00     0.345 HD
ATOM      4  H   UNL     1     163.392 167.377 161.781  1.00  0.00     0.345 HD
ATOM      5  H   UNL     1     163.439 167.038 163.451  1.00  0.00     0.345 HD
ENDBRANCH   1   2
BRANCH   1   6
ATOM      6  C   UNL     1     166.088 167.277 161.382  1.00  0.00     0.099 C 
ATOM      7  O   UNL     1     165.809 166.265 160.686  1.00  0.00    -0.544 OA
ATOM      8  O   UNL     1     167.125 168.113 160.984  1.00  0.00    -0.544 OA
ENDBRANCH   1   6
BRANCH   1   9
ATOM      9  C   UNL     1     166.029 167.222 163.935  1.00  0.00     0.047 C 
ATOM     10  C   UNL     1     166.884 165.957 163.757  1.00  0.00     0.014 C 
ATOM     11  C   UNL     1     165.100 167.062 165.151  1.00  0.00     0.014 C 
ENDBRANCH   1   9
TORSDOF 3
ENDMDL
MODEL 9
REMARK VINA RESULT:    -2.407      1.962      2.608
REMARK INTER + INTRA:          -2.727
REMARK INTER:                  -2.697
REMARK INTRA:                  -0.031
REMARK UNBOUND:                 0.031
REMARK SMILES CC(C)[C@H]([NH3+])C(=O)[O-]
REMARK SMILES IDX 4 1 5 2 6 6 7 7 8 8 2 9 1 10 3 11
REMARK H PARENT 5 3 5 4 5 5
REMARK Flexibility Score: inf
ROOT
ATOM      1  C   UNL     1     148.999 167.203 151.512  1.00  0.00     0.230 C 
ENDROOT
BRANCH   1   2
ATOM      2  N   UNL     1     150.278 167.756 151.980  1.00  0.00    -0.350 N 
ATOM      3  H   UNL     1     150.098 168.478 152.716  1.00  0.00     0.345 HD
ATOM      4  H   UNL     1     150.779 168.220 151.187  1.00  0.00     0.345 HD
ATOM      5  H   UNL     1     150.892 167.014 152.385  1.00  0.00     0.345 HD
ENDBRANCH   1   2
BRANCH   1   6
ATOM      6  C   UNL     1     148.194 166.670 152.674  1.00  0.00     0.099 C 
ATOM      7  O   UNL     1     148.724 165.878 153.496  1.00  0.00    -0.544 OA
ATOM      8  O   UNL     1     146.875 167.068 152.864  1.00  0.00    -0.544 OA
ENDBRANCH   1   6
BRANCH   1   9
ATOM      9  C   UNL     1     149.206 166.143 150.388  1.00  0.00     0.047 C 
ATOM     10  C   UNL     1     149.579 166.810 149.054  1.00  0.00     0.014 C 
ATOM     11  C   UNL     1     148.000 165.209 150.190  1.00  0.00     0.014 C 
ENDBRANCH   1   9
TORSDOF 3
ENDMDL
