MODEL 1
REMARK VINA RESULT:    -5.369      0.000      0.000
REMARK INTER + INTRA:         -11.816
REMARK INTER:                  -9.763
REMARK INTRA:                  -2.053
REMARK UNBOUND:                -2.053
REMARK SMILES CCCCCCCCCCCCCC[C@H](C)C(=O)[O-]
REMARK SMILES IDX 9 1 10 2 11 3 12 4 13 5 14 6 15 7 16 8 17 9 18 10 19 11 8 12
REMARK SMILES IDX 7 13 6 14 5 15 4 16 3 17 2 18 1 19
REMARK H PARENT
REMARK Flexibility Score: inf
ROOT
ATOM      1  C   UNL     1     120.517 176.957 125.611  1.00  0.00     0.000 C 
ENDROOT
BRANCH   1   2
ATOM      2  C   UNL     1     120.136 177.683 124.311  1.00  0.00     0.000 C 
BRANCH   2   3
ATOM      3  C   UNL     1     118.764 178.370 124.396  1.00  0.00     0.000 C 
BRANCH   3   4
ATOM      4  C   UNL     1     118.669 179.354 125.571  1.00  0.00     0.000 C 
BRANCH   4   5
ATOM      5  C   UNL     1     117.304 179.254 126.266  1.00  0.00     0.001 C 
BRANCH   5   6
ATOM      6  C   UNL     1     117.274 178.144 127.340  1.00  0.00     0.009 C 
BRANCH   6   7
ATOM      7  C   UNL     1     116.314 176.981 127.000  1.00  0.00     0.032 C 
ATOM      8  C   UNL     1     117.032 175.800 126.336  1.00  0.00     0.014 C 
BRANCH   7   9
ATOM      9  C   UNL     1     115.209 177.474 126.107  1.00  0.00     0.044 C 
ATOM     10  O   UNL     1     114.181 178.012 126.597  1.00  0.00    -0.550 OA
ATOM     11  O   UNL     1     115.317 177.331 124.728  1.00  0.00    -0.550 OA
ENDBRANCH   7   9
ENDBRANCH   6   7
ENDBRANCH   5   6
ENDBRANCH   4   5
ENDBRANCH   3   4
ENDBRANCH   2   3
ENDBRANCH   1   2
BRANCH   1  12
ATOM     12  C   UNL     1     121.876 177.412 126.173  1.00  0.00     0.000 C 
BRANCH  12  13
ATOM     13  C   UNL     1     121.776 178.634 127.110  1.00  0.00    -0.000 C 
BRANCH  13  14
ATOM     14  C   UNL     1     121.853 178.238 128.593  1.00  0.00    -0.000 C 
BRANCH  14  15
ATOM     15  C   UNL     1     120.466 177.868 129.135  1.00  0.00    -0.000 C 
BRANCH  15  16
ATOM     16  C   UNL     1     120.531 176.945 130.364  1.00  0.00    -0.000 C 
BRANCH  16  17
ATOM     17  C   UNL     1     119.197 176.278 130.748  1.00  0.00    -0.000 C 
BRANCH  17  18
ATOM     18  C   UNL     1     118.637 175.331 129.666  1.00  0.00    -0.003 C 
ATOM     19  C   UNL     1     119.704 174.396 129.095  1.00  0.00     0.004 C 
ENDBRANCH  17  18
ENDBRANCH  16  17
ENDBRANCH  15  16
ENDBRANCH  14  15
ENDBRANCH  13  14
ENDBRANCH  12  13
ENDBRANCH   1  12
TORSDOF 14
ENDMDL
MODEL 2
REMARK VINA RESULT:    -5.348      1.415      2.376
REMARK INTER + INTRA:         -11.777
REMARK INTER:                  -9.605
REMARK INTRA:                  -2.173
REMARK UNBOUND:                -2.053
REMARK SMILES CCCCCCCCCCCCCC[C@H](C)C(=O)[O-]
REMARK SMILES IDX 9 1 10 2 11 3 12 4 13 5 14 6 15 7 16 8 17 9 18 10 19 11 8 12
REMARK SMILES IDX 7 13 6 14 5 15 4 16 3 17 2 18 1 19
REMARK H PARENT
REMARK Flexibility Score: inf
ROOT
ATOM      1  C   UNL     1     122.123 177.882 126.872  1.00  0.00     0.000 C 
ENDROOT
BRANCH   1   2
ATOM      2  C   UNL     1     120.776 177.607 126.182  1.00  0.00     0.000 C 
BRANCH   2   3
ATOM      3  C   UNL     1     119.737 178.707 126.452  1.00  0.00     0.000 C 
BRANCH   3   4
ATOM      4  C   UNL     1     118.418 178.148 127.004  1.00  0.00     0.000 C 
BRANCH   4   5
ATOM      5  C   UNL     1     117.847 177.065 126.078  1.00  0.00     0.001 C 
BRANCH   5   6
ATOM      6  C   UNL     1     117.185 177.662 124.818  1.00  0.00     0.009 C 
BRANCH   6   7
ATOM      7  C   UNL     1     115.642 177.577 124.830  1.00  0.00     0.032 C 
ATOM      8  C   UNL     1     115.019 177.971 123.486  1.00  0.00     0.014 C 
BRANCH   7   9
ATOM      9  C   UNL     1     115.089 178.449 125.924  1.00  0.00     0.044 C 
ATOM     10  O   UNL     1     115.351 179.681 125.955  1.00  0.00    -0.550 OA
ATOM     11  O   UNL     1     114.285 177.894 126.913  1.00  0.00    -0.550 OA
ENDBRANCH   7   9
ENDBRANCH   6   7
ENDBRANCH   5   6
ENDBRANCH   4   5
ENDBRANCH   3   4
ENDBRANCH   2   3
ENDBRANCH   1   2
BRANCH   1  12
ATOM     12  C   UNL     1     121.975 178.715 128.158  1.00  0.00     0.000 C 
BRANCH  12  13
ATOM     13  C   UNL     1     121.873 177.858 129.438  1.00  0.00    -0.000 C 
BRANCH  13  14
ATOM     14  C   UNL     1     120.492 177.967 130.102  1.00  0.00    -0.000 C 
BRANCH  14  15
ATOM     15  C   UNL     1     120.051 176.614 130.678  1.00  0.00    -0.000 C 
BRANCH  15  16
ATOM     16  C   UNL     1     120.006 175.500 129.619  1.00  0.00    -0.000 C 
BRANCH  16  17
ATOM     17  C   UNL     1     118.593 175.105 129.150  1.00  0.00    -0.000 C 
BRANCH  17  18
ATOM     18  C   UNL     1     117.458 175.787 129.943  1.00  0.00    -0.003 C 
ATOM     19  C   UNL     1     116.127 175.775 129.191  1.00  0.00     0.004 C 
ENDBRANCH  17  18
ENDBRANCH  16  17
ENDBRANCH  15  16
ENDBRANCH  14  15
ENDBRANCH  13  14
ENDBRANCH  12  13
ENDBRANCH   1  12
TORSDOF 14
ENDMDL
MODEL 3
REMARK VINA RESULT:    -5.335      1.438      2.861
REMARK INTER + INTRA:         -11.754
REMARK INTER:                  -9.062
REMARK INTRA:                  -2.693
REMARK UNBOUND:                -2.053
REMARK SMILES CCCCCCCCCCCCCC[C@H](C)C(=O)[O-]
REMARK SMILES IDX 9 1 10 2 11 3 12 4 13 5 14 6 15 7 16 8 17 9 18 10 19 11 8 12
REMARK SMILES IDX 7 13 6 14 5 15 4 16 3 17 2 18 1 19
REMARK H PARENT
REMARK Flexibility Score: inf
ROOT
ATOM      1  C   UNL     1     121.278 174.737 125.510  1.00  0.00     0.000 C 
ENDROOT
BRANCH   1   2
ATOM      2  C   UNL     1     120.114 173.905 126.074  1.00  0.00     0.000 C 
BRANCH   2   3
ATOM      3  C   UNL     1     119.189 174.725 126.987  1.00  0.00     0.000 C 
BRANCH   3   4
ATOM      4  C   UNL     1     117.704 174.537 126.642  1.00  0.00     0.000 C 
BRANCH   4   5
ATOM      5  C   UNL     1     116.974 175.887 126.592  1.00  0.00     0.001 C 
BRANCH   5   6
ATOM      6  C   UNL     1     117.557 176.827 125.515  1.00  0.00     0.009 C 
BRANCH   6   7
ATOM      7  C   UNL     1     116.840 178.193 125.433  1.00  0.00     0.032 C 
ATOM      8  C   UNL     1     116.859 178.949 126.768  1.00  0.00     0.014 C 
BRANCH   7   9
ATOM      9  C   UNL     1     115.420 178.000 124.977  1.00  0.00     0.044 C 
ATOM     10  O   UNL     1     115.162 177.753 123.769  1.00  0.00    -0.550 OA
ATOM     11  O   UNL     1     114.378 178.098 125.894  1.00  0.00    -0.550 OA
ENDBRANCH   7   9
ENDBRANCH   6   7
ENDBRANCH   5   6
ENDBRANCH   4   5
ENDBRANCH   3   4
ENDBRANCH   2   3
ENDBRANCH   1   2
BRANCH   1  12
ATOM     12  C   UNL     1     120.831 175.726 124.420  1.00  0.00     0.000 C 
BRANCH  12  13
ATOM     13  C   UNL     1     121.226 177.188 124.715  1.00  0.00    -0.000 C 
BRANCH  13  14
ATOM     14  C   UNL     1     121.703 177.381 126.163  1.00  0.00    -0.000 C 
BRANCH  14  15
ATOM     15  C   UNL     1     120.691 178.208 126.969  1.00  0.00    -0.000 C 
BRANCH  15  16
ATOM     16  C   UNL     1     120.681 177.848 128.464  1.00  0.00    -0.000 C 
BRANCH  16  17
ATOM     17  C   UNL     1     119.284 177.799 129.113  1.00  0.00    -0.000 C 
BRANCH  17  18
ATOM     18  C   UNL     1     119.115 176.664 130.145  1.00  0.00    -0.003 C 
ATOM     19  C   UNL     1     120.406 175.877 130.369  1.00  0.00     0.004 C 
ENDBRANCH  17  18
ENDBRANCH  16  17
ENDBRANCH  15  16
ENDBRANCH  14  15
ENDBRANCH  13  14
ENDBRANCH  12  13
ENDBRANCH   1  12
TORSDOF 14
ENDMDL
MODEL 4
REMARK VINA RESULT:    -5.319      1.911      4.460
REMARK INTER + INTRA:         -11.726
REMARK INTER:                  -8.824
REMARK INTRA:                  -2.902
REMARK UNBOUND:                -2.053
REMARK SMILES CCCCCCCCCCCCCC[C@H](C)C(=O)[O-]
REMARK SMILES IDX 9 1 10 2 11 3 12 4 13 5 14 6 15 7 16 8 17 9 18 10 19 11 8 12
REMARK SMILES IDX 7 13 6 14 5 15 4 16 3 17 2 18 1 19
REMARK H PARENT
REMARK Flexibility Score: inf
ROOT
ATOM      1  C   UNL     1     122.161 177.653 126.023  1.00  0.00     0.000 C 
ENDROOT
BRANCH   1   2
ATOM      2  C   UNL     1     121.567 178.353 127.256  1.00  0.00     0.000 C 
BRANCH   2   3
ATOM      3  C   UNL     1     120.893 177.371 128.227  1.00  0.00     0.000 C 
BRANCH   3   4
ATOM      4  C   UNL     1     119.739 178.013 129.009  1.00  0.00     0.000 C 
BRANCH   4   5
ATOM      5  C   UNL     1     118.631 176.990 129.298  1.00  0.00     0.001 C 
BRANCH   5   6
ATOM      6  C   UNL     1     118.792 175.702 128.461  1.00  0.00     0.009 C 
BRANCH   6   7
ATOM      7  C   UNL     1     117.779 175.589 127.300  1.00  0.00     0.032 C 
ATOM      8  C   UNL     1     116.340 175.880 127.742  1.00  0.00     0.014 C 
BRANCH   7   9
ATOM      9  C   UNL     1     117.856 174.219 126.684  1.00  0.00     0.044 C 
ATOM     10  O   UNL     1     118.960 173.620 126.589  1.00  0.00    -0.550 OA
ATOM     11  O   UNL     1     116.701 173.606 126.211  1.00  0.00    -0.550 OA
ENDBRANCH   7   9
ENDBRANCH   6   7
ENDBRANCH   5   6
ENDBRANCH   4   5
ENDBRANCH   3   4
ENDBRANCH   2   3
ENDBRANCH   1   2
BRANCH   1  12
ATOM     12  C   UNL     1     121.531 176.275 125.757  1.00  0.00     0.000 C 
BRANCH  12  13
ATOM     13  C   UNL     1     120.352 176.318 124.761  1.00  0.00    -0.000 C 
BRANCH  13  14
ATOM     14  C   UNL     1     120.521 177.425 123.709  1.00  0.00    -0.000 C 
BRANCH  14  15
ATOM     15  C   UNL     1     119.288 178.340 123.672  1.00  0.00    -0.000 C 
BRANCH  15  16
ATOM     16  C   UNL     1     118.359 178.140 124.881  1.00  0.00    -0.000 C 
BRANCH  16  17
ATOM     17  C   UNL     1     118.260 179.347 125.833  1.00  0.00    -0.000 C 
BRANCH  17  18
ATOM     18  C   UNL     1     117.038 179.302 126.774  1.00  0.00    -0.003 C 
ATOM     19  C   UNL     1     115.715 179.212 126.014  1.00  0.00     0.004 C 
ENDBRANCH  17  18
ENDBRANCH  16  17
ENDBRANCH  15  16
ENDBRANCH  14  15
ENDBRANCH  13  14
ENDBRANCH  12  13
ENDBRANCH   1  12
TORSDOF 14
ENDMDL
MODEL 5
REMARK VINA RESULT:    -5.292      1.712      3.098
REMARK INTER + INTRA:         -11.676
REMARK INTER:                  -8.999
REMARK INTRA:                  -2.677
REMARK UNBOUND:                -2.053
REMARK SMILES CCCCCCCCCCCCCC[C@H](C)C(=O)[O-]
REMARK SMILES IDX 9 1 10 2 11 3 12 4 13 5 14 6 15 7 16 8 17 9 18 10 19 11 8 12
REMARK SMILES IDX 7 13 6 14 5 15 4 16 3 17 2 18 1 19
REMARK H PARENT
REMARK Flexibility Score: inf
ROOT
ATOM      1  C   UNL     1     122.418 177.019 125.515  1.00  0.00     0.000 C 
ENDROOT
BRANCH   1   2
ATOM      2  C   UNL     1     122.085 177.966 126.679  1.00  0.00     0.000 C 
BRANCH   2   3
ATOM      3  C   UNL     1     120.652 178.515 126.606  1.00  0.00     0.000 C 
BRANCH   3   4
ATOM      4  C   UNL     1     119.708 177.834 127.608  1.00  0.00     0.000 C 
BRANCH   4   5
ATOM      5  C   UNL     1     118.263 178.316 127.419  1.00  0.00     0.001 C 
BRANCH   5   6
ATOM      6  C   UNL     1     117.991 178.798 125.978  1.00  0.00     0.009 C 
BRANCH   6   7
ATOM      7  C   UNL     1     117.540 177.669 125.023  1.00  0.00     0.032 C 
ATOM      8  C   UNL     1     117.928 177.940 123.565  1.00  0.00     0.014 C 
BRANCH   7   9
ATOM      9  C   UNL     1     116.052 177.475 125.127  1.00  0.00     0.044 C 
ATOM     10  O   UNL     1     115.576 176.465 125.709  1.00  0.00    -0.550 OA
ATOM     11  O   UNL     1     115.190 178.415 124.572  1.00  0.00    -0.550 OA
ENDBRANCH   7   9
ENDBRANCH   6   7
ENDBRANCH   5   6
ENDBRANCH   4   5
ENDBRANCH   3   4
ENDBRANCH   2   3
ENDBRANCH   1   2
BRANCH   1  12
ATOM     12  C   UNL     1     121.240 176.834 124.541  1.00  0.00     0.000 C 
BRANCH  12  13
ATOM     13  C   UNL     1     120.540 175.466 124.675  1.00  0.00    -0.000 C 
BRANCH  13  14
ATOM     14  C   UNL     1     121.165 174.597 125.778  1.00  0.00    -0.000 C 
BRANCH  14  15
ATOM     15  C   UNL     1     120.083 174.013 126.697  1.00  0.00    -0.000 C 
BRANCH  15  16
ATOM     16  C   UNL     1     118.690 174.611 126.436  1.00  0.00    -0.000 C 
BRANCH  16  17
ATOM     17  C   UNL     1     117.593 174.160 127.419  1.00  0.00    -0.000 C 
BRANCH  17  18
ATOM     18  C   UNL     1     117.659 174.863 128.792  1.00  0.00    -0.003 C 
ATOM     19  C   UNL     1     116.428 175.726 129.069  1.00  0.00     0.004 C 
ENDBRANCH  17  18
ENDBRANCH  16  17
ENDBRANCH  15  16
ENDBRANCH  14  15
ENDBRANCH  13  14
ENDBRANCH  12  13
ENDBRANCH   1  12
TORSDOF 14
ENDMDL
MODEL 6
REMARK VINA RESULT:    -5.265      1.567      3.447
REMARK INTER + INTRA:         -11.627
REMARK INTER:                  -8.901
REMARK INTRA:                  -2.726
REMARK UNBOUND:                -2.053
REMARK SMILES CCCCCCCCCCCCCC[C@H](C)C(=O)[O-]
REMARK SMILES IDX 9 1 10 2 11 3 12 4 13 5 14 6 15 7 16 8 17 9 18 10 19 11 8 12
REMARK SMILES IDX 7 13 6 14 5 15 4 16 3 17 2 18 1 19
REMARK H PARENT
REMARK Flexibility Score: inf
ROOT
ATOM      1  C   UNL     1     121.816 178.302 128.481  1.00  0.00     0.000 C 
ENDROOT
BRANCH   1   2
ATOM      2  C   UNL     1     120.903 177.100 128.769  1.00  0.00     0.000 C 
BRANCH   2   3
ATOM      3  C   UNL     1     119.611 177.499 129.500  1.00  0.00     0.000 C 
BRANCH   3   4
ATOM      4  C   UNL     1     118.612 178.216 128.581  1.00  0.00     0.000 C 
BRANCH   4   5
ATOM      5  C   UNL     1     118.385 177.422 127.286  1.00  0.00     0.001 C 
BRANCH   5   6
ATOM      6  C   UNL     1     118.059 178.340 126.088  1.00  0.00     0.009 C 
BRANCH   6   7
ATOM      7  C   UNL     1     117.428 177.593 124.891  1.00  0.00     0.032 C 
ATOM      8  C   UNL     1     118.112 177.930 123.560  1.00  0.00     0.014 C 
BRANCH   7   9
ATOM      9  C   UNL     1     115.960 177.911 124.804  1.00  0.00     0.044 C 
ATOM     10  O   UNL     1     115.332 177.749 123.725  1.00  0.00    -0.550 OA
ATOM     11  O   UNL     1     115.288 178.391 125.923  1.00  0.00    -0.550 OA
ENDBRANCH   7   9
ENDBRANCH   6   7
ENDBRANCH   5   6
ENDBRANCH   4   5
ENDBRANCH   3   4
ENDBRANCH   2   3
ENDBRANCH   1   2
BRANCH   1  12
ATOM     12  C   UNL     1     121.995 178.568 126.976  1.00  0.00     0.000 C 
BRANCH  12  13
ATOM     13  C   UNL     1     122.281 177.293 126.155  1.00  0.00    -0.000 C 
BRANCH  13  14
ATOM     14  C   UNL     1     121.335 177.151 124.953  1.00  0.00    -0.000 C 
BRANCH  14  15
ATOM     15  C   UNL     1     120.869 175.697 124.789  1.00  0.00    -0.000 C 
BRANCH  15  16
ATOM     16  C   UNL     1     121.477 174.753 125.839  1.00  0.00    -0.000 C 
BRANCH  16  17
ATOM     17  C   UNL     1     120.452 174.003 126.712  1.00  0.00    -0.000 C 
BRANCH  17  18
ATOM     18  C   UNL     1     119.010 174.058 126.166  1.00  0.00    -0.003 C 
ATOM     19  C   UNL     1     117.964 173.769 127.243  1.00  0.00     0.004 C 
ENDBRANCH  17  18
ENDBRANCH  16  17
ENDBRANCH  15  16
ENDBRANCH  14  15
ENDBRANCH  13  14
ENDBRANCH  12  13
ENDBRANCH   1  12
TORSDOF 14
ENDMDL
MODEL 7
REMARK VINA RESULT:    -5.248      2.989      6.069
REMARK INTER + INTRA:         -11.596
REMARK INTER:                  -9.081
REMARK INTRA:                  -2.515
REMARK UNBOUND:                -2.053
REMARK SMILES CCCCCCCCCCCCCC[C@H](C)C(=O)[O-]
REMARK SMILES IDX 9 1 10 2 11 3 12 4 13 5 14 6 15 7 16 8 17 9 18 10 19 11 8 12
REMARK SMILES IDX 7 13 6 14 5 15 4 16 3 17 2 18 1 19
REMARK H PARENT
REMARK Flexibility Score: inf
ROOT
ATOM      1  C   UNL     1     117.650 176.616 128.561  1.00  0.00     0.000 C 
ENDROOT
BRANCH   1   2
ATOM      2  C   UNL     1     118.770 177.668 128.495  1.00  0.00     0.000 C 
BRANCH   2   3
ATOM      3  C   UNL     1     120.172 177.040 128.486  1.00  0.00     0.000 C 
BRANCH   3   4
ATOM      4  C   UNL     1     121.288 178.093 128.423  1.00  0.00     0.000 C 
BRANCH   4   5
ATOM      5  C   UNL     1     121.659 178.418 126.969  1.00  0.00     0.001 C 
BRANCH   5   6
ATOM      6  C   UNL     1     122.308 177.217 126.248  1.00  0.00     0.009 C 
BRANCH   6   7
ATOM      7  C   UNL     1     121.577 176.806 124.950  1.00  0.00     0.032 C 
ATOM      8  C   UNL     1     120.795 175.495 125.104  1.00  0.00     0.014 C 
BRANCH   7   9
ATOM      9  C   UNL     1     122.566 176.681 123.824  1.00  0.00     0.044 C 
ATOM     10  O   UNL     1     122.175 176.430 122.653  1.00  0.00    -0.550 OA
ATOM     11  O   UNL     1     123.925 176.839 124.073  1.00  0.00    -0.550 OA
ENDBRANCH   7   9
ENDBRANCH   6   7
ENDBRANCH   5   6
ENDBRANCH   4   5
ENDBRANCH   3   4
ENDBRANCH   2   3
ENDBRANCH   1   2
BRANCH   1  12
ATOM     12  C   UNL     1     117.927 175.393 127.668  1.00  0.00     0.000 C 
BRANCH  12  13
ATOM     13  C   UNL     1     117.252 175.477 126.283  1.00  0.00    -0.000 C 
BRANCH  13  14
ATOM     14  C   UNL     1     115.998 176.365 126.300  1.00  0.00    -0.000 C 
BRANCH  14  15
ATOM     15  C   UNL     1     116.069 177.437 125.203  1.00  0.00    -0.000 C 
BRANCH  15  16
ATOM     16  C   UNL     1     116.961 178.628 125.589  1.00  0.00    -0.000 C 
BRANCH  16  17
ATOM     17  C   UNL     1     118.361 178.630 124.947  1.00  0.00    -0.000 C 
BRANCH  17  18
ATOM     18  C   UNL     1     118.408 177.972 123.551  1.00  0.00    -0.003 C 
ATOM     19  C   UNL     1     119.378 178.677 122.603  1.00  0.00     0.004 C 
ENDBRANCH  17  18
ENDBRANCH  16  17
ENDBRANCH  15  16
ENDBRANCH  14  15
ENDBRANCH  13  14
ENDBRANCH  12  13
ENDBRANCH   1  12
TORSDOF 14
ENDMDL
MODEL 8
REMARK VINA RESULT:    -5.235      1.597      3.299
REMARK INTER + INTRA:         -11.573
REMARK INTER:                  -8.938
REMARK INTRA:                  -2.635
REMARK UNBOUND:                -2.053
REMARK SMILES CCCCCCCCCCCCCC[C@H](C)C(=O)[O-]
REMARK SMILES IDX 9 1 10 2 11 3 12 4 13 5 14 6 15 7 16 8 17 9 18 10 19 11 8 12
REMARK SMILES IDX 7 13 6 14 5 15 4 16 3 17 2 18 1 19
REMARK H PARENT
REMARK Flexibility Score: inf
ROOT
ATOM      1  C   UNL     1     122.577 176.769 124.269  1.00  0.00     0.000 C 
ENDROOT
BRANCH   1   2
ATOM      2  C   UNL     1     123.073 176.973 125.709  1.00  0.00     0.000 C 
BRANCH   2   3
ATOM      3  C   UNL     1     122.396 178.164 126.406  1.00  0.00     0.000 C 
BRANCH   3   4
ATOM      4  C   UNL     1     121.644 177.752 127.680  1.00  0.00     0.000 C 
BRANCH   4   5
ATOM      5  C   UNL     1     120.193 178.251 127.651  1.00  0.00     0.001 C 
BRANCH   5   6
ATOM      6  C   UNL     1     119.744 178.661 126.231  1.00  0.00     0.009 C 
BRANCH   6   7
ATOM      7  C   UNL     1     118.217 178.855 126.097  1.00  0.00     0.032 C 
ATOM      8  C   UNL     1     117.472 178.593 127.412  1.00  0.00     0.014 C 
BRANCH   7   9
ATOM      9  C   UNL     1     117.679 177.956 125.018  1.00  0.00     0.044 C 
ATOM     10  O   UNL     1     118.187 177.963 123.866  1.00  0.00    -0.550 OA
ATOM     11  O   UNL     1     116.607 177.113 125.290  1.00  0.00    -0.550 OA
ENDBRANCH   7   9
ENDBRANCH   6   7
ENDBRANCH   5   6
ENDBRANCH   4   5
ENDBRANCH   3   4
ENDBRANCH   2   3
ENDBRANCH   1   2
BRANCH   1  12
ATOM     12  C   UNL     1     121.209 176.068 124.202  1.00  0.00     0.000 C 
BRANCH  12  13
ATOM     13  C   UNL     1     121.048 174.933 125.235  1.00  0.00    -0.000 C 
BRANCH  13  14
ATOM     14  C   UNL     1     119.655 174.931 125.884  1.00  0.00    -0.000 C 
BRANCH  14  15
ATOM     15  C   UNL     1     119.751 174.645 127.390  1.00  0.00    -0.000 C 
BRANCH  15  16
ATOM     16  C   UNL     1     118.443 174.944 128.140  1.00  0.00    -0.000 C 
BRANCH  16  17
ATOM     17  C   UNL     1     118.439 174.546 129.628  1.00  0.00    -0.000 C 
BRANCH  17  18
ATOM     18  C   UNL     1     118.326 175.744 130.594  1.00  0.00    -0.003 C 
ATOM     19  C   UNL     1     119.677 176.405 130.870  1.00  0.00     0.004 C 
ENDBRANCH  17  18
ENDBRANCH  16  17
ENDBRANCH  15  16
ENDBRANCH  14  15
ENDBRANCH  13  14
ENDBRANCH  12  13
ENDBRANCH   1  12
TORSDOF 14
ENDMDL
MODEL 9
REMARK VINA RESULT:    -5.235      1.321      3.946
REMARK INTER + INTRA:         -11.572
REMARK INTER:                  -8.971
REMARK INTRA:                  -2.602
REMARK UNBOUND:                -2.053
REMARK SMILES CCCCCCCCCCCCCC[C@H](C)C(=O)[O-]
REMARK SMILES IDX 9 1 10 2 11 3 12 4 13 5 14 6 15 7 16 8 17 9 18 10 19 11 8 12
REMARK SMILES IDX 7 13 6 14 5 15 4 16 3 17 2 18 1 19
REMARK H PARENT
REMARK Flexibility Score: inf
ROOT
ATOM      1  C   UNL     1     118.811 176.004 130.420  1.00  0.00     0.000 C 
ENDROOT
BRANCH   1   2
ATOM      2  C   UNL     1     119.416 174.971 129.456  1.00  0.00     0.000 C 
BRANCH   2   3
ATOM      3  C   UNL     1     118.357 174.301 128.566  1.00  0.00     0.000 C 
BRANCH   3   4
ATOM      4  C   UNL     1     117.067 175.127 128.461  1.00  0.00     0.000 C 
BRANCH   4   5
ATOM      5  C   UNL     1     116.710 175.408 126.994  1.00  0.00     0.001 C 
BRANCH   5   6
ATOM      6  C   UNL     1     115.995 176.766 126.817  1.00  0.00     0.009 C 
BRANCH   6   7
ATOM      7  C   UNL     1     116.852 177.825 126.088  1.00  0.00     0.032 C 
ATOM      8  C   UNL     1     116.631 179.241 126.635  1.00  0.00     0.014 C 
BRANCH   7   9
ATOM      9  C   UNL     1     116.556 177.796 124.614  1.00  0.00     0.044 C 
ATOM     10  O   UNL     1     115.368 177.747 124.199  1.00  0.00    -0.550 OA
ATOM     11  O   UNL     1     117.601 177.820 123.696  1.00  0.00    -0.550 OA
ENDBRANCH   7   9
ENDBRANCH   6   7
ENDBRANCH   5   6
ENDBRANCH   4   5
ENDBRANCH   3   4
ENDBRANCH   2   3
ENDBRANCH   1   2
BRANCH   1  12
ATOM     12  C   UNL     1     119.400 177.413 130.232  1.00  0.00     0.000 C 
BRANCH  12  13
ATOM     13  C   UNL     1     119.796 177.725 128.773  1.00  0.00    -0.000 C 
BRANCH  13  14
ATOM     14  C   UNL     1     121.311 177.923 128.611  1.00  0.00    -0.000 C 
BRANCH  14  15
ATOM     15  C   UNL     1     121.648 178.465 127.215  1.00  0.00    -0.000 C 
BRANCH  15  16
ATOM     16  C   UNL     1     120.502 178.275 126.207  1.00  0.00    -0.000 C 
BRANCH  16  17
ATOM     17  C   UNL     1     120.723 177.153 125.174  1.00  0.00    -0.000 C 
BRANCH  17  18
ATOM     18  C   UNL     1     119.996 175.836 125.519  1.00  0.00    -0.003 C 
ATOM     19  C   UNL     1     120.963 174.713 125.896  1.00  0.00     0.004 C 
ENDBRANCH  17  18
ENDBRANCH  16  17
ENDBRANCH  15  16
ENDBRANCH  14  15
ENDBRANCH  13  14
ENDBRANCH  12  13
ENDBRANCH   1  12
TORSDOF 14
ENDMDL
