MODEL 1
REMARK VINA RESULT:    -3.022      0.000      0.000
REMARK INTER + INTRA:          -4.646
REMARK INTER:                  -4.612
REMARK INTRA:                  -0.033
REMARK UNBOUND:                -0.033
REMARK SMILES O=C([O-])CCCCCCCCC(=O)[O-]
REMARK SMILES IDX 7 1 6 2 5 3 4 4 2 5 1 6 3 7 8 8 9 9 10 10 11 11 12 12 13 13
REMARK SMILES IDX 14 14
REMARK H PARENT
REMARK Flexibility Score: inf
ROOT
ATOM      1  C   UNL     1      -2.780  -8.066  -4.897  1.00  0.00     0.000 C 
ENDROOT
BRANCH   1   2
ATOM      2  C   UNL     1      -2.323  -6.618  -5.136  1.00  0.00     0.000 C 
BRANCH   2   3
ATOM      3  C   UNL     1      -0.792  -6.486  -5.236  1.00  0.00     0.006 C 
BRANCH   3   4
ATOM      4  C   UNL     1      -0.022  -7.768  -4.881  1.00  0.00     0.053 C 
BRANCH   4   5
ATOM      5  C   UNL     1       1.452  -7.614  -5.095  1.00  0.00     0.041 C 
ATOM      6  O   UNL     1       1.956  -6.469  -5.236  1.00  0.00    -0.550 OA
ATOM      7  O   UNL     1       2.265  -8.738  -5.172  1.00  0.00    -0.550 OA
ENDBRANCH   4   5
ENDBRANCH   3   4
ENDBRANCH   2   3
ENDBRANCH   1   2
BRANCH   1   8
ATOM      8  C   UNL     1      -3.443  -8.646  -6.153  1.00  0.00     0.000 C 
BRANCH   8   9
ATOM      9  C   UNL     1      -4.429  -9.766  -5.785  1.00  0.00     0.000 C 
BRANCH   9  10
ATOM     10  C   UNL     1      -3.793 -10.843  -4.890  1.00  0.00     0.006 C 
BRANCH  10  11
ATOM     11  C   UNL     1      -4.598 -12.149  -4.876  1.00  0.00     0.053 C 
BRANCH  11  12
ATOM     12  C   UNL     1      -5.750 -12.061  -5.826  1.00  0.00     0.041 C 
ATOM     13  O   UNL     1      -5.619 -12.448  -7.017  1.00  0.00    -0.550 OA
ATOM     14  O   UNL     1      -6.954 -11.507  -5.411  1.00  0.00    -0.550 OA
ENDBRANCH  11  12
ENDBRANCH  10  11
ENDBRANCH   9  10
ENDBRANCH   8   9
ENDBRANCH   1   8
TORSDOF 9
ENDMDL
MODEL 2
REMARK VINA RESULT:    -2.787      0.914      1.423
REMARK INTER + INTRA:          -4.286
REMARK INTER:                  -4.345
REMARK INTRA:                   0.059
REMARK UNBOUND:                -0.033
REMARK SMILES O=C([O-])CCCCCCCCC(=O)[O-]
REMARK SMILES IDX 7 1 6 2 5 3 4 4 2 5 1 6 3 7 8 8 9 9 10 10 11 11 12 12 13 13
REMARK SMILES IDX 14 14
REMARK H PARENT
REMARK Flexibility Score: inf
ROOT
ATOM      1  C   UNL     1      -2.652  -8.211  -5.058  1.00  0.00     0.000 C 
ENDROOT
BRANCH   1   2
ATOM      2  C   UNL     1      -2.139  -6.767  -5.175  1.00  0.00     0.000 C 
BRANCH   2   3
ATOM      3  C   UNL     1      -0.610  -6.690  -5.348  1.00  0.00     0.006 C 
BRANCH   3   4
ATOM      4  C   UNL     1       0.140  -7.955  -4.904  1.00  0.00     0.053 C 
BRANCH   4   5
ATOM      5  C   UNL     1       1.625  -7.764  -4.928  1.00  0.00     0.041 C 
ATOM      6  O   UNL     1       2.394  -8.760  -4.875  1.00  0.00    -0.550 OA
ATOM      7  O   UNL     1       2.162  -6.483  -4.977  1.00  0.00    -0.550 OA
ENDBRANCH   4   5
ENDBRANCH   3   4
ENDBRANCH   2   3
ENDBRANCH   1   2
BRANCH   1   8
ATOM      8  C   UNL     1      -3.553  -8.572  -6.246  1.00  0.00     0.000 C 
BRANCH   8   9
ATOM      9  C   UNL     1      -4.272  -9.907  -6.003  1.00  0.00     0.000 C 
BRANCH   9  10
ATOM     10  C   UNL     1      -4.426 -10.738  -7.288  1.00  0.00     0.006 C 
BRANCH  10  11
ATOM     11  C   UNL     1      -5.155 -12.066  -7.048  1.00  0.00     0.053 C 
BRANCH  11  12
ATOM     12  C   UNL     1      -5.487 -12.224  -5.598  1.00  0.00     0.041 C 
ATOM     13  O   UNL     1      -4.815 -13.006  -4.876  1.00  0.00    -0.550 OA
ATOM     14  O   UNL     1      -6.571 -11.545  -5.055  1.00  0.00    -0.550 OA
ENDBRANCH  11  12
ENDBRANCH  10  11
ENDBRANCH   9  10
ENDBRANCH   8   9
ENDBRANCH   1   8
TORSDOF 9
ENDMDL
MODEL 3
REMARK VINA RESULT:    -2.717      2.578      3.665
REMARK INTER + INTRA:          -4.179
REMARK INTER:                  -4.018
REMARK INTRA:                  -0.162
REMARK UNBOUND:                -0.033
REMARK SMILES O=C([O-])CCCCCCCCC(=O)[O-]
REMARK SMILES IDX 7 1 6 2 5 3 4 4 2 5 1 6 3 7 8 8 9 9 10 10 11 11 12 12 13 13
REMARK SMILES IDX 14 14
REMARK H PARENT
REMARK Flexibility Score: inf
ROOT
ATOM      1  C   UNL     1       0.837  -7.510  -5.170  1.00  0.00     0.000 C 
ENDROOT
BRANCH   1   2
ATOM      2  C   UNL     1       1.657  -6.210  -5.180  1.00  0.00     0.000 C 
BRANCH   2   3
ATOM      3  C   UNL     1       3.149  -6.444  -4.877  1.00  0.00     0.006 C 
BRANCH   3   4
ATOM      4  C   UNL     1       4.021  -5.184  -4.989  1.00  0.00     0.053 C 
BRANCH   4   5
ATOM      5  C   UNL     1       5.357  -5.479  -5.600  1.00  0.00     0.041 C 
ATOM      6  O   UNL     1       5.614  -5.104  -6.775  1.00  0.00    -0.550 OA
ATOM      7  O   UNL     1       6.306  -6.196  -4.884  1.00  0.00    -0.550 OA
ENDBRANCH   4   5
ENDBRANCH   3   4
ENDBRANCH   2   3
ENDBRANCH   1   2
BRANCH   1   8
ATOM      8  C   UNL     1      -0.641  -7.228  -5.467  1.00  0.00     0.000 C 
BRANCH   8   9
ATOM      9  C   UNL     1      -1.539  -8.326  -4.877  1.00  0.00     0.000 C 
BRANCH   9  10
ATOM     10  C   UNL     1      -2.990  -8.238  -5.378  1.00  0.00     0.006 C 
BRANCH  10  11
ATOM     11  C   UNL     1      -3.860  -9.397  -4.876  1.00  0.00     0.053 C 
BRANCH  11  12
ATOM     12  C   UNL     1      -4.129 -10.365  -5.985  1.00  0.00     0.041 C 
ATOM     13  O   UNL     1      -3.867 -11.587  -5.836  1.00  0.00    -0.550 OA
ATOM     14  O   UNL     1      -4.624  -9.910  -7.200  1.00  0.00    -0.550 OA
ENDBRANCH  11  12
ENDBRANCH  10  11
ENDBRANCH   9  10
ENDBRANCH   8   9
ENDBRANCH   1   8
TORSDOF 9
ENDMDL
MODEL 4
REMARK VINA RESULT:    -2.532      1.216      7.739
REMARK INTER + INTRA:          -3.898
REMARK INTER:                  -3.687
REMARK INTRA:                  -0.210
REMARK UNBOUND:                -0.033
REMARK SMILES O=C([O-])CCCCCCCCC(=O)[O-]
REMARK SMILES IDX 7 1 6 2 5 3 4 4 2 5 1 6 3 7 8 8 9 9 10 10 11 11 12 12 13 13
REMARK SMILES IDX 14 14
REMARK H PARENT
REMARK Flexibility Score: inf
ROOT
ATOM      1  C   UNL     1      -2.941  -7.796  -5.531  1.00  0.00     0.000 C 
ENDROOT
BRANCH   1   2
ATOM      2  C   UNL     1      -3.259  -9.178  -4.941  1.00  0.00     0.000 C 
BRANCH   2   3
ATOM      3  C   UNL     1      -4.152 -10.029  -5.863  1.00  0.00     0.006 C 
BRANCH   3   4
ATOM      4  C   UNL     1      -4.557 -11.388  -5.270  1.00  0.00     0.053 C 
BRANCH   4   5
ATOM      5  C   UNL     1      -5.607 -12.068  -6.094  1.00  0.00     0.041 C 
ATOM      6  O   UNL     1      -6.828 -11.871  -5.853  1.00  0.00    -0.550 OA
ATOM      7  O   UNL     1      -5.239 -12.944  -7.107  1.00  0.00    -0.550 OA
ENDBRANCH   4   5
ENDBRANCH   3   4
ENDBRANCH   2   3
ENDBRANCH   1   2
BRANCH   1   8
ATOM      8  C   UNL     1      -1.691  -7.193  -4.876  1.00  0.00     0.000 C 
BRANCH   8   9
ATOM      9  C   UNL     1      -0.456  -7.386  -5.768  1.00  0.00     0.000 C 
BRANCH   9  10
ATOM     10  C   UNL     1       0.855  -7.415  -4.966  1.00  0.00     0.006 C 
BRANCH  10  11
ATOM     11  C   UNL     1       1.719  -6.170  -5.200  1.00  0.00     0.053 C 
BRANCH  11  12
ATOM     12  C   UNL     1       3.172  -6.524  -5.139  1.00  0.00     0.041 C 
ATOM     13  O   UNL     1       3.525  -7.706  -4.886  1.00  0.00    -0.550 OA
ATOM     14  O   UNL     1       4.136  -5.540  -5.312  1.00  0.00    -0.550 OA
ENDBRANCH  11  12
ENDBRANCH  10  11
ENDBRANCH   9  10
ENDBRANCH   8   9
ENDBRANCH   1   8
TORSDOF 9
ENDMDL
MODEL 5
REMARK VINA RESULT:    -2.014      1.106      6.929
REMARK INTER + INTRA:          -3.108
REMARK INTER:                  -3.278
REMARK INTRA:                   0.170
REMARK UNBOUND:                -0.033
REMARK SMILES O=C([O-])CCCCCCCCC(=O)[O-]
REMARK SMILES IDX 7 1 6 2 5 3 4 4 2 5 1 6 3 7 8 8 9 9 10 10 11 11 12 12 13 13
REMARK SMILES IDX 14 14
REMARK H PARENT
REMARK Flexibility Score: inf
ROOT
ATOM      1  C   UNL     1      -3.769  -9.618  -6.267  1.00  0.00     0.000 C 
ENDROOT
BRANCH   1   2
ATOM      2  C   UNL     1      -4.333 -10.161  -4.945  1.00  0.00     0.000 C 
BRANCH   2   3
ATOM      3  C   UNL     1      -5.846 -10.440  -5.011  1.00  0.00     0.006 C 
BRANCH   3   4
ATOM      4  C   UNL     1      -6.206 -11.915  -5.252  1.00  0.00     0.053 C 
BRANCH   4   5
ATOM      5  C   UNL     1      -5.151 -12.627  -6.041  1.00  0.00     0.041 C 
ATOM      6  O   UNL     1      -4.093 -13.016  -5.478  1.00  0.00    -0.550 OA
ATOM      7  O   UNL     1      -5.320 -12.833  -7.404  1.00  0.00    -0.550 OA
ENDBRANCH   4   5
ENDBRANCH   3   4
ENDBRANCH   2   3
ENDBRANCH   1   2
BRANCH   1   8
ATOM      8  C   UNL     1      -3.223  -8.196  -6.089  1.00  0.00     0.000 C 
BRANCH   8   9
ATOM      9  C   UNL     1      -2.284  -8.117  -4.875  1.00  0.00     0.000 C 
BRANCH   9  10
ATOM     10  C   UNL     1      -1.211  -7.027  -5.027  1.00  0.00     0.006 C 
BRANCH  10  11
ATOM     11  C   UNL     1      -0.093  -7.430  -5.997  1.00  0.00     0.053 C 
BRANCH  11  12
ATOM     12  C   UNL     1       1.234  -7.395  -5.305  1.00  0.00     0.041 C 
ATOM     13  O   UNL     1       1.799  -8.468  -4.967  1.00  0.00    -0.550 OA
ATOM     14  O   UNL     1       1.823  -6.177  -4.991  1.00  0.00    -0.550 OA
ENDBRANCH  11  12
ENDBRANCH  10  11
ENDBRANCH   9  10
ENDBRANCH   8   9
ENDBRANCH   1   8
TORSDOF 9
ENDMDL
