MODEL 1
REMARK VINA RESULT:    -5.401      0.000      0.000
REMARK INTER + INTRA:          -6.791
REMARK INTER:                  -6.506
REMARK INTRA:                  -0.285
REMARK UNBOUND:                -0.285
REMARK SMILES O=c1c(O)c(-c2ccc(O)c(O)c2)oc2cc(O)cc(O)c12
REMARK SMILES IDX 5 1 3 2 2 3 1 4 22 5 20 6 19 7 17 8 16 9 15 10 14 11 6 12
REMARK SMILES IDX 7 13 8 14 9 15 13 16 11 17 10 18 12 20 4 22 21 24 18 26
REMARK H PARENT 10 19 12 21 4 23 21 25 18 27
REMARK Flexibility Score: inf
ROOT
ATOM      1  C   UNL     1      13.865  -4.409  23.890  1.00  0.00     0.180 A 
ATOM      2  C   UNL     1      12.682  -4.779  23.227  1.00  0.00     0.208 A 
ATOM      3  C   UNL     1      12.022  -3.831  22.430  1.00  0.00     0.238 A 
ATOM      4  O   UNL     1      11.006  -4.191  21.781  1.00  0.00    -0.285 OA
ATOM      5  C   UNL     1      12.521  -2.508  22.351  1.00  0.00     0.111 A 
ATOM      6  C   UNL     1      11.908  -1.452  21.608  1.00  0.00     0.134 A 
ATOM      7  C   UNL     1      12.550  -0.210  21.517  1.00  0.00     0.093 A 
ATOM      8  C   UNL     1      13.748   0.034  22.191  1.00  0.00     0.123 A 
ATOM      9  C   UNL     1      14.325  -0.973  22.962  1.00  0.00     0.094 A 
ATOM     10  C   UNL     1      13.730  -2.234  23.042  1.00  0.00     0.146 A 
ATOM     11  O   UNL     1      14.326  -3.170  23.770  1.00  0.00    -0.452 OA
ENDROOT
BRANCH   1  12
ATOM     12  C   UNL     1      14.624  -5.358  24.735  1.00  0.00     0.025 A 
ATOM     13  C   UNL     1      15.759  -5.996  24.208  1.00  0.00     0.016 A 
ATOM     14  C   UNL     1      16.480  -6.911  24.980  1.00  0.00     0.051 A 
ATOM     15  C   UNL     1      16.070  -7.213  26.282  1.00  0.00     0.157 A 
ATOM     16  C   UNL     1      14.203  -5.680  26.037  1.00  0.00     0.062 A 
ATOM     17  C   UNL     1      14.923  -6.599  26.813  1.00  0.00     0.158 A 
BRANCH  15  18
ATOM     18  O   UNL     1      16.810  -8.128  27.030  1.00  0.00    -0.504 OA
ATOM     19  H   UNL     1      17.822  -8.167  26.986  1.00  0.00     0.293 HD
ENDBRANCH  15  18
BRANCH  17  20
ATOM     20  O   UNL     1      14.502  -6.907  28.106  1.00  0.00    -0.504 OA
ATOM     21  H   UNL     1      14.740  -7.789  28.546  1.00  0.00     0.293 HD
ENDBRANCH  17  20
ENDBRANCH   1  12
BRANCH   2  22
ATOM     22  O   UNL     1      12.164  -6.068  23.380  1.00  0.00    -0.502 OA
ATOM     23  H   UNL     1      12.081  -6.518  24.283  1.00  0.00     0.293 HD
ENDBRANCH   2  22
BRANCH   6  24
ATOM     24  O   UNL     1      10.668  -1.560  20.971  1.00  0.00    -0.507 OA
ATOM     25  H   UNL     1      10.472  -2.162  20.187  1.00  0.00     0.293 HD
ENDBRANCH   6  24
BRANCH   8  26
ATOM     26  O   UNL     1      14.370   1.278  22.108  1.00  0.00    -0.508 OA
ATOM     27  H   UNL     1      15.124   1.536  22.732  1.00  0.00     0.293 HD
ENDBRANCH   8  26
TORSDOF 6
ENDMDL
MODEL 2
REMARK VINA RESULT:    -5.321      1.738      3.473
REMARK INTER + INTRA:          -6.695
REMARK INTER:                  -6.377
REMARK INTRA:                  -0.317
REMARK UNBOUND:                -0.285
REMARK SMILES O=c1c(O)c(-c2ccc(O)c(O)c2)oc2cc(O)cc(O)c12
REMARK SMILES IDX 5 1 3 2 2 3 1 4 22 5 20 6 19 7 17 8 16 9 15 10 14 11 6 12
REMARK SMILES IDX 7 13 8 14 9 15 13 16 11 17 10 18 12 20 4 22 21 24 18 26
REMARK H PARENT 10 19 12 21 4 23 21 25 18 27
REMARK Flexibility Score: inf
ROOT
ATOM      1  C   UNL     1      13.060  -4.781  24.031  1.00  0.00     0.180 A 
ATOM      2  C   UNL     1      13.438  -3.571  23.424  1.00  0.00     0.208 A 
ATOM      3  C   UNL     1      12.493  -2.865  22.665  1.00  0.00     0.238 A 
ATOM      4  O   UNL     1      12.816  -1.746  22.188  1.00  0.00    -0.285 OA
ATOM      5  C   UNL     1      11.197  -3.405  22.472  1.00  0.00     0.111 A 
ATOM      6  C   UNL     1      10.172  -2.797  21.684  1.00  0.00     0.134 A 
ATOM      7  C   UNL     1       8.895  -3.370  21.653  1.00  0.00     0.093 A 
ATOM      8  C   UNL     1       8.622  -4.561  22.329  1.00  0.00     0.123 A 
ATOM      9  C   UNL     1       9.630  -5.190  23.055  1.00  0.00     0.094 A 
ATOM     10  C   UNL     1      10.904  -4.623  23.137  1.00  0.00     0.146 A 
ATOM     11  O   UNL     1      11.827  -5.246  23.859  1.00  0.00    -0.452 OA
ENDROOT
BRANCH   1  12
ATOM     12  C   UNL     1      13.996  -5.575  24.859  1.00  0.00     0.025 A 
ATOM     13  C   UNL     1      14.850  -6.500  24.239  1.00  0.00     0.016 A 
ATOM     14  C   UNL     1      15.728  -7.276  25.002  1.00  0.00     0.051 A 
ATOM     15  C   UNL     1      15.754  -7.149  26.394  1.00  0.00     0.157 A 
ATOM     16  C   UNL     1      14.009  -5.465  26.260  1.00  0.00     0.062 A 
ATOM     17  C   UNL     1      14.887  -6.243  27.029  1.00  0.00     0.158 A 
BRANCH  15  18
ATOM     18  O   UNL     1      16.641  -7.934  27.129  1.00  0.00    -0.504 OA
ATOM     19  H   UNL     1      17.318  -8.543  26.685  1.00  0.00     0.293 HD
ENDBRANCH  15  18
BRANCH  17  20
ATOM     20  O   UNL     1      14.899  -6.123  28.418  1.00  0.00    -0.504 OA
ATOM     21  H   UNL     1      15.268  -6.857  29.010  1.00  0.00     0.293 HD
ENDBRANCH  17  20
ENDBRANCH   1  12
BRANCH   2  22
ATOM     22  O   UNL     1      14.744  -3.093  23.563  1.00  0.00    -0.502 OA
ATOM     23  H   UNL     1      15.035  -2.194  23.202  1.00  0.00     0.293 HD
ENDBRANCH   2  22
BRANCH   6  24
ATOM     24  O   UNL     1      10.362  -1.656  20.899  1.00  0.00    -0.507 OA
ATOM     25  H   UNL     1      10.834  -1.639  20.008  1.00  0.00     0.293 HD
ENDBRANCH   6  24
BRANCH   8  26
ATOM     26  O   UNL     1       7.352  -5.132  22.277  1.00  0.00    -0.508 OA
ATOM     27  H   UNL     1       7.063  -5.842  22.939  1.00  0.00     0.293 HD
ENDBRANCH   8  26
TORSDOF 6
ENDMDL
MODEL 3
REMARK VINA RESULT:    -5.318     10.976     13.451
REMARK INTER + INTRA:          -6.691
REMARK INTER:                  -6.466
REMARK INTRA:                  -0.225
REMARK UNBOUND:                -0.285
REMARK SMILES O=c1c(O)c(-c2ccc(O)c(O)c2)oc2cc(O)cc(O)c12
REMARK SMILES IDX 5 1 3 2 2 3 1 4 22 5 20 6 19 7 17 8 16 9 15 10 14 11 6 12
REMARK SMILES IDX 7 13 8 14 9 15 13 16 11 17 10 18 12 20 4 22 21 24 18 26
REMARK H PARENT 10 19 12 21 4 23 21 25 18 27
REMARK Flexibility Score: inf
ROOT
ATOM      1  C   UNL     1       8.206   6.376  26.507  1.00  0.00     0.180 A 
ATOM      2  C   UNL     1       8.005   5.328  27.423  1.00  0.00     0.208 A 
ATOM      3  C   UNL     1       6.882   5.365  28.264  1.00  0.00     0.238 A 
ATOM      4  O   UNL     1       6.669   4.388  29.027  1.00  0.00    -0.285 OA
ATOM      5  C   UNL     1       6.005   6.476  28.221  1.00  0.00     0.111 A 
ATOM      6  C   UNL     1       4.859   6.640  29.059  1.00  0.00     0.134 A 
ATOM      7  C   UNL     1       4.004   7.730  28.853  1.00  0.00     0.093 A 
ATOM      8  C   UNL     1       4.285   8.694  27.882  1.00  0.00     0.123 A 
ATOM      9  C   UNL     1       5.429   8.571  27.097  1.00  0.00     0.094 A 
ATOM     10  C   UNL     1       6.282   7.476  27.252  1.00  0.00     0.146 A 
ATOM     11  O   UNL     1       7.348   7.388  26.467  1.00  0.00    -0.452 OA
ENDROOT
BRANCH   1  12
ATOM     12  C   UNL     1       9.358   6.400  25.578  1.00  0.00     0.025 A 
ATOM     13  C   UNL     1      10.642   6.671  26.077  1.00  0.00     0.016 A 
ATOM     14  C   UNL     1      11.741   6.720  25.216  1.00  0.00     0.051 A 
ATOM     15  C   UNL     1      11.573   6.515  23.843  1.00  0.00     0.157 A 
ATOM     16  C   UNL     1       9.188   6.215  24.194  1.00  0.00     0.062 A 
ATOM     17  C   UNL     1      10.289   6.266  23.327  1.00  0.00     0.158 A 
BRANCH  15  18
ATOM     18  O   UNL     1      12.688   6.567  23.008  1.00  0.00    -0.504 OA
ATOM     19  H   UNL     1      12.849   7.339  22.372  1.00  0.00     0.293 HD
ENDBRANCH  15  18
BRANCH  17  20
ATOM     20  O   UNL     1      10.113   6.074  21.957  1.00  0.00    -0.504 OA
ATOM     21  H   UNL     1      10.317   6.807  21.289  1.00  0.00     0.293 HD
ENDBRANCH  17  20
ENDBRANCH   1  12
BRANCH   2  22
ATOM     22  O   UNL     1       8.924   4.279  27.503  1.00  0.00    -0.502 OA
ATOM     23  H   UNL     1       9.826   4.379  27.953  1.00  0.00     0.293 HD
ENDBRANCH   2  22
BRANCH   6  24
ATOM     24  O   UNL     1       4.534   5.785  30.116  1.00  0.00    -0.507 OA
ATOM     25  H   UNL     1       3.605   5.648  30.484  1.00  0.00     0.293 HD
ENDBRANCH   6  24
BRANCH   8  26
ATOM     26  O   UNL     1       3.437   9.784  27.697  1.00  0.00    -0.508 OA
ATOM     27  H   UNL     1       3.302  10.201  26.784  1.00  0.00     0.293 HD
ENDBRANCH   8  26
TORSDOF 6
ENDMDL
MODEL 4
REMARK VINA RESULT:    -5.317     16.895     18.187
REMARK INTER + INTRA:          -6.689
REMARK INTER:                  -6.570
REMARK INTRA:                  -0.120
REMARK UNBOUND:                -0.285
REMARK SMILES O=c1c(O)c(-c2ccc(O)c(O)c2)oc2cc(O)cc(O)c12
REMARK SMILES IDX 5 1 3 2 2 3 1 4 22 5 20 6 19 7 17 8 16 9 15 10 14 11 6 12
REMARK SMILES IDX 7 13 8 14 9 15 13 16 11 17 10 18 12 20 4 22 21 24 18 26
REMARK H PARENT 10 19 12 21 4 23 21 25 18 27
REMARK Flexibility Score: inf
ROOT
ATOM      1  C   UNL     1      14.902   6.444  37.836  1.00  0.00     0.180 A 
ATOM      2  C   UNL     1      14.829   6.406  39.239  1.00  0.00     0.208 A 
ATOM      3  C   UNL     1      13.610   6.707  39.865  1.00  0.00     0.238 A 
ATOM      4  O   UNL     1      13.531   6.598  41.116  1.00  0.00    -0.285 OA
ATOM      5  C   UNL     1      12.494   7.099  39.085  1.00  0.00     0.111 A 
ATOM      6  C   UNL     1      11.221   7.471  39.617  1.00  0.00     0.134 A 
ATOM      7  C   UNL     1      10.160   7.738  38.743  1.00  0.00     0.093 A 
ATOM      8  C   UNL     1      10.340   7.708  37.358  1.00  0.00     0.123 A 
ATOM      9  C   UNL     1      11.592   7.400  36.832  1.00  0.00     0.094 A 
ATOM     10  C   UNL     1      12.661   7.092  37.676  1.00  0.00     0.146 A 
ATOM     11  O   UNL     1      13.830   6.783  37.129  1.00  0.00    -0.452 OA
ENDROOT
BRANCH   1  12
ATOM     12  C   UNL     1      16.148   6.124  37.103  1.00  0.00     0.025 A 
ATOM     13  C   UNL     1      16.719   4.847  37.237  1.00  0.00     0.016 A 
ATOM     14  C   UNL     1      17.906   4.529  36.572  1.00  0.00     0.051 A 
ATOM     15  C   UNL     1      18.547   5.483  35.776  1.00  0.00     0.157 A 
ATOM     16  C   UNL     1      16.807   7.087  36.320  1.00  0.00     0.062 A 
ATOM     17  C   UNL     1      17.999   6.771  35.653  1.00  0.00     0.158 A 
BRANCH  15  18
ATOM     18  O   UNL     1      19.729   5.137  35.122  1.00  0.00    -0.504 OA
ATOM     19  H   UNL     1      20.635   5.213  35.569  1.00  0.00     0.293 HD
ENDBRANCH  15  18
BRANCH  17  20
ATOM     20  O   UNL     1      18.642   7.731  34.872  1.00  0.00    -0.504 OA
ATOM     21  H   UNL     1      18.991   7.515  33.946  1.00  0.00     0.293 HD
ENDBRANCH  17  20
ENDBRANCH   1  12
BRANCH   2  22
ATOM     22  O   UNL     1      15.961   6.091  39.994  1.00  0.00    -0.502 OA
ATOM     23  H   UNL     1      16.797   6.662  39.984  1.00  0.00     0.293 HD
ENDBRANCH   2  22
BRANCH   6  24
ATOM     24  O   UNL     1      10.955   7.618  40.982  1.00  0.00    -0.507 OA
ATOM     25  H   UNL     1      11.600   7.996  41.659  1.00  0.00     0.293 HD
ENDBRANCH   6  24
BRANCH   8  26
ATOM     26  O   UNL     1       9.282   7.992  36.498  1.00  0.00    -0.508 OA
ATOM     27  H   UNL     1       8.386   7.529  36.588  1.00  0.00     0.293 HD
ENDBRANCH   8  26
TORSDOF 6
ENDMDL
MODEL 5
REMARK VINA RESULT:    -5.226     15.557     17.058
REMARK INTER + INTRA:          -6.580
REMARK INTER:                  -6.366
REMARK INTRA:                  -0.214
REMARK UNBOUND:                -0.285
REMARK SMILES O=c1c(O)c(-c2ccc(O)c(O)c2)oc2cc(O)cc(O)c12
REMARK SMILES IDX 5 1 3 2 2 3 1 4 22 5 20 6 19 7 17 8 16 9 15 10 14 11 6 12
REMARK SMILES IDX 7 13 8 14 9 15 13 16 11 17 10 18 12 20 4 22 21 24 18 26
REMARK H PARENT 10 19 12 21 4 23 21 25 18 27
REMARK Flexibility Score: inf
ROOT
ATOM      1  C   UNL     1      16.931   6.446  35.850  1.00  0.00     0.180 A 
ATOM      2  C   UNL     1      17.129   5.388  34.946  1.00  0.00     0.208 A 
ATOM      3  C   UNL     1      18.259   5.405  34.114  1.00  0.00     0.238 A 
ATOM      4  O   UNL     1      18.468   4.419  33.361  1.00  0.00    -0.285 OA
ATOM      5  C   UNL     1      19.148   6.507  34.155  1.00  0.00     0.111 A 
ATOM      6  C   UNL     1      20.302   6.652  33.325  1.00  0.00     0.134 A 
ATOM      7  C   UNL     1      21.167   7.734  33.529  1.00  0.00     0.093 A 
ATOM      8  C   UNL     1      20.888   8.710  34.488  1.00  0.00     0.123 A 
ATOM      9  C   UNL     1      19.737   8.606  35.265  1.00  0.00     0.094 A 
ATOM     10  C   UNL     1      18.874   7.519  35.112  1.00  0.00     0.146 A 
ATOM     11  O   UNL     1      17.800   7.450  35.889  1.00  0.00    -0.452 OA
ENDROOT
BRANCH   1  12
ATOM     12  C   UNL     1      15.772   6.491  36.770  1.00  0.00     0.025 A 
ATOM     13  C   UNL     1      14.491   6.741  36.253  1.00  0.00     0.016 A 
ATOM     14  C   UNL     1      13.384   6.809  37.104  1.00  0.00     0.051 A 
ATOM     15  C   UNL     1      13.543   6.643  38.483  1.00  0.00     0.157 A 
ATOM     16  C   UNL     1      15.931   6.346  38.159  1.00  0.00     0.062 A 
ATOM     17  C   UNL     1      14.824   6.415  39.016  1.00  0.00     0.158 A 
BRANCH  15  18
ATOM     18  O   UNL     1      12.421   6.714  39.308  1.00  0.00    -0.504 OA
ATOM     19  H   UNL     1      12.235   7.517  39.897  1.00  0.00     0.293 HD
ENDBRANCH  15  18
BRANCH  17  20
ATOM     20  O   UNL     1      14.990   6.263  40.392  1.00  0.00    -0.504 OA
ATOM     21  H   UNL     1      15.204   7.052  40.990  1.00  0.00     0.293 HD
ENDBRANCH  17  20
ENDBRANCH   1  12
BRANCH   2  22
ATOM     22  O   UNL     1      16.199   4.348  34.867  1.00  0.00    -0.502 OA
ATOM     23  H   UNL     1      16.012   3.725  35.643  1.00  0.00     0.293 HD
ENDBRANCH   2  22
BRANCH   6  24
ATOM     24  O   UNL     1      20.627   5.784  32.278  1.00  0.00    -0.507 OA
ATOM     25  H   UNL     1      20.732   6.056  31.313  1.00  0.00     0.293 HD
ENDBRANCH   6  24
BRANCH   8  26
ATOM     26  O   UNL     1      21.746   9.792  34.671  1.00  0.00    -0.508 OA
ATOM     27  H   UNL     1      21.398  10.707  34.928  1.00  0.00     0.293 HD
ENDBRANCH   8  26
TORSDOF 6
ENDMDL
MODEL 6
REMARK VINA RESULT:    -5.191      2.067      7.420
REMARK INTER + INTRA:          -6.538
REMARK INTER:                  -6.505
REMARK INTRA:                  -0.033
REMARK UNBOUND:                -0.285
REMARK SMILES O=c1c(O)c(-c2ccc(O)c(O)c2)oc2cc(O)cc(O)c12
REMARK SMILES IDX 5 1 3 2 2 3 1 4 22 5 20 6 19 7 17 8 16 9 15 10 14 11 6 12
REMARK SMILES IDX 7 13 8 14 9 15 13 16 11 17 10 18 12 20 4 22 21 24 18 26
REMARK H PARENT 10 19 12 21 4 23 21 25 18 27
REMARK Flexibility Score: inf
ROOT
ATOM      1  C   UNL     1      14.147  -5.420  25.013  1.00  0.00     0.180 A 
ATOM      2  C   UNL     1      14.154  -4.906  26.321  1.00  0.00     0.208 A 
ATOM      3  C   UNL     1      14.913  -5.557  27.305  1.00  0.00     0.238 A 
ATOM      4  O   UNL     1      14.974  -5.048  28.454  1.00  0.00    -0.285 OA
ATOM      5  C   UNL     1      15.611  -6.747  26.985  1.00  0.00     0.111 A 
ATOM      6  C   UNL     1      16.376  -7.516  27.915  1.00  0.00     0.134 A 
ATOM      7  C   UNL     1      17.111  -8.618  27.459  1.00  0.00     0.093 A 
ATOM      8  C   UNL     1      17.058  -9.017  26.122  1.00  0.00     0.123 A 
ATOM      9  C   UNL     1      16.271  -8.306  25.219  1.00  0.00     0.094 A 
ATOM     10  C   UNL     1      15.557  -7.180  25.634  1.00  0.00     0.146 A 
ATOM     11  O   UNL     1      14.838  -6.520  24.735  1.00  0.00    -0.452 OA
ENDROOT
BRANCH   1  12
ATOM     12  C   UNL     1      13.383  -4.781  23.918  1.00  0.00     0.025 A 
ATOM     13  C   UNL     1      13.587  -3.420  23.638  1.00  0.00     0.016 A 
ATOM     14  C   UNL     1      12.863  -2.790  22.623  1.00  0.00     0.051 A 
ATOM     15  C   UNL     1      11.915  -3.503  21.884  1.00  0.00     0.157 A 
ATOM     16  C   UNL     1      12.414  -5.491  23.187  1.00  0.00     0.062 A 
ATOM     17  C   UNL     1      11.684  -4.860  22.170  1.00  0.00     0.158 A 
BRANCH  15  18
ATOM     18  O   UNL     1      11.208  -2.849  20.875  1.00  0.00    -0.504 OA
ATOM     19  H   UNL     1      10.328  -3.201  20.518  1.00  0.00     0.293 HD
ENDBRANCH  15  18
BRANCH  17  20
ATOM     20  O   UNL     1      10.729  -5.573  21.446  1.00  0.00    -0.504 OA
ATOM     21  H   UNL     1      10.053  -5.105  20.854  1.00  0.00     0.293 HD
ENDBRANCH  17  20
ENDBRANCH   1  12
BRANCH   2  22
ATOM     22  O   UNL     1      13.397  -3.774  26.635  1.00  0.00    -0.502 OA
ATOM     23  H   UNL     1      13.509  -2.893  26.148  1.00  0.00     0.293 HD
ENDBRANCH   2  22
BRANCH   6  24
ATOM     24  O   UNL     1      16.427  -7.259  29.288  1.00  0.00    -0.507 OA
ATOM     25  H   UNL     1      15.959  -6.495  29.751  1.00  0.00     0.293 HD
ENDBRANCH   6  24
BRANCH   8  26
ATOM     26  O   UNL     1      17.779 -10.125  25.683  1.00  0.00    -0.508 OA
ATOM     27  H   UNL     1      18.749 -10.049  25.400  1.00  0.00     0.293 HD
ENDBRANCH   8  26
TORSDOF 6
ENDMDL
MODEL 7
REMARK VINA RESULT:    -5.153     13.350     16.006
REMARK INTER + INTRA:          -6.492
REMARK INTER:                  -6.171
REMARK INTRA:                  -0.321
REMARK UNBOUND:                -0.285
REMARK SMILES O=c1c(O)c(-c2ccc(O)c(O)c2)oc2cc(O)cc(O)c12
REMARK SMILES IDX 5 1 3 2 2 3 1 4 22 5 20 6 19 7 17 8 16 9 15 10 14 11 6 12
REMARK SMILES IDX 7 13 8 14 9 15 13 16 11 17 10 18 12 20 4 22 21 24 18 26
REMARK H PARENT 10 19 12 21 4 23 21 25 18 27
REMARK Flexibility Score: inf
ROOT
ATOM      1  C   UNL     1      11.074  -4.472  38.737  1.00  0.00     0.180 A 
ATOM      2  C   UNL     1      12.321  -4.725  39.334  1.00  0.00     0.208 A 
ATOM      3  C   UNL     1      12.988  -3.678  39.988  1.00  0.00     0.238 A 
ATOM      4  O   UNL     1      14.068  -3.929  40.584  1.00  0.00    -0.285 OA
ATOM      5  C   UNL     1      12.429  -2.377  39.988  1.00  0.00     0.111 A 
ATOM      6  C   UNL     1      13.040  -1.230  40.581  1.00  0.00     0.134 A 
ATOM      7  C   UNL     1      12.343  -0.015  40.612  1.00  0.00     0.093 A 
ATOM      8  C   UNL     1      11.086   0.111  40.017  1.00  0.00     0.123 A 
ATOM      9  C   UNL     1      10.506  -0.989  39.388  1.00  0.00     0.094 A 
ATOM     10  C   UNL     1      11.159  -2.223  39.373  1.00  0.00     0.146 A 
ATOM     11  O   UNL     1      10.559  -3.249  38.782  1.00  0.00    -0.452 OA
ENDROOT
BRANCH   1  12
ATOM     12  C   UNL     1      10.303  -5.529  38.043  1.00  0.00     0.025 A 
ATOM     13  C   UNL     1       9.376  -6.295  38.768  1.00  0.00     0.016 A 
ATOM     14  C   UNL     1       8.653  -7.312  38.139  1.00  0.00     0.051 A 
ATOM     15  C   UNL     1       8.854  -7.588  36.784  1.00  0.00     0.157 A 
ATOM     16  C   UNL     1      10.519  -5.822  36.685  1.00  0.00     0.062 A 
ATOM     17  C   UNL     1       9.795  -6.843  36.053  1.00  0.00     0.158 A 
BRANCH  15  18
ATOM     18  O   UNL     1       8.115  -8.606  36.182  1.00  0.00    -0.504 OA
ATOM     19  H   UNL     1       7.505  -8.435  35.392  1.00  0.00     0.293 HD
ENDBRANCH  15  18
BRANCH  17  20
ATOM     20  O   UNL     1      10.010  -7.123  34.704  1.00  0.00    -0.504 OA
ATOM     21  H   UNL     1      10.935  -7.073  34.293  1.00  0.00     0.293 HD
ENDBRANCH  17  20
ENDBRANCH   1  12
BRANCH   2  22
ATOM     22  O   UNL     1      12.892  -5.998  39.257  1.00  0.00    -0.502 OA
ATOM     23  H   UNL     1      12.638  -6.665  38.539  1.00  0.00     0.293 HD
ENDBRANCH   2  22
BRANCH   6  24
ATOM     24  O   UNL     1      14.328  -1.222  41.125  1.00  0.00    -0.507 OA
ATOM     25  H   UNL     1      14.793  -2.024  41.521  1.00  0.00     0.293 HD
ENDBRANCH   6  24
BRANCH   8  26
ATOM     26  O   UNL     1      10.409   1.328  40.038  1.00  0.00    -0.508 OA
ATOM     27  H   UNL     1      10.858   2.179  40.352  1.00  0.00     0.293 HD
ENDBRANCH   8  26
TORSDOF 6
ENDMDL
MODEL 8
REMARK VINA RESULT:    -5.149     15.993     17.577
REMARK INTER + INTRA:          -6.487
REMARK INTER:                  -6.169
REMARK INTRA:                  -0.318
REMARK UNBOUND:                -0.285
REMARK SMILES O=c1c(O)c(-c2ccc(O)c(O)c2)oc2cc(O)cc(O)c12
REMARK SMILES IDX 5 1 3 2 2 3 1 4 22 5 20 6 19 7 17 8 16 9 15 10 14 11 6 12
REMARK SMILES IDX 7 13 8 14 9 15 13 16 11 17 10 18 12 20 4 22 21 24 18 26
REMARK H PARENT 10 19 12 21 4 23 21 25 18 27
REMARK Flexibility Score: inf
ROOT
ATOM      1  C   UNL     1      18.732   6.580  35.593  1.00  0.00     0.180 A 
ATOM      2  C   UNL     1      19.176   5.320  36.029  1.00  0.00     0.208 A 
ATOM      3  C   UNL     1      18.310   4.518  36.788  1.00  0.00     0.238 A 
ATOM      4  O   UNL     1      18.687   3.362  37.111  1.00  0.00    -0.285 OA
ATOM      5  C   UNL     1      17.031   5.007  37.150  1.00  0.00     0.111 A 
ATOM      6  C   UNL     1      16.087   4.298  37.954  1.00  0.00     0.134 A 
ATOM      7  C   UNL     1      14.811   4.838  38.158  1.00  0.00     0.093 A 
ATOM      8  C   UNL     1      14.465   6.088  37.641  1.00  0.00     0.123 A 
ATOM      9  C   UNL     1      15.398   6.812  36.901  1.00  0.00     0.094 A 
ATOM     10  C   UNL     1      16.666   6.284  36.648  1.00  0.00     0.146 A 
ATOM     11  O   UNL     1      17.514   6.999  35.920  1.00  0.00    -0.452 OA
ENDROOT
BRANCH   1  12
ATOM     12  C   UNL     1      19.582   7.477  34.777  1.00  0.00     0.025 A 
ATOM     13  C   UNL     1      20.475   8.351  35.417  1.00  0.00     0.016 A 
ATOM     14  C   UNL     1      21.272   9.221  34.668  1.00  0.00     0.051 A 
ATOM     15  C   UNL     1      21.179   9.242  33.274  1.00  0.00     0.157 A 
ATOM     16  C   UNL     1      19.475   7.514  33.376  1.00  0.00     0.062 A 
ATOM     17  C   UNL     1      20.272   8.388  32.622  1.00  0.00     0.158 A 
BRANCH  15  18
ATOM     18  O   UNL     1      21.989  10.119  32.553  1.00  0.00    -0.504 OA
ATOM     19  H   UNL     1      22.275   9.927  31.600  1.00  0.00     0.293 HD
ENDBRANCH  15  18
BRANCH  17  20
ATOM     20  O   UNL     1      20.164   8.414  31.232  1.00  0.00    -0.504 OA
ATOM     21  H   UNL     1      19.944   9.268  30.734  1.00  0.00     0.293 HD
ENDBRANCH  17  20
ENDBRANCH   1  12
BRANCH   2  22
ATOM     22  O   UNL     1      20.470   4.887  35.727  1.00  0.00    -0.502 OA
ATOM     23  H   UNL     1      21.226   5.530  35.528  1.00  0.00     0.293 HD
ENDBRANCH   2  22
BRANCH   6  24
ATOM     24  O   UNL     1      16.358   3.083  38.592  1.00  0.00    -0.507 OA
ATOM     25  H   UNL     1      16.115   2.865  39.546  1.00  0.00     0.293 HD
ENDBRANCH   6  24
BRANCH   8  26
ATOM     26  O   UNL     1      13.199   6.624  37.864  1.00  0.00    -0.508 OA
ATOM     27  H   UNL     1      12.596   6.898  37.098  1.00  0.00     0.293 HD
ENDBRANCH   8  26
TORSDOF 6
ENDMDL
MODEL 9
REMARK VINA RESULT:    -5.126     13.210     16.109
REMARK INTER + INTRA:          -6.460
REMARK INTER:                  -6.129
REMARK INTRA:                  -0.331
REMARK UNBOUND:                -0.285
REMARK SMILES O=c1c(O)c(-c2ccc(O)c(O)c2)oc2cc(O)cc(O)c12
REMARK SMILES IDX 5 1 3 2 2 3 1 4 22 5 20 6 19 7 17 8 16 9 15 10 14 11 6 12
REMARK SMILES IDX 7 13 8 14 9 15 13 16 11 17 10 18 12 20 4 22 21 24 18 26
REMARK H PARENT 10 19 12 21 4 23 21 25 18 27
REMARK Flexibility Score: inf
ROOT
ATOM      1  C   UNL     1      11.601  -4.764  38.650  1.00  0.00     0.180 A 
ATOM      2  C   UNL     1      11.238  -3.424  38.872  1.00  0.00     0.208 A 
ATOM      3  C   UNL     1      12.146  -2.570  39.518  1.00  0.00     0.238 A 
ATOM      4  O   UNL     1      11.845  -1.355  39.646  1.00  0.00    -0.285 OA
ATOM      5  C   UNL     1      13.383  -3.079  39.985  1.00  0.00     0.111 A 
ATOM      6  C   UNL     1      14.361  -2.314  40.692  1.00  0.00     0.134 A 
ATOM      7  C   UNL     1      15.593  -2.898  41.012  1.00  0.00     0.093 A 
ATOM      8  C   UNL     1      15.860  -4.234  40.706  1.00  0.00     0.123 A 
ATOM      9  C   UNL     1      14.891  -5.003  40.065  1.00  0.00     0.094 A 
ATOM     10  C   UNL     1      13.666  -4.440  39.699  1.00  0.00     0.146 A 
ATOM     11  O   UNL     1      12.782  -5.204  39.071  1.00  0.00    -0.452 OA
ENDROOT
BRANCH   1  12
ATOM     12  C   UNL     1      10.705  -5.720  37.963  1.00  0.00     0.025 A 
ATOM     13  C   UNL     1       9.832  -6.515  38.724  1.00  0.00     0.016 A 
ATOM     14  C   UNL     1       8.991  -7.440  38.099  1.00  0.00     0.051 A 
ATOM     15  C   UNL     1       9.020  -7.595  36.710  1.00  0.00     0.157 A 
ATOM     16  C   UNL     1      10.747  -5.894  36.569  1.00  0.00     0.062 A 
ATOM     17  C   UNL     1       9.906  -6.822  35.940  1.00  0.00     0.158 A 
BRANCH  15  18
ATOM     18  O   UNL     1       8.168  -8.524  36.114  1.00  0.00    -0.504 OA
ATOM     19  H   UNL     1       8.515  -9.361  35.660  1.00  0.00     0.293 HD
ENDBRANCH  15  18
BRANCH  17  20
ATOM     20  O   UNL     1       9.949  -6.983  34.555  1.00  0.00    -0.504 OA
ATOM     21  H   UNL     1       9.125  -7.239  34.025  1.00  0.00     0.293 HD
ENDBRANCH  17  20
ENDBRANCH   1  12
BRANCH   2  22
ATOM     22  O   UNL     1       9.982  -2.961  38.472  1.00  0.00    -0.502 OA
ATOM     23  H   UNL     1       9.171  -3.564  38.420  1.00  0.00     0.293 HD
ENDBRANCH   2  22
BRANCH   6  24
ATOM     24  O   UNL     1      14.164  -0.999  41.125  1.00  0.00    -0.507 OA
ATOM     25  H   UNL     1      14.892  -0.384  41.454  1.00  0.00     0.293 HD
ENDBRANCH   6  24
BRANCH   8  26
ATOM     26  O   UNL     1      17.083  -4.810  41.044  1.00  0.00    -0.508 OA
ATOM     27  H   UNL     1      17.695  -5.206  40.340  1.00  0.00     0.293 HD
ENDBRANCH   8  26
TORSDOF 6
ENDMDL
