MODEL 1
REMARK VINA RESULT:    -3.375      0.000      0.000
REMARK INTER + INTRA:          -9.054
REMARK INTER:                  -6.335
REMARK INTRA:                  -2.719
REMARK UNBOUND:                -2.719
REMARK SMILES CCCCCCCCC=CCCCCCCCC(=O)[O-]
REMARK SMILES IDX 10 1 9 2 11 3 12 4 13 5 14 6 15 7 16 8 17 9 18 10 19 11
REMARK SMILES IDX 20 12 8 13 7 14 6 15 5 16 4 17 3 18 2 19 1 20
REMARK H PARENT
REMARK Flexibility Score: inf
ROOT
ATOM      1  C   UNL     1      55.222  28.491  53.228  1.00  0.00    -0.031 C 
ATOM      2  C   UNL     1      54.197  28.327  52.372  1.00  0.00    -0.031 C 
ENDROOT
BRANCH   1   3
ATOM      3  C   UNL     1      56.395  29.407  52.982  1.00  0.00     0.027 C 
BRANCH   3   4
ATOM      4  C   UNL     1      57.703  28.606  52.902  1.00  0.00     0.004 C 
BRANCH   4   5
ATOM      5  C   UNL     1      58.658  29.136  51.819  1.00  0.00     0.000 C 
BRANCH   5   6
ATOM      6  C   UNL     1      58.314  28.604  50.418  1.00  0.00     0.000 C 
BRANCH   6   7
ATOM      7  C   UNL     1      59.564  28.213  49.613  1.00  0.00     0.000 C 
BRANCH   7   8
ATOM      8  C   UNL     1      59.853  26.703  49.661  1.00  0.00     0.006 C 
BRANCH   8   9
ATOM      9  C   UNL     1      60.741  26.320  50.853  1.00  0.00     0.053 C 
BRANCH   9  10
ATOM     10  C   UNL     1      62.089  26.966  50.771  1.00  0.00     0.041 C 
ATOM     11  O   UNL     1      62.555  27.588  51.763  1.00  0.00    -0.550 OA
ATOM     12  O   UNL     1      62.818  26.908  49.590  1.00  0.00    -0.550 OA
ENDBRANCH   9  10
ENDBRANCH   8   9
ENDBRANCH   7   8
ENDBRANCH   6   7
ENDBRANCH   5   6
ENDBRANCH   4   5
ENDBRANCH   3   4
ENDBRANCH   1   3
BRANCH   2  13
ATOM     13  C   UNL     1      54.119  29.007  51.028  1.00  0.00     0.027 C 
BRANCH  13  14
ATOM     14  C   UNL     1      53.217  28.225  50.064  1.00  0.00     0.004 C 
BRANCH  14  15
ATOM     15  C   UNL     1      53.061  26.767  50.518  1.00  0.00     0.000 C 
BRANCH  15  16
ATOM     16  C   UNL     1      53.482  25.753  49.438  1.00  0.00     0.000 C 
BRANCH  16  17
ATOM     17  C   UNL     1      54.756  24.949  49.756  1.00  0.00    -0.000 C 
BRANCH  17  18
ATOM     18  C   UNL     1      55.949  25.843  50.135  1.00  0.00    -0.000 C 
BRANCH  18  19
ATOM     19  C   UNL     1      56.647  25.376  51.421  1.00  0.00    -0.003 C 
ATOM     20  C   UNL     1      55.669  24.838  52.466  1.00  0.00     0.004 C 
ENDBRANCH  18  19
ENDBRANCH  17  18
ENDBRANCH  16  17
ENDBRANCH  15  16
ENDBRANCH  14  15
ENDBRANCH  13  14
ENDBRANCH   2  13
TORSDOF 15
ENDMDL
MODEL 2
REMARK VINA RESULT:    -3.363      2.726      6.062
REMARK INTER + INTRA:          -9.031
REMARK INTER:                  -6.157
REMARK INTRA:                  -2.874
REMARK UNBOUND:                -2.719
REMARK SMILES CCCCCCCCC=CCCCCCCCC(=O)[O-]
REMARK SMILES IDX 10 1 9 2 11 3 12 4 13 5 14 6 15 7 16 8 17 9 18 10 19 11
REMARK SMILES IDX 20 12 8 13 7 14 6 15 5 16 4 17 3 18 2 19 1 20
REMARK H PARENT
REMARK Flexibility Score: inf
ROOT
ATOM      1  C   UNL     1      56.861  25.909  51.413  1.00  0.00    -0.031 C 
ATOM      2  C   UNL     1      57.393  27.094  51.763  1.00  0.00    -0.031 C 
ENDROOT
BRANCH   1   3
ATOM      3  C   UNL     1      56.266  25.612  50.059  1.00  0.00     0.027 C 
BRANCH   3   4
ATOM      4  C   UNL     1      54.819  25.116  50.199  1.00  0.00     0.004 C 
BRANCH   4   5
ATOM      5  C   UNL     1      53.794  26.104  49.617  1.00  0.00     0.000 C 
BRANCH   5   6
ATOM      6  C   UNL     1      53.286  27.111  50.663  1.00  0.00     0.000 C 
BRANCH   6   7
ATOM      7  C   UNL     1      53.771  28.543  50.387  1.00  0.00     0.000 C 
BRANCH   7   8
ATOM      8  C   UNL     1      53.553  29.486  51.583  1.00  0.00     0.006 C 
BRANCH   8   9
ATOM      9  C   UNL     1      54.446  29.122  52.777  1.00  0.00     0.053 C 
BRANCH   9  10
ATOM     10  C   UNL     1      55.276  30.285  53.225  1.00  0.00     0.041 C 
ATOM     11  O   UNL     1      56.401  30.092  53.759  1.00  0.00    -0.550 OA
ATOM     12  O   UNL     1      54.794  31.580  53.082  1.00  0.00    -0.550 OA
ENDBRANCH   9  10
ENDBRANCH   8   9
ENDBRANCH   7   8
ENDBRANCH   6   7
ENDBRANCH   5   6
ENDBRANCH   4   5
ENDBRANCH   3   4
ENDBRANCH   1   3
BRANCH   2  13
ATOM     13  C   UNL     1      57.413  28.298  50.854  1.00  0.00     0.027 C 
BRANCH  13  14
ATOM     14  C   UNL     1      58.848  28.776  50.602  1.00  0.00     0.004 C 
BRANCH  14  15
ATOM     15  C   UNL     1      59.437  28.113  49.349  1.00  0.00     0.000 C 
BRANCH  15  16
ATOM     16  C   UNL     1      60.632  27.193  49.661  1.00  0.00     0.000 C 
BRANCH  16  17
ATOM     17  C   UNL     1      60.278  25.707  49.860  1.00  0.00    -0.000 C 
BRANCH  17  18
ATOM     18  C   UNL     1      60.597  25.201  51.277  1.00  0.00    -0.000 C 
BRANCH  18  19
ATOM     19  C   UNL     1      61.382  26.230  52.105  1.00  0.00    -0.003 C 
ATOM     20  C   UNL     1      60.643  26.659  53.373  1.00  0.00     0.004 C 
ENDBRANCH  18  19
ENDBRANCH  17  18
ENDBRANCH  16  17
ENDBRANCH  15  16
ENDBRANCH  14  15
ENDBRANCH  13  14
ENDBRANCH   2  13
TORSDOF 15
ENDMDL
MODEL 3
REMARK VINA RESULT:    -3.356      2.082      3.540
REMARK INTER + INTRA:          -9.018
REMARK INTER:                  -6.422
REMARK INTRA:                  -2.595
REMARK UNBOUND:                -2.719
REMARK SMILES CCCCCCCCC=CCCCCCCCC(=O)[O-]
REMARK SMILES IDX 10 1 9 2 11 3 12 4 13 5 14 6 15 7 16 8 17 9 18 10 19 11
REMARK SMILES IDX 20 12 8 13 7 14 6 15 5 16 4 17 3 18 2 19 1 20
REMARK H PARENT
REMARK Flexibility Score: inf
ROOT
ATOM      1  C   UNL     1      57.136  27.343  51.747  1.00  0.00    -0.031 C 
ATOM      2  C   UNL     1      56.725  26.095  51.455  1.00  0.00    -0.031 C 
ENDROOT
BRANCH   1   3
ATOM      3  C   UNL     1      57.426  28.404  50.715  1.00  0.00     0.027 C 
BRANCH   3   4
ATOM      4  C   UNL     1      58.931  28.705  50.653  1.00  0.00     0.004 C 
BRANCH   4   5
ATOM      5  C   UNL     1      59.642  27.941  49.524  1.00  0.00     0.000 C 
BRANCH   5   6
ATOM      6  C   UNL     1      60.667  26.924  50.053  1.00  0.00     0.000 C 
BRANCH   6   7
ATOM      7  C   UNL     1      60.237  25.470  49.802  1.00  0.00     0.000 C 
BRANCH   7   8
ATOM      8  C   UNL     1      60.140  24.647  51.098  1.00  0.00     0.006 C 
BRANCH   8   9
ATOM      9  C   UNL     1      61.502  24.084  51.529  1.00  0.00     0.053 C 
BRANCH   9  10
ATOM     10  C   UNL     1      61.833  22.815  50.806  1.00  0.00     0.041 C 
ATOM     11  O   UNL     1      60.940  22.199  50.165  1.00  0.00    -0.550 OA
ATOM     12  O   UNL     1      63.120  22.295  50.864  1.00  0.00    -0.550 OA
ENDBRANCH   9  10
ENDBRANCH   8   9
ENDBRANCH   7   8
ENDBRANCH   6   7
ENDBRANCH   5   6
ENDBRANCH   4   5
ENDBRANCH   3   4
ENDBRANCH   1   3
BRANCH   2  13
ATOM     13  C   UNL     1      56.549  25.585  50.047  1.00  0.00     0.027 C 
BRANCH  13  14
ATOM     14  C   UNL     1      55.077  25.280  49.748  1.00  0.00     0.004 C 
BRANCH  14  15
ATOM     15  C   UNL     1      54.245  25.263  51.038  1.00  0.00     0.000 C 
BRANCH  15  16
ATOM     16  C   UNL     1      53.098  26.291  51.028  1.00  0.00     0.000 C 
BRANCH  16  17
ATOM     17  C   UNL     1      53.237  27.415  49.984  1.00  0.00    -0.000 C 
BRANCH  17  18
ATOM     18  C   UNL     1      53.757  28.731  50.588  1.00  0.00    -0.000 C 
BRANCH  18  19
ATOM     19  C   UNL     1      53.641  28.760  52.119  1.00  0.00    -0.003 C 
ATOM     20  C   UNL     1      54.563  29.795  52.765  1.00  0.00     0.004 C 
ENDBRANCH  18  19
ENDBRANCH  17  18
ENDBRANCH  16  17
ENDBRANCH  15  16
ENDBRANCH  14  15
ENDBRANCH  13  14
ENDBRANCH   2  13
TORSDOF 15
ENDMDL
MODEL 4
REMARK VINA RESULT:    -3.226      2.063      3.577
REMARK INTER + INTRA:          -8.774
REMARK INTER:                  -5.764
REMARK INTRA:                  -3.010
REMARK UNBOUND:                -2.719
REMARK SMILES CCCCCCCCC=CCCCCCCCC(=O)[O-]
REMARK SMILES IDX 10 1 9 2 11 3 12 4 13 5 14 6 15 7 16 8 17 9 18 10 19 11
REMARK SMILES IDX 20 12 8 13 7 14 6 15 5 16 4 17 3 18 2 19 1 20
REMARK H PARENT
REMARK Flexibility Score: inf
ROOT
ATOM      1  C   UNL     1      57.072  27.348  51.723  1.00  0.00    -0.031 C 
ATOM      2  C   UNL     1      56.622  26.112  51.439  1.00  0.00    -0.031 C 
ENDROOT
BRANCH   1   3
ATOM      3  C   UNL     1      57.419  28.385  50.684  1.00  0.00     0.027 C 
BRANCH   3   4
ATOM      4  C   UNL     1      58.936  28.613  50.630  1.00  0.00     0.004 C 
BRANCH   4   5
ATOM      5  C   UNL     1      59.622  27.782  49.533  1.00  0.00     0.000 C 
BRANCH   5   6
ATOM      6  C   UNL     1      60.686  26.824  50.095  1.00  0.00     0.000 C 
BRANCH   6   7
ATOM      7  C   UNL     1      60.330  25.347  49.865  1.00  0.00     0.000 C 
BRANCH   7   8
ATOM      8  C   UNL     1      59.946  24.618  51.164  1.00  0.00     0.006 C 
BRANCH   8   9
ATOM      9  C   UNL     1      60.257  25.457  52.412  1.00  0.00     0.053 C 
BRANCH   9  10
ATOM     10  C   UNL     1      59.911  24.727  53.672  1.00  0.00     0.041 C 
ATOM     11  O   UNL     1      60.667  24.803  54.677  1.00  0.00    -0.550 OA
ATOM     12  O   UNL     1      58.770  23.936  53.728  1.00  0.00    -0.550 OA
ENDBRANCH   9  10
ENDBRANCH   8   9
ENDBRANCH   7   8
ENDBRANCH   6   7
ENDBRANCH   5   6
ENDBRANCH   4   5
ENDBRANCH   3   4
ENDBRANCH   1   3
BRANCH   2  13
ATOM     13  C   UNL     1      56.457  25.589  50.033  1.00  0.00     0.027 C 
BRANCH  13  14
ATOM     14  C   UNL     1      54.986  25.280  49.727  1.00  0.00     0.004 C 
BRANCH  14  15
ATOM     15  C   UNL     1      54.142  25.295  51.010  1.00  0.00     0.000 C 
BRANCH  15  16
ATOM     16  C   UNL     1      53.004  26.332  50.969  1.00  0.00     0.000 C 
BRANCH  16  17
ATOM     17  C   UNL     1      53.178  27.453  49.928  1.00  0.00    -0.000 C 
BRANCH  17  18
ATOM     18  C   UNL     1      53.702  28.763  50.542  1.00  0.00    -0.000 C 
BRANCH  18  19
ATOM     19  C   UNL     1      53.527  28.807  52.068  1.00  0.00    -0.003 C 
ATOM     20  C   UNL     1      54.476  29.796  52.745  1.00  0.00     0.004 C 
ENDBRANCH  18  19
ENDBRANCH  17  18
ENDBRANCH  16  17
ENDBRANCH  15  16
ENDBRANCH  14  15
ENDBRANCH  13  14
ENDBRANCH   2  13
TORSDOF 15
ENDMDL
MODEL 5
REMARK VINA RESULT:    -3.214      1.975      4.758
REMARK INTER + INTRA:          -8.751
REMARK INTER:                  -5.894
REMARK INTRA:                  -2.857
REMARK UNBOUND:                -2.719
REMARK SMILES CCCCCCCCC=CCCCCCCCC(=O)[O-]
REMARK SMILES IDX 10 1 9 2 11 3 12 4 13 5 14 6 15 7 16 8 17 9 18 10 19 11
REMARK SMILES IDX 20 12 8 13 7 14 6 15 5 16 4 17 3 18 2 19 1 20
REMARK H PARENT
REMARK Flexibility Score: inf
ROOT
ATOM      1  C   UNL     1      54.515  24.647  50.045  1.00  0.00    -0.031 C 
ATOM      2  C   UNL     1      54.821  25.899  49.659  1.00  0.00    -0.031 C 
ENDROOT
BRANCH   1   3
ATOM      3  C   UNL     1      53.343  24.293  50.927  1.00  0.00     0.027 C 
BRANCH   3   4
ATOM      4  C   UNL     1      53.818  23.931  52.342  1.00  0.00     0.004 C 
BRANCH   4   5
ATOM      5  C   UNL     1      53.908  25.154  53.269  1.00  0.00     0.000 C 
BRANCH   5   6
ATOM      6  C   UNL     1      55.360  25.570  53.559  1.00  0.00     0.000 C 
BRANCH   6   7
ATOM      7  C   UNL     1      56.338  24.386  53.483  1.00  0.00     0.000 C 
BRANCH   7   8
ATOM      8  C   UNL     1      57.542  24.668  52.568  1.00  0.00     0.006 C 
BRANCH   8   9
ATOM      9  C   UNL     1      58.713  25.305  53.332  1.00  0.00     0.053 C 
BRANCH   9  10
ATOM     10  C   UNL     1      60.019  24.661  52.983  1.00  0.00     0.041 C 
ATOM     11  O   UNL     1      60.041  23.595  52.313  1.00  0.00    -0.550 OA
ATOM     12  O   UNL     1      61.211  25.221  53.426  1.00  0.00    -0.550 OA
ENDBRANCH   9  10
ENDBRANCH   8   9
ENDBRANCH   7   8
ENDBRANCH   6   7
ENDBRANCH   5   6
ENDBRANCH   4   5
ENDBRANCH   3   4
ENDBRANCH   1   3
BRANCH   2  13
ATOM     13  C   UNL     1      54.054  27.119  50.105  1.00  0.00     0.027 C 
BRANCH  13  14
ATOM     14  C   UNL     1      54.986  28.155  50.744  1.00  0.00     0.004 C 
BRANCH  14  15
ATOM     15  C   UNL     1      56.444  27.673  50.722  1.00  0.00     0.000 C 
BRANCH  15  16
ATOM     16  C   UNL     1      57.324  28.368  51.777  1.00  0.00     0.000 C 
BRANCH  16  17
ATOM     17  C   UNL     1      58.766  28.670  51.330  1.00  0.00    -0.000 C 
BRANCH  17  18
ATOM     18  C   UNL     1      58.980  28.463  49.821  1.00  0.00    -0.000 C 
BRANCH  18  19
ATOM     19  C   UNL     1      60.140  27.500  49.519  1.00  0.00    -0.003 C 
ATOM     20  C   UNL     1      59.763  26.034  49.729  1.00  0.00     0.004 C 
ENDBRANCH  18  19
ENDBRANCH  17  18
ENDBRANCH  16  17
ENDBRANCH  15  16
ENDBRANCH  14  15
ENDBRANCH  13  14
ENDBRANCH   2  13
TORSDOF 15
ENDMDL
MODEL 6
REMARK VINA RESULT:    -3.170      2.260      3.029
REMARK INTER + INTRA:          -8.669
REMARK INTER:                  -6.574
REMARK INTRA:                  -2.095
REMARK UNBOUND:                -2.719
REMARK SMILES CCCCCCCCC=CCCCCCCCC(=O)[O-]
REMARK SMILES IDX 10 1 9 2 11 3 12 4 13 5 14 6 15 7 16 8 17 9 18 10 19 11
REMARK SMILES IDX 20 12 8 13 7 14 6 15 5 16 4 17 3 18 2 19 1 20
REMARK H PARENT
REMARK Flexibility Score: inf
ROOT
ATOM      1  C   UNL     1      57.665  28.191  53.018  1.00  0.00    -0.031 C 
ATOM      2  C   UNL     1      56.437  28.502  53.472  1.00  0.00    -0.031 C 
ENDROOT
BRANCH   1   3
ATOM      3  C   UNL     1      58.450  29.037  52.047  1.00  0.00     0.027 C 
BRANCH   3   4
ATOM      4  C   UNL     1      58.202  28.578  50.603  1.00  0.00     0.004 C 
BRANCH   4   5
ATOM      5  C   UNL     1      58.732  27.161  50.331  1.00  0.00     0.000 C 
BRANCH   5   6
ATOM      6  C   UNL     1      60.055  27.166  49.546  1.00  0.00     0.000 C 
BRANCH   6   7
ATOM      7  C   UNL     1      61.089  26.189  50.128  1.00  0.00     0.000 C 
BRANCH   7   8
ATOM      8  C   UNL     1      60.529  24.768  50.309  1.00  0.00     0.006 C 
BRANCH   8   9
ATOM      9  C   UNL     1      61.642  23.723  50.469  1.00  0.00     0.053 C 
BRANCH   9  10
ATOM     10  C   UNL     1      61.087  22.349  50.685  1.00  0.00     0.041 C 
ATOM     11  O   UNL     1      60.810  21.952  51.848  1.00  0.00    -0.550 OA
ATOM     12  O   UNL     1      60.905  21.494  49.605  1.00  0.00    -0.550 OA
ENDBRANCH   9  10
ENDBRANCH   8   9
ENDBRANCH   7   8
ENDBRANCH   6   7
ENDBRANCH   5   6
ENDBRANCH   4   5
ENDBRANCH   3   4
ENDBRANCH   1   3
BRANCH   2  13
ATOM     13  C   UNL     1      55.667  29.719  53.024  1.00  0.00     0.027 C 
BRANCH  13  14
ATOM     14  C   UNL     1      54.314  29.327  52.419  1.00  0.00     0.004 C 
BRANCH  14  15
ATOM     15  C   UNL     1      54.405  29.214  50.891  1.00  0.00     0.000 C 
BRANCH  15  16
ATOM     16  C   UNL     1      53.270  28.372  50.280  1.00  0.00     0.000 C 
BRANCH  16  17
ATOM     17  C   UNL     1      53.631  26.903  49.986  1.00  0.00    -0.000 C 
BRANCH  17  18
ATOM     18  C   UNL     1      55.140  26.625  50.090  1.00  0.00    -0.000 C 
BRANCH  18  19
ATOM     19  C   UNL     1      55.442  25.198  50.572  1.00  0.00    -0.003 C 
ATOM     20  C   UNL     1      55.685  25.121  52.079  1.00  0.00     0.004 C 
ENDBRANCH  18  19
ENDBRANCH  17  18
ENDBRANCH  16  17
ENDBRANCH  15  16
ENDBRANCH  14  15
ENDBRANCH  13  14
ENDBRANCH   2  13
TORSDOF 15
ENDMDL
MODEL 7
REMARK VINA RESULT:    -3.165      9.770     12.480
REMARK INTER + INTRA:          -8.659
REMARK INTER:                  -6.051
REMARK INTRA:                  -2.608
REMARK UNBOUND:                -2.719
REMARK SMILES CCCCCCCCC=CCCCCCCCC(=O)[O-]
REMARK SMILES IDX 10 1 9 2 11 3 12 4 13 5 14 6 15 7 16 8 17 9 18 10 19 11
REMARK SMILES IDX 20 12 8 13 7 14 6 15 5 16 4 17 3 18 2 19 1 20
REMARK H PARENT
REMARK Flexibility Score: inf
ROOT
ATOM      1  C   UNL     1      62.197  29.543  62.010  1.00  0.00    -0.031 C 
ATOM      2  C   UNL     1      61.200  30.394  61.708  1.00  0.00    -0.031 C 
ENDROOT
BRANCH   1   3
ATOM      3  C   UNL     1      63.623  29.705  61.545  1.00  0.00     0.027 C 
BRANCH   3   4
ATOM      4  C   UNL     1      63.931  28.740  60.391  1.00  0.00     0.004 C 
BRANCH   4   5
ATOM      5  C   UNL     1      63.796  27.264  60.799  1.00  0.00     0.000 C 
BRANCH   5   6
ATOM      6  C   UNL     1      62.729  26.519  59.979  1.00  0.00     0.000 C 
BRANCH   6   7
ATOM      7  C   UNL     1      61.956  27.452  59.033  1.00  0.00     0.000 C 
BRANCH   7   8
ATOM      8  C   UNL     1      60.459  27.538  59.376  1.00  0.00     0.006 C 
BRANCH   8   9
ATOM      9  C   UNL     1      60.128  26.846  60.706  1.00  0.00     0.053 C 
BRANCH   9  10
ATOM     10  C   UNL     1      58.658  26.611  60.860  1.00  0.00     0.041 C 
ATOM     11  O   UNL     1      57.984  27.314  61.659  1.00  0.00    -0.550 OA
ATOM     12  O   UNL     1      58.036  25.595  60.145  1.00  0.00    -0.550 OA
ENDBRANCH   9  10
ENDBRANCH   8   9
ENDBRANCH   7   8
ENDBRANCH   6   7
ENDBRANCH   5   6
ENDBRANCH   4   5
ENDBRANCH   3   4
ENDBRANCH   1   3
BRANCH   2  13
ATOM     13  C   UNL     1      61.376  31.598  60.817  1.00  0.00     0.027 C 
BRANCH  13  14
ATOM     14  C   UNL     1      61.186  31.228  59.342  1.00  0.00     0.004 C 
BRANCH  14  15
ATOM     15  C   UNL     1      62.448  31.545  58.527  1.00  0.00     0.000 C 
BRANCH  15  16
ATOM     16  C   UNL     1      63.030  32.937  58.837  1.00  0.00     0.000 C 
BRANCH  16  17
ATOM     17  C   UNL     1      64.479  32.939  59.359  1.00  0.00    -0.000 C 
BRANCH  17  18
ATOM     18  C   UNL     1      64.565  33.095  60.887  1.00  0.00    -0.000 C 
BRANCH  18  19
ATOM     19  C   UNL     1      64.209  34.515  61.353  1.00  0.00    -0.003 C 
ATOM     20  C   UNL     1      65.431  35.316  61.803  1.00  0.00     0.004 C 
ENDBRANCH  18  19
ENDBRANCH  17  18
ENDBRANCH  16  17
ENDBRANCH  15  16
ENDBRANCH  14  15
ENDBRANCH  13  14
ENDBRANCH   2  13
TORSDOF 15
ENDMDL
MODEL 8
REMARK VINA RESULT:    -3.133     11.106     12.862
REMARK INTER + INTRA:          -8.600
REMARK INTER:                  -5.930
REMARK INTRA:                  -2.670
REMARK UNBOUND:                -2.719
REMARK SMILES CCCCCCCCC=CCCCCCCCC(=O)[O-]
REMARK SMILES IDX 10 1 9 2 11 3 12 4 13 5 14 6 15 7 16 8 17 9 18 10 19 11
REMARK SMILES IDX 20 12 8 13 7 14 6 15 5 16 4 17 3 18 2 19 1 20
REMARK H PARENT
REMARK Flexibility Score: inf
ROOT
ATOM      1  C   UNL     1      62.283  31.424  59.692  1.00  0.00    -0.031 C 
ATOM      2  C   UNL     1      63.599  31.656  59.538  1.00  0.00    -0.031 C 
ENDROOT
BRANCH   1   3
ATOM      3  C   UNL     1      61.507  31.735  60.948  1.00  0.00     0.027 C 
BRANCH   3   4
ATOM      4  C   UNL     1      61.198  30.449  61.729  1.00  0.00     0.004 C 
BRANCH   4   5
ATOM      5  C   UNL     1      61.534  29.177  60.934  1.00  0.00     0.000 C 
BRANCH   5   6
ATOM      6  C   UNL     1      62.536  28.269  61.667  1.00  0.00     0.000 C 
BRANCH   6   7
ATOM      7  C   UNL     1      63.305  27.345  60.709  1.00  0.00     0.000 C 
BRANCH   7   8
ATOM      8  C   UNL     1      64.069  28.120  59.621  1.00  0.00     0.006 C 
BRANCH   8   9
ATOM      9  C   UNL     1      65.530  27.663  59.504  1.00  0.00     0.053 C 
BRANCH   9  10
ATOM     10  C   UNL     1      66.480  28.706  60.007  1.00  0.00     0.041 C 
ATOM     11  O   UNL     1      66.722  29.730  59.314  1.00  0.00    -0.550 OA
ATOM     12  O   UNL     1      67.122  28.532  61.226  1.00  0.00    -0.550 OA
ENDBRANCH   9  10
ENDBRANCH   8   9
ENDBRANCH   7   8
ENDBRANCH   6   7
ENDBRANCH   5   6
ENDBRANCH   4   5
ENDBRANCH   3   4
ENDBRANCH   1   3
BRANCH   2  13
ATOM     13  C   UNL     1      64.479  32.214  60.628  1.00  0.00     0.027 C 
BRANCH  13  14
ATOM     14  C   UNL     1      64.792  33.695  60.383  1.00  0.00     0.004 C 
BRANCH  14  15
ATOM     15  C   UNL     1      64.150  34.579  61.461  1.00  0.00     0.000 C 
BRANCH  15  16
ATOM     16  C   UNL     1      63.259  35.690  60.875  1.00  0.00     0.000 C 
BRANCH  16  17
ATOM     17  C   UNL     1      61.754  35.364  60.827  1.00  0.00    -0.000 C 
BRANCH  17  18
ATOM     18  C   UNL     1      61.233  35.150  59.396  1.00  0.00    -0.000 C 
BRANCH  18  19
ATOM     19  C   UNL     1      62.278  35.518  58.330  1.00  0.00    -0.003 C 
ATOM     20  C   UNL     1      62.537  34.385  57.337  1.00  0.00     0.004 C 
ENDBRANCH  18  19
ENDBRANCH  17  18
ENDBRANCH  16  17
ENDBRANCH  15  16
ENDBRANCH  14  15
ENDBRANCH  13  14
ENDBRANCH   2  13
TORSDOF 15
ENDMDL
MODEL 9
REMARK VINA RESULT:    -3.106      3.126      6.064
REMARK INTER + INTRA:          -8.548
REMARK INTER:                  -5.971
REMARK INTRA:                  -2.577
REMARK UNBOUND:                -2.719
REMARK SMILES CCCCCCCCC=CCCCCCCCC(=O)[O-]
REMARK SMILES IDX 10 1 9 2 11 3 12 4 13 5 14 6 15 7 16 8 17 9 18 10 19 11
REMARK SMILES IDX 20 12 8 13 7 14 6 15 5 16 4 17 3 18 2 19 1 20
REMARK H PARENT
REMARK Flexibility Score: inf
ROOT
ATOM      1  C   UNL     1      58.080  26.768  53.612  1.00  0.00    -0.031 C 
ATOM      2  C   UNL     1      58.759  27.886  53.298  1.00  0.00    -0.031 C 
ENDROOT
BRANCH   1   3
ATOM      3  C   UNL     1      56.895  26.248  52.837  1.00  0.00     0.027 C 
BRANCH   3   4
ATOM      4  C   UNL     1      57.346  25.249  51.760  1.00  0.00     0.004 C 
BRANCH   4   5
ATOM      5  C   UNL     1      56.683  25.507  50.397  1.00  0.00     0.000 C 
BRANCH   5   6
ATOM      6  C   UNL     1      55.888  26.823  50.367  1.00  0.00     0.000 C 
BRANCH   6   7
ATOM      7  C   UNL     1      54.411  26.611  50.000  1.00  0.00     0.000 C 
BRANCH   7   8
ATOM      8  C   UNL     1      53.483  27.657  50.643  1.00  0.00     0.006 C 
BRANCH   8   9
ATOM      9  C   UNL     1      54.117  29.055  50.667  1.00  0.00     0.053 C 
BRANCH   9  10
ATOM     10  C   UNL     1      54.055  29.670  52.031  1.00  0.00     0.041 C 
ATOM     11  O   UNL     1      53.216  30.575  52.281  1.00  0.00    -0.550 OA
ATOM     12  O   UNL     1      54.945  29.265  53.017  1.00  0.00    -0.550 OA
ENDBRANCH   9  10
ENDBRANCH   8   9
ENDBRANCH   7   8
ENDBRANCH   6   7
ENDBRANCH   5   6
ENDBRANCH   4   5
ENDBRANCH   3   4
ENDBRANCH   1   3
BRANCH   2  13
ATOM     13  C   UNL     1      58.385  28.793  52.153  1.00  0.00     0.027 C 
BRANCH  13  14
ATOM     14  C   UNL     1      59.561  28.978  51.186  1.00  0.00     0.004 C 
BRANCH  14  15
ATOM     15  C   UNL     1      59.246  28.367  49.813  1.00  0.00     0.000 C 
BRANCH  15  16
ATOM     16  C   UNL     1      59.933  27.007  49.588  1.00  0.00     0.000 C 
BRANCH  16  17
ATOM     17  C   UNL     1      61.022  26.647  50.615  1.00  0.00    -0.000 C 
BRANCH  17  18
ATOM     18  C   UNL     1      61.685  25.287  50.333  1.00  0.00    -0.000 C 
BRANCH  18  19
ATOM     19  C   UNL     1      61.028  24.141  51.117  1.00  0.00    -0.003 C 
ATOM     20  C   UNL     1      60.887  22.862  50.292  1.00  0.00     0.004 C 
ENDBRANCH  18  19
ENDBRANCH  17  18
ENDBRANCH  16  17
ENDBRANCH  15  16
ENDBRANCH  14  15
ENDBRANCH  13  14
ENDBRANCH   2  13
TORSDOF 15
ENDMDL
