MODEL 1
REMARK VINA RESULT:    -3.702      0.000      0.000
REMARK INTER + INTRA:          -5.570
REMARK INTER:                  -5.217
REMARK INTRA:                  -0.353
REMARK UNBOUND:                -0.353
REMARK SMILES CCCCCCCCC(=O)[O-]
REMARK SMILES IDX 6 1 7 2 8 3 9 4 10 5 11 6 5 7 4 8 3 9 2 10 1 11
REMARK H PARENT
REMARK Flexibility Score: inf
ROOT
ATOM      1  C   UNL     1      -4.987  25.103   2.277  1.00  0.00     0.000 C 
ENDROOT
BRANCH   1   2
ATOM      2  C   UNL     1      -3.774  25.654   3.045  1.00  0.00     0.006 C 
BRANCH   2   3
ATOM      3  C   UNL     1      -2.688  26.212   2.115  1.00  0.00     0.053 C 
BRANCH   3   4
ATOM      4  C   UNL     1      -2.242  27.560   2.586  1.00  0.00     0.041 C 
ATOM      5  O   UNL     1      -2.901  28.174   3.465  1.00  0.00    -0.550 OA
ATOM      6  O   UNL     1      -1.125  28.160   2.018  1.00  0.00    -0.550 OA
ENDBRANCH   3   4
ENDBRANCH   2   3
ENDBRANCH   1   2
BRANCH   1   7
ATOM      7  C   UNL     1      -6.260  25.934   2.513  1.00  0.00     0.000 C 
BRANCH   7   8
ATOM      8  C   UNL     1      -7.384  25.117   3.171  1.00  0.00    -0.000 C 
BRANCH   8   9
ATOM      9  C   UNL     1      -7.991  25.822   4.396  1.00  0.00    -0.000 C 
BRANCH   9  10
ATOM     10  C   UNL     1      -6.926  26.227   5.429  1.00  0.00    -0.003 C 
ATOM     11  C   UNL     1      -7.340  25.895   6.863  1.00  0.00     0.004 C 
ENDBRANCH   9  10
ENDBRANCH   8   9
ENDBRANCH   7   8
ENDBRANCH   1   7
TORSDOF 7
ENDMDL
MODEL 2
REMARK VINA RESULT:    -3.665      2.535      4.827
REMARK INTER + INTRA:          -5.518
REMARK INTER:                  -4.847
REMARK INTRA:                  -0.671
REMARK UNBOUND:                -0.353
REMARK SMILES CCCCCCCCC(=O)[O-]
REMARK SMILES IDX 6 1 7 2 8 3 9 4 10 5 11 6 5 7 4 8 3 9 2 10 1 11
REMARK H PARENT
REMARK Flexibility Score: inf
ROOT
ATOM      1  C   UNL     1      -7.183  25.907   2.041  1.00  0.00     0.000 C 
ENDROOT
BRANCH   1   2
ATOM      2  C   UNL     1      -7.330  26.558   3.426  1.00  0.00     0.006 C 
BRANCH   2   3
ATOM      3  C   UNL     1      -7.826  25.573   4.494  1.00  0.00     0.053 C 
BRANCH   3   4
ATOM      4  C   UNL     1      -7.212  25.890   5.821  1.00  0.00     0.041 C 
ATOM      5  O   UNL     1      -7.791  25.543   6.884  1.00  0.00    -0.550 OA
ATOM      6  O   UNL     1      -6.027  26.611   5.885  1.00  0.00    -0.550 OA
ENDBRANCH   3   4
ENDBRANCH   2   3
ENDBRANCH   1   2
BRANCH   1   7
ATOM      7  C   UNL     1      -6.984  24.383   2.125  1.00  0.00     0.000 C 
BRANCH   7   8
ATOM      8  C   UNL     1      -5.520  23.968   1.905  1.00  0.00    -0.000 C 
BRANCH   8   9
ATOM      9  C   UNL     1      -4.678  25.081   1.256  1.00  0.00    -0.000 C 
BRANCH   9  10
ATOM     10  C   UNL     1      -3.382  25.366   2.032  1.00  0.00    -0.003 C 
ATOM     11  C   UNL     1      -3.610  26.257   3.252  1.00  0.00     0.004 C 
ENDBRANCH   9  10
ENDBRANCH   8   9
ENDBRANCH   7   8
ENDBRANCH   1   7
TORSDOF 7
ENDMDL
MODEL 3
REMARK VINA RESULT:    -3.547      3.620      5.500
REMARK INTER + INTRA:          -5.351
REMARK INTER:                  -5.043
REMARK INTRA:                  -0.308
REMARK UNBOUND:                -0.353
REMARK SMILES CCCCCCCCC(=O)[O-]
REMARK SMILES IDX 6 1 7 2 8 3 9 4 10 5 11 6 5 7 4 8 3 9 2 10 1 11
REMARK H PARENT
REMARK Flexibility Score: inf
ROOT
ATOM      1  C   UNL     1      -4.025  25.013   1.587  1.00  0.00     0.000 C 
ENDROOT
BRANCH   1   2
ATOM      2  C   UNL     1      -5.073  23.889   1.522  1.00  0.00     0.006 C 
BRANCH   2   3
ATOM      3  C   UNL     1      -6.461  24.347   1.990  1.00  0.00     0.053 C 
BRANCH   3   4
ATOM      4  C   UNL     1      -7.347  24.614   0.814  1.00  0.00     0.041 C 
ATOM      5  O   UNL     1      -7.197  25.662   0.134  1.00  0.00    -0.550 OA
ATOM      6  O   UNL     1      -8.370  23.729   0.499  1.00  0.00    -0.550 OA
ENDBRANCH   3   4
ENDBRANCH   2   3
ENDBRANCH   1   2
BRANCH   1   7
ATOM      7  C   UNL     1      -3.728  25.458   3.029  1.00  0.00     0.000 C 
BRANCH   7   8
ATOM      8  C   UNL     1      -3.353  26.946   3.120  1.00  0.00    -0.000 C 
BRANCH   8   9
ATOM      9  C   UNL     1      -2.225  27.335   2.148  1.00  0.00    -0.000 C 
BRANCH   9  10
ATOM     10  C   UNL     1      -1.501  28.623   2.572  1.00  0.00    -0.003 C 
ATOM     11  C   UNL     1      -1.999  29.165   3.912  1.00  0.00     0.004 C 
ENDBRANCH   9  10
ENDBRANCH   8   9
ENDBRANCH   7   8
ENDBRANCH   1   7
TORSDOF 7
ENDMDL
MODEL 4
REMARK VINA RESULT:    -3.521      2.932      4.727
REMARK INTER + INTRA:          -5.315
REMARK INTER:                  -4.556
REMARK INTRA:                  -0.759
REMARK UNBOUND:                -0.353
REMARK SMILES CCCCCCCCC(=O)[O-]
REMARK SMILES IDX 6 1 7 2 8 3 9 4 10 5 11 6 5 7 4 8 3 9 2 10 1 11
REMARK H PARENT
REMARK Flexibility Score: inf
ROOT
ATOM      1  C   UNL     1      -5.378  24.062   1.537  1.00  0.00     0.000 C 
ENDROOT
BRANCH   1   2
ATOM      2  C   UNL     1      -6.605  24.753   0.919  1.00  0.00     0.006 C 
BRANCH   2   3
ATOM      3  C   UNL     1      -7.696  25.060   1.954  1.00  0.00     0.053 C 
BRANCH   3   4
ATOM      4  C   UNL     1      -7.301  26.233   2.795  1.00  0.00     0.041 C 
ATOM      5  O   UNL     1      -7.311  27.393   2.307  1.00  0.00    -0.550 OA
ATOM      6  O   UNL     1      -6.876  26.040   4.103  1.00  0.00    -0.550 OA
ENDBRANCH   3   4
ENDBRANCH   2   3
ENDBRANCH   1   2
BRANCH   1   7
ATOM      7  C   UNL     1      -4.100  24.281   0.709  1.00  0.00     0.000 C 
BRANCH   7   8
ATOM      8  C   UNL     1      -3.071  25.163   1.436  1.00  0.00    -0.000 C 
BRANCH   8   9
ATOM      9  C   UNL     1      -3.530  25.568   2.848  1.00  0.00    -0.000 C 
BRANCH   9  10
ATOM     10  C   UNL     1      -3.331  27.068   3.123  1.00  0.00    -0.003 C 
ATOM     11  C   UNL     1      -3.867  27.949   1.995  1.00  0.00     0.004 C 
ENDBRANCH   9  10
ENDBRANCH   8   9
ENDBRANCH   7   8
ENDBRANCH   1   7
TORSDOF 7
ENDMDL
MODEL 5
REMARK VINA RESULT:    -3.493      3.594      5.557
REMARK INTER + INTRA:          -5.275
REMARK INTER:                  -4.498
REMARK INTRA:                  -0.777
REMARK UNBOUND:                -0.353
REMARK SMILES CCCCCCCCC(=O)[O-]
REMARK SMILES IDX 6 1 7 2 8 3 9 4 10 5 11 6 5 7 4 8 3 9 2 10 1 11
REMARK H PARENT
REMARK Flexibility Score: inf
ROOT
ATOM      1  C   UNL     1      -4.860  25.868   2.985  1.00  0.00     0.000 C 
ENDROOT
BRANCH   1   2
ATOM      2  C   UNL     1      -5.648  26.805   2.055  1.00  0.00     0.006 C 
BRANCH   2   3
ATOM      3  C   UNL     1      -6.409  26.048   0.958  1.00  0.00     0.053 C 
BRANCH   3   4
ATOM      4  C   UNL     1      -7.506  25.224   1.558  1.00  0.00     0.041 C 
ATOM      5  O   UNL     1      -8.272  25.724   2.423  1.00  0.00    -0.550 OA
ATOM      6  O   UNL     1      -7.651  23.891   1.197  1.00  0.00    -0.550 OA
ENDBRANCH   3   4
ENDBRANCH   2   3
ENDBRANCH   1   2
BRANCH   1   7
ATOM      7  C   UNL     1      -3.349  26.158   2.971  1.00  0.00     0.000 C 
BRANCH   7   8
ATOM      8  C   UNL     1      -2.793  26.315   1.546  1.00  0.00    -0.000 C 
BRANCH   8   9
ATOM      9  C   UNL     1      -2.289  24.986   0.956  1.00  0.00    -0.000 C 
BRANCH   9  10
ATOM     10  C   UNL     1      -3.254  24.404  -0.090  1.00  0.00    -0.003 C 
ATOM     11  C   UNL     1      -4.021  23.188   0.428  1.00  0.00     0.004 C 
ENDBRANCH   9  10
ENDBRANCH   8   9
ENDBRANCH   7   8
ENDBRANCH   1   7
TORSDOF 7
ENDMDL
MODEL 6
REMARK VINA RESULT:    -3.477      4.399      6.695
REMARK INTER + INTRA:          -5.253
REMARK INTER:                  -4.693
REMARK INTRA:                  -0.561
REMARK UNBOUND:                -0.353
REMARK SMILES CCCCCCCCC(=O)[O-]
REMARK SMILES IDX 6 1 7 2 8 3 9 4 10 5 11 6 5 7 4 8 3 9 2 10 1 11
REMARK H PARENT
REMARK Flexibility Score: inf
ROOT
ATOM      1  C   UNL     1      -4.772  23.641  -0.780  1.00  0.00     0.000 C 
ENDROOT
BRANCH   1   2
ATOM      2  C   UNL     1      -4.465  24.099   0.656  1.00  0.00     0.006 C 
BRANCH   2   3
ATOM      3  C   UNL     1      -5.648  23.887   1.610  1.00  0.00     0.053 C 
BRANCH   3   4
ATOM      4  C   UNL     1      -6.877  24.548   1.072  1.00  0.00     0.041 C 
ATOM      5  O   UNL     1      -7.889  23.859   0.778  1.00  0.00    -0.550 OA
ATOM      6  O   UNL     1      -6.889  25.919   0.849  1.00  0.00    -0.550 OA
ENDBRANCH   3   4
ENDBRANCH   2   3
ENDBRANCH   1   2
BRANCH   1   7
ATOM      7  C   UNL     1      -3.963  22.397  -1.187  1.00  0.00     0.000 C 
BRANCH   7   8
ATOM      8  C   UNL     1      -3.229  21.757   0.003  1.00  0.00    -0.000 C 
BRANCH   8   9
ATOM      9  C   UNL     1      -1.811  21.281  -0.361  1.00  0.00    -0.000 C 
BRANCH   9  10
ATOM     10  C   UNL     1      -0.910  22.430  -0.841  1.00  0.00    -0.003 C 
ATOM     11  C   UNL     1      -0.699  23.500   0.229  1.00  0.00     0.004 C 
ENDBRANCH   9  10
ENDBRANCH   8   9
ENDBRANCH   7   8
ENDBRANCH   1   7
TORSDOF 7
ENDMDL
MODEL 7
REMARK VINA RESULT:    -3.471      3.935      6.514
REMARK INTER + INTRA:          -5.245
REMARK INTER:                  -4.603
REMARK INTRA:                  -0.642
REMARK UNBOUND:                -0.353
REMARK SMILES CCCCCCCCC(=O)[O-]
REMARK SMILES IDX 6 1 7 2 8 3 9 4 10 5 11 6 5 7 4 8 3 9 2 10 1 11
REMARK H PARENT
REMARK Flexibility Score: inf
ROOT
ATOM      1  C   UNL     1      -2.639  25.125   1.226  1.00  0.00     0.000 C 
ENDROOT
BRANCH   1   2
ATOM      2  C   UNL     1      -4.049  24.886   0.661  1.00  0.00     0.006 C 
BRANCH   2   3
ATOM      3  C   UNL     1      -4.835  23.835   1.457  1.00  0.00     0.053 C 
BRANCH   3   4
ATOM      4  C   UNL     1      -6.187  24.360   1.822  1.00  0.00     0.041 C 
ATOM      5  O   UNL     1      -7.224  23.797   1.385  1.00  0.00    -0.550 OA
ATOM      6  O   UNL     1      -6.301  25.502   2.605  1.00  0.00    -0.550 OA
ENDBRANCH   3   4
ENDBRANCH   2   3
ENDBRANCH   1   2
BRANCH   1   7
ATOM      7  C   UNL     1      -1.542  24.957   0.161  1.00  0.00     0.000 C 
BRANCH   7   8
ATOM      8  C   UNL     1      -0.747  23.653   0.335  1.00  0.00    -0.000 C 
BRANCH   8   9
ATOM      9  C   UNL     1      -1.117  22.588  -0.713  1.00  0.00    -0.000 C 
BRANCH   9  10
ATOM     10  C   UNL     1      -1.856  21.389  -0.096  1.00  0.00    -0.003 C 
ATOM     11  C   UNL     1      -3.289  21.251  -0.611  1.00  0.00     0.004 C 
ENDBRANCH   9  10
ENDBRANCH   8   9
ENDBRANCH   7   8
ENDBRANCH   1   7
TORSDOF 7
ENDMDL
MODEL 8
REMARK VINA RESULT:    -3.465      1.477      2.100
REMARK INTER + INTRA:          -5.236
REMARK INTER:                  -4.999
REMARK INTRA:                  -0.237
REMARK UNBOUND:                -0.353
REMARK SMILES CCCCCCCCC(=O)[O-]
REMARK SMILES IDX 6 1 7 2 8 3 9 4 10 5 11 6 5 7 4 8 3 9 2 10 1 11
REMARK H PARENT
REMARK Flexibility Score: inf
ROOT
ATOM      1  C   UNL     1      -6.111  25.439   2.555  1.00  0.00     0.000 C 
ENDROOT
BRANCH   1   2
ATOM      2  C   UNL     1      -5.409  24.179   2.022  1.00  0.00     0.006 C 
BRANCH   2   3
ATOM      3  C   UNL     1      -4.084  24.494   1.315  1.00  0.00     0.053 C 
BRANCH   3   4
ATOM      4  C   UNL     1      -3.381  25.622   2.001  1.00  0.00     0.041 C 
ATOM      5  O   UNL     1      -3.166  26.700   1.388  1.00  0.00    -0.550 OA
ATOM      6  O   UNL     1      -2.920  25.465   3.302  1.00  0.00    -0.550 OA
ENDBRANCH   3   4
ENDBRANCH   2   3
ENDBRANCH   1   2
BRANCH   1   7
ATOM      7  C   UNL     1      -7.474  25.127   3.195  1.00  0.00     0.000 C 
BRANCH   7   8
ATOM      8  C   UNL     1      -7.830  26.104   4.328  1.00  0.00    -0.000 C 
BRANCH   8   9
ATOM      9  C   UNL     1      -8.165  25.386   5.648  1.00  0.00    -0.000 C 
BRANCH   9  10
ATOM     10  C   UNL     1      -7.293  25.869   6.818  1.00  0.00    -0.003 C 
ATOM     11  C   UNL     1      -6.153  26.782   6.366  1.00  0.00     0.004 C 
ENDBRANCH   9  10
ENDBRANCH   8   9
ENDBRANCH   7   8
ENDBRANCH   1   7
TORSDOF 7
ENDMDL
MODEL 9
REMARK VINA RESULT:    -3.443      1.683      2.322
REMARK INTER + INTRA:          -5.205
REMARK INTER:                  -4.532
REMARK INTRA:                  -0.673
REMARK UNBOUND:                -0.353
REMARK SMILES CCCCCCCCC(=O)[O-]
REMARK SMILES IDX 6 1 7 2 8 3 9 4 10 5 11 6 5 7 4 8 3 9 2 10 1 11
REMARK H PARENT
REMARK Flexibility Score: inf
ROOT
ATOM      1  C   UNL     1      -3.972  25.088   1.788  1.00  0.00     0.000 C 
ENDROOT
BRANCH   1   2
ATOM      2  C   UNL     1      -3.045  25.789   2.794  1.00  0.00     0.006 C 
BRANCH   2   3
ATOM      3  C   UNL     1      -3.619  27.121   3.298  1.00  0.00     0.053 C 
BRANCH   3   4
ATOM      4  C   UNL     1      -2.542  28.157   3.374  1.00  0.00     0.041 C 
ATOM      5  O   UNL     1      -1.516  28.058   2.651  1.00  0.00    -0.550 OA
ATOM      6  O   UNL     1      -2.648  29.205   4.279  1.00  0.00    -0.550 OA
ENDBRANCH   3   4
ENDBRANCH   2   3
ENDBRANCH   1   2
BRANCH   1   7
ATOM      7  C   UNL     1      -4.754  26.083   0.914  1.00  0.00     0.000 C 
BRANCH   7   8
ATOM      8  C   UNL     1      -6.273  25.846   0.966  1.00  0.00    -0.000 C 
BRANCH   8   9
ATOM      9  C   UNL     1      -6.663  24.710   1.928  1.00  0.00    -0.000 C 
BRANCH   9  10
ATOM     10  C   UNL     1      -7.528  25.203   3.100  1.00  0.00    -0.003 C 
ATOM     11  C   UNL     1      -7.673  26.724   3.126  1.00  0.00     0.004 C 
ENDBRANCH   9  10
ENDBRANCH   8   9
ENDBRANCH   7   8
ENDBRANCH   1   7
TORSDOF 7
ENDMDL
