MODEL 1
REMARK VINA RESULT:    -5.088      0.000      0.000
REMARK INTER + INTRA:          -5.088
REMARK INTER:                  -5.088
REMARK INTRA:                   0.000
REMARK UNBOUND:                 0.000
REMARK SMILES CC1=CC[C@@]2(C)CCCC(C)(C)[C@]23C[C@H]13
REMARK SMILES IDX 1 1 2 2 3 3 4 4 5 5 7 6 8 7 9 8 10 9 13 10 15 11 14 12 11 13
REMARK SMILES IDX 12 14 6 15
REMARK H PARENT
REMARK Flexibility Score: inf
ROOT
ATOM      1  C   UNL     1     131.219 136.808 131.903  1.00  0.00     0.039 C 
ATOM      2  C   UNL     1     132.055 136.701 133.149  1.00  0.00    -0.074 C 
ATOM      3  C   UNL     1     131.682 137.388 134.236  1.00  0.00    -0.027 C 
ATOM      4  C   UNL     1     132.537 137.464 135.458  1.00  0.00     0.034 C 
ATOM      5  C   UNL     1     133.291 136.141 135.799  1.00  0.00    -0.022 C 
ATOM      6  C   UNL     1     132.300 135.185 136.512  1.00  0.00     0.008 C 
ATOM      7  C   UNL     1     132.883 133.794 136.791  1.00  0.00     0.001 C 
ATOM      8  C   UNL     1     133.356 133.104 135.508  1.00  0.00     0.007 C 
ATOM      9  C   UNL     1     134.398 133.914 134.685  1.00  0.00    -0.029 C 
ATOM     10  C   UNL     1     133.876 135.408 134.524  1.00  0.00    -0.012 C 
ATOM     11  C   UNL     1     133.225 135.744 133.161  1.00  0.00     0.022 C 
ATOM     12  C   UNL     1     134.591 136.328 133.518  1.00  0.00     0.017 C 
ATOM     13  C   UNL     1     135.781 133.890 135.383  1.00  0.00     0.012 C 
ATOM     14  C   UNL     1     134.579 133.142 133.344  1.00  0.00     0.012 C 
ATOM     15  C   UNL     1     134.426 136.559 136.776  1.00  0.00     0.012 C 
ENDROOT
TORSDOF 0
ENDMDL
MODEL 2
REMARK VINA RESULT:    -5.053      3.460      5.091
REMARK INTER + INTRA:          -5.053
REMARK INTER:                  -5.053
REMARK INTRA:                   0.000
REMARK UNBOUND:                 0.000
REMARK SMILES CC1=CC[C@@]2(C)CCCC(C)(C)[C@]23C[C@H]13
REMARK SMILES IDX 1 1 2 2 3 3 4 4 5 5 7 6 8 7 9 8 10 9 13 10 15 11 14 12 11 13
REMARK SMILES IDX 12 14 6 15
REMARK H PARENT
REMARK Flexibility Score: inf
ROOT
ATOM      1  C   UNL     1     136.754 141.325 131.875  1.00  0.00     0.039 C 
ATOM      2  C   UNL     1     136.643 140.500 133.128  1.00  0.00    -0.074 C 
ATOM      3  C   UNL     1     137.340 140.873 134.209  1.00  0.00    -0.027 C 
ATOM      4  C   UNL     1     137.412 140.026 135.437  1.00  0.00     0.034 C 
ATOM      5  C   UNL     1     136.081 139.291 135.791  1.00  0.00    -0.022 C 
ATOM      6  C   UNL     1     135.143 140.300 136.501  1.00  0.00     0.008 C 
ATOM      7  C   UNL     1     133.745 139.738 136.792  1.00  0.00     0.001 C 
ATOM      8  C   UNL     1     133.042 139.264 135.516  1.00  0.00     0.007 C 
ATOM      9  C   UNL     1     133.834 138.206 134.697  1.00  0.00    -0.029 C 
ATOM     10  C   UNL     1     135.334 138.706 134.524  1.00  0.00    -0.012 C 
ATOM     11  C   UNL     1     135.671 139.343 133.155  1.00  0.00     0.022 C 
ATOM     12  C   UNL     1     136.239 137.972 133.518  1.00  0.00     0.017 C 
ATOM     13  C   UNL     1     133.796 136.828 135.406  1.00  0.00     0.012 C 
ATOM     14  C   UNL     1     133.052 138.024 133.361  1.00  0.00     0.012 C 
ATOM     15  C   UNL     1     136.490 138.159 136.774  1.00  0.00     0.012 C 
ENDROOT
TORSDOF 0
ENDMDL
MODEL 3
REMARK VINA RESULT:    -5.033      5.023      7.271
REMARK INTER + INTRA:          -5.033
REMARK INTER:                  -5.033
REMARK INTRA:                   0.000
REMARK UNBOUND:                 0.000
REMARK SMILES CC1=CC[C@@]2(C)CCCC(C)(C)[C@]23C[C@H]13
REMARK SMILES IDX 1 1 2 2 3 3 4 4 5 5 7 6 8 7 9 8 10 9 13 10 15 11 14 12 11 13
REMARK SMILES IDX 12 14 6 15
REMARK H PARENT
REMARK Flexibility Score: inf
ROOT
ATOM      1  C   UNL     1     141.255 135.764 131.879  1.00  0.00     0.039 C 
ATOM      2  C   UNL     1     140.481 135.911 133.161  1.00  0.00    -0.074 C 
ATOM      3  C   UNL     1     140.904 135.254 134.248  1.00  0.00    -0.027 C 
ATOM      4  C   UNL     1     140.109 135.218 135.511  1.00  0.00     0.034 C 
ATOM      5  C   UNL     1     139.376 136.554 135.850  1.00  0.00    -0.022 C 
ATOM      6  C   UNL     1     140.405 137.525 136.486  1.00  0.00     0.008 C 
ATOM      7  C   UNL     1     139.840 138.926 136.752  1.00  0.00     0.001 C 
ATOM      8  C   UNL     1     139.308 139.582 135.474  1.00  0.00     0.007 C 
ATOM      9  C   UNL     1     138.225 138.753 134.726  1.00  0.00    -0.029 C 
ATOM     10  C   UNL     1     138.733 137.252 134.584  1.00  0.00    -0.012 C 
ATOM     11  C   UNL     1     139.316 136.874 133.202  1.00  0.00     0.022 C 
ATOM     12  C   UNL     1     137.967 136.307 133.641  1.00  0.00     0.017 C 
ATOM     13  C   UNL     1     136.877 138.804 135.490  1.00  0.00     0.012 C 
ATOM     14  C   UNL     1     137.981 139.487 133.374  1.00  0.00     0.012 C 
ATOM     15  C   UNL     1     138.289 136.169 136.893  1.00  0.00     0.012 C 
ENDROOT
TORSDOF 0
ENDMDL
MODEL 4
REMARK VINA RESULT:    -4.954      3.101      4.489
REMARK INTER + INTRA:          -4.954
REMARK INTER:                  -4.954
REMARK INTRA:                   0.000
REMARK UNBOUND:                 0.000
REMARK SMILES CC1=CC[C@@]2(C)CCCC(C)(C)[C@]23C[C@H]13
REMARK SMILES IDX 1 1 2 2 3 3 4 4 5 5 7 6 8 7 9 8 10 9 13 10 15 11 14 12 11 13
REMARK SMILES IDX 12 14 6 15
REMARK H PARENT
REMARK Flexibility Score: inf
ROOT
ATOM      1  C   UNL     1     132.483 136.917 132.851  1.00  0.00     0.039 C 
ATOM      2  C   UNL     1     133.112 137.960 133.735  1.00  0.00    -0.074 C 
ATOM      3  C   UNL     1     132.509 138.275 134.888  1.00  0.00    -0.027 C 
ATOM      4  C   UNL     1     132.978 139.406 135.743  1.00  0.00     0.034 C 
ATOM      5  C   UNL     1     134.529 139.573 135.798  1.00  0.00    -0.022 C 
ATOM      6  C   UNL     1     135.095 138.535 136.802  1.00  0.00     0.008 C 
ATOM      7  C   UNL     1     136.628 138.508 136.856  1.00  0.00     0.001 C 
ATOM      8  C   UNL     1     137.244 138.215 135.485  1.00  0.00     0.007 C 
ATOM      9  C   UNL     1     136.813 139.198 134.359  1.00  0.00    -0.029 C 
ATOM     10  C   UNL     1     135.230 139.358 134.395  1.00  0.00    -0.012 C 
ATOM     11  C   UNL     1     134.452 138.536 133.340  1.00  0.00     0.022 C 
ATOM     12  C   UNL     1     134.539 140.056 133.210  1.00  0.00     0.017 C 
ATOM     13  C   UNL     1     137.506 140.572 134.541  1.00  0.00     0.012 C 
ATOM     14  C   UNL     1     137.374 138.604 133.033  1.00  0.00     0.012 C 
ATOM     15  C   UNL     1     134.766 141.014 136.330  1.00  0.00     0.012 C 
ENDROOT
TORSDOF 0
ENDMDL
MODEL 5
REMARK VINA RESULT:    -4.940      1.516      4.509
REMARK INTER + INTRA:          -4.940
REMARK INTER:                  -4.940
REMARK INTRA:                   0.000
REMARK UNBOUND:                 0.000
REMARK SMILES CC1=CC[C@@]2(C)CCCC(C)(C)[C@]23C[C@H]13
REMARK SMILES IDX 1 1 2 2 3 3 4 4 5 5 7 6 8 7 9 8 10 9 13 10 15 11 14 12 11 13
REMARK SMILES IDX 12 14 6 15
REMARK H PARENT
REMARK Flexibility Score: inf
ROOT
ATOM      1  C   UNL     1     137.412 132.166 136.446  1.00  0.00     0.039 C 
ATOM      2  C   UNL     1     136.314 132.882 135.708  1.00  0.00    -0.074 C 
ATOM      3  C   UNL     1     135.570 132.193 134.833  1.00  0.00    -0.027 C 
ATOM      4  C   UNL     1     134.571 132.859 133.946  1.00  0.00     0.034 C 
ATOM      5  C   UNL     1     133.793 134.033 134.618  1.00  0.00    -0.022 C 
ATOM      6  C   UNL     1     132.664 133.430 135.494  1.00  0.00     0.008 C 
ATOM      7  C   UNL     1     131.899 134.477 136.314  1.00  0.00     0.001 C 
ATOM      8  C   UNL     1     132.829 135.274 137.235  1.00  0.00     0.007 C 
ATOM      9  C   UNL     1     134.003 135.987 136.507  1.00  0.00    -0.029 C 
ATOM     10  C   UNL     1     134.708 134.948 135.529  1.00  0.00    -0.012 C 
ATOM     11  C   UNL     1     136.022 134.324 136.056  1.00  0.00     0.022 C 
ATOM     12  C   UNL     1     136.064 135.333 134.908  1.00  0.00     0.017 C 
ATOM     13  C   UNL     1     133.488 137.217 135.717  1.00  0.00     0.012 C 
ATOM     14  C   UNL     1     134.925 136.551 137.629  1.00  0.00     0.012 C 
ATOM     15  C   UNL     1     133.181 134.844 133.442  1.00  0.00     0.012 C 
ENDROOT
TORSDOF 0
ENDMDL
MODEL 6
REMARK VINA RESULT:    -4.927      2.462      4.616
REMARK INTER + INTRA:          -4.927
REMARK INTER:                  -4.927
REMARK INTRA:                   0.000
REMARK UNBOUND:                 0.000
REMARK SMILES CC1=CC[C@@]2(C)CCCC(C)(C)[C@]23C[C@H]13
REMARK SMILES IDX 1 1 2 2 3 3 4 4 5 5 7 6 8 7 9 8 10 9 13 10 15 11 14 12 11 13
REMARK SMILES IDX 12 14 6 15
REMARK H PARENT
REMARK Flexibility Score: inf
ROOT
ATOM      1  C   UNL     1     132.224 135.262 136.413  1.00  0.00     0.039 C 
ATOM      2  C   UNL     1     132.936 136.373 135.690  1.00  0.00    -0.074 C 
ATOM      3  C   UNL     1     132.244 137.125 134.825  1.00  0.00    -0.027 C 
ATOM      4  C   UNL     1     132.905 138.140 133.951  1.00  0.00     0.034 C 
ATOM      5  C   UNL     1     134.076 138.914 134.634  1.00  0.00    -0.022 C 
ATOM      6  C   UNL     1     133.468 140.028 135.525  1.00  0.00     0.008 C 
ATOM      7  C   UNL     1     134.511 140.787 136.355  1.00  0.00     0.001 C 
ATOM      8  C   UNL     1     135.311 139.849 137.264  1.00  0.00     0.007 C 
ATOM      9  C   UNL     1     136.030 138.687 136.520  1.00  0.00    -0.029 C 
ATOM     10  C   UNL     1     134.995 137.990 135.533  1.00  0.00    -0.012 C 
ATOM     11  C   UNL     1     134.376 136.667 136.042  1.00  0.00     0.022 C 
ATOM     12  C   UNL     1     135.386 136.645 134.894  1.00  0.00     0.017 C 
ATOM     13  C   UNL     1     137.258 139.218 135.738  1.00  0.00     0.012 C 
ATOM     14  C   UNL     1     136.597 137.753 137.631  1.00  0.00     0.012 C 
ATOM     15  C   UNL     1     134.885 139.545 133.467  1.00  0.00     0.012 C 
ENDROOT
TORSDOF 0
ENDMDL
MODEL 7
REMARK VINA RESULT:    -4.917      3.082      5.673
REMARK INTER + INTRA:          -4.917
REMARK INTER:                  -4.917
REMARK INTRA:                   0.000
REMARK UNBOUND:                 0.000
REMARK SMILES CC1=CC[C@@]2(C)CCCC(C)(C)[C@]23C[C@H]13
REMARK SMILES IDX 1 1 2 2 3 3 4 4 5 5 7 6 8 7 9 8 10 9 13 10 15 11 14 12 11 13
REMARK SMILES IDX 12 14 6 15
REMARK H PARENT
REMARK Flexibility Score: inf
ROOT
ATOM      1  C   UNL     1     140.177 135.907 133.283  1.00  0.00     0.039 C 
ATOM      2  C   UNL     1     139.536 134.811 134.091  1.00  0.00    -0.074 C 
ATOM      3  C   UNL     1     140.111 134.438 135.241  1.00  0.00    -0.027 C 
ATOM      4  C   UNL     1     139.632 133.257 136.019  1.00  0.00     0.034 C 
ATOM      5  C   UNL     1     138.083 133.072 136.022  1.00  0.00    -0.022 C 
ATOM      6  C   UNL     1     137.478 134.047 137.065  1.00  0.00     0.008 C 
ATOM      7  C   UNL     1     135.944 134.056 137.079  1.00  0.00     0.001 C 
ATOM      8  C   UNL     1     135.362 134.418 135.709  1.00  0.00     0.007 C 
ATOM      9  C   UNL     1     135.834 133.503 134.543  1.00  0.00    -0.029 C 
ATOM     10  C   UNL     1     137.417 133.357 134.614  1.00  0.00    -0.012 C 
ATOM     11  C   UNL     1     138.213 134.244 133.628  1.00  0.00     0.022 C 
ATOM     12  C   UNL     1     138.148 132.732 133.412  1.00  0.00     0.017 C 
ATOM     13  C   UNL     1     135.152 132.114 134.631  1.00  0.00     0.012 C 
ATOM     14  C   UNL     1     135.302 134.163 133.237  1.00  0.00     0.012 C 
ATOM     15  C   UNL     1     137.848 131.601 136.467  1.00  0.00     0.012 C 
ENDROOT
TORSDOF 0
ENDMDL
MODEL 8
REMARK VINA RESULT:    -4.914      3.788      6.271
REMARK INTER + INTRA:          -4.914
REMARK INTER:                  -4.914
REMARK INTRA:                   0.000
REMARK UNBOUND:                 0.000
REMARK SMILES CC1=CC[C@@]2(C)CCCC(C)(C)[C@]23C[C@H]13
REMARK SMILES IDX 1 1 2 2 3 3 4 4 5 5 7 6 8 7 9 8 10 9 13 10 15 11 14 12 11 13
REMARK SMILES IDX 12 14 6 15
REMARK H PARENT
REMARK Flexibility Score: inf
ROOT
ATOM      1  C   UNL     1     140.504 137.497 136.426  1.00  0.00     0.039 C 
ATOM      2  C   UNL     1     139.798 136.383 135.703  1.00  0.00    -0.074 C 
ATOM      3  C   UNL     1     140.494 135.632 134.840  1.00  0.00    -0.027 C 
ATOM      4  C   UNL     1     139.838 134.615 133.966  1.00  0.00     0.034 C 
ATOM      5  C   UNL     1     138.669 133.837 134.648  1.00  0.00    -0.022 C 
ATOM      6  C   UNL     1     139.278 132.726 135.541  1.00  0.00     0.008 C 
ATOM      7  C   UNL     1     138.236 131.965 136.370  1.00  0.00     0.001 C 
ATOM      8  C   UNL     1     137.430 132.902 137.276  1.00  0.00     0.007 C 
ATOM      9  C   UNL     1     136.709 134.060 136.529  1.00  0.00    -0.029 C 
ATOM     10  C   UNL     1     137.745 134.759 135.543  1.00  0.00    -0.012 C 
ATOM     11  C   UNL     1     138.358 136.086 136.052  1.00  0.00     0.022 C 
ATOM     12  C   UNL     1     137.351 136.102 134.902  1.00  0.00     0.017 C 
ATOM     13  C   UNL     1     135.485 133.524 135.745  1.00  0.00     0.012 C 
ATOM     14  C   UNL     1     136.137 134.994 137.637  1.00  0.00     0.012 C 
ATOM     15  C   UNL     1     137.865 133.202 133.479  1.00  0.00     0.012 C 
ENDROOT
TORSDOF 0
ENDMDL
MODEL 9
REMARK VINA RESULT:    -4.503      3.521      5.150
REMARK INTER + INTRA:          -4.503
REMARK INTER:                  -4.503
REMARK INTRA:                   0.000
REMARK UNBOUND:                 0.000
REMARK SMILES CC1=CC[C@@]2(C)CCCC(C)(C)[C@]23C[C@H]13
REMARK SMILES IDX 1 1 2 2 3 3 4 4 5 5 7 6 8 7 9 8 10 9 13 10 15 11 14 12 11 13
REMARK SMILES IDX 12 14 6 15
REMARK H PARENT
REMARK Flexibility Score: inf
ROOT
ATOM      1  C   UNL     1     135.833 131.131 131.875  1.00  0.00     0.039 C 
ATOM      2  C   UNL     1     135.935 132.006 133.096  1.00  0.00    -0.074 C 
ATOM      3  C   UNL     1     135.243 131.666 134.190  1.00  0.00    -0.027 C 
ATOM      4  C   UNL     1     135.161 132.558 135.384  1.00  0.00     0.034 C 
ATOM      5  C   UNL     1     136.483 133.322 135.709  1.00  0.00    -0.022 C 
ATOM      6  C   UNL     1     137.434 132.353 136.457  1.00  0.00     0.008 C 
ATOM      7  C   UNL     1     138.825 132.943 136.725  1.00  0.00     0.001 C 
ATOM      8  C   UNL     1     139.522 133.376 135.431  1.00  0.00     0.007 C 
ATOM      9  C   UNL     1     138.717 134.392 134.572  1.00  0.00    -0.029 C 
ATOM     10  C   UNL     1     137.223 133.867 134.420  1.00  0.00    -0.012 C 
ATOM     11  C   UNL     1     136.893 133.174 133.077  1.00  0.00     0.022 C 
ATOM     12  C   UNL     1     136.309 134.552 133.388  1.00  0.00     0.017 C 
ATOM     13  C   UNL     1     138.739 135.796 135.228  1.00  0.00     0.012 C 
ATOM     14  C   UNL     1     139.496 134.532 133.230  1.00  0.00     0.012 C 
ATOM     15  C   UNL     1     136.061 134.487 136.649  1.00  0.00     0.012 C 
ENDROOT
TORSDOF 0
ENDMDL
