MODEL 1
REMARK VINA RESULT:    -3.315      0.000      0.000
REMARK INTER + INTRA:          -4.437
REMARK INTER:                  -3.993
REMARK INTRA:                  -0.444
REMARK UNBOUND:                -0.444
REMARK SMILES NC(=O)C[C@@H]([NH3+])C(=O)[O-]
REMARK SMILES IDX 4 1 5 2 6 3 7 7 8 8 9 9 2 10 3 11 1 12
REMARK H PARENT 6 4 6 5 6 6 1 13 1 14
REMARK Flexibility Score: inf
ROOT
ATOM      1  C   UNL     1      22.476  17.584  43.592  1.00  0.00     0.171 C 
ENDROOT
BRANCH   1   2
ATOM      2  C   UNL     1      23.668  18.039  44.456  1.00  0.00     0.237 C 
BRANCH   2   3
ATOM      3  N   UNL     1      24.432  16.893  44.968  1.00  0.00    -0.350 N 
ATOM      4  H   UNL     1      25.130  16.580  44.255  1.00  0.00     0.345 HD
ATOM      5  H   UNL     1      24.932  17.144  45.852  1.00  0.00     0.345 HD
ATOM      6  H   UNL     1      23.787  16.090  45.155  1.00  0.00     0.345 HD
ENDBRANCH   2   3
BRANCH   2   7
ATOM      7  C   UNL     1      24.564  18.946  43.655  1.00  0.00     0.100 C 
ATOM      8  O   UNL     1      25.775  19.091  43.972  1.00  0.00    -0.544 OA
ATOM      9  O   UNL     1      24.063  19.615  42.546  1.00  0.00    -0.544 OA
ENDBRANCH   2   7
ENDBRANCH   1   2
BRANCH   1  10
ATOM     10  C   UNL     1      22.858  16.472  42.659  1.00  0.00     0.223 C 
ATOM     11  O   UNL     1      22.855  15.282  43.071  1.00  0.00    -0.275 OA
ATOM     12  N   UNL     1      23.257  16.755  41.318  1.00  0.00    -0.369 N 
ATOM     13  H   UNL     1      23.288  17.738  40.967  1.00  0.00     0.159 HD
ATOM     14  H   UNL     1      23.533  15.980  40.675  1.00  0.00     0.159 HD
ENDBRANCH   1  10
TORSDOF 4
ENDMDL
MODEL 2
REMARK VINA RESULT:    -3.117     18.907     19.945
REMARK INTER + INTRA:          -4.200
REMARK INTER:                  -3.698
REMARK INTRA:                  -0.501
REMARK UNBOUND:                -0.444
REMARK SMILES NC(=O)C[C@@H]([NH3+])C(=O)[O-]
REMARK SMILES IDX 4 1 5 2 6 3 7 7 8 8 9 9 2 10 3 11 1 12
REMARK H PARENT 6 4 6 5 6 6 1 13 1 14
REMARK Flexibility Score: inf
ROOT
ATOM      1  C   UNL     1      29.430  32.801  54.150  1.00  0.00     0.171 C 
ENDROOT
BRANCH   1   2
ATOM      2  C   UNL     1      28.324  33.703  53.567  1.00  0.00     0.237 C 
BRANCH   2   3
ATOM      3  N   UNL     1      28.601  35.125  53.813  1.00  0.00    -0.350 N 
ATOM      4  H   UNL     1      27.718  35.680  53.746  1.00  0.00     0.345 HD
ATOM      5  H   UNL     1      29.022  35.262  54.761  1.00  0.00     0.345 HD
ATOM      6  H   UNL     1      29.263  35.489  53.088  1.00  0.00     0.345 HD
ENDBRANCH   2   3
BRANCH   2   7
ATOM      7  C   UNL     1      28.183  33.448  52.089  1.00  0.00     0.100 C 
ATOM      8  O   UNL     1      27.052  33.210  51.587  1.00  0.00    -0.544 OA
ATOM      9  O   UNL     1      29.301  33.493  51.267  1.00  0.00    -0.544 OA
ENDBRANCH   2   7
ENDBRANCH   1   2
BRANCH   1  10
ATOM     10  C   UNL     1      30.718  33.549  54.329  1.00  0.00     0.223 C 
ATOM     11  O   UNL     1      30.946  34.152  55.412  1.00  0.00    -0.275 OA
ATOM     12  N   UNL     1      31.675  33.610  53.271  1.00  0.00    -0.369 N 
ATOM     13  H   UNL     1      31.492  33.136  52.359  1.00  0.00     0.159 HD
ATOM     14  H   UNL     1      32.566  34.141  53.396  1.00  0.00     0.159 HD
ENDBRANCH   1  10
TORSDOF 4
ENDMDL
MODEL 3
REMARK VINA RESULT:    -3.105     19.484     20.540
REMARK INTER + INTRA:          -4.184
REMARK INTER:                  -3.682
REMARK INTRA:                  -0.502
REMARK UNBOUND:                -0.444
REMARK SMILES NC(=O)C[C@@H]([NH3+])C(=O)[O-]
REMARK SMILES IDX 4 1 5 2 6 3 7 7 8 8 9 9 2 10 3 11 1 12
REMARK H PARENT 6 4 6 5 6 6 1 13 1 14
REMARK Flexibility Score: inf
ROOT
ATOM      1  C   UNL     1      29.355  32.730  54.015  1.00  0.00     0.171 C 
ENDROOT
BRANCH   1   2
ATOM      2  C   UNL     1      30.881  32.817  54.220  1.00  0.00     0.237 C 
BRANCH   2   3
ATOM      3  N   UNL     1      31.527  33.579  53.142  1.00  0.00    -0.350 N 
ATOM      4  H   UNL     1      32.176  34.292  53.546  1.00  0.00     0.345 HD
ATOM      5  H   UNL     1      32.065  32.943  52.509  1.00  0.00     0.345 HD
ATOM      6  H   UNL     1      30.803  34.088  52.583  1.00  0.00     0.345 HD
ENDBRANCH   2   3
BRANCH   2   7
ATOM      7  C   UNL     1      31.183  33.444  55.555  1.00  0.00     0.100 C 
ATOM      8  O   UNL     1      31.527  32.729  56.533  1.00  0.00    -0.544 OA
ATOM      9  O   UNL     1      31.101  34.822  55.710  1.00  0.00    -0.544 OA
ENDBRANCH   2   7
ENDBRANCH   1   2
BRANCH   1  10
ATOM     10  C   UNL     1      28.840  33.871  53.189  1.00  0.00     0.223 C 
ATOM     11  O   UNL     1      28.710  33.733  51.943  1.00  0.00    -0.275 OA
ATOM     12  N   UNL     1      28.527  35.125  53.797  1.00  0.00    -0.369 N 
ATOM     13  H   UNL     1      28.651  35.265  54.825  1.00  0.00     0.159 HD
ATOM     14  H   UNL     1      28.179  35.920  53.216  1.00  0.00     0.159 HD
ENDBRANCH   1  10
TORSDOF 4
ENDMDL
MODEL 4
REMARK VINA RESULT:    -3.078      2.551      2.989
REMARK INTER + INTRA:          -4.152
REMARK INTER:                  -3.669
REMARK INTRA:                  -0.484
REMARK UNBOUND:                -0.444
REMARK SMILES NC(=O)C[C@@H]([NH3+])C(=O)[O-]
REMARK SMILES IDX 4 1 5 2 6 3 7 7 8 8 9 9 2 10 3 11 1 12
REMARK H PARENT 6 4 6 5 6 6 1 13 1 14
REMARK Flexibility Score: inf
ROOT
ATOM      1  C   UNL     1      22.574  18.442  40.812  1.00  0.00     0.171 C 
ENDROOT
BRANCH   1   2
ATOM      2  C   UNL     1      22.673  17.496  42.025  1.00  0.00     0.237 C 
BRANCH   2   3
ATOM      3  N   UNL     1      23.228  16.189  41.645  1.00  0.00    -0.350 N 
ATOM      4  H   UNL     1      22.460  15.484  41.562  1.00  0.00     0.345 HD
ATOM      5  H   UNL     1      23.737  16.252  40.734  1.00  0.00     0.345 HD
ATOM      6  H   UNL     1      23.889  15.854  42.385  1.00  0.00     0.345 HD
ENDBRANCH   2   3
BRANCH   2   7
ATOM      7  C   UNL     1      23.518  18.127  43.100  1.00  0.00     0.100 C 
ATOM      8  O   UNL     1      23.443  17.724  44.291  1.00  0.00    -0.544 OA
ATOM      9  O   UNL     1      24.401  19.149  42.778  1.00  0.00    -0.544 OA
ENDBRANCH   2   7
ENDBRANCH   1   2
BRANCH   1  10
ATOM     10  C   UNL     1      23.562  18.079  39.743  1.00  0.00     0.223 C 
ATOM     11  O   UNL     1      23.257  17.215  38.877  1.00  0.00    -0.275 OA
ATOM     12  N   UNL     1      24.857  18.680  39.716  1.00  0.00    -0.369 N 
ATOM     13  H   UNL     1      25.134  19.380  40.439  1.00  0.00     0.159 HD
ATOM     14  H   UNL     1      25.545  18.416  38.976  1.00  0.00     0.159 HD
ENDBRANCH   1  10
TORSDOF 4
ENDMDL
MODEL 5
REMARK VINA RESULT:    -2.993      1.942      2.201
REMARK INTER + INTRA:          -4.050
REMARK INTER:                  -3.807
REMARK INTRA:                  -0.242
REMARK UNBOUND:                -0.444
REMARK SMILES NC(=O)C[C@@H]([NH3+])C(=O)[O-]
REMARK SMILES IDX 4 1 5 2 6 3 7 7 8 8 9 9 2 10 3 11 1 12
REMARK H PARENT 6 4 6 5 6 6 1 13 1 14
REMARK Flexibility Score: inf
ROOT
ATOM      1  C   UNL     1      23.030  17.835  42.243  1.00  0.00     0.171 C 
ENDROOT
BRANCH   1   2
ATOM      2  C   UNL     1      22.642  17.503  43.698  1.00  0.00     0.237 C 
BRANCH   2   3
ATOM      3  N   UNL     1      23.818  17.139  44.500  1.00  0.00    -0.350 N 
ATOM      4  H   UNL     1      23.783  17.620  45.427  1.00  0.00     0.345 HD
ATOM      5  H   UNL     1      23.859  16.104  44.651  1.00  0.00     0.345 HD
ATOM      6  H   UNL     1      24.691  17.449  44.012  1.00  0.00     0.345 HD
ENDBRANCH   2   3
BRANCH   2   7
ATOM      7  C   UNL     1      21.932  18.677  44.319  1.00  0.00     0.100 C 
ATOM      8  O   UNL     1      22.539  19.445  45.112  1.00  0.00    -0.544 OA
ATOM      9  O   UNL     1      20.603  18.931  44.004  1.00  0.00    -0.544 OA
ENDBRANCH   2   7
ENDBRANCH   1   2
BRANCH   1  10
ATOM     10  C   UNL     1      23.043  16.609  41.379  1.00  0.00     0.223 C 
ATOM     11  O   UNL     1      22.954  15.470  41.908  1.00  0.00    -0.275 OA
ATOM     12  N   UNL     1      23.189  16.722  39.963  1.00  0.00    -0.369 N 
ATOM     13  H   UNL     1      23.287  17.657  39.509  1.00  0.00     0.159 HD
ATOM     14  H   UNL     1      23.208  15.865  39.366  1.00  0.00     0.159 HD
ENDBRANCH   1  10
TORSDOF 4
ENDMDL
MODEL 6
REMARK VINA RESULT:    -2.978      1.801      3.384
REMARK INTER + INTRA:          -4.032
REMARK INTER:                  -3.577
REMARK INTRA:                  -0.454
REMARK UNBOUND:                -0.444
REMARK SMILES NC(=O)C[C@@H]([NH3+])C(=O)[O-]
REMARK SMILES IDX 4 1 5 2 6 3 7 7 8 8 9 9 2 10 3 11 1 12
REMARK H PARENT 6 4 6 5 6 6 1 13 1 14
REMARK Flexibility Score: inf
ROOT
ATOM      1  C   UNL     1      22.526  17.938  43.774  1.00  0.00     0.171 C 
ENDROOT
BRANCH   1   2
ATOM      2  C   UNL     1      22.908  18.304  42.326  1.00  0.00     0.237 C 
BRANCH   2   3
ATOM      3  N   UNL     1      24.180  19.038  42.274  1.00  0.00    -0.350 N 
ATOM      4  H   UNL     1      24.744  18.719  41.454  1.00  0.00     0.345 HD
ATOM      5  H   UNL     1      24.012  20.067  42.196  1.00  0.00     0.345 HD
ATOM      6  H   UNL     1      24.737  18.845  43.139  1.00  0.00     0.345 HD
ENDBRANCH   2   3
BRANCH   2   7
ATOM      7  C   UNL     1      22.991  17.056  41.488  1.00  0.00     0.100 C 
ATOM      8  O   UNL     1      22.918  15.919  42.026  1.00  0.00    -0.544 OA
ATOM      9  O   UNL     1      23.131  17.153  40.110  1.00  0.00    -0.544 OA
ENDBRANCH   2   7
ENDBRANCH   1   2
BRANCH   1  10
ATOM     10  C   UNL     1      23.732  17.855  44.663  1.00  0.00     0.223 C 
ATOM     11  O   UNL     1      24.198  18.904  45.183  1.00  0.00    -0.275 OA
ATOM     12  N   UNL     1      24.375  16.602  44.899  1.00  0.00    -0.369 N 
ATOM     13  H   UNL     1      24.015  15.727  44.458  1.00  0.00     0.159 HD
ATOM     14  H   UNL     1      25.221  16.551  45.509  1.00  0.00     0.159 HD
ENDBRANCH   1  10
TORSDOF 4
ENDMDL
MODEL 7
REMARK VINA RESULT:    -2.966      2.200      3.139
REMARK INTER + INTRA:          -4.017
REMARK INTER:                  -3.856
REMARK INTRA:                  -0.161
REMARK UNBOUND:                -0.444
REMARK SMILES NC(=O)C[C@@H]([NH3+])C(=O)[O-]
REMARK SMILES IDX 4 1 5 2 6 3 7 7 8 8 9 9 2 10 3 11 1 12
REMARK H PARENT 6 4 6 5 6 6 1 13 1 14
REMARK Flexibility Score: inf
ROOT
ATOM      1  C   UNL     1      22.923  17.166  42.022  1.00  0.00     0.171 C 
ENDROOT
BRANCH   1   2
ATOM      2  C   UNL     1      23.323  17.829  40.688  1.00  0.00     0.237 C 
BRANCH   2   3
ATOM      3  N   UNL     1      22.143  18.265  39.928  1.00  0.00    -0.350 N 
ATOM      4  H   UNL     1      21.927  19.264  40.143  1.00  0.00     0.345 HD
ATOM      5  H   UNL     1      22.305  18.162  38.899  1.00  0.00     0.345 HD
ATOM      6  H   UNL     1      21.311  17.692  40.203  1.00  0.00     0.345 HD
ENDBRANCH   2   3
BRANCH   2   7
ATOM      7  C   UNL     1      24.235  18.998  40.951  1.00  0.00     0.100 C 
ATOM      8  O   UNL     1      24.550  19.784  40.018  1.00  0.00    -0.544 OA
ATOM      9  O   UNL     1      24.720  19.227  42.232  1.00  0.00    -0.544 OA
ENDBRANCH   2   7
ENDBRANCH   1   2
BRANCH   1  10
ATOM     10  C   UNL     1      22.992  15.670  41.940  1.00  0.00     0.223 C 
ATOM     11  O   UNL     1      23.078  15.108  40.816  1.00  0.00    -0.275 OA
ATOM     12  N   UNL     1      22.929  14.875  43.125  1.00  0.00    -0.369 N 
ATOM     13  H   UNL     1      22.835  15.323  44.064  1.00  0.00     0.159 HD
ATOM     14  H   UNL     1      22.966  13.833  43.064  1.00  0.00     0.159 HD
ENDBRANCH   1  10
TORSDOF 4
ENDMDL
MODEL 8
REMARK VINA RESULT:    -2.956      2.407      2.817
REMARK INTER + INTRA:          -4.006
REMARK INTER:                  -3.762
REMARK INTRA:                  -0.243
REMARK UNBOUND:                -0.444
REMARK SMILES NC(=O)C[C@@H]([NH3+])C(=O)[O-]
REMARK SMILES IDX 4 1 5 2 6 3 7 7 8 8 9 9 2 10 3 11 1 12
REMARK H PARENT 6 4 6 5 6 6 1 13 1 14
REMARK Flexibility Score: inf
ROOT
ATOM      1  C   UNL     1      22.999  17.256  41.501  1.00  0.00     0.171 C 
ENDROOT
BRANCH   1   2
ATOM      2  C   UNL     1      23.668  18.629  41.711  1.00  0.00     0.237 C 
BRANCH   2   3
ATOM      3  N   UNL     1      24.551  18.624  42.887  1.00  0.00    -0.350 N 
ATOM      4  H   UNL     1      25.278  19.369  42.792  1.00  0.00     0.345 HD
ATOM      5  H   UNL     1      24.003  18.787  43.763  1.00  0.00     0.345 HD
ATOM      6  H   UNL     1      25.044  17.704  42.957  1.00  0.00     0.345 HD
ENDBRANCH   2   3
BRANCH   2   7
ATOM      7  C   UNL     1      24.444  19.014  40.479  1.00  0.00     0.100 C 
ATOM      8  O   UNL     1      24.080  18.609  39.343  1.00  0.00    -0.544 OA
ATOM      9  O   UNL     1      25.559  19.834  40.589  1.00  0.00    -0.544 OA
ENDBRANCH   2   7
ENDBRANCH   1   2
BRANCH   1  10
ATOM     10  C   UNL     1      22.616  16.620  42.805  1.00  0.00     0.223 C 
ATOM     11  O   UNL     1      22.215  17.340  43.758  1.00  0.00    -0.275 OA
ATOM     12  N   UNL     1      22.734  15.208  42.986  1.00  0.00    -0.369 N 
ATOM     13  H   UNL     1      23.087  14.600  42.214  1.00  0.00     0.159 HD
ATOM     14  H   UNL     1      22.477  14.771  43.898  1.00  0.00     0.159 HD
ENDBRANCH   1  10
TORSDOF 4
ENDMDL
MODEL 9
REMARK VINA RESULT:    -2.953      2.260      3.473
REMARK INTER + INTRA:          -4.001
REMARK INTER:                  -3.771
REMARK INTRA:                  -0.230
REMARK UNBOUND:                -0.444
REMARK SMILES NC(=O)C[C@@H]([NH3+])C(=O)[O-]
REMARK SMILES IDX 4 1 5 2 6 3 7 7 8 8 9 9 2 10 3 11 1 12
REMARK H PARENT 6 4 6 5 6 6 1 13 1 14
REMARK Flexibility Score: inf
ROOT
ATOM      1  C   UNL     1      22.565  17.910  42.332  1.00  0.00     0.171 C 
ENDROOT
BRANCH   1   2
ATOM      2  C   UNL     1      23.285  17.876  40.969  1.00  0.00     0.237 C 
BRANCH   2   3
ATOM      3  N   UNL     1      23.129  16.572  40.310  1.00  0.00    -0.350 N 
ATOM      4  H   UNL     1      22.116  16.328  40.232  1.00  0.00     0.345 HD
ATOM      5  H   UNL     1      23.554  16.586  39.354  1.00  0.00     0.345 HD
ATOM      6  H   UNL     1      23.594  15.827  40.881  1.00  0.00     0.345 HD
ENDBRANCH   2   3
BRANCH   2   7
ATOM      7  C   UNL     1      22.756  18.973  40.084  1.00  0.00     0.100 C 
ATOM      8  O   UNL     1      21.516  19.118  39.918  1.00  0.00    -0.544 OA
ATOM      9  O   UNL     1      23.637  19.846  39.458  1.00  0.00    -0.544 OA
ENDBRANCH   2   7
ENDBRANCH   1   2
BRANCH   1  10
ATOM     10  C   UNL     1      23.022  16.798  43.229  1.00  0.00     0.223 C 
ATOM     11  O   UNL     1      22.749  15.604  42.935  1.00  0.00    -0.275 OA
ATOM     12  N   UNL     1      23.738  17.084  44.432  1.00  0.00    -0.369 N 
ATOM     13  H   UNL     1      23.952  18.069  44.704  1.00  0.00     0.159 HD
ATOM     14  H   UNL     1      24.045  16.307  45.059  1.00  0.00     0.159 HD
ENDBRANCH   1  10
TORSDOF 4
ENDMDL
