MODEL 1
REMARK VINA RESULT:    11.629      0.000      0.000
REMARK INTER + INTRA:          18.125
REMARK INTER:                  19.107
REMARK INTRA:                  -0.982
REMARK UNBOUND:                -0.982
REMARK SMILES C[C@H]1O[C@H](OC[C@@H]2O[C@H](Oc3c(-c4ccc(O)c(O)c4)oc4cc(O)cc(O)c4c3=O)[C@H](O)[C@H](O)[C@@H]2O)[C@@H](O)[C@H](O)[C@H]1O
REMARK SMILES IDX 7 1 36 2 34 3 32 4 9 5 8 6 6 7 5 8 4 9 1 10 2 11 42 12 3 13
REMARK SMILES IDX 40 14 38 15 43 16 41 18 39 20 37 22 35 24 10 26 11 27 12 28
REMARK SMILES IDX 30 29 21 30 29 31 31 32 22 33 27 34 23 35 26 36 24 37 13 38
REMARK SMILES IDX 20 39 14 40 18 41 15 42 16 43 19 44 17 46 28 48 25 50 33 52
REMARK H PARENT 43 17 41 19 39 21 37 23 35 25 19 45 17 47 28 49 25 51 33 53
REMARK Flexibility Score: inf
ROOT
ATOM      1  C   UNL     1     123.315 116.017 118.535  1.00  0.00     0.180 C 
ATOM      2  C   UNL     1     123.776 114.589 118.101  1.00  0.00     0.177 C 
ATOM      3  C   UNL     1     122.750 113.454 118.334  1.00  0.00     0.180 C 
ATOM      4  C   UNL     1     121.332 113.940 118.016  1.00  0.00     0.214 C 
ATOM      5  C   UNL     1     121.021 115.335 118.611  1.00  0.00     0.339 C 
ATOM      6  O   UNL     1     121.963 116.319 118.219  1.00  0.00    -0.332 OA
ENDROOT
BRANCH   1   7
ATOM      7  C   UNL     1     123.724 116.529 119.936  1.00  0.00     0.198 C 
BRANCH   7   8
ATOM      8  O   UNL     1     125.118 116.474 120.142  1.00  0.00    -0.347 OA
BRANCH   8   9
ATOM      9  C   UNL     1     125.769 117.656 119.693  1.00  0.00     0.281 C 
ATOM     10  C   UNL     1     125.864 120.682 119.791  1.00  0.00     0.041 C 
ATOM     11  C   UNL     1     126.712 119.656 120.566  1.00  0.00     0.150 C 
ATOM     12  C   UNL     1     128.094 119.354 119.947  1.00  0.00     0.174 C 
ATOM     13  O   UNL     1     125.987 118.466 120.836  1.00  0.00    -0.344 OA
ATOM     14  C   UNL     1     127.966 118.472 118.700  1.00  0.00     0.179 C 
ATOM     15  C   UNL     1     127.109 117.244 119.035  1.00  0.00     0.202 C 
BRANCH  12  16
ATOM     16  O   UNL     1     128.822 120.528 119.679  1.00  0.00    -0.388 OA
ATOM     17  H   UNL     1     128.740 120.727 118.710  1.00  0.00     0.211 HD
ENDBRANCH  12  16
BRANCH  14  18
ATOM     18  O   UNL     1     129.248 118.047 118.303  1.00  0.00    -0.387 OA
ATOM     19  H   UNL     1     129.250 117.985 117.312  1.00  0.00     0.211 HD
ENDBRANCH  14  18
BRANCH  15  20
ATOM     20  O   UNL     1     126.891 116.476 117.875  1.00  0.00    -0.385 OA
ATOM     21  H   UNL     1     127.595 116.715 117.217  1.00  0.00     0.211 HD
ENDBRANCH  15  20
ENDBRANCH   8   9
ENDBRANCH   7   8
ENDBRANCH   1   7
BRANCH   2  22
ATOM     22  O   UNL     1     125.058 114.272 118.581  1.00  0.00    -0.387 OA
ATOM     23  H   UNL     1     125.700 114.949 118.249  1.00  0.00     0.211 HD
ENDBRANCH   2  22
BRANCH   3  24
ATOM     24  O   UNL     1     122.840 112.858 119.605  1.00  0.00    -0.387 OA
ATOM     25  H   UNL     1     123.694 113.136 120.009  1.00  0.00     0.211 HD
ENDBRANCH   3  24
BRANCH   5  26
ATOM     26  O   UNL     1     120.839 115.346 120.039  1.00  0.00    -0.454 OA
BRANCH  26  27
ATOM     27  C   UNL     1     119.753 114.774 120.735  1.00  0.00     0.214 A 
ATOM     28  C   UNL     1     118.462 115.350 120.785  1.00  0.00     0.180 A 
ATOM     29  C   UNL     1     119.964 113.570 121.423  1.00  0.00     0.239 A 
ATOM     30  O   UNL     1     117.448 114.649 121.275  1.00  0.00    -0.452 OA
ATOM     31  C   UNL     1     118.879 112.896 122.030  1.00  0.00     0.111 A 
ATOM     32  O   UNL     1     121.131 113.106 121.481  1.00  0.00    -0.285 OA
ATOM     33  C   UNL     1     117.592 113.460 121.851  1.00  0.00     0.146 A 
ATOM     34  C   UNL     1     118.993 111.676 122.764  1.00  0.00     0.134 A 
ATOM     35  C   UNL     1     116.452 112.791 122.299  1.00  0.00     0.094 A 
ATOM     36  C   UNL     1     117.832 111.015 123.179  1.00  0.00     0.093 A 
ATOM     37  C   UNL     1     116.569 111.561 122.951  1.00  0.00     0.123 A 
BRANCH  28  38
ATOM     38  C   UNL     1     118.190 116.744 120.387  1.00  0.00     0.025 A 
ATOM     39  C   UNL     1     116.895 117.274 120.515  1.00  0.00     0.062 A 
ATOM     40  C   UNL     1     119.200 117.522 119.813  1.00  0.00     0.016 A 
ATOM     41  C   UNL     1     116.618 118.581 120.094  1.00  0.00     0.158 A 
ATOM     42  C   UNL     1     118.933 118.832 119.405  1.00  0.00     0.051 A 
ATOM     43  C   UNL     1     117.644 119.367 119.544  1.00  0.00     0.157 A 
BRANCH  41  44
ATOM     44  O   UNL     1     115.321 119.074 120.223  1.00  0.00    -0.504 OA
ATOM     45  H   UNL     1     114.625 118.963 119.496  1.00  0.00     0.293 HD
ENDBRANCH  41  44
BRANCH  43  46
ATOM     46  O   UNL     1     117.380 120.671 119.132  1.00  0.00    -0.504 OA
ATOM     47  H   UNL     1     116.533 120.910 118.629  1.00  0.00     0.293 HD
ENDBRANCH  43  46
ENDBRANCH  28  38
BRANCH  34  48
ATOM     48  O   UNL     1     120.212 111.098 123.135  1.00  0.00    -0.507 OA
ATOM     49  H   UNL     1     120.509 110.176 122.860  1.00  0.00     0.293 HD
ENDBRANCH  34  48
BRANCH  37  50
ATOM     50  O   UNL     1     115.439 110.875 123.389  1.00  0.00    -0.508 OA
ATOM     51  H   UNL     1     114.720 111.333 123.938  1.00  0.00     0.293 HD
ENDBRANCH  37  50
ENDBRANCH  26  27
ENDBRANCH   5  26
BRANCH   4  52
ATOM     52  O   UNL     1     120.391 112.986 118.440  1.00  0.00    -0.384 OA
ATOM     53  H   UNL     1     120.333 113.063 119.429  1.00  0.00     0.211 HD
ENDBRANCH   4  52
TORSDOF 16
ENDMDL
MODEL 2
REMARK VINA RESULT:    12.360      1.753      5.459
REMARK INTER + INTRA:          19.326
REMARK INTER:                  18.315
REMARK INTRA:                   1.011
REMARK UNBOUND:                -0.982
REMARK SMILES C[C@H]1O[C@H](OC[C@@H]2O[C@H](Oc3c(-c4ccc(O)c(O)c4)oc4cc(O)cc(O)c4c3=O)[C@H](O)[C@H](O)[C@@H]2O)[C@@H](O)[C@H](O)[C@H]1O
REMARK SMILES IDX 7 1 36 2 34 3 32 4 9 5 8 6 6 7 5 8 4 9 1 10 2 11 42 12 3 13
REMARK SMILES IDX 40 14 38 15 43 16 41 18 39 20 37 22 35 24 10 26 11 27 12 28
REMARK SMILES IDX 30 29 21 30 29 31 31 32 22 33 27 34 23 35 26 36 24 37 13 38
REMARK SMILES IDX 20 39 14 40 18 41 15 42 16 43 19 44 17 46 28 48 25 50 33 52
REMARK H PARENT 43 17 41 19 39 21 37 23 35 25 19 45 17 47 28 49 25 51 33 53
REMARK Flexibility Score: inf
ROOT
ATOM      1  C   UNL     1     121.882 114.082 120.154  1.00  0.00     0.180 C 
ATOM      2  C   UNL     1     122.293 113.123 121.316  1.00  0.00     0.177 C 
ATOM      3  C   UNL     1     121.232 112.921 122.424  1.00  0.00     0.180 C 
ATOM      4  C   UNL     1     119.828 112.841 121.814  1.00  0.00     0.214 C 
ATOM      5  C   UNL     1     119.567 113.933 120.748  1.00  0.00     0.339 C 
ATOM      6  O   UNL     1     120.539 113.932 119.716  1.00  0.00    -0.332 OA
ENDROOT
BRANCH   1   7
ATOM      7  C   UNL     1     122.317 115.564 120.231  1.00  0.00     0.198 C 
BRANCH   7   8
ATOM      8  O   UNL     1     122.526 116.130 118.956  1.00  0.00    -0.347 OA
BRANCH   8   9
ATOM      9  C   UNL     1     123.901 116.390 118.709  1.00  0.00     0.281 C 
ATOM     10  C   UNL     1     126.057 118.493 118.381  1.00  0.00     0.041 C 
ATOM     11  C   UNL     1     125.706 117.644 119.617  1.00  0.00     0.150 C 
ATOM     12  C   UNL     1     126.575 116.381 119.807  1.00  0.00     0.174 C 
ATOM     13  O   UNL     1     124.321 117.340 119.674  1.00  0.00    -0.344 OA
ATOM     14  C   UNL     1     126.192 115.284 118.807  1.00  0.00     0.179 C 
ATOM     15  C   UNL     1     124.676 115.058 118.862  1.00  0.00     0.202 C 
BRANCH  12  16
ATOM     16  O   UNL     1     127.951 116.672 119.755  1.00  0.00    -0.388 OA
ATOM     17  H   UNL     1     128.248 116.588 118.812  1.00  0.00     0.211 HD
ENDBRANCH  12  16
BRANCH  14  18
ATOM     18  O   UNL     1     126.851 114.091 119.158  1.00  0.00    -0.387 OA
ATOM     19  H   UNL     1     126.351 113.339 118.745  1.00  0.00     0.211 HD
ENDBRANCH  14  18
BRANCH  15  20
ATOM     20  O   UNL     1     124.290 114.129 117.876  1.00  0.00    -0.385 OA
ATOM     21  H   UNL     1     124.306 114.594 116.999  1.00  0.00     0.211 HD
ENDBRANCH  15  20
ENDBRANCH   8   9
ENDBRANCH   7   8
ENDBRANCH   1   7
BRANCH   2  22
ATOM     22  O   UNL     1     123.567 113.420 121.829  1.00  0.00    -0.387 OA
ATOM     23  H   UNL     1     124.203 113.507 121.074  1.00  0.00     0.211 HD
ENDBRANCH   2  22
BRANCH   3  24
ATOM     24  O   UNL     1     121.311 113.863 123.466  1.00  0.00    -0.387 OA
ATOM     25  H   UNL     1     121.952 113.523 124.132  1.00  0.00     0.211 HD
ENDBRANCH   3  24
BRANCH   5  26
ATOM     26  O   UNL     1     119.396 115.259 121.282  1.00  0.00    -0.454 OA
BRANCH  26  27
ATOM     27  C   UNL     1     118.324 116.130 120.993  1.00  0.00     0.214 A 
ATOM     28  C   UNL     1     116.986 115.884 121.383  1.00  0.00     0.180 A 
ATOM     29  C   UNL     1     118.595 117.301 120.271  1.00  0.00     0.239 A 
ATOM     30  O   UNL     1     116.080 116.846 121.261  1.00  0.00    -0.452 OA
ATOM     31  C   UNL     1     117.579 118.263 120.064  1.00  0.00     0.111 A 
ATOM     32  O   UNL     1     119.756 117.477 119.822  1.00  0.00    -0.285 OA
ATOM     33  C   UNL     1     116.323 118.009 120.668  1.00  0.00     0.146 A 
ATOM     34  C   UNL     1     117.751 119.477 119.332  1.00  0.00     0.134 A 
ATOM     35  C   UNL     1     115.307 118.966 120.628  1.00  0.00     0.094 A 
ATOM     36  C   UNL     1     116.725 120.429 119.331  1.00  0.00     0.093 A 
ATOM     37  C   UNL     1     115.511 120.182 119.973  1.00  0.00     0.123 A 
BRANCH  28  38
ATOM     38  C   UNL     1     116.516 114.568 121.851  1.00  0.00     0.025 A 
ATOM     39  C   UNL     1     115.665 113.794 121.045  1.00  0.00     0.062 A 
ATOM     40  C   UNL     1     116.856 114.113 123.130  1.00  0.00     0.016 A 
ATOM     41  C   UNL     1     115.175 112.565 121.503  1.00  0.00     0.158 A 
ATOM     42  C   UNL     1     116.382 112.880 123.587  1.00  0.00     0.051 A 
ATOM     43  C   UNL     1     115.542 112.101 122.777  1.00  0.00     0.157 A 
BRANCH  41  44
ATOM     44  O   UNL     1     114.322 111.827 120.684  1.00  0.00    -0.504 OA
ATOM     45  H   UNL     1     113.890 112.222 119.859  1.00  0.00     0.293 HD
ENDBRANCH  41  44
BRANCH  43  46
ATOM     46  O   UNL     1     115.068 110.875 123.238  1.00  0.00    -0.504 OA
ATOM     47  H   UNL     1     115.107 110.624 124.218  1.00  0.00     0.293 HD
ENDBRANCH  43  46
ENDBRANCH  28  38
BRANCH  34  48
ATOM     48  O   UNL     1     118.886 119.776 118.570  1.00  0.00    -0.507 OA
ATOM     49  H   UNL     1     119.717 120.211 118.938  1.00  0.00     0.293 HD
ENDBRANCH  34  48
BRANCH  37  50
ATOM     50  O   UNL     1     114.513 121.152 119.940  1.00  0.00    -0.508 OA
ATOM     51  H   UNL     1     113.575 120.936 119.621  1.00  0.00     0.293 HD
ENDBRANCH  37  50
ENDBRANCH  26  27
ENDBRANCH   5  26
BRANCH   4  52
ATOM     52  O   UNL     1     118.859 112.883 122.832  1.00  0.00    -0.384 OA
ATOM     53  H   UNL     1     118.455 113.791 122.803  1.00  0.00     0.211 HD
ENDBRANCH   4  52
TORSDOF 16
ENDMDL
MODEL 3
REMARK VINA RESULT:    12.985      2.004      8.563
REMARK INTER + INTRA:          20.354
REMARK INTER:                  20.976
REMARK INTRA:                  -0.622
REMARK UNBOUND:                -0.982
REMARK SMILES C[C@H]1O[C@H](OC[C@@H]2O[C@H](Oc3c(-c4ccc(O)c(O)c4)oc4cc(O)cc(O)c4c3=O)[C@H](O)[C@H](O)[C@@H]2O)[C@@H](O)[C@H](O)[C@H]1O
REMARK SMILES IDX 7 1 36 2 34 3 32 4 9 5 8 6 6 7 5 8 4 9 1 10 2 11 42 12 3 13
REMARK SMILES IDX 40 14 38 15 43 16 41 18 39 20 37 22 35 24 10 26 11 27 12 28
REMARK SMILES IDX 30 29 21 30 29 31 31 32 22 33 27 34 23 35 26 36 24 37 13 38
REMARK SMILES IDX 20 39 14 40 18 41 15 42 16 43 19 44 17 46 28 48 25 50 33 52
REMARK H PARENT 43 17 41 19 39 21 37 23 35 25 19 45 17 47 28 49 25 51 33 53
REMARK Flexibility Score: inf
ROOT
ATOM      1  C   UNL     1     118.886 112.699 122.311  1.00  0.00     0.180 C 
ATOM      2  C   UNL     1     118.526 111.318 121.674  1.00  0.00     0.177 C 
ATOM      3  C   UNL     1     119.415 110.875 120.488  1.00  0.00     0.180 C 
ATOM      4  C   UNL     1     120.879 111.250 120.747  1.00  0.00     0.214 C 
ATOM      5  C   UNL     1     121.049 112.692 121.285  1.00  0.00     0.339 C 
ATOM      6  O   UNL     1     120.280 112.935 122.450  1.00  0.00    -0.332 OA
ENDROOT
BRANCH   1   7
ATOM      7  C   UNL     1     118.118 113.954 121.834  1.00  0.00     0.198 C 
BRANCH   7   8
ATOM      8  O   UNL     1     117.052 114.289 122.695  1.00  0.00    -0.347 OA
BRANCH   8   9
ATOM      9  C   UNL     1     115.860 114.579 121.976  1.00  0.00     0.281 C 
ATOM     10  C   UNL     1     114.118 116.721 120.728  1.00  0.00     0.041 C 
ATOM     11  C   UNL     1     115.142 115.787 120.057  1.00  0.00     0.150 C 
ATOM     12  C   UNL     1     114.540 114.522 119.405  1.00  0.00     0.174 C 
ATOM     13  O   UNL     1     116.216 115.466 120.928  1.00  0.00    -0.344 OA
ATOM     14  C   UNL     1     114.127 113.492 120.461  1.00  0.00     0.179 C 
ATOM     15  C   UNL     1     115.302 113.247 121.416  1.00  0.00     0.202 C 
BRANCH  12  16
ATOM     16  O   UNL     1     113.477 114.830 118.537  1.00  0.00    -0.388 OA
ATOM     17  H   UNL     1     113.860 115.086 117.658  1.00  0.00     0.211 HD
ENDBRANCH  12  16
BRANCH  14  18
ATOM     18  O   UNL     1     113.792 112.285 119.820  1.00  0.00    -0.387 OA
ATOM     19  H   UNL     1     114.622 111.919 119.416  1.00  0.00     0.211 HD
ENDBRANCH  14  18
BRANCH  15  20
ATOM     20  O   UNL     1     114.909 112.383 122.456  1.00  0.00    -0.385 OA
ATOM     21  H   UNL     1     115.302 112.728 123.301  1.00  0.00     0.211 HD
ENDBRANCH  15  20
ENDBRANCH   8   9
ENDBRANCH   7   8
ENDBRANCH   1   7
BRANCH   2  22
ATOM     22  O   UNL     1     117.153 111.198 121.400  1.00  0.00    -0.387 OA
ATOM     23  H   UNL     1     116.781 110.459 121.945  1.00  0.00     0.211 HD
ENDBRANCH   2  22
BRANCH   3  24
ATOM     24  O   UNL     1     118.959 111.325 119.235  1.00  0.00    -0.387 OA
ATOM     25  H   UNL     1     118.609 110.547 118.745  1.00  0.00     0.211 HD
ENDBRANCH   3  24
BRANCH   5  26
ATOM     26  O   UNL     1     120.828 113.724 120.305  1.00  0.00    -0.454 OA
BRANCH  26  27
ATOM     27  C   UNL     1     121.776 114.684 119.893  1.00  0.00     0.214 A 
ATOM     28  C   UNL     1     121.584 116.080 120.021  1.00  0.00     0.180 A 
ATOM     29  C   UNL     1     122.972 114.233 119.317  1.00  0.00     0.239 A 
ATOM     30  O   UNL     1     122.602 116.905 119.810  1.00  0.00    -0.452 OA
ATOM     31  C   UNL     1     124.002 115.150 119.002  1.00  0.00     0.111 A 
ATOM     32  O   UNL     1     123.108 113.003 119.095  1.00  0.00    -0.285 OA
ATOM     33  C   UNL     1     123.784 116.504 119.354  1.00  0.00     0.146 A 
ATOM     34  C   UNL     1     125.247 114.793 118.401  1.00  0.00     0.134 A 
ATOM     35  C   UNL     1     124.799 117.452 119.203  1.00  0.00     0.094 A 
ATOM     36  C   UNL     1     126.254 115.757 118.286  1.00  0.00     0.093 A 
ATOM     37  C   UNL     1     126.039 117.077 118.683  1.00  0.00     0.123 A 
BRANCH  28  38
ATOM     38  C   UNL     1     120.270 116.687 120.303  1.00  0.00     0.025 A 
ATOM     39  C   UNL     1     119.577 117.372 119.292  1.00  0.00     0.062 A 
ATOM     40  C   UNL     1     119.740 116.647 121.597  1.00  0.00     0.016 A 
ATOM     41  C   UNL     1     118.352 117.993 119.565  1.00  0.00     0.158 A 
ATOM     42  C   UNL     1     118.510 117.252 121.872  1.00  0.00     0.051 A 
ATOM     43  C   UNL     1     117.811 117.926 120.859  1.00  0.00     0.157 A 
BRANCH  41  44
ATOM     44  O   UNL     1     117.695 118.675 118.542  1.00  0.00    -0.504 OA
ATOM     45  H   UNL     1     117.800 118.422 117.568  1.00  0.00     0.293 HD
ENDBRANCH  41  44
BRANCH  43  46
ATOM     46  O   UNL     1     116.589 118.532 121.138  1.00  0.00    -0.504 OA
ATOM     47  H   UNL     1     115.894 118.085 121.724  1.00  0.00     0.293 HD
ENDBRANCH  43  46
ENDBRANCH  28  38
BRANCH  34  48
ATOM     48  O   UNL     1     125.527 113.526 117.875  1.00  0.00    -0.507 OA
ATOM     49  H   UNL     1     126.199 113.351 117.146  1.00  0.00     0.293 HD
ENDBRANCH  34  48
BRANCH  37  50
ATOM     50  O   UNL     1     127.066 118.007 118.543  1.00  0.00    -0.508 OA
ATOM     51  H   UNL     1     127.325 118.378 117.635  1.00  0.00     0.293 HD
ENDBRANCH  37  50
ENDBRANCH  26  27
ENDBRANCH   5  26
BRANCH   4  52
ATOM     52  O   UNL     1     121.639 111.050 119.581  1.00  0.00    -0.384 OA
ATOM     53  H   UNL     1     122.568 111.330 119.795  1.00  0.00     0.211 HD
ENDBRANCH   4  52
TORSDOF 16
ENDMDL
MODEL 4
REMARK VINA RESULT:    13.575      1.224      4.874
REMARK INTER + INTRA:          21.323
REMARK INTER:                  22.056
REMARK INTRA:                  -0.733
REMARK UNBOUND:                -0.982
REMARK SMILES C[C@H]1O[C@H](OC[C@@H]2O[C@H](Oc3c(-c4ccc(O)c(O)c4)oc4cc(O)cc(O)c4c3=O)[C@H](O)[C@H](O)[C@@H]2O)[C@@H](O)[C@H](O)[C@H]1O
REMARK SMILES IDX 7 1 36 2 34 3 32 4 9 5 8 6 6 7 5 8 4 9 1 10 2 11 42 12 3 13
REMARK SMILES IDX 40 14 38 15 43 16 41 18 39 20 37 22 35 24 10 26 11 27 12 28
REMARK SMILES IDX 30 29 21 30 29 31 31 32 22 33 27 34 23 35 26 36 24 37 13 38
REMARK SMILES IDX 20 39 14 40 18 41 15 42 16 43 19 44 17 46 28 48 25 50 33 52
REMARK H PARENT 43 17 41 19 39 21 37 23 35 25 19 45 17 47 28 49 25 51 33 53
REMARK Flexibility Score: inf
ROOT
ATOM      1  C   UNL     1     123.428 116.096 118.474  1.00  0.00     0.180 C 
ATOM      2  C   UNL     1     123.703 114.560 118.556  1.00  0.00     0.177 C 
ATOM      3  C   UNL     1     122.499 113.686 118.979  1.00  0.00     0.180 C 
ATOM      4  C   UNL     1     121.207 114.207 118.341  1.00  0.00     0.214 C 
ATOM      5  C   UNL     1     121.060 115.746 118.441  1.00  0.00     0.339 C 
ATOM      6  O   UNL     1     122.173 116.437 117.902  1.00  0.00    -0.332 OA
ENDROOT
BRANCH   1   7
ATOM      7  C   UNL     1     123.780 116.975 119.697  1.00  0.00     0.198 C 
BRANCH   7   8
ATOM      8  O   UNL     1     125.141 116.876 120.055  1.00  0.00    -0.347 OA
BRANCH   8   9
ATOM      9  C   UNL     1     125.891 117.996 119.606  1.00  0.00     0.281 C 
ATOM     10  C   UNL     1     126.192 121.011 119.627  1.00  0.00     0.041 C 
ATOM     11  C   UNL     1     126.930 119.954 120.468  1.00  0.00     0.150 C 
ATOM     12  C   UNL     1     128.315 119.539 119.923  1.00  0.00     0.174 C 
ATOM     13  O   UNL     1     126.113 118.824 120.735  1.00  0.00    -0.344 OA
ATOM     14  C   UNL     1     128.182 118.630 118.696  1.00  0.00     0.179 C 
ATOM     15  C   UNL     1     127.228 117.475 119.023  1.00  0.00     0.202 C 
BRANCH  12  16
ATOM     16  O   UNL     1     129.134 120.652 119.658  1.00  0.00    -0.388 OA
ATOM     17  H   UNL     1     128.596 121.473 119.804  1.00  0.00     0.211 HD
ENDBRANCH  12  16
BRANCH  14  18
ATOM     18  O   UNL     1     129.448 118.108 118.371  1.00  0.00    -0.387 OA
ATOM     19  H   UNL     1     129.911 118.775 117.800  1.00  0.00     0.211 HD
ENDBRANCH  14  18
BRANCH  15  20
ATOM     20  O   UNL     1     127.010 116.688 117.875  1.00  0.00    -0.385 OA
ATOM     21  H   UNL     1     126.945 115.741 118.166  1.00  0.00     0.211 HD
ENDBRANCH  15  20
ENDBRANCH   8   9
ENDBRANCH   7   8
ENDBRANCH   1   7
BRANCH   2  22
ATOM     22  O   UNL     1     124.872 114.265 119.278  1.00  0.00    -0.387 OA
ATOM     23  H   UNL     1     124.673 113.544 119.928  1.00  0.00     0.211 HD
ENDBRANCH   2  22
BRANCH   3  24
ATOM     24  O   UNL     1     122.380 113.517 120.371  1.00  0.00    -0.387 OA
ATOM     25  H   UNL     1     121.692 114.145 120.693  1.00  0.00     0.211 HD
ENDBRANCH   3  24
BRANCH   5  26
ATOM     26  O   UNL     1     120.751 116.230 119.761  1.00  0.00    -0.454 OA
BRANCH  26  27
ATOM     27  C   UNL     1     119.482 116.660 120.203  1.00  0.00     0.214 A 
ATOM     28  C   UNL     1     118.765 116.039 121.253  1.00  0.00     0.180 A 
ATOM     29  C   UNL     1     118.892 117.759 119.563  1.00  0.00     0.239 A 
ATOM     30  O   UNL     1     117.684 116.628 121.749  1.00  0.00    -0.452 OA
ATOM     31  C   UNL     1     117.679 118.303 120.050  1.00  0.00     0.111 A 
ATOM     32  O   UNL     1     119.465 118.250 118.557  1.00  0.00    -0.285 OA
ATOM     33  C   UNL     1     117.147 117.726 121.229  1.00  0.00     0.146 A 
ATOM     34  C   UNL     1     116.994 119.408 119.461  1.00  0.00     0.134 A 
ATOM     35  C   UNL     1     116.030 118.285 121.853  1.00  0.00     0.094 A 
ATOM     36  C   UNL     1     115.893 119.963 120.122  1.00  0.00     0.093 A 
ATOM     37  C   UNL     1     115.411 119.412 121.309  1.00  0.00     0.123 A 
BRANCH  28  38
ATOM     38  C   UNL     1     119.113 114.708 121.783  1.00  0.00     0.025 A 
ATOM     39  C   UNL     1     120.431 114.429 122.180  1.00  0.00     0.062 A 
ATOM     40  C   UNL     1     118.151 113.693 121.827  1.00  0.00     0.016 A 
ATOM     41  C   UNL     1     120.781 113.153 122.639  1.00  0.00     0.158 A 
ATOM     42  C   UNL     1     118.490 112.422 122.299  1.00  0.00     0.051 A 
ATOM     43  C   UNL     1     119.804 112.146 122.707  1.00  0.00     0.157 A 
BRANCH  41  44
ATOM     44  O   UNL     1     122.100 112.905 123.013  1.00  0.00    -0.504 OA
ATOM     45  H   UNL     1     122.519 111.987 122.941  1.00  0.00     0.293 HD
ENDBRANCH  41  44
BRANCH  43  46
ATOM     46  O   UNL     1     120.139 110.877 123.171  1.00  0.00    -0.504 OA
ATOM     47  H   UNL     1     120.894 110.342 122.759  1.00  0.00     0.293 HD
ENDBRANCH  43  46
ENDBRANCH  28  38
BRANCH  34  48
ATOM     48  O   UNL     1     117.332 119.968 118.224  1.00  0.00    -0.507 OA
ATOM     49  H   UNL     1     118.144 120.542 118.064  1.00  0.00     0.293 HD
ENDBRANCH  34  48
BRANCH  37  50
ATOM     50  O   UNL     1     114.307 119.990 121.930  1.00  0.00    -0.508 OA
ATOM     51  H   UNL     1     113.668 119.440 122.495  1.00  0.00     0.293 HD
ENDBRANCH  37  50
ENDBRANCH  26  27
ENDBRANCH   5  26
BRANCH   4  52
ATOM     52  O   UNL     1     120.096 113.553 118.902  1.00  0.00    -0.384 OA
ATOM     53  H   UNL     1     120.305 113.412 119.863  1.00  0.00     0.211 HD
ENDBRANCH   4  52
TORSDOF 16
ENDMDL
MODEL 5
REMARK VINA RESULT:    13.840      2.274      8.247
REMARK INTER + INTRA:          21.758
REMARK INTER:                  18.835
REMARK INTRA:                   2.923
REMARK UNBOUND:                -0.982
REMARK SMILES C[C@H]1O[C@H](OC[C@@H]2O[C@H](Oc3c(-c4ccc(O)c(O)c4)oc4cc(O)cc(O)c4c3=O)[C@H](O)[C@H](O)[C@@H]2O)[C@@H](O)[C@H](O)[C@H]1O
REMARK SMILES IDX 7 1 36 2 34 3 32 4 9 5 8 6 6 7 5 8 4 9 1 10 2 11 42 12 3 13
REMARK SMILES IDX 40 14 38 15 43 16 41 18 39 20 37 22 35 24 10 26 11 27 12 28
REMARK SMILES IDX 30 29 21 30 29 31 31 32 22 33 27 34 23 35 26 36 24 37 13 38
REMARK SMILES IDX 20 39 14 40 18 41 15 42 16 43 19 44 17 46 28 48 25 50 33 52
REMARK H PARENT 43 17 41 19 39 21 37 23 35 25 19 45 17 47 28 49 25 51 33 53
REMARK Flexibility Score: inf
ROOT
ATOM      1  C   UNL     1     116.152 113.222 122.194  1.00  0.00     0.180 C 
ATOM      2  C   UNL     1     116.444 111.705 122.431  1.00  0.00     0.177 C 
ATOM      3  C   UNL     1     117.904 111.257 122.183  1.00  0.00     0.180 C 
ATOM      4  C   UNL     1     118.884 112.322 122.688  1.00  0.00     0.214 C 
ATOM      5  C   UNL     1     118.484 113.760 122.273  1.00  0.00     0.339 C 
ATOM      6  O   UNL     1     117.166 114.096 122.671  1.00  0.00    -0.332 OA
ENDROOT
BRANCH   1   7
ATOM      7  C   UNL     1     115.591 113.659 120.821  1.00  0.00     0.198 C 
BRANCH   7   8
ATOM      8  O   UNL     1     114.219 113.980 120.880  1.00  0.00    -0.347 OA
BRANCH   8   9
ATOM      9  C   UNL     1     113.966 115.312 120.455  1.00  0.00     0.281 C 
ATOM     10  C   UNL     1     112.619 117.953 121.082  1.00  0.00     0.041 C 
ATOM     11  C   UNL     1     114.089 117.539 121.282  1.00  0.00     0.150 C 
ATOM     12  C   UNL     1     115.048 117.976 120.152  1.00  0.00     0.174 C 
ATOM     13  O   UNL     1     114.215 116.154 121.569  1.00  0.00    -0.344 OA
ATOM     14  C   UNL     1     114.860 117.116 118.897  1.00  0.00     0.179 C 
ATOM     15  C   UNL     1     114.928 115.634 119.285  1.00  0.00     0.202 C 
BRANCH  12  16
ATOM     16  O   UNL     1     114.933 119.348 119.862  1.00  0.00    -0.388 OA
ATOM     17  H   UNL     1     115.779 119.645 119.437  1.00  0.00     0.211 HD
ENDBRANCH  12  16
BRANCH  14  18
ATOM     18  O   UNL     1     115.892 117.404 117.984  1.00  0.00    -0.387 OA
ATOM     19  H   UNL     1     115.517 118.003 117.287  1.00  0.00     0.211 HD
ENDBRANCH  14  18
BRANCH  15  20
ATOM     20  O   UNL     1     114.653 114.827 118.164  1.00  0.00    -0.385 OA
ATOM     21  H   UNL     1     113.979 115.300 117.609  1.00  0.00     0.211 HD
ENDBRANCH  15  20
ENDBRANCH   8   9
ENDBRANCH   7   8
ENDBRANCH   1   7
BRANCH   2  22
ATOM     22  O   UNL     1     115.504 110.875 121.797  1.00  0.00    -0.387 OA
ATOM     23  H   UNL     1     114.965 111.422 121.171  1.00  0.00     0.211 HD
ENDBRANCH   2  22
BRANCH   3  24
ATOM     24  O   UNL     1     118.164 110.875 120.854  1.00  0.00    -0.387 OA
ATOM     25  H   UNL     1     119.016 111.288 120.583  1.00  0.00     0.211 HD
ENDBRANCH   3  24
BRANCH   5  26
ATOM     26  O   UNL     1     118.685 114.056 120.879  1.00  0.00    -0.454 OA
BRANCH  26  27
ATOM     27  C   UNL     1     119.827 114.672 120.325  1.00  0.00     0.214 A 
ATOM     28  C   UNL     1     120.060 116.067 120.359  1.00  0.00     0.180 A 
ATOM     29  C   UNL     1     120.784 113.860 119.699  1.00  0.00     0.239 A 
ATOM     30  O   UNL     1     121.248 116.544 120.010  1.00  0.00    -0.452 OA
ATOM     31  C   UNL     1     122.001 114.415 119.239  1.00  0.00     0.111 A 
ATOM     32  O   UNL     1     120.537 112.635 119.562  1.00  0.00    -0.285 OA
ATOM     33  C   UNL     1     122.217 115.790 119.500  1.00  0.00     0.146 A 
ATOM     34  C   UNL     1     123.028 113.677 118.577  1.00  0.00     0.134 A 
ATOM     35  C   UNL     1     123.443 116.388 119.203  1.00  0.00     0.094 A 
ATOM     36  C   UNL     1     124.256 114.295 118.314  1.00  0.00     0.093 A 
ATOM     37  C   UNL     1     124.468 115.638 118.623  1.00  0.00     0.123 A 
BRANCH  28  38
ATOM     38  C   UNL     1     119.009 117.048 120.690  1.00  0.00     0.025 A 
ATOM     39  C   UNL     1     118.737 118.113 119.815  1.00  0.00     0.062 A 
ATOM     40  C   UNL     1     118.328 116.965 121.909  1.00  0.00     0.016 A 
ATOM     41  C   UNL     1     117.775 119.075 120.146  1.00  0.00     0.158 A 
ATOM     42  C   UNL     1     117.356 117.914 122.237  1.00  0.00     0.051 A 
ATOM     43  C   UNL     1     117.075 118.972 121.359  1.00  0.00     0.157 A 
BRANCH  41  44
ATOM     44  O   UNL     1     117.537 120.127 119.263  1.00  0.00    -0.504 OA
ATOM     45  H   UNL     1     117.304 119.974 118.290  1.00  0.00     0.293 HD
ENDBRANCH  41  44
BRANCH  43  46
ATOM     46  O   UNL     1     116.110 119.918 121.692  1.00  0.00    -0.504 OA
ATOM     47  H   UNL     1     115.935 120.729 121.110  1.00  0.00     0.293 HD
ENDBRANCH  43  46
ENDBRANCH  28  38
BRANCH  34  48
ATOM     48  O   UNL     1     122.880 112.359 118.132  1.00  0.00    -0.507 OA
ATOM     49  H   UNL     1     122.194 111.713 118.489  1.00  0.00     0.293 HD
ENDBRANCH  34  48
BRANCH  37  50
ATOM     50  O   UNL     1     125.702 116.217 118.337  1.00  0.00    -0.508 OA
ATOM     51  H   UNL     1     126.565 115.691 118.416  1.00  0.00     0.293 HD
ENDBRANCH  37  50
ENDBRANCH  26  27
ENDBRANCH   5  26
BRANCH   4  52
ATOM     52  O   UNL     1     120.188 112.015 122.261  1.00  0.00    -0.384 OA
ATOM     53  H   UNL     1     120.679 112.877 122.202  1.00  0.00     0.211 HD
ENDBRANCH   4  52
TORSDOF 16
ENDMDL
MODEL 6
REMARK VINA RESULT:    13.969      2.948      6.595
REMARK INTER + INTRA:          21.970
REMARK INTER:                  17.331
REMARK INTRA:                   4.639
REMARK UNBOUND:                -0.982
REMARK SMILES C[C@H]1O[C@H](OC[C@@H]2O[C@H](Oc3c(-c4ccc(O)c(O)c4)oc4cc(O)cc(O)c4c3=O)[C@H](O)[C@H](O)[C@@H]2O)[C@@H](O)[C@H](O)[C@H]1O
REMARK SMILES IDX 7 1 36 2 34 3 32 4 9 5 8 6 6 7 5 8 4 9 1 10 2 11 42 12 3 13
REMARK SMILES IDX 40 14 38 15 43 16 41 18 39 20 37 22 35 24 10 26 11 27 12 28
REMARK SMILES IDX 30 29 21 30 29 31 31 32 22 33 27 34 23 35 26 36 24 37 13 38
REMARK SMILES IDX 20 39 14 40 18 41 15 42 16 43 19 44 17 46 28 48 25 50 33 52
REMARK H PARENT 43 17 41 19 39 21 37 23 35 25 19 45 17 47 28 49 25 51 33 53
REMARK Flexibility Score: inf
ROOT
ATOM      1  C   UNL     1     119.494 112.557 122.097  1.00  0.00     0.180 C 
ATOM      2  C   UNL     1     120.939 112.763 122.653  1.00  0.00     0.177 C 
ATOM      3  C   UNL     1     121.372 114.234 122.864  1.00  0.00     0.180 C 
ATOM      4  C   UNL     1     120.206 115.062 123.413  1.00  0.00     0.214 C 
ATOM      5  C   UNL     1     118.871 114.796 122.674  1.00  0.00     0.339 C 
ATOM      6  O   UNL     1     118.519 113.423 122.661  1.00  0.00    -0.332 OA
ENDROOT
BRANCH   1   7
ATOM      7  C   UNL     1     119.309 112.371 120.572  1.00  0.00     0.198 C 
BRANCH   7   8
ATOM      8  O   UNL     1     120.522 112.069 119.918  1.00  0.00    -0.347 OA
BRANCH   8   9
ATOM      9  C   UNL     1     120.989 113.161 119.136  1.00  0.00     0.281 C 
ATOM     10  C   UNL     1     120.505 116.010 118.227  1.00  0.00     0.041 C 
ATOM     11  C   UNL     1     121.430 115.488 119.342  1.00  0.00     0.150 C 
ATOM     12  C   UNL     1     122.909 115.312 118.932  1.00  0.00     0.174 C 
ATOM     13  O   UNL     1     120.913 114.317 119.954  1.00  0.00    -0.344 OA
ATOM     14  C   UNL     1     123.099 114.077 118.044  1.00  0.00     0.179 C 
ATOM     15  C   UNL     1     122.452 112.863 118.723  1.00  0.00     0.202 C 
BRANCH  12  16
ATOM     16  O   UNL     1     123.432 116.470 118.327  1.00  0.00    -0.388 OA
ATOM     17  H   UNL     1     122.857 117.238 118.582  1.00  0.00     0.211 HD
ENDBRANCH  12  16
BRANCH  14  18
ATOM     18  O   UNL     1     124.475 113.836 117.879  1.00  0.00    -0.387 OA
ATOM     19  H   UNL     1     124.805 113.396 118.706  1.00  0.00     0.211 HD
ENDBRANCH  14  18
BRANCH  15  20
ATOM     20  O   UNL     1     122.523 111.740 117.876  1.00  0.00    -0.385 OA
ATOM     21  H   UNL     1     123.271 111.169 118.191  1.00  0.00     0.211 HD
ENDBRANCH  15  20
ENDBRANCH   8   9
ENDBRANCH   7   8
ENDBRANCH   1   7
BRANCH   2  22
ATOM     22  O   UNL     1     121.895 112.009 121.950  1.00  0.00    -0.387 OA
ATOM     23  H   UNL     1     121.428 111.439 121.288  1.00  0.00     0.211 HD
ENDBRANCH   2  22
BRANCH   3  24
ATOM     24  O   UNL     1     121.960 114.822 121.729  1.00  0.00    -0.387 OA
ATOM     25  H   UNL     1     121.490 114.481 120.935  1.00  0.00     0.211 HD
ENDBRANCH   3  24
BRANCH   5  26
ATOM     26  O   UNL     1     118.804 115.351 121.347  1.00  0.00    -0.454 OA
BRANCH  26  27
ATOM     27  C   UNL     1     117.845 116.280 120.892  1.00  0.00     0.214 A 
ATOM     28  C   UNL     1     116.449 116.054 120.940  1.00  0.00     0.180 A 
ATOM     29  C   UNL     1     118.298 117.494 120.354  1.00  0.00     0.239 A 
ATOM     30  O   UNL     1     115.613 117.055 120.693  1.00  0.00    -0.452 OA
ATOM     31  C   UNL     1     117.375 118.505 119.999  1.00  0.00     0.111 A 
ATOM     32  O   UNL     1     119.534 117.661 120.202  1.00  0.00    -0.285 OA
ATOM     33  C   UNL     1     116.009 118.251 120.273  1.00  0.00     0.146 A 
ATOM     34  C   UNL     1     117.734 119.765 119.432  1.00  0.00     0.134 A 
ATOM     35  C   UNL     1     115.047 119.245 120.080  1.00  0.00     0.094 A 
ATOM     36  C   UNL     1     116.754 120.751 119.274  1.00  0.00     0.093 A 
ATOM     37  C   UNL     1     115.420 120.500 119.594  1.00  0.00     0.123 A 
BRANCH  28  38
ATOM     38  C   UNL     1     115.860 114.723 121.175  1.00  0.00     0.025 A 
ATOM     39  C   UNL     1     116.304 113.935 122.250  1.00  0.00     0.062 A 
ATOM     40  C   UNL     1     114.909 114.207 120.288  1.00  0.00     0.016 A 
ATOM     41  C   UNL     1     115.785 112.650 122.451  1.00  0.00     0.158 A 
ATOM     42  C   UNL     1     114.376 112.931 120.493  1.00  0.00     0.051 A 
ATOM     43  C   UNL     1     114.810 112.148 121.573  1.00  0.00     0.157 A 
BRANCH  41  44
ATOM     44  O   UNL     1     116.255 111.888 123.519  1.00  0.00    -0.504 OA
ATOM     45  H   UNL     1     115.642 111.535 124.243  1.00  0.00     0.293 HD
ENDBRANCH  41  44
BRANCH  43  46
ATOM     46  O   UNL     1     114.281 110.876 121.771  1.00  0.00    -0.504 OA
ATOM     47  H   UNL     1     114.871 110.080 121.983  1.00  0.00     0.293 HD
ENDBRANCH  43  46
ENDBRANCH  28  38
BRANCH  34  48
ATOM     48  O   UNL     1     119.021 120.081 118.980  1.00  0.00    -0.507 OA
ATOM     49  H   UNL     1     119.869 119.809 119.451  1.00  0.00     0.293 HD
ENDBRANCH  34  48
BRANCH  37  50
ATOM     50  O   UNL     1     114.474 121.505 119.413  1.00  0.00    -0.508 OA
ATOM     51  H   UNL     1     113.979 121.914 120.198  1.00  0.00     0.293 HD
ENDBRANCH  37  50
ENDBRANCH  26  27
ENDBRANCH   5  26
BRANCH   4  52
ATOM     52  O   UNL     1     120.535 116.429 123.391  1.00  0.00    -0.384 OA
ATOM     53  H   UNL     1     121.089 116.575 122.579  1.00  0.00     0.211 HD
ENDBRANCH   4  52
TORSDOF 16
ENDMDL
MODEL 7
REMARK VINA RESULT:    14.207      3.709      5.728
REMARK INTER + INTRA:          22.361
REMARK INTER:                   9.971
REMARK INTRA:                  12.390
REMARK UNBOUND:                -0.982
REMARK SMILES C[C@H]1O[C@H](OC[C@@H]2O[C@H](Oc3c(-c4ccc(O)c(O)c4)oc4cc(O)cc(O)c4c3=O)[C@H](O)[C@H](O)[C@@H]2O)[C@@H](O)[C@H](O)[C@H]1O
REMARK SMILES IDX 7 1 36 2 34 3 32 4 9 5 8 6 6 7 5 8 4 9 1 10 2 11 42 12 3 13
REMARK SMILES IDX 40 14 38 15 43 16 41 18 39 20 37 22 35 24 10 26 11 27 12 28
REMARK SMILES IDX 30 29 21 30 29 31 31 32 22 33 27 34 23 35 26 36 24 37 13 38
REMARK SMILES IDX 20 39 14 40 18 41 15 42 16 43 19 44 17 46 28 48 25 50 33 52
REMARK H PARENT 43 17 41 19 39 21 37 23 35 25 19 45 17 47 28 49 25 51 33 53
REMARK Flexibility Score: inf
ROOT
ATOM      1  C   UNL     1     120.507 116.709 120.533  1.00  0.00     0.180 C 
ATOM      2  C   UNL     1     119.965 116.364 119.109  1.00  0.00     0.177 C 
ATOM      3  C   UNL     1     118.679 117.110 118.682  1.00  0.00     0.180 C 
ATOM      4  C   UNL     1     118.719 118.565 119.163  1.00  0.00     0.214 C 
ATOM      5  C   UNL     1     119.188 118.705 120.633  1.00  0.00     0.339 C 
ATOM      6  O   UNL     1     120.442 118.088 120.867  1.00  0.00    -0.332 OA
ENDROOT
BRANCH   1   7
ATOM      7  C   UNL     1     120.108 115.794 121.715  1.00  0.00     0.198 C 
BRANCH   7   8
ATOM      8  O   UNL     1     121.196 115.036 122.197  1.00  0.00    -0.347 OA
BRANCH   8   9
ATOM      9  C   UNL     1     121.256 113.751 121.592  1.00  0.00     0.281 C 
ATOM     10  C   UNL     1     120.305 110.875 121.665  1.00  0.00     0.041 C 
ATOM     11  C   UNL     1     119.803 112.045 120.798  1.00  0.00     0.150 C 
ATOM     12  C   UNL     1     120.402 112.105 119.375  1.00  0.00     0.174 C 
ATOM     13  O   UNL     1     119.921 113.290 121.469  1.00  0.00    -0.344 OA
ATOM     14  C   UNL     1     121.852 112.601 119.401  1.00  0.00     0.179 C 
ATOM     15  C   UNL     1     121.925 113.906 120.204  1.00  0.00     0.202 C 
BRANCH  12  16
ATOM     16  O   UNL     1     120.287 110.875 118.700  1.00  0.00    -0.388 OA
ATOM     17  H   UNL     1     120.269 111.059 117.726  1.00  0.00     0.211 HD
ENDBRANCH  12  16
BRANCH  14  18
ATOM     18  O   UNL     1     122.278 112.845 118.082  1.00  0.00    -0.387 OA
ATOM     19  H   UNL     1     121.468 113.009 117.530  1.00  0.00     0.211 HD
ENDBRANCH  14  18
BRANCH  15  20
ATOM     20  O   UNL     1     123.265 114.322 120.329  1.00  0.00    -0.385 OA
ATOM     21  H   UNL     1     123.372 114.732 121.227  1.00  0.00     0.211 HD
ENDBRANCH  15  20
ENDBRANCH   8   9
ENDBRANCH   7   8
ENDBRANCH   1   7
BRANCH   2  22
ATOM     22  O   UNL     1     119.890 114.978 118.887  1.00  0.00    -0.387 OA
ATOM     23  H   UNL     1     120.304 114.508 119.655  1.00  0.00     0.211 HD
ENDBRANCH   2  22
BRANCH   3  24
ATOM     24  O   UNL     1     117.490 116.455 119.054  1.00  0.00    -0.387 OA
ATOM     25  H   UNL     1     116.783 117.136 119.134  1.00  0.00     0.211 HD
ENDBRANCH   3  24
BRANCH   5  26
ATOM     26  O   UNL     1     118.221 118.277 121.610  1.00  0.00    -0.454 OA
BRANCH  26  27
ATOM     27  C   UNL     1     117.177 117.355 121.385  1.00  0.00     0.214 A 
ATOM     28  C   UNL     1     115.983 117.674 120.696  1.00  0.00     0.180 A 
ATOM     29  C   UNL     1     117.324 116.050 121.878  1.00  0.00     0.239 A 
ATOM     30  O   UNL     1     115.151 116.704 120.341  1.00  0.00    -0.452 OA
ATOM     31  C   UNL     1     116.362 115.059 121.572  1.00  0.00     0.111 A 
ATOM     32  O   UNL     1     118.327 115.784 122.588  1.00  0.00    -0.285 OA
ATOM     33  C   UNL     1     115.306 115.437 120.708  1.00  0.00     0.146 A 
ATOM     34  C   UNL     1     116.415 113.710 122.038  1.00  0.00     0.134 A 
ATOM     35  C   UNL     1     114.389 114.489 120.247  1.00  0.00     0.094 A 
ATOM     36  C   UNL     1     115.499 112.777 121.538  1.00  0.00     0.093 A 
ATOM     37  C   UNL     1     114.494 113.156 120.650  1.00  0.00     0.123 A 
BRANCH  28  38
ATOM     38  C   UNL     1     115.566 119.060 120.414  1.00  0.00     0.025 A 
ATOM     39  C   UNL     1     116.037 119.719 119.266  1.00  0.00     0.062 A 
ATOM     40  C   UNL     1     114.760 119.752 121.324  1.00  0.00     0.016 A 
ATOM     41  C   UNL     1     115.685 121.051 119.017  1.00  0.00     0.158 A 
ATOM     42  C   UNL     1     114.392 121.077 121.072  1.00  0.00     0.051 A 
ATOM     43  C   UNL     1     114.852 121.731 119.920  1.00  0.00     0.157 A 
BRANCH  41  44
ATOM     44  O   UNL     1     116.178 121.680 117.875  1.00  0.00    -0.504 OA
ATOM     45  H   UNL     1     115.582 121.936 117.098  1.00  0.00     0.293 HD
ENDBRANCH  41  44
BRANCH  43  46
ATOM     46  O   UNL     1     114.489 123.053 119.676  1.00  0.00    -0.504 OA
ATOM     47  H   UNL     1     114.992 123.630 119.012  1.00  0.00     0.293 HD
ENDBRANCH  43  46
ENDBRANCH  28  38
BRANCH  34  48
ATOM     48  O   UNL     1     117.315 113.251 123.005  1.00  0.00    -0.507 OA
ATOM     49  H   UNL     1     117.482 113.709 123.887  1.00  0.00     0.293 HD
ENDBRANCH  34  48
BRANCH  37  50
ATOM     50  O   UNL     1     113.597 112.198 120.184  1.00  0.00    -0.508 OA
ATOM     51  H   UNL     1     112.746 112.459 119.699  1.00  0.00     0.293 HD
ENDBRANCH  37  50
ENDBRANCH  26  27
ENDBRANCH   5  26
BRANCH   4  52
ATOM     52  O   UNL     1     117.465 119.169 118.971  1.00  0.00    -0.384 OA
ATOM     53  H   UNL     1     117.618 119.968 118.400  1.00  0.00     0.211 HD
ENDBRANCH   4  52
TORSDOF 16
ENDMDL
