MODEL 1
REMARK VINA RESULT:    -4.419      0.000      0.000
REMARK INTER + INTRA:         -10.415
REMARK INTER:                  -8.295
REMARK INTRA:                  -2.121
REMARK UNBOUND:                -2.121
REMARK SMILES CCCCCCCCC=CCCCCCCCC(=O)[O-]
REMARK SMILES IDX 10 1 9 2 11 3 12 4 13 5 14 6 15 7 16 8 17 9 18 10 19 11
REMARK SMILES IDX 20 12 8 13 7 14 6 15 5 16 4 17 3 18 2 19 1 20
REMARK H PARENT
REMARK Flexibility Score: inf
ROOT
ATOM      1  C   UNL     1      47.556  42.885  37.345  1.00  0.00    -0.031 C 
ATOM      2  C   UNL     1      46.334  42.968  37.889  1.00  0.00    -0.031 C 
ENDROOT
BRANCH   1   3
ATOM      3  C   UNL     1      47.757  42.863  35.853  1.00  0.00     0.027 C 
BRANCH   3   4
ATOM      4  C   UNL     1      46.520  42.344  35.103  1.00  0.00     0.004 C 
BRANCH   4   5
ATOM      5  C   UNL     1      46.140  43.250  33.919  1.00  0.00     0.000 C 
BRANCH   5   6
ATOM      6  C   UNL     1      47.233  44.278  33.587  1.00  0.00     0.000 C 
BRANCH   6   7
ATOM      7  C   UNL     1      47.146  44.789  32.140  1.00  0.00     0.000 C 
BRANCH   7   8
ATOM      8  C   UNL     1      47.728  43.759  31.159  1.00  0.00     0.006 C 
BRANCH   8   9
ATOM      9  C   UNL     1      46.890  43.637  29.880  1.00  0.00     0.053 C 
BRANCH   9  10
ATOM     10  C   UNL     1      45.537  43.057  30.154  1.00  0.00     0.041 C 
ATOM     11  O   UNL     1      45.427  41.874  30.573  1.00  0.00    -0.550 OA
ATOM     12  O   UNL     1      44.397  43.832  29.979  1.00  0.00    -0.550 OA
ENDBRANCH   9  10
ENDBRANCH   8   9
ENDBRANCH   7   8
ENDBRANCH   6   7
ENDBRANCH   5   6
ENDBRANCH   4   5
ENDBRANCH   3   4
ENDBRANCH   1   3
BRANCH   2  13
ATOM     13  C   UNL     1      46.159  42.990  39.383  1.00  0.00     0.027 C 
BRANCH  13  14
ATOM     14  C   UNL     1      47.474  43.332  40.091  1.00  0.00     0.004 C 
BRANCH  14  15
ATOM     15  C   UNL     1      47.885  42.217  41.060  1.00  0.00     0.000 C 
BRANCH  15  16
ATOM     16  C   UNL     1      48.527  41.045  40.309  1.00  0.00     0.000 C 
BRANCH  16  17
ATOM     17  C   UNL     1      47.676  39.775  40.439  1.00  0.00    -0.000 C 
BRANCH  17  18
ATOM     18  C   UNL     1      47.198  39.290  39.066  1.00  0.00    -0.000 C 
BRANCH  18  19
ATOM     19  C   UNL     1      48.327  39.365  38.032  1.00  0.00    -0.003 C 
ATOM     20  C   UNL     1      47.791  39.183  36.615  1.00  0.00     0.004 C 
ENDBRANCH  18  19
ENDBRANCH  17  18
ENDBRANCH  16  17
ENDBRANCH  15  16
ENDBRANCH  14  15
ENDBRANCH  13  14
ENDBRANCH   2  13
TORSDOF 15
ENDMDL
MODEL 2
REMARK VINA RESULT:    -4.315      3.473      8.118
REMARK INTER + INTRA:         -10.219
REMARK INTER:                  -8.398
REMARK INTRA:                  -1.821
REMARK UNBOUND:                -2.121
REMARK SMILES CCCCCCCCC=CCCCCCCCC(=O)[O-]
REMARK SMILES IDX 10 1 9 2 11 3 12 4 13 5 14 6 15 7 16 8 17 9 18 10 19 11
REMARK SMILES IDX 20 12 8 13 7 14 6 15 5 16 4 17 3 18 2 19 1 20
REMARK H PARENT
REMARK Flexibility Score: inf
ROOT
ATOM      1  C   UNL     1      47.496  43.091  35.379  1.00  0.00    -0.031 C 
ATOM      2  C   UNL     1      46.441  43.216  34.563  1.00  0.00    -0.031 C 
ENDROOT
BRANCH   1   3
ATOM      3  C   UNL     1      47.610  41.950  36.356  1.00  0.00     0.027 C 
BRANCH   3   4
ATOM      4  C   UNL     1      46.751  40.743  35.950  1.00  0.00     0.004 C 
BRANCH   4   5
ATOM      5  C   UNL     1      47.449  39.408  36.255  1.00  0.00     0.000 C 
BRANCH   5   6
ATOM      6  C   UNL     1      48.419  39.505  37.443  1.00  0.00     0.000 C 
BRANCH   6   7
ATOM      7  C   UNL     1      47.918  38.748  38.682  1.00  0.00     0.000 C 
BRANCH   7   8
ATOM      8  C   UNL     1      47.647  39.715  39.844  1.00  0.00     0.006 C 
BRANCH   8   9
ATOM      9  C   UNL     1      48.573  40.939  39.810  1.00  0.00     0.053 C 
BRANCH   9  10
ATOM     10  C   UNL     1      47.923  42.145  40.414  1.00  0.00     0.041 C 
ATOM     11  O   UNL     1      47.545  43.096  39.680  1.00  0.00    -0.550 OA
ATOM     12  O   UNL     1      47.703  42.206  41.785  1.00  0.00    -0.550 OA
ENDBRANCH   9  10
ENDBRANCH   8   9
ENDBRANCH   7   8
ENDBRANCH   6   7
ENDBRANCH   5   6
ENDBRANCH   4   5
ENDBRANCH   3   4
ENDBRANCH   1   3
BRANCH   2  13
ATOM     13  C   UNL     1      46.351  44.364  33.595  1.00  0.00     0.027 C 
BRANCH  13  14
ATOM     14  C   UNL     1      47.739  44.923  33.267  1.00  0.00     0.004 C 
BRANCH  14  15
ATOM     15  C   UNL     1      47.998  44.900  31.755  1.00  0.00     0.000 C 
BRANCH  15  16
ATOM     16  C   UNL     1      46.708  44.611  30.980  1.00  0.00     0.000 C 
BRANCH  16  17
ATOM     17  C   UNL     1      46.949  43.574  29.876  1.00  0.00    -0.000 C 
BRANCH  17  18
ATOM     18  C   UNL     1      45.851  42.505  29.875  1.00  0.00    -0.000 C 
BRANCH  18  19
ATOM     19  C   UNL     1      45.855  41.711  31.188  1.00  0.00    -0.003 C 
ATOM     20  C   UNL     1      44.450  41.607  31.774  1.00  0.00     0.004 C 
ENDBRANCH  18  19
ENDBRANCH  17  18
ENDBRANCH  16  17
ENDBRANCH  15  16
ENDBRANCH  14  15
ENDBRANCH  13  14
ENDBRANCH   2  13
TORSDOF 15
ENDMDL
MODEL 3
REMARK VINA RESULT:    -4.308      4.386      8.801
REMARK INTER + INTRA:         -10.206
REMARK INTER:                  -8.557
REMARK INTRA:                  -1.649
REMARK UNBOUND:                -2.121
REMARK SMILES CCCCCCCCC=CCCCCCCCC(=O)[O-]
REMARK SMILES IDX 10 1 9 2 11 3 12 4 13 5 14 6 15 7 16 8 17 9 18 10 19 11
REMARK SMILES IDX 20 12 8 13 7 14 6 15 5 16 4 17 3 18 2 19 1 20
REMARK H PARENT
REMARK Flexibility Score: inf
ROOT
ATOM      1  C   UNL     1      46.481  42.183  34.810  1.00  0.00    -0.031 C 
ATOM      2  C   UNL     1      47.117  43.347  34.624  1.00  0.00    -0.031 C 
ENDROOT
BRANCH   1   3
ATOM      3  C   UNL     1      46.921  41.201  35.865  1.00  0.00     0.027 C 
BRANCH   3   4
ATOM      4  C   UNL     1      47.994  41.785  36.796  1.00  0.00     0.004 C 
BRANCH   4   5
ATOM      5  C   UNL     1      48.886  40.690  37.407  1.00  0.00     0.000 C 
BRANCH   5   6
ATOM      6  C   UNL     1      48.792  40.638  38.940  1.00  0.00     0.000 C 
BRANCH   6   7
ATOM      7  C   UNL     1      47.601  41.437  39.489  1.00  0.00     0.000 C 
BRANCH   7   8
ATOM      8  C   UNL     1      47.985  42.176  40.780  1.00  0.00     0.006 C 
BRANCH   8   9
ATOM      9  C   UNL     1      48.615  41.240  41.820  1.00  0.00     0.053 C 
BRANCH   9  10
ATOM     10  C   UNL     1      47.576  40.508  42.613  1.00  0.00     0.041 C 
ATOM     11  O   UNL     1      47.567  39.249  42.636  1.00  0.00    -0.550 OA
ATOM     12  O   UNL     1      46.636  41.216  43.352  1.00  0.00    -0.550 OA
ENDBRANCH   9  10
ENDBRANCH   8   9
ENDBRANCH   7   8
ENDBRANCH   6   7
ENDBRANCH   5   6
ENDBRANCH   4   5
ENDBRANCH   3   4
ENDBRANCH   1   3
BRANCH   2  13
ATOM     13  C   UNL     1      46.657  44.312  33.565  1.00  0.00     0.027 C 
BRANCH  13  14
ATOM     14  C   UNL     1      47.828  44.777  32.693  1.00  0.00     0.004 C 
BRANCH  14  15
ATOM     15  C   UNL     1      47.676  44.272  31.253  1.00  0.00     0.000 C 
BRANCH  15  16
ATOM     16  C   UNL     1      46.359  44.756  30.635  1.00  0.00     0.000 C 
BRANCH  16  17
ATOM     17  C   UNL     1      45.567  43.585  30.040  1.00  0.00    -0.000 C 
BRANCH  17  18
ATOM     18  C   UNL     1      44.306  43.299  30.862  1.00  0.00    -0.000 C 
BRANCH  18  19
ATOM     19  C   UNL     1      44.459  42.005  31.671  1.00  0.00    -0.003 C 
ATOM     20  C   UNL     1      45.634  41.172  31.164  1.00  0.00     0.004 C 
ENDBRANCH  18  19
ENDBRANCH  17  18
ENDBRANCH  16  17
ENDBRANCH  15  16
ENDBRANCH  14  15
ENDBRANCH  13  14
ENDBRANCH   2  13
TORSDOF 15
ENDMDL
MODEL 4
REMARK VINA RESULT:    -4.304      3.673      8.353
REMARK INTER + INTRA:         -10.198
REMARK INTER:                  -8.276
REMARK INTRA:                  -1.922
REMARK UNBOUND:                -2.121
REMARK SMILES CCCCCCCCC=CCCCCCCCC(=O)[O-]
REMARK SMILES IDX 10 1 9 2 11 3 12 4 13 5 14 6 15 7 16 8 17 9 18 10 19 11
REMARK SMILES IDX 20 12 8 13 7 14 6 15 5 16 4 17 3 18 2 19 1 20
REMARK H PARENT
REMARK Flexibility Score: inf
ROOT
ATOM      1  C   UNL     1      47.269  43.413  33.882  1.00  0.00    -0.031 C 
ATOM      2  C   UNL     1      47.283  44.613  33.286  1.00  0.00    -0.031 C 
ENDROOT
BRANCH   1   3
ATOM      3  C   UNL     1      46.628  43.208  35.230  1.00  0.00     0.027 C 
BRANCH   3   4
ATOM      4  C   UNL     1      47.525  42.413  36.191  1.00  0.00     0.004 C 
BRANCH   4   5
ATOM      5  C   UNL     1      47.235  40.904  36.137  1.00  0.00     0.000 C 
BRANCH   5   6
ATOM      6  C   UNL     1      48.241  40.079  36.954  1.00  0.00     0.000 C 
BRANCH   6   7
ATOM      7  C   UNL     1      48.772  40.837  38.181  1.00  0.00     0.000 C 
BRANCH   7   8
ATOM      8  C   UNL     1      48.063  40.372  39.462  1.00  0.00     0.006 C 
BRANCH   8   9
ATOM      9  C   UNL     1      48.532  41.146  40.701  1.00  0.00     0.053 C 
BRANCH   9  10
ATOM     10  C   UNL     1      47.700  42.368  40.942  1.00  0.00     0.041 C 
ATOM     11  O   UNL     1      46.556  42.467  40.426  1.00  0.00    -0.550 OA
ATOM     12  O   UNL     1      48.174  43.383  41.764  1.00  0.00    -0.550 OA
ENDBRANCH   9  10
ENDBRANCH   8   9
ENDBRANCH   7   8
ENDBRANCH   6   7
ENDBRANCH   5   6
ENDBRANCH   4   5
ENDBRANCH   3   4
ENDBRANCH   1   3
BRANCH   2  13
ATOM     13  C   UNL     1      47.928  44.792  31.938  1.00  0.00     0.027 C 
BRANCH  13  14
ATOM     14  C   UNL     1      46.881  44.823  30.821  1.00  0.00     0.004 C 
BRANCH  14  15
ATOM     15  C   UNL     1      46.934  43.542  29.980  1.00  0.00     0.000 C 
BRANCH  15  16
ATOM     16  C   UNL     1      45.585  42.813  30.003  1.00  0.00     0.000 C 
BRANCH  16  17
ATOM     17  C   UNL     1      45.599  41.659  31.013  1.00  0.00    -0.000 C 
BRANCH  17  18
ATOM     18  C   UNL     1      44.544  41.870  32.104  1.00  0.00    -0.000 C 
BRANCH  18  19
ATOM     19  C   UNL     1      43.775  43.178  31.880  1.00  0.00    -0.003 C 
ATOM     20  C   UNL     1      43.558  43.923  33.194  1.00  0.00     0.004 C 
ENDBRANCH  18  19
ENDBRANCH  17  18
ENDBRANCH  16  17
ENDBRANCH  15  16
ENDBRANCH  14  15
ENDBRANCH  13  14
ENDBRANCH   2  13
TORSDOF 15
ENDMDL
MODEL 5
REMARK VINA RESULT:    -4.277      3.471      7.937
REMARK INTER + INTRA:         -10.149
REMARK INTER:                  -8.366
REMARK INTRA:                  -1.783
REMARK UNBOUND:                -2.121
REMARK SMILES CCCCCCCCC=CCCCCCCCC(=O)[O-]
REMARK SMILES IDX 10 1 9 2 11 3 12 4 13 5 14 6 15 7 16 8 17 9 18 10 19 11
REMARK SMILES IDX 20 12 8 13 7 14 6 15 5 16 4 17 3 18 2 19 1 20
REMARK H PARENT
REMARK Flexibility Score: inf
ROOT
ATOM      1  C   UNL     1      45.971  43.042  36.912  1.00  0.00    -0.031 C 
ATOM      2  C   UNL     1      46.889  42.391  36.185  1.00  0.00    -0.031 C 
ENDROOT
BRANCH   1   3
ATOM      3  C   UNL     1      45.973  42.991  38.418  1.00  0.00     0.027 C 
BRANCH   3   4
ATOM      4  C   UNL     1      47.378  43.185  39.008  1.00  0.00     0.004 C 
BRANCH   4   5
ATOM      5  C   UNL     1      47.563  42.410  40.324  1.00  0.00     0.000 C 
BRANCH   5   6
ATOM      6  C   UNL     1      48.419  41.146  40.149  1.00  0.00     0.000 C 
BRANCH   6   7
ATOM      7  C   UNL     1      48.772  40.866  38.680  1.00  0.00     0.000 C 
BRANCH   7   8
ATOM      8  C   UNL     1      48.280  39.475  38.253  1.00  0.00     0.006 C 
BRANCH   8   9
ATOM      9  C   UNL     1      46.943  39.103  38.910  1.00  0.00     0.053 C 
BRANCH   9  10
ATOM     10  C   UNL     1      46.940  37.689  39.403  1.00  0.00     0.041 C 
ATOM     11  O   UNL     1      46.422  36.777  38.706  1.00  0.00    -0.550 OA
ATOM     12  O   UNL     1      47.538  37.372  40.616  1.00  0.00    -0.550 OA
ENDBRANCH   9  10
ENDBRANCH   8   9
ENDBRANCH   7   8
ENDBRANCH   6   7
ENDBRANCH   5   6
ENDBRANCH   4   5
ENDBRANCH   3   4
ENDBRANCH   1   3
BRANCH   2  13
ATOM     13  C   UNL     1      46.867  42.458  34.682  1.00  0.00     0.027 C 
BRANCH  13  14
ATOM     14  C   UNL     1      45.699  43.313  34.182  1.00  0.00     0.004 C 
BRANCH  14  15
ATOM     15  C   UNL     1      46.192  44.665  33.653  1.00  0.00     0.000 C 
BRANCH  15  16
ATOM     16  C   UNL     1      47.640  44.567  33.159  1.00  0.00     0.000 C 
BRANCH  16  17
ATOM     17  C   UNL     1      47.767  45.085  31.721  1.00  0.00    -0.000 C 
BRANCH  17  18
ATOM     18  C   UNL     1      46.546  44.689  30.884  1.00  0.00    -0.000 C 
BRANCH  18  19
ATOM     19  C   UNL     1      46.904  43.591  29.875  1.00  0.00    -0.003 C 
ATOM     20  C   UNL     1      46.883  42.212  30.530  1.00  0.00     0.004 C 
ENDBRANCH  18  19
ENDBRANCH  17  18
ENDBRANCH  16  17
ENDBRANCH  15  16
ENDBRANCH  14  15
ENDBRANCH  13  14
ENDBRANCH   2  13
TORSDOF 15
ENDMDL
MODEL 6
REMARK VINA RESULT:    -4.259      4.265      8.653
REMARK INTER + INTRA:         -10.115
REMARK INTER:                  -8.385
REMARK INTRA:                  -1.730
REMARK UNBOUND:                -2.121
REMARK SMILES CCCCCCCCC=CCCCCCCCC(=O)[O-]
REMARK SMILES IDX 10 1 9 2 11 3 12 4 13 5 14 6 15 7 16 8 17 9 18 10 19 11
REMARK SMILES IDX 20 12 8 13 7 14 6 15 5 16 4 17 3 18 2 19 1 20
REMARK H PARENT
REMARK Flexibility Score: inf
ROOT
ATOM      1  C   UNL     1      46.977  42.895  37.181  1.00  0.00    -0.031 C 
ATOM      2  C   UNL     1      47.653  42.850  36.025  1.00  0.00    -0.031 C 
ENDROOT
BRANCH   1   3
ATOM      3  C   UNL     1      47.678  43.103  38.499  1.00  0.00     0.027 C 
BRANCH   3   4
ATOM      4  C   UNL     1      47.697  41.830  39.359  1.00  0.00     0.004 C 
BRANCH   4   5
ATOM      5  C   UNL     1      48.665  40.772  38.803  1.00  0.00     0.000 C 
BRANCH   5   6
ATOM      6  C   UNL     1      48.112  39.344  38.921  1.00  0.00     0.000 C 
BRANCH   6   7
ATOM      7  C   UNL     1      46.578  39.294  38.846  1.00  0.00     0.000 C 
BRANCH   7   8
ATOM      8  C   UNL     1      45.984  38.716  40.140  1.00  0.00     0.006 C 
BRANCH   8   9
ATOM      9  C   UNL     1      47.044  38.024  41.008  1.00  0.00     0.053 C 
BRANCH   9  10
ATOM     10  C   UNL     1      47.166  38.666  42.355  1.00  0.00     0.041 C 
ATOM     11  O   UNL     1      46.839  38.030  43.392  1.00  0.00    -0.550 OA
ATOM     12  O   UNL     1      47.672  39.955  42.470  1.00  0.00    -0.550 OA
ENDBRANCH   9  10
ENDBRANCH   8   9
ENDBRANCH   7   8
ENDBRANCH   6   7
ENDBRANCH   5   6
ENDBRANCH   4   5
ENDBRANCH   3   4
ENDBRANCH   1   3
BRANCH   2  13
ATOM     13  C   UNL     1      46.931  42.643  34.722  1.00  0.00     0.027 C 
BRANCH  13  14
ATOM     14  C   UNL     1      45.738  43.596  34.591  1.00  0.00     0.004 C 
BRANCH  14  15
ATOM     15  C   UNL     1      44.850  43.207  33.403  1.00  0.00     0.000 C 
BRANCH  15  16
ATOM     16  C   UNL     1      45.460  42.039  32.619  1.00  0.00     0.000 C 
BRANCH  16  17
ATOM     17  C   UNL     1      45.740  42.439  31.165  1.00  0.00    -0.000 C 
BRANCH  17  18
ATOM     18  C   UNL     1      47.189  42.910  30.992  1.00  0.00    -0.000 C 
BRANCH  18  19
ATOM     19  C   UNL     1      47.266  44.440  30.927  1.00  0.00    -0.003 C 
ATOM     20  C   UNL     1      48.161  44.995  32.032  1.00  0.00     0.004 C 
ENDBRANCH  18  19
ENDBRANCH  17  18
ENDBRANCH  16  17
ENDBRANCH  15  16
ENDBRANCH  14  15
ENDBRANCH  13  14
ENDBRANCH   2  13
TORSDOF 15
ENDMDL
MODEL 7
REMARK VINA RESULT:    -4.226      1.584      3.722
REMARK INTER + INTRA:         -10.053
REMARK INTER:                  -7.700
REMARK INTRA:                  -2.354
REMARK UNBOUND:                -2.121
REMARK SMILES CCCCCCCCC=CCCCCCCCC(=O)[O-]
REMARK SMILES IDX 10 1 9 2 11 3 12 4 13 5 14 6 15 7 16 8 17 9 18 10 19 11
REMARK SMILES IDX 20 12 8 13 7 14 6 15 5 16 4 17 3 18 2 19 1 20
REMARK H PARENT
REMARK Flexibility Score: inf
ROOT
ATOM      1  C   UNL     1      47.606  39.164  38.834  1.00  0.00    -0.031 C 
ATOM      2  C   UNL     1      48.012  39.817  39.931  1.00  0.00    -0.031 C 
ENDROOT
BRANCH   1   3
ATOM      3  C   UNL     1      48.177  39.472  37.474  1.00  0.00     0.027 C 
BRANCH   3   4
ATOM      4  C   UNL     1      48.842  40.856  37.418  1.00  0.00     0.004 C 
BRANCH   4   5
ATOM      5  C   UNL     1      48.030  41.854  36.575  1.00  0.00     0.000 C 
BRANCH   5   6
ATOM      6  C   UNL     1      46.915  41.174  35.765  1.00  0.00     0.000 C 
BRANCH   6   7
ATOM      7  C   UNL     1      46.394  42.053  34.618  1.00  0.00     0.000 C 
BRANCH   7   8
ATOM      8  C   UNL     1      47.105  43.415  34.604  1.00  0.00     0.006 C 
BRANCH   8   9
ATOM      9  C   UNL     1      46.595  44.326  33.480  1.00  0.00     0.053 C 
BRANCH   9  10
ATOM     10  C   UNL     1      47.415  44.186  32.235  1.00  0.00     0.041 C 
ATOM     11  O   UNL     1      47.141  43.291  31.393  1.00  0.00    -0.550 OA
ATOM     12  O   UNL     1      48.463  45.066  31.988  1.00  0.00    -0.550 OA
ENDBRANCH   9  10
ENDBRANCH   8   9
ENDBRANCH   7   8
ENDBRANCH   6   7
ENDBRANCH   5   6
ENDBRANCH   4   5
ENDBRANCH   3   4
ENDBRANCH   1   3
BRANCH   2  13
ATOM     13  C   UNL     1      47.428  39.491  41.278  1.00  0.00     0.027 C 
BRANCH  13  14
ATOM     14  C   UNL     1      47.786  40.563  42.313  1.00  0.00     0.004 C 
BRANCH  14  15
ATOM     15  C   UNL     1      48.518  41.739  41.656  1.00  0.00     0.000 C 
BRANCH  15  16
ATOM     16  C   UNL     1      47.621  42.981  41.597  1.00  0.00     0.000 C 
BRANCH  16  17
ATOM     17  C   UNL     1      47.017  43.159  40.199  1.00  0.00    -0.000 C 
BRANCH  17  18
ATOM     18  C   UNL     1      45.563  42.676  40.161  1.00  0.00    -0.000 C 
BRANCH  18  19
ATOM     19  C   UNL     1      45.165  42.238  38.747  1.00  0.00    -0.003 C 
ATOM     20  C   UNL     1      44.669  43.422  37.921  1.00  0.00     0.004 C 
ENDBRANCH  18  19
ENDBRANCH  17  18
ENDBRANCH  16  17
ENDBRANCH  15  16
ENDBRANCH  14  15
ENDBRANCH  13  14
ENDBRANCH   2  13
TORSDOF 15
ENDMDL
MODEL 8
REMARK VINA RESULT:    -4.206      4.212      8.750
REMARK INTER + INTRA:         -10.016
REMARK INTER:                  -8.421
REMARK INTRA:                  -1.595
REMARK UNBOUND:                -2.121
REMARK SMILES CCCCCCCCC=CCCCCCCCC(=O)[O-]
REMARK SMILES IDX 10 1 9 2 11 3 12 4 13 5 14 6 15 7 16 8 17 9 18 10 19 11
REMARK SMILES IDX 20 12 8 13 7 14 6 15 5 16 4 17 3 18 2 19 1 20
REMARK H PARENT
REMARK Flexibility Score: inf
ROOT
ATOM      1  C   UNL     1      46.944  43.311  33.778  1.00  0.00    -0.031 C 
ATOM      2  C   UNL     1      47.234  44.556  33.375  1.00  0.00    -0.031 C 
ENDROOT
BRANCH   1   3
ATOM      3  C   UNL     1      46.279  43.044  35.103  1.00  0.00     0.027 C 
BRANCH   3   4
ATOM      4  C   UNL     1      46.863  41.814  35.814  1.00  0.00     0.004 C 
BRANCH   4   5
ATOM      5  C   UNL     1      47.948  42.198  36.834  1.00  0.00     0.000 C 
BRANCH   5   6
ATOM      6  C   UNL     1      48.821  41.002  37.246  1.00  0.00     0.000 C 
BRANCH   6   7
ATOM      7  C   UNL     1      48.755  40.711  38.753  1.00  0.00     0.000 C 
BRANCH   7   8
ATOM      8  C   UNL     1      47.682  39.656  39.062  1.00  0.00     0.006 C 
BRANCH   8   9
ATOM      9  C   UNL     1      46.900  39.978  40.342  1.00  0.00     0.053 C 
BRANCH   9  10
ATOM     10  C   UNL     1      47.235  39.031  41.452  1.00  0.00     0.041 C 
ATOM     11  O   UNL     1      47.485  39.469  42.606  1.00  0.00    -0.550 OA
ATOM     12  O   UNL     1      47.238  37.660  41.222  1.00  0.00    -0.550 OA
ENDBRANCH   9  10
ENDBRANCH   8   9
ENDBRANCH   7   8
ENDBRANCH   6   7
ENDBRANCH   5   6
ENDBRANCH   4   5
ENDBRANCH   3   4
ENDBRANCH   1   3
BRANCH   2  13
ATOM     13  C   UNL     1      47.897  44.797  32.046  1.00  0.00     0.027 C 
BRANCH  13  14
ATOM     14  C   UNL     1      46.877  44.773  30.904  1.00  0.00     0.004 C 
BRANCH  14  15
ATOM     15  C   UNL     1      47.124  43.583  29.969  1.00  0.00     0.000 C 
BRANCH  15  16
ATOM     16  C   UNL     1      45.927  42.625  29.970  1.00  0.00     0.000 C 
BRANCH  16  17
ATOM     17  C   UNL     1      44.649  43.342  30.422  1.00  0.00    -0.000 C 
BRANCH  17  18
ATOM     18  C   UNL     1      44.020  42.636  31.628  1.00  0.00    -0.000 C 
BRANCH  18  19
ATOM     19  C   UNL     1      43.514  43.653  32.658  1.00  0.00    -0.003 C 
ATOM     20  C   UNL     1      42.388  43.067  33.506  1.00  0.00     0.004 C 
ENDBRANCH  18  19
ENDBRANCH  17  18
ENDBRANCH  16  17
ENDBRANCH  15  16
ENDBRANCH  14  15
ENDBRANCH  13  14
ENDBRANCH   2  13
TORSDOF 15
ENDMDL
MODEL 9
REMARK VINA RESULT:    -4.162      2.241      7.561
REMARK INTER + INTRA:          -9.932
REMARK INTER:                  -8.039
REMARK INTRA:                  -1.892
REMARK UNBOUND:                -2.121
REMARK SMILES CCCCCCCCC=CCCCCCCCC(=O)[O-]
REMARK SMILES IDX 10 1 9 2 11 3 12 4 13 5 14 6 15 7 16 8 17 9 18 10 19 11
REMARK SMILES IDX 20 12 8 13 7 14 6 15 5 16 4 17 3 18 2 19 1 20
REMARK H PARENT
REMARK Flexibility Score: inf
ROOT
ATOM      1  C   UNL     1      47.134  42.866  36.080  1.00  0.00    -0.031 C 
ATOM      2  C   UNL     1      46.380  43.259  35.044  1.00  0.00    -0.031 C 
ENDROOT
BRANCH   1   3
ATOM      3  C   UNL     1      46.592  42.836  37.485  1.00  0.00     0.027 C 
BRANCH   3   4
ATOM      4  C   UNL     1      47.636  43.272  38.525  1.00  0.00     0.004 C 
BRANCH   4   5
ATOM      5  C   UNL     1      47.443  42.556  39.872  1.00  0.00     0.000 C 
BRANCH   5   6
ATOM      6  C   UNL     1      47.171  41.052  39.709  1.00  0.00     0.000 C 
BRANCH   6   7
ATOM      7  C   UNL     1      48.431  40.259  39.328  1.00  0.00     0.000 C 
BRANCH   7   8
ATOM      8  C   UNL     1      48.069  39.029  38.482  1.00  0.00     0.006 C 
BRANCH   8   9
ATOM      9  C   UNL     1      48.086  39.331  36.978  1.00  0.00     0.053 C 
BRANCH   9  10
ATOM     10  C   UNL     1      46.715  39.256  36.381  1.00  0.00     0.041 C 
ATOM     11  O   UNL     1      46.548  39.463  35.149  1.00  0.00    -0.550 OA
ATOM     12  O   UNL     1      45.624  38.926  37.176  1.00  0.00    -0.550 OA
ENDBRANCH   9  10
ENDBRANCH   8   9
ENDBRANCH   7   8
ENDBRANCH   6   7
ENDBRANCH   5   6
ENDBRANCH   4   5
ENDBRANCH   3   4
ENDBRANCH   1   3
BRANCH   2  13
ATOM     13  C   UNL     1      46.944  43.279  33.649  1.00  0.00     0.027 C 
BRANCH  13  14
ATOM     14  C   UNL     1      47.241  44.711  33.192  1.00  0.00     0.004 C 
BRANCH  14  15
ATOM     15  C   UNL     1      47.966  44.718  31.840  1.00  0.00     0.000 C 
BRANCH  15  16
ATOM     16  C   UNL     1      46.965  44.774  30.680  1.00  0.00     0.000 C 
BRANCH  16  17
ATOM     17  C   UNL     1      46.980  43.468  29.876  1.00  0.00    -0.000 C 
BRANCH  17  18
ATOM     18  C   UNL     1      45.691  42.670  30.097  1.00  0.00    -0.000 C 
BRANCH  18  19
ATOM     19  C   UNL     1      44.517  43.602  30.424  1.00  0.00    -0.003 C 
ATOM     20  C   UNL     1      43.789  43.150  31.687  1.00  0.00     0.004 C 
ENDBRANCH  18  19
ENDBRANCH  17  18
ENDBRANCH  16  17
ENDBRANCH  15  16
ENDBRANCH  14  15
ENDBRANCH  13  14
ENDBRANCH   2  13
TORSDOF 15
ENDMDL
