MODEL 1
REMARK VINA RESULT:    -6.226      0.000      0.000
REMARK INTER + INTRA:         -10.639
REMARK INTER:                  -9.138
REMARK INTRA:                  -1.502
REMARK UNBOUND:                -1.502
REMARK SMILES O=c1c(O[C@H]2O[C@@H](CO)[C@@H](O)[C@H](O)[C@@H]2O)c(-c2ccc(O)c(O)c2)oc2cc(O)cc(O)c12
REMARK SMILES IDX 4 1 3 2 16 3 25 4 2 5 26 6 1 7 33 8 27 9 31 10 28 11 30 12
REMARK SMILES IDX 17 13 18 14 19 15 20 16 24 17 22 18 21 19 23 21 32 23 29 25
REMARK SMILES IDX 5 27 14 28 6 29 12 30 7 31 10 32 15 33 13 35 8 37 9 38 11 40
REMARK H PARENT 21 20 23 22 32 24 29 26 15 34 13 36 9 39 11 41
REMARK Flexibility Score: inf
ROOT
ATOM      1  O   UNL     1     -10.740  34.728   6.623  1.00  0.00    -0.454 OA
ENDROOT
BRANCH   1   2
ATOM      2  C   UNL     1     -11.213  35.706   7.513  1.00  0.00     0.214 A 
ATOM      3  C   UNL     1     -11.733  35.361   8.770  1.00  0.00     0.180 A 
ATOM      4  O   UNL     1     -12.114  36.315   9.611  1.00  0.00    -0.452 OA
ATOM      5  C   UNL     1     -11.126  37.061   7.166  1.00  0.00     0.239 A 
ATOM      6  C   UNL     1     -12.075  37.608   9.317  1.00  0.00     0.146 A 
ATOM      7  O   UNL     1     -10.537  37.368   6.094  1.00  0.00    -0.285 OA
ATOM      8  C   UNL     1     -11.623  38.050   8.044  1.00  0.00     0.111 A 
ATOM      9  C   UNL     1     -12.496  38.527  10.279  1.00  0.00     0.094 A 
ATOM     10  C   UNL     1     -11.672  39.447   7.751  1.00  0.00     0.134 A 
ATOM     11  C   UNL     1     -12.476  39.895  10.006  1.00  0.00     0.123 A 
ATOM     12  C   UNL     1     -12.071  40.347   8.747  1.00  0.00     0.093 A 
BRANCH   3  13
ATOM     13  C   UNL     1     -11.866  33.964   9.202  1.00  0.00     0.025 A 
ATOM     14  C   UNL     1     -12.824  33.120   8.616  1.00  0.00     0.016 A 
ATOM     15  C   UNL     1     -12.950  31.796   9.052  1.00  0.00     0.051 A 
ATOM     16  C   UNL     1     -12.194  31.335  10.140  1.00  0.00     0.157 A 
ATOM     17  C   UNL     1     -11.093  33.497  10.274  1.00  0.00     0.062 A 
ATOM     18  C   UNL     1     -11.270  32.196  10.758  1.00  0.00     0.158 A 
BRANCH  16  19
ATOM     19  O   UNL     1     -12.390  30.039  10.620  1.00  0.00    -0.504 OA
ATOM     20  H   UNL     1     -12.990  29.862  11.422  1.00  0.00     0.293 HD
ENDBRANCH  16  19
BRANCH  18  21
ATOM     21  O   UNL     1     -10.529  31.796  11.869  1.00  0.00    -0.504 OA
ATOM     22  H   UNL     1     -10.947  31.595  12.770  1.00  0.00     0.293 HD
ENDBRANCH  18  21
ENDBRANCH   3  13
BRANCH  10  23
ATOM     23  O   UNL     1     -11.359  39.996   6.504  1.00  0.00    -0.507 OA
ATOM     24  H   UNL     1     -10.462  39.903   6.047  1.00  0.00     0.293 HD
ENDBRANCH  10  23
BRANCH  11  25
ATOM     25  O   UNL     1     -12.864  40.821  10.973  1.00  0.00    -0.508 OA
ATOM     26  H   UNL     1     -12.559  41.786  10.934  1.00  0.00     0.293 HD
ENDBRANCH  11  25
ENDBRANCH   1   2
BRANCH   1  27
ATOM     27  C   UNL     1      -9.461  34.101   6.765  1.00  0.00     0.339 C 
ATOM     28  C   UNL     1      -8.431  34.797   5.834  1.00  0.00     0.214 C 
ATOM     29  O   UNL     1      -9.547  32.720   6.454  1.00  0.00    -0.332 OA
ATOM     30  C   UNL     1      -7.379  33.782   5.297  1.00  0.00     0.180 C 
ATOM     31  C   UNL     1      -8.375  32.038   6.883  1.00  0.00     0.179 C 
ATOM     32  C   UNL     1      -7.063  32.731   6.382  1.00  0.00     0.177 C 
BRANCH  28  33
ATOM     33  O   UNL     1      -7.801  35.873   6.496  1.00  0.00    -0.384 OA
ATOM     34  H   UNL     1      -6.844  35.633   6.616  1.00  0.00     0.211 HD
ENDBRANCH  28  33
BRANCH  30  35
ATOM     35  O   UNL     1      -6.187  34.417   4.898  1.00  0.00    -0.387 OA
ATOM     36  H   UNL     1      -6.016  35.159   5.543  1.00  0.00     0.211 HD
ENDBRANCH  30  35
BRANCH  31  37
ATOM     37  C   UNL     1      -8.511  30.562   6.493  1.00  0.00     0.191 C 
BRANCH  37  38
ATOM     38  O   UNL     1      -8.528  30.410   5.099  1.00  0.00    -0.394 OA
ATOM     39  H   UNL     1      -8.353  31.315   4.714  1.00  0.00     0.210 HD
ENDBRANCH  37  38
ENDBRANCH  31  37
BRANCH  32  40
ATOM     40  O   UNL     1      -6.067  31.824   5.971  1.00  0.00    -0.387 OA
ATOM     41  H   UNL     1      -5.755  32.108   5.076  1.00  0.00     0.211 HD
ENDBRANCH  32  40
ENDBRANCH   1  27
TORSDOF 12
ENDMDL
MODEL 2
REMARK VINA RESULT:    -6.150      2.044      5.545
REMARK INTER + INTRA:         -10.528
REMARK INTER:                  -8.982
REMARK INTRA:                  -1.546
REMARK UNBOUND:                -1.502
REMARK SMILES O=c1c(O[C@H]2O[C@@H](CO)[C@@H](O)[C@H](O)[C@@H]2O)c(-c2ccc(O)c(O)c2)oc2cc(O)cc(O)c12
REMARK SMILES IDX 4 1 3 2 16 3 25 4 2 5 26 6 1 7 33 8 27 9 31 10 28 11 30 12
REMARK SMILES IDX 17 13 18 14 19 15 20 16 24 17 22 18 21 19 23 21 32 23 29 25
REMARK SMILES IDX 5 27 14 28 6 29 12 30 7 31 10 32 15 33 13 35 8 37 9 38 11 40
REMARK H PARENT 21 20 23 22 32 24 29 26 15 34 13 36 9 39 11 41
REMARK Flexibility Score: inf
ROOT
ATOM      1  O   UNL     1     -10.091  32.441   8.515  1.00  0.00    -0.454 OA
ENDROOT
BRANCH   1   2
ATOM      2  C   UNL     1     -10.005  33.648   7.803  1.00  0.00     0.214 A 
ATOM      3  C   UNL     1      -9.148  33.787   6.700  1.00  0.00     0.180 A 
ATOM      4  O   UNL     1      -9.137  34.921   6.011  1.00  0.00    -0.452 OA
ATOM      5  C   UNL     1     -10.823  34.727   8.163  1.00  0.00     0.239 A 
ATOM      6  C   UNL     1      -9.874  35.978   6.330  1.00  0.00     0.146 A 
ATOM      7  O   UNL     1     -11.683  34.550   9.068  1.00  0.00    -0.285 OA
ATOM      8  C   UNL     1     -10.725  35.953   7.468  1.00  0.00     0.111 A 
ATOM      9  C   UNL     1      -9.788  37.120   5.532  1.00  0.00     0.094 A 
ATOM     10  C   UNL     1     -11.438  37.142   7.811  1.00  0.00     0.134 A 
ATOM     11  C   UNL     1     -10.541  38.254   5.838  1.00  0.00     0.123 A 
ATOM     12  C   UNL     1     -11.356  38.262   6.974  1.00  0.00     0.093 A 
BRANCH   3  13
ATOM     13  C   UNL     1      -8.254  32.706   6.267  1.00  0.00     0.025 A 
ATOM     14  C   UNL     1      -8.706  31.711   5.383  1.00  0.00     0.016 A 
ATOM     15  C   UNL     1      -7.848  30.676   4.996  1.00  0.00     0.051 A 
ATOM     16  C   UNL     1      -6.568  30.571   5.560  1.00  0.00     0.157 A 
ATOM     17  C   UNL     1      -6.967  32.614   6.814  1.00  0.00     0.062 A 
ATOM     18  C   UNL     1      -6.133  31.540   6.482  1.00  0.00     0.158 A 
BRANCH  16  19
ATOM     19  O   UNL     1      -5.752  29.488   5.229  1.00  0.00    -0.504 OA
ATOM     20  H   UNL     1      -5.298  28.933   5.951  1.00  0.00     0.293 HD
ENDBRANCH  16  19
BRANCH  18  21
ATOM     21  O   UNL     1      -4.888  31.452   7.101  1.00  0.00    -0.504 OA
ATOM     22  H   UNL     1      -4.164  30.810   6.799  1.00  0.00     0.293 HD
ENDBRANCH  18  21
ENDBRANCH   3  13
BRANCH  10  23
ATOM     23  O   UNL     1     -12.221  37.279   8.961  1.00  0.00    -0.507 OA
ATOM     24  H   UNL     1     -12.948  37.972   9.079  1.00  0.00     0.293 HD
ENDBRANCH  10  23
BRANCH  11  25
ATOM     25  O   UNL     1     -10.486  39.387   5.028  1.00  0.00    -0.508 OA
ATOM     26  H   UNL     1     -10.630  40.315   5.406  1.00  0.00     0.293 HD
ENDBRANCH  11  25
ENDBRANCH   1   2
BRANCH   1  27
ATOM     27  C   UNL     1     -11.090  31.451   8.251  1.00  0.00     0.339 C 
ATOM     28  C   UNL     1     -11.725  30.979   9.588  1.00  0.00     0.214 C 
ATOM     29  O   UNL     1     -10.527  30.347   7.561  1.00  0.00    -0.332 OA
ATOM     30  C   UNL     1     -12.125  29.474   9.523  1.00  0.00     0.180 C 
ATOM     31  C   UNL     1     -11.550  29.515   7.029  1.00  0.00     0.179 C 
ATOM     32  C   UNL     1     -12.620  29.124   8.104  1.00  0.00     0.177 C 
BRANCH  28  33
ATOM     33  O   UNL     1     -12.836  31.781   9.927  1.00  0.00    -0.384 OA
ATOM     34  H   UNL     1     -13.475  31.211  10.432  1.00  0.00     0.211 HD
ENDBRANCH  28  33
BRANCH  30  35
ATOM     35  O   UNL     1     -13.124  29.152  10.461  1.00  0.00    -0.387 OA
ATOM     36  H   UNL     1     -13.192  28.156  10.492  1.00  0.00     0.211 HD
ENDBRANCH  30  35
BRANCH  31  37
ATOM     37  C   UNL     1     -10.884  28.328   6.325  1.00  0.00     0.191 C 
BRANCH  37  38
ATOM     38  O   UNL     1     -10.113  27.578   7.225  1.00  0.00    -0.394 OA
ATOM     39  H   UNL     1     -10.630  27.543   8.079  1.00  0.00     0.210 HD
ENDBRANCH  37  38
ENDBRANCH  31  37
BRANCH  32  40
ATOM     40  O   UNL     1     -13.057  27.789   8.006  1.00  0.00    -0.387 OA
ATOM     41  H   UNL     1     -13.632  27.720   7.204  1.00  0.00     0.211 HD
ENDBRANCH  32  40
ENDBRANCH   1  27
TORSDOF 12
ENDMDL
MODEL 3
REMARK VINA RESULT:    -5.972     15.501     18.811
REMARK INTER + INTRA:         -10.267
REMARK INTER:                  -9.109
REMARK INTRA:                  -1.158
REMARK UNBOUND:                -1.502
REMARK SMILES O=c1c(O[C@H]2O[C@@H](CO)[C@@H](O)[C@H](O)[C@@H]2O)c(-c2ccc(O)c(O)c2)oc2cc(O)cc(O)c12
REMARK SMILES IDX 4 1 3 2 16 3 25 4 2 5 26 6 1 7 33 8 27 9 31 10 28 11 30 12
REMARK SMILES IDX 17 13 18 14 19 15 20 16 24 17 22 18 21 19 23 21 32 23 29 25
REMARK SMILES IDX 5 27 14 28 6 29 12 30 7 31 10 32 15 33 13 35 8 37 9 38 11 40
REMARK H PARENT 21 20 23 22 32 24 29 26 15 34 13 36 9 39 11 41
REMARK Flexibility Score: inf
ROOT
ATOM      1  O   UNL     1       2.456  45.236   1.736  1.00  0.00    -0.454 OA
ENDROOT
BRANCH   1   2
ATOM      2  C   UNL     1       3.122  44.201   1.060  1.00  0.00     0.214 A 
ATOM      3  C   UNL     1       2.547  43.565  -0.051  1.00  0.00     0.180 A 
ATOM      4  O   UNL     1       3.230  42.634  -0.705  1.00  0.00    -0.452 OA
ATOM      5  C   UNL     1       4.408  43.820   1.466  1.00  0.00     0.239 A 
ATOM      6  C   UNL     1       4.438  42.222  -0.342  1.00  0.00     0.146 A 
ATOM      7  O   UNL     1       4.968  44.485   2.379  1.00  0.00    -0.285 OA
ATOM      8  C   UNL     1       5.074  42.763   0.808  1.00  0.00     0.111 A 
ATOM      9  C   UNL     1       5.069  41.238  -1.105  1.00  0.00     0.094 A 
ATOM     10  C   UNL     1       6.341  42.231   1.199  1.00  0.00     0.134 A 
ATOM     11  C   UNL     1       6.336  40.774  -0.753  1.00  0.00     0.123 A 
ATOM     12  C   UNL     1       6.962  41.267   0.396  1.00  0.00     0.093 A 
BRANCH   3  13
ATOM     13  C   UNL     1       1.201  43.901  -0.532  1.00  0.00     0.025 A 
ATOM     14  C   UNL     1       0.099  43.092  -0.205  1.00  0.00     0.016 A 
ATOM     15  C   UNL     1      -1.174  43.416  -0.688  1.00  0.00     0.051 A 
ATOM     16  C   UNL     1      -1.341  44.488  -1.577  1.00  0.00     0.157 A 
ATOM     17  C   UNL     1       1.031  44.987  -1.402  1.00  0.00     0.062 A 
ATOM     18  C   UNL     1      -0.229  45.268  -1.942  1.00  0.00     0.158 A 
BRANCH  16  19
ATOM     19  O   UNL     1      -2.601  44.749  -2.116  1.00  0.00    -0.504 OA
ATOM     20  H   UNL     1      -3.147  45.552  -1.810  1.00  0.00     0.293 HD
ENDBRANCH  16  19
BRANCH  18  21
ATOM     21  O   UNL     1      -0.340  46.314  -2.855  1.00  0.00    -0.504 OA
ATOM     22  H   UNL     1       0.408  46.582  -3.484  1.00  0.00     0.293 HD
ENDBRANCH  18  21
ENDBRANCH   3  13
BRANCH  10  23
ATOM     23  O   UNL     1       7.017  42.601   2.366  1.00  0.00    -0.507 OA
ATOM     24  H   UNL     1       7.197  41.981   3.144  1.00  0.00     0.293 HD
ENDBRANCH  10  23
BRANCH  11  25
ATOM     25  O   UNL     1       6.986  39.816  -1.528  1.00  0.00    -0.508 OA
ATOM     26  H   UNL     1       6.654  39.570  -2.453  1.00  0.00     0.293 HD
ENDBRANCH  11  25
ENDBRANCH   1   2
BRANCH   1  27
ATOM     27  C   UNL     1       2.096  45.156   3.119  1.00  0.00     0.339 C 
ATOM     28  C   UNL     1       0.552  45.240   3.263  1.00  0.00     0.214 C 
ATOM     29  O   UNL     1       2.713  46.200   3.855  1.00  0.00    -0.332 OA
ATOM     30  C   UNL     1       0.146  45.970   4.578  1.00  0.00     0.180 C 
ATOM     31  C   UNL     1       2.615  45.953   5.251  1.00  0.00     0.179 C 
ATOM     32  C   UNL     1       1.149  45.628   5.699  1.00  0.00     0.177 C 
BRANCH  28  33
ATOM     33  O   UNL     1      -0.029  43.955   3.201  1.00  0.00    -0.384 OA
ATOM     34  H   UNL     1      -0.136  43.719   2.241  1.00  0.00     0.211 HD
ENDBRANCH  28  33
BRANCH  30  35
ATOM     35  O   UNL     1      -1.156  45.628   4.993  1.00  0.00    -0.387 OA
ATOM     36  H   UNL     1      -1.696  45.465   4.170  1.00  0.00     0.211 HD
ENDBRANCH  30  35
BRANCH  31  37
ATOM     37  C   UNL     1       3.267  47.125   5.992  1.00  0.00     0.191 C 
BRANCH  37  38
ATOM     38  O   UNL     1       3.612  46.763   7.302  1.00  0.00    -0.394 OA
ATOM     39  H   UNL     1       3.946  47.593   7.746  1.00  0.00     0.210 HD
ENDBRANCH  37  38
ENDBRANCH  31  37
BRANCH  32  40
ATOM     40  O   UNL     1       0.793  46.212   6.930  1.00  0.00    -0.387 OA
ATOM     41  H   UNL     1       1.628  46.397   7.426  1.00  0.00     0.211 HD
ENDBRANCH  32  40
ENDBRANCH   1  27
TORSDOF 12
ENDMDL
MODEL 4
REMARK VINA RESULT:    -5.939      2.626      6.060
REMARK INTER + INTRA:         -10.219
REMARK INTER:                  -9.209
REMARK INTRA:                  -1.011
REMARK UNBOUND:                -1.502
REMARK SMILES O=c1c(O[C@H]2O[C@@H](CO)[C@@H](O)[C@H](O)[C@@H]2O)c(-c2ccc(O)c(O)c2)oc2cc(O)cc(O)c12
REMARK SMILES IDX 4 1 3 2 16 3 25 4 2 5 26 6 1 7 33 8 27 9 31 10 28 11 30 12
REMARK SMILES IDX 17 13 18 14 19 15 20 16 24 17 22 18 21 19 23 21 32 23 29 25
REMARK SMILES IDX 5 27 14 28 6 29 12 30 7 31 10 32 15 33 13 35 8 37 9 38 11 40
REMARK H PARENT 21 20 23 22 32 24 29 26 15 34 13 36 9 39 11 41
REMARK Flexibility Score: inf
ROOT
ATOM      1  O   UNL     1      -9.659  31.292   7.681  1.00  0.00    -0.454 OA
ENDROOT
BRANCH   1   2
ATOM      2  C   UNL     1      -9.389  32.605   7.262  1.00  0.00     0.214 A 
ATOM      3  C   UNL     1      -8.209  32.924   6.571  1.00  0.00     0.180 A 
ATOM      4  O   UNL     1      -8.014  34.161   6.134  1.00  0.00    -0.452 OA
ATOM      5  C   UNL     1     -10.331  33.616   7.492  1.00  0.00     0.239 A 
ATOM      6  C   UNL     1      -8.864  35.156   6.352  1.00  0.00     0.146 A 
ATOM      7  O   UNL     1     -11.443  33.295   7.994  1.00  0.00    -0.285 OA
ATOM      8  C   UNL     1     -10.056  34.944   7.096  1.00  0.00     0.111 A 
ATOM      9  C   UNL     1      -8.561  36.420   5.842  1.00  0.00     0.094 A 
ATOM     10  C   UNL     1     -10.900  36.064   7.366  1.00  0.00     0.134 A 
ATOM     11  C   UNL     1      -9.427  37.494   6.054  1.00  0.00     0.123 A 
ATOM     12  C   UNL     1     -10.585  37.313   6.816  1.00  0.00     0.093 A 
BRANCH   3  13
ATOM     13  C   UNL     1      -7.170  31.922   6.300  1.00  0.00     0.025 A 
ATOM     14  C   UNL     1      -7.406  30.869   5.399  1.00  0.00     0.016 A 
ATOM     15  C   UNL     1      -6.412  29.912   5.167  1.00  0.00     0.051 A 
ATOM     16  C   UNL     1      -5.217  29.941   5.901  1.00  0.00     0.157 A 
ATOM     17  C   UNL     1      -5.967  31.965   7.017  1.00  0.00     0.062 A 
ATOM     18  C   UNL     1      -5.002  30.968   6.838  1.00  0.00     0.158 A 
BRANCH  16  19
ATOM     19  O   UNL     1      -4.269  28.933   5.721  1.00  0.00    -0.504 OA
ATOM     20  H   UNL     1      -4.533  27.951   5.762  1.00  0.00     0.293 HD
ENDBRANCH  16  19
BRANCH  18  21
ATOM     21  O   UNL     1      -3.850  31.011   7.621  1.00  0.00    -0.504 OA
ATOM     22  H   UNL     1      -2.992  31.458   7.320  1.00  0.00     0.293 HD
ENDBRANCH  18  21
ENDBRANCH   3  13
BRANCH  10  23
ATOM     23  O   UNL     1     -12.039  36.008   8.175  1.00  0.00    -0.507 OA
ATOM     24  H   UNL     1     -12.250  36.667   8.912  1.00  0.00     0.293 HD
ENDBRANCH  10  23
BRANCH  11  25
ATOM     25  O   UNL     1      -9.148  38.751   5.522  1.00  0.00    -0.508 OA
ATOM     26  H   UNL     1      -8.225  38.986   5.176  1.00  0.00     0.293 HD
ENDBRANCH  11  25
ENDBRANCH   1   2
BRANCH   1  27
ATOM     27  C   UNL     1     -10.640  30.461   7.052  1.00  0.00     0.339 C 
ATOM     28  C   UNL     1     -11.506  29.762   8.136  1.00  0.00     0.214 C 
ATOM     29  O   UNL     1     -10.016  29.493   6.225  1.00  0.00    -0.332 OA
ATOM     30  C   UNL     1     -11.950  28.342   7.675  1.00  0.00     0.180 C 
ATOM     31  C   UNL     1     -10.971  28.876   5.371  1.00  0.00     0.179 C 
ATOM     32  C   UNL     1     -12.219  28.345   6.155  1.00  0.00     0.177 C 
BRANCH  28  33
ATOM     33  O   UNL     1     -12.623  30.554   8.476  1.00  0.00    -0.384 OA
ATOM     34  H   UNL     1     -12.333  31.505   8.464  1.00  0.00     0.211 HD
ENDBRANCH  28  33
BRANCH  30  35
ATOM     35  O   UNL     1     -13.103  27.901   8.354  1.00  0.00    -0.387 OA
ATOM     36  H   UNL     1     -13.678  28.702   8.511  1.00  0.00     0.211 HD
ENDBRANCH  30  35
BRANCH  31  37
ATOM     37  C   UNL     1     -10.247  27.821   4.527  1.00  0.00     0.191 C 
BRANCH  37  38
ATOM     38  O   UNL     1      -9.545  28.418   3.471  1.00  0.00    -0.394 OA
ATOM     39  H   UNL     1      -8.940  29.098   3.881  1.00  0.00     0.210 HD
ENDBRANCH  37  38
ENDBRANCH  31  37
BRANCH  32  40
ATOM     40  O   UNL     1     -12.687  27.100   5.694  1.00  0.00    -0.387 OA
ATOM     41  H   UNL     1     -12.317  26.402   6.290  1.00  0.00     0.211 HD
ENDBRANCH  32  40
ENDBRANCH   1  27
TORSDOF 12
ENDMDL
MODEL 5
REMARK VINA RESULT:    -5.744     14.348     18.354
REMARK INTER + INTRA:          -9.932
REMARK INTER:                  -8.865
REMARK INTRA:                  -1.068
REMARK UNBOUND:                -1.502
REMARK SMILES O=c1c(O[C@H]2O[C@@H](CO)[C@@H](O)[C@H](O)[C@@H]2O)c(-c2ccc(O)c(O)c2)oc2cc(O)cc(O)c12
REMARK SMILES IDX 4 1 3 2 16 3 25 4 2 5 26 6 1 7 33 8 27 9 31 10 28 11 30 12
REMARK SMILES IDX 17 13 18 14 19 15 20 16 24 17 22 18 21 19 23 21 32 23 29 25
REMARK SMILES IDX 5 27 14 28 6 29 12 30 7 31 10 32 15 33 13 35 8 37 9 38 11 40
REMARK H PARENT 21 20 23 22 32 24 29 26 15 34 13 36 9 39 11 41
REMARK Flexibility Score: inf
ROOT
ATOM      1  O   UNL     1       2.486  44.991   1.507  1.00  0.00    -0.454 OA
ENDROOT
BRANCH   1   2
ATOM      2  C   UNL     1       3.174  43.975   0.824  1.00  0.00     0.214 A 
ATOM      3  C   UNL     1       2.647  43.385  -0.335  1.00  0.00     0.180 A 
ATOM      4  O   UNL     1       3.352  42.472  -0.991  1.00  0.00    -0.452 OA
ATOM      5  C   UNL     1       4.438  43.569   1.274  1.00  0.00     0.239 A 
ATOM      6  C   UNL     1       4.539  42.037  -0.588  1.00  0.00     0.146 A 
ATOM      7  O   UNL     1       4.961  44.196   2.235  1.00  0.00    -0.285 OA
ATOM      8  C   UNL     1       5.126  42.531   0.608  1.00  0.00     0.111 A 
ATOM      9  C   UNL     1       5.197  41.076  -1.358  1.00  0.00     0.094 A 
ATOM     10  C   UNL     1       6.370  41.974   1.037  1.00  0.00     0.134 A 
ATOM     11  C   UNL     1       6.444  40.589  -0.966  1.00  0.00     0.123 A 
ATOM     12  C   UNL     1       7.020  41.034   0.227  1.00  0.00     0.093 A 
BRANCH   3  13
ATOM     13  C   UNL     1       1.326  43.750  -0.863  1.00  0.00     0.025 A 
ATOM     14  C   UNL     1       1.166  44.891  -1.668  1.00  0.00     0.016 A 
ATOM     15  C   UNL     1      -0.102  45.236  -2.147  1.00  0.00     0.051 A 
ATOM     16  C   UNL     1      -1.232  44.506  -1.749  1.00  0.00     0.157 A 
ATOM     17  C   UNL     1       0.201  43.006  -0.483  1.00  0.00     0.062 A 
ATOM     18  C   UNL     1      -1.076  43.393  -0.903  1.00  0.00     0.158 A 
BRANCH  16  19
ATOM     19  O   UNL     1      -2.501  44.910  -2.166  1.00  0.00    -0.504 OA
ATOM     20  H   UNL     1      -2.690  45.882  -2.402  1.00  0.00     0.293 HD
ENDBRANCH  16  19
BRANCH  18  21
ATOM     21  O   UNL     1      -2.173  42.665  -0.446  1.00  0.00    -0.504 OA
ATOM     22  H   UNL     1      -3.081  42.689  -0.897  1.00  0.00     0.293 HD
ENDBRANCH  18  21
ENDBRANCH   3  13
BRANCH  10  23
ATOM     23  O   UNL     1       6.995  42.296   2.245  1.00  0.00    -0.507 OA
ATOM     24  H   UNL     1       6.557  42.223   3.153  1.00  0.00     0.293 HD
ENDBRANCH  10  23
BRANCH  11  25
ATOM     25  O   UNL     1       7.122  39.654  -1.746  1.00  0.00    -0.508 OA
ATOM     26  H   UNL     1       7.048  39.654  -2.755  1.00  0.00     0.293 HD
ENDBRANCH  11  25
ENDBRANCH   1   2
BRANCH   1  27
ATOM     27  C   UNL     1       1.899  44.800   2.798  1.00  0.00     0.339 C 
ATOM     28  C   UNL     1       0.992  43.539   2.779  1.00  0.00     0.214 C 
ATOM     29  O   UNL     1       1.143  45.940   3.175  1.00  0.00    -0.332 OA
ATOM     30  C   UNL     1      -0.236  43.712   3.723  1.00  0.00     0.180 C 
ATOM     31  C   UNL     1       0.819  45.889   4.559  1.00  0.00     0.179 C 
ATOM     32  C   UNL     1       0.172  44.523   4.971  1.00  0.00     0.177 C 
BRANCH  28  33
ATOM     33  O   UNL     1       1.730  42.384   3.118  1.00  0.00    -0.384 OA
ATOM     34  H   UNL     1       1.206  41.594   2.818  1.00  0.00     0.211 HD
ENDBRANCH  28  33
BRANCH  30  35
ATOM     35  O   UNL     1      -0.773  42.473   4.124  1.00  0.00    -0.387 OA
ATOM     36  H   UNL     1      -0.755  41.871   3.328  1.00  0.00     0.211 HD
ENDBRANCH  30  35
BRANCH  31  37
ATOM     37  C   UNL     1      -0.021  47.125   4.899  1.00  0.00     0.191 C 
BRANCH  37  38
ATOM     38  O   UNL     1      -1.346  46.966   4.468  1.00  0.00    -0.394 OA
ATOM     39  H   UNL     1      -1.300  46.652   3.521  1.00  0.00     0.210 HD
ENDBRANCH  37  38
ENDBRANCH  31  37
BRANCH  32  40
ATOM     40  O   UNL     1      -0.886  44.654   5.890  1.00  0.00    -0.387 OA
ATOM     41  H   UNL     1      -1.187  43.742   6.131  1.00  0.00     0.211 HD
ENDBRANCH  32  40
ENDBRANCH   1  27
TORSDOF 12
ENDMDL
MODEL 6
REMARK VINA RESULT:    -5.740      2.328      4.334
REMARK INTER + INTRA:          -9.926
REMARK INTER:                  -9.012
REMARK INTRA:                  -0.914
REMARK UNBOUND:                -1.502
REMARK SMILES O=c1c(O[C@H]2O[C@@H](CO)[C@@H](O)[C@H](O)[C@@H]2O)c(-c2ccc(O)c(O)c2)oc2cc(O)cc(O)c12
REMARK SMILES IDX 4 1 3 2 16 3 25 4 2 5 26 6 1 7 33 8 27 9 31 10 28 11 30 12
REMARK SMILES IDX 17 13 18 14 19 15 20 16 24 17 22 18 21 19 23 21 32 23 29 25
REMARK SMILES IDX 5 27 14 28 6 29 12 30 7 31 10 32 15 33 13 35 8 37 9 38 11 40
REMARK H PARENT 21 20 23 22 32 24 29 26 15 34 13 36 9 39 11 41
REMARK Flexibility Score: inf
ROOT
ATOM      1  O   UNL     1      -8.324  31.263   7.153  1.00  0.00    -0.454 OA
ENDROOT
BRANCH   1   2
ATOM      2  C   UNL     1      -9.036  32.473   7.109  1.00  0.00     0.214 A 
ATOM      3  C   UNL     1     -10.276  32.616   7.751  1.00  0.00     0.180 A 
ATOM      4  O   UNL     1     -10.892  33.791   7.742  1.00  0.00    -0.452 OA
ATOM      5  C   UNL     1      -8.483  33.581   6.453  1.00  0.00     0.239 A 
ATOM      6  C   UNL     1     -10.421  34.859   7.112  1.00  0.00     0.146 A 
ATOM      7  O   UNL     1      -7.312  33.482   5.995  1.00  0.00    -0.285 OA
ATOM      8  C   UNL     1      -9.204  34.794   6.383  1.00  0.00     0.111 A 
ATOM      9  C   UNL     1     -11.150  36.048   7.173  1.00  0.00     0.094 A 
ATOM     10  C   UNL     1      -8.779  35.951   5.660  1.00  0.00     0.134 A 
ATOM     11  C   UNL     1     -10.691  37.192   6.519  1.00  0.00     0.123 A 
ATOM     12  C   UNL     1      -9.515  37.137   5.765  1.00  0.00     0.093 A 
BRANCH   3  13
ATOM     13  C   UNL     1     -10.924  31.499   8.451  1.00  0.00     0.025 A 
ATOM     14  C   UNL     1     -11.421  30.396   7.736  1.00  0.00     0.016 A 
ATOM     15  C   UNL     1     -12.053  29.349   8.415  1.00  0.00     0.051 A 
ATOM     16  C   UNL     1     -12.283  29.440   9.797  1.00  0.00     0.157 A 
ATOM     17  C   UNL     1     -11.133  31.580   9.834  1.00  0.00     0.062 A 
ATOM     18  C   UNL     1     -11.829  30.567  10.504  1.00  0.00     0.158 A 
BRANCH  16  19
ATOM     19  O   UNL     1     -12.989  28.428  10.449  1.00  0.00    -0.504 OA
ATOM     20  H   UNL     1     -12.685  28.076  11.354  1.00  0.00     0.293 HD
ENDBRANCH  16  19
BRANCH  18  21
ATOM     21  O   UNL     1     -12.073  30.721  11.867  1.00  0.00    -0.504 OA
ATOM     22  H   UNL     1     -12.668  30.095  12.397  1.00  0.00     0.293 HD
ENDBRANCH  18  21
ENDBRANCH   3  13
BRANCH  10  23
ATOM     23  O   UNL     1      -7.662  35.982   4.821  1.00  0.00    -0.507 OA
ATOM     24  H   UNL     1      -6.703  35.980   5.143  1.00  0.00     0.293 HD
ENDBRANCH  10  23
BRANCH  11  25
ATOM     25  O   UNL     1     -11.396  38.392   6.601  1.00  0.00    -0.508 OA
ATOM     26  H   UNL     1     -10.968  39.233   6.967  1.00  0.00     0.293 HD
ENDBRANCH  11  25
ENDBRANCH   1   2
BRANCH   1  27
ATOM     27  C   UNL     1      -7.864  30.588   5.978  1.00  0.00     0.339 C 
ATOM     28  C   UNL     1      -8.919  29.541   5.529  1.00  0.00     0.214 C 
ATOM     29  O   UNL     1      -6.619  29.954   6.224  1.00  0.00    -0.332 OA
ATOM     30  C   UNL     1      -8.240  28.293   4.889  1.00  0.00     0.180 C 
ATOM     31  C   UNL     1      -6.014  29.551   5.002  1.00  0.00     0.179 C 
ATOM     32  C   UNL     1      -6.990  28.725   4.096  1.00  0.00     0.177 C 
BRANCH  28  33
ATOM     33  O   UNL     1      -9.853  30.117   4.641  1.00  0.00    -0.384 OA
ATOM     34  H   UNL     1     -10.733  29.687   4.809  1.00  0.00     0.211 HD
ENDBRANCH  28  33
BRANCH  30  35
ATOM     35  O   UNL     1      -9.117  27.592   4.039  1.00  0.00    -0.387 OA
ATOM     36  H   UNL     1      -9.846  27.216   4.608  1.00  0.00     0.211 HD
ENDBRANCH  30  35
BRANCH  31  37
ATOM     37  C   UNL     1      -4.694  28.845   5.331  1.00  0.00     0.191 C 
BRANCH  37  38
ATOM     38  O   UNL     1      -3.837  28.839   4.222  1.00  0.00    -0.394 OA
ATOM     39  H   UNL     1      -3.028  28.319   4.493  1.00  0.00     0.210 HD
ENDBRANCH  37  38
ENDBRANCH  31  37
BRANCH  32  40
ATOM     40  O   UNL     1      -6.373  27.642   3.442  1.00  0.00    -0.387 OA
ATOM     41  H   UNL     1      -6.794  27.552   2.551  1.00  0.00     0.211 HD
ENDBRANCH  32  40
ENDBRANCH   1  27
TORSDOF 12
ENDMDL
MODEL 7
REMARK VINA RESULT:    -5.718      2.074      3.839
REMARK INTER + INTRA:          -9.894
REMARK INTER:                 -10.301
REMARK INTRA:                   0.407
REMARK UNBOUND:                -1.502
REMARK SMILES O=c1c(O[C@H]2O[C@@H](CO)[C@@H](O)[C@H](O)[C@@H]2O)c(-c2ccc(O)c(O)c2)oc2cc(O)cc(O)c12
REMARK SMILES IDX 4 1 3 2 16 3 25 4 2 5 26 6 1 7 33 8 27 9 31 10 28 11 30 12
REMARK SMILES IDX 17 13 18 14 19 15 20 16 24 17 22 18 21 19 23 21 32 23 29 25
REMARK SMILES IDX 5 27 14 28 6 29 12 30 7 31 10 32 15 33 13 35 8 37 9 38 11 40
REMARK H PARENT 21 20 23 22 32 24 29 26 15 34 13 36 9 39 11 41
REMARK Flexibility Score: inf
ROOT
ATOM      1  O   UNL     1      -9.188  31.810   7.204  1.00  0.00    -0.454 OA
ENDROOT
BRANCH   1   2
ATOM      2  C   UNL     1      -9.511  33.171   7.324  1.00  0.00     0.214 A 
ATOM      3  C   UNL     1     -10.436  33.622   8.279  1.00  0.00     0.180 A 
ATOM      4  O   UNL     1     -10.671  34.922   8.408  1.00  0.00    -0.452 OA
ATOM      5  C   UNL     1      -8.867  34.113   6.510  1.00  0.00     0.239 A 
ATOM      6  C   UNL     1     -10.106  35.847   7.643  1.00  0.00     0.146 A 
ATOM      7  O   UNL     1      -7.944  33.714   5.750  1.00  0.00    -0.285 OA
ATOM      8  C   UNL     1      -9.205  35.481   6.608  1.00  0.00     0.111 A 
ATOM      9  C   UNL     1     -10.422  37.188   7.868  1.00  0.00     0.094 A 
ATOM     10  C   UNL     1      -8.683  36.509   5.763  1.00  0.00     0.134 A 
ATOM     11  C   UNL     1      -9.854  38.189   7.081  1.00  0.00     0.123 A 
ATOM     12  C   UNL     1      -8.994  37.847   6.034  1.00  0.00     0.093 A 
BRANCH   3  13
ATOM     13  C   UNL     1     -11.158  32.697   9.162  1.00  0.00     0.025 A 
ATOM     14  C   UNL     1     -11.068  32.820  10.559  1.00  0.00     0.016 A 
ATOM     15  C   UNL     1     -11.747  31.919  11.386  1.00  0.00     0.051 A 
ATOM     16  C   UNL     1     -12.438  30.832  10.830  1.00  0.00     0.157 A 
ATOM     17  C   UNL     1     -11.869  31.625   8.605  1.00  0.00     0.062 A 
ATOM     18  C   UNL     1     -12.488  30.682   9.432  1.00  0.00     0.158 A 
BRANCH  16  19
ATOM     19  O   UNL     1     -13.041  29.893  11.668  1.00  0.00    -0.504 OA
ATOM     20  H   UNL     1     -12.515  29.441  12.413  1.00  0.00     0.293 HD
ENDBRANCH  16  19
BRANCH  18  21
ATOM     21  O   UNL     1     -13.125  29.595   8.838  1.00  0.00    -0.504 OA
ATOM     22  H   UNL     1     -13.499  28.816   9.366  1.00  0.00     0.293 HD
ENDBRANCH  18  21
ENDBRANCH   3  13
BRANCH  10  23
ATOM     23  O   UNL     1      -7.875  36.269   4.648  1.00  0.00    -0.507 OA
ATOM     24  H   UNL     1      -8.026  36.677   3.734  1.00  0.00     0.293 HD
ENDBRANCH  10  23
BRANCH  11  25
ATOM     25  O   UNL     1     -10.139  39.533   7.321  1.00  0.00    -0.508 OA
ATOM     26  H   UNL     1      -9.481  40.264   7.082  1.00  0.00     0.293 HD
ENDBRANCH  11  25
ENDBRANCH   1   2
BRANCH   1  27
ATOM     27  C   UNL     1      -8.186  31.325   6.305  1.00  0.00     0.339 C 
ATOM     28  C   UNL     1      -8.598  29.927   5.768  1.00  0.00     0.214 C 
ATOM     29  O   UNL     1      -6.928  31.247   6.957  1.00  0.00    -0.332 OA
ATOM     30  C   UNL     1      -7.350  29.025   5.525  1.00  0.00     0.180 C 
ATOM     31  C   UNL     1      -5.884  31.067   6.009  1.00  0.00     0.179 C 
ATOM     32  C   UNL     1      -6.172  29.885   5.022  1.00  0.00     0.177 C 
BRANCH  28  33
ATOM     33  O   UNL     1      -9.369  30.047   4.592  1.00  0.00    -0.384 OA
ATOM     34  H   UNL     1      -9.694  29.139   4.351  1.00  0.00     0.211 HD
ENDBRANCH  28  33
BRANCH  30  35
ATOM     35  O   UNL     1      -7.613  27.999   4.597  1.00  0.00    -0.387 OA
ATOM     36  H   UNL     1      -8.092  27.272   5.085  1.00  0.00     0.211 HD
ENDBRANCH  30  35
BRANCH  31  37
ATOM     37  C   UNL     1      -4.559  30.958   6.771  1.00  0.00     0.191 C 
BRANCH  37  38
ATOM     38  O   UNL     1      -4.616  31.663   7.981  1.00  0.00    -0.394 OA
ATOM     39  H   UNL     1      -4.729  32.626   7.742  1.00  0.00     0.210 HD
ENDBRANCH  37  38
ENDBRANCH  31  37
BRANCH  32  40
ATOM     40  O   UNL     1      -5.036  29.109   4.723  1.00  0.00    -0.387 OA
ATOM     41  H   UNL     1      -4.309  29.397   5.330  1.00  0.00     0.211 HD
ENDBRANCH  32  40
ENDBRANCH   1  27
TORSDOF 12
ENDMDL
MODEL 8
REMARK VINA RESULT:    -5.701      1.980      5.341
REMARK INTER + INTRA:          -9.869
REMARK INTER:                  -9.718
REMARK INTRA:                  -0.151
REMARK UNBOUND:                -1.502
REMARK SMILES O=c1c(O[C@H]2O[C@@H](CO)[C@@H](O)[C@H](O)[C@@H]2O)c(-c2ccc(O)c(O)c2)oc2cc(O)cc(O)c12
REMARK SMILES IDX 4 1 3 2 16 3 25 4 2 5 26 6 1 7 33 8 27 9 31 10 28 11 30 12
REMARK SMILES IDX 17 13 18 14 19 15 20 16 24 17 22 18 21 19 23 21 32 23 29 25
REMARK SMILES IDX 5 27 14 28 6 29 12 30 7 31 10 32 15 33 13 35 8 37 9 38 11 40
REMARK H PARENT 21 20 23 22 32 24 29 26 15 34 13 36 9 39 11 41
REMARK Flexibility Score: inf
ROOT
ATOM      1  O   UNL     1     -11.284  32.644   7.826  1.00  0.00    -0.454 OA
ENDROOT
BRANCH   1   2
ATOM      2  C   UNL     1     -10.595  33.820   7.485  1.00  0.00     0.214 A 
ATOM      3  C   UNL     1      -9.334  33.777   6.869  1.00  0.00     0.180 A 
ATOM      4  O   UNL     1      -8.739  34.905   6.504  1.00  0.00    -0.452 OA
ATOM      5  C   UNL     1     -11.191  35.067   7.717  1.00  0.00     0.239 A 
ATOM      6  C   UNL     1      -9.252  36.108   6.727  1.00  0.00     0.146 A 
ATOM      7  O   UNL     1     -12.376  35.092   8.147  1.00  0.00    -0.285 OA
ATOM      8  C   UNL     1     -10.495  36.254   7.401  1.00  0.00     0.111 A 
ATOM      9  C   UNL     1      -8.543  37.230   6.296  1.00  0.00     0.094 A 
ATOM     10  C   UNL     1     -10.966  37.573   7.683  1.00  0.00     0.134 A 
ATOM     11  C   UNL     1      -9.045  38.512   6.517  1.00  0.00     0.123 A 
ATOM     12  C   UNL     1     -10.247  38.678   7.211  1.00  0.00     0.093 A 
BRANCH   3  13
ATOM     13  C   UNL     1      -8.641  32.511   6.601  1.00  0.00     0.025 A 
ATOM     14  C   UNL     1      -9.340  31.291   6.623  1.00  0.00     0.016 A 
ATOM     15  C   UNL     1      -8.660  30.091   6.385  1.00  0.00     0.051 A 
ATOM     16  C   UNL     1      -7.267  30.088   6.222  1.00  0.00     0.157 A 
ATOM     17  C   UNL     1      -7.252  32.511   6.415  1.00  0.00     0.062 A 
ATOM     18  C   UNL     1      -6.562  31.305   6.249  1.00  0.00     0.158 A 
BRANCH  16  19
ATOM     19  O   UNL     1      -6.590  28.877   6.068  1.00  0.00    -0.504 OA
ATOM     20  H   UNL     1      -6.804  28.078   6.662  1.00  0.00     0.293 HD
ENDBRANCH  16  19
BRANCH  18  21
ATOM     21  O   UNL     1      -5.174  31.346   6.135  1.00  0.00    -0.504 OA
ATOM     22  H   UNL     1      -4.549  31.007   6.858  1.00  0.00     0.293 HD
ENDBRANCH  18  21
ENDBRANCH   3  13
BRANCH  10  23
ATOM     23  O   UNL     1     -12.115  37.849   8.431  1.00  0.00    -0.507 OA
ATOM     24  H   UNL     1     -12.207  37.675   9.423  1.00  0.00     0.293 HD
ENDBRANCH  10  23
BRANCH  11  25
ATOM     25  O   UNL     1      -8.358  39.637   6.061  1.00  0.00    -0.508 OA
ATOM     26  H   UNL     1      -7.349  39.693   6.105  1.00  0.00     0.293 HD
ENDBRANCH  11  25
ENDBRANCH   1   2
BRANCH   1  27
ATOM     27  C   UNL     1     -11.538  32.256   9.180  1.00  0.00     0.339 C 
ATOM     28  C   UNL     1     -10.436  32.840  10.106  1.00  0.00     0.214 C 
ATOM     29  O   UNL     1     -11.574  30.843   9.294  1.00  0.00    -0.332 OA
ATOM     30  C   UNL     1     -10.132  31.882  11.297  1.00  0.00     0.180 C 
ATOM     31  C   UNL     1     -12.123  30.457  10.548  1.00  0.00     0.179 C 
ATOM     32  C   UNL     1     -11.431  31.183  11.751  1.00  0.00     0.177 C 
BRANCH  28  33
ATOM     33  O   UNL     1     -10.798  34.123  10.572  1.00  0.00    -0.384 OA
ATOM     34  H   UNL     1     -11.605  34.409  10.067  1.00  0.00     0.211 HD
ENDBRANCH  28  33
BRANCH  30  35
ATOM     35  O   UNL     1      -9.557  32.560  12.388  1.00  0.00    -0.387 OA
ATOM     36  H   UNL     1      -8.882  31.948  12.796  1.00  0.00     0.211 HD
ENDBRANCH  30  35
BRANCH  31  37
ATOM     37  C   UNL     1     -12.107  28.927  10.627  1.00  0.00     0.191 C 
BRANCH  37  38
ATOM     38  O   UNL     1     -10.793  28.440  10.668  1.00  0.00    -0.394 OA
ATOM     39  H   UNL     1     -10.229  29.178  11.035  1.00  0.00     0.210 HD
ENDBRANCH  37  38
ENDBRANCH  31  37
BRANCH  32  40
ATOM     40  O   UNL     1     -11.225  30.352  12.869  1.00  0.00    -0.387 OA
ATOM     41  H   UNL     1     -11.913  29.641  12.843  1.00  0.00     0.211 HD
ENDBRANCH  32  40
ENDBRANCH   1  27
TORSDOF 12
ENDMDL
