MODEL 1
REMARK VINA RESULT:    -6.171      0.000      0.000
REMARK INTER + INTRA:          -6.171
REMARK INTER:                  -6.171
REMARK INTRA:                   0.000
REMARK UNBOUND:                 0.000
REMARK SMILES CC(C)=C1CC[C@H](C)CC1=O
REMARK SMILES IDX 8 1 7 2 6 3 5 4 4 5 2 6 1 7 3 8 10 9 11 10 9 11
REMARK H PARENT
REMARK Flexibility Score: inf
ROOT
ATOM      1  C   UNL     1     -15.595  40.125  16.752  1.00  0.00     0.008 C 
ATOM      2  C   UNL     1     -16.354  38.840  16.401  1.00  0.00    -0.006 C 
ATOM      3  C   UNL     1     -17.814  38.927  16.872  1.00  0.00     0.008 C 
ATOM      4  C   UNL     1     -18.561  37.611  16.619  1.00  0.00     0.039 C 
ATOM      5  C   UNL     1     -18.439  37.137  15.177  1.00  0.00    -0.006 C 
ATOM      6  C   UNL     1     -19.444  36.439  14.572  1.00  0.00    -0.070 C 
ATOM      7  C   UNL     1     -20.713  36.090  15.315  1.00  0.00     0.039 C 
ATOM      8  C   UNL     1     -19.358  36.013  13.125  1.00  0.00     0.039 C 
ATOM      9  C   UNL     1     -17.122  37.381  14.517  1.00  0.00     0.159 C 
ATOM     10  O   UNL     1     -16.669  36.587  13.648  1.00  0.00    -0.295 OA
ATOM     11  C   UNL     1     -16.305  38.584  14.887  1.00  0.00     0.084 C 
ENDROOT
TORSDOF 0
ENDMDL
MODEL 2
REMARK VINA RESULT:    -6.086     16.692     19.062
REMARK INTER + INTRA:          -6.086
REMARK INTER:                  -6.086
REMARK INTRA:                   0.000
REMARK UNBOUND:                 0.000
REMARK SMILES CC(C)=C1CC[C@H](C)CC1=O
REMARK SMILES IDX 8 1 7 2 6 3 5 4 4 5 2 6 1 7 3 8 10 9 11 10 9 11
REMARK H PARENT
REMARK Flexibility Score: inf
ROOT
ATOM      1  C   UNL     1     -26.008  23.439  15.250  1.00  0.00     0.008 C 
ATOM      2  C   UNL     1     -26.961  22.745  14.271  1.00  0.00    -0.006 C 
ATOM      3  C   UNL     1     -27.865  21.747  15.011  1.00  0.00     0.008 C 
ATOM      4  C   UNL     1     -28.756  20.969  14.033  1.00  0.00     0.039 C 
ATOM      5  C   UNL     1     -29.536  21.884  13.099  1.00  0.00    -0.006 C 
ATOM      6  C   UNL     1     -30.773  21.537  12.636  1.00  0.00    -0.070 C 
ATOM      7  C   UNL     1     -31.412  20.222  13.018  1.00  0.00     0.039 C 
ATOM      8  C   UNL     1     -31.581  22.462  11.755  1.00  0.00     0.039 C 
ATOM      9  C   UNL     1     -28.822  23.111  12.636  1.00  0.00     0.159 C 
ATOM     10  O   UNL     1     -29.038  23.603  11.495  1.00  0.00    -0.295 OA
ATOM     11  C   UNL     1     -27.819  23.781  13.529  1.00  0.00     0.084 C 
ENDROOT
TORSDOF 0
ENDMDL
MODEL 3
REMARK VINA RESULT:    -6.080     17.472     19.141
REMARK INTER + INTRA:          -6.080
REMARK INTER:                  -6.080
REMARK INTRA:                   0.000
REMARK UNBOUND:                 0.000
REMARK SMILES CC(C)=C1CC[C@H](C)CC1=O
REMARK SMILES IDX 8 1 7 2 6 3 5 4 4 5 2 6 1 7 3 8 10 9 11 10 9 11
REMARK H PARENT
REMARK Flexibility Score: inf
ROOT
ATOM      1  C   UNL     1     -27.918  24.468  10.767  1.00  0.00     0.008 C 
ATOM      2  C   UNL     1     -27.862  23.368  11.832  1.00  0.00    -0.006 C 
ATOM      3  C   UNL     1     -27.654  23.975  13.228  1.00  0.00     0.008 C 
ATOM      4  C   UNL     1     -27.494  22.882  14.293  1.00  0.00     0.039 C 
ATOM      5  C   UNL     1     -28.625  21.863  14.260  1.00  0.00    -0.006 C 
ATOM      6  C   UNL     1     -29.053  21.240  15.398  1.00  0.00    -0.070 C 
ATOM      7  C   UNL     1     -28.408  21.523  16.735  1.00  0.00     0.039 C 
ATOM      8  C   UNL     1     -30.211  20.271  15.387  1.00  0.00     0.039 C 
ATOM      9  C   UNL     1     -29.148  21.508  12.907  1.00  0.00     0.159 C 
ATOM     10  O   UNL     1     -29.590  20.354  12.659  1.00  0.00    -0.295 OA
ATOM     11  C   UNL     1     -29.150  22.531  11.808  1.00  0.00     0.084 C 
ENDROOT
TORSDOF 0
ENDMDL
MODEL 4
REMARK VINA RESULT:    -6.061     17.100     19.371
REMARK INTER + INTRA:          -6.061
REMARK INTER:                  -6.061
REMARK INTRA:                   0.000
REMARK UNBOUND:                 0.000
REMARK SMILES CC(C)=C1CC[C@H](C)CC1=O
REMARK SMILES IDX 8 1 7 2 6 3 5 4 4 5 2 6 1 7 3 8 10 9 11 10 9 11
REMARK H PARENT
REMARK Flexibility Score: inf
ROOT
ATOM      1  C   UNL     1     -25.922  23.251  15.246  1.00  0.00     0.008 C 
ATOM      2  C   UNL     1     -27.417  23.028  14.987  1.00  0.00    -0.006 C 
ATOM      3  C   UNL     1     -27.828  23.630  13.635  1.00  0.00     0.008 C 
ATOM      4  C   UNL     1     -29.341  23.505  13.406  1.00  0.00     0.039 C 
ATOM      5  C   UNL     1     -29.844  22.080  13.589  1.00  0.00    -0.006 C 
ATOM      6  C   UNL     1     -30.901  21.603  12.869  1.00  0.00    -0.070 C 
ATOM      7  C   UNL     1     -31.628  22.477  11.872  1.00  0.00     0.039 C 
ATOM      8  C   UNL     1     -31.373  20.174  12.999  1.00  0.00     0.039 C 
ATOM      9  C   UNL     1     -29.191  21.288  14.674  1.00  0.00     0.159 C 
ATOM     10  O   UNL     1     -29.829  20.415  15.322  1.00  0.00    -0.295 OA
ATOM     11  C   UNL     1     -27.749  21.528  15.018  1.00  0.00     0.084 C 
ENDROOT
TORSDOF 0
ENDMDL
MODEL 5
REMARK VINA RESULT:    -6.050      1.972      4.219
REMARK INTER + INTRA:          -6.050
REMARK INTER:                  -6.050
REMARK INTRA:                   0.000
REMARK UNBOUND:                 0.000
REMARK SMILES CC(C)=C1CC[C@H](C)CC1=O
REMARK SMILES IDX 8 1 7 2 6 3 5 4 4 5 2 6 1 7 3 8 10 9 11 10 9 11
REMARK H PARENT
REMARK Flexibility Score: inf
ROOT
ATOM      1  C   UNL     1     -20.764  35.998  15.267  1.00  0.00     0.008 C 
ATOM      2  C   UNL     1     -19.801  36.715  14.314  1.00  0.00    -0.006 C 
ATOM      3  C   UNL     1     -18.869  37.655  15.093  1.00  0.00     0.008 C 
ATOM      4  C   UNL     1     -17.966  38.457  14.144  1.00  0.00     0.039 C 
ATOM      5  C   UNL     1     -17.215  37.569  13.163  1.00  0.00    -0.006 C 
ATOM      6  C   UNL     1     -15.973  37.907  12.707  1.00  0.00    -0.070 C 
ATOM      7  C   UNL     1     -15.300  39.188  13.144  1.00  0.00     0.039 C 
ATOM      8  C   UNL     1     -15.193  37.007  11.778  1.00  0.00     0.039 C 
ATOM      9  C   UNL     1     -17.961  36.382  12.649  1.00  0.00     0.159 C 
ATOM     10  O   UNL     1     -17.764  35.939  11.485  1.00  0.00    -0.295 OA
ATOM     11  C   UNL     1     -18.973  35.694  13.518  1.00  0.00     0.084 C 
ENDROOT
TORSDOF 0
ENDMDL
MODEL 6
REMARK VINA RESULT:    -6.023      1.604      4.297
REMARK INTER + INTRA:          -6.023
REMARK INTER:                  -6.023
REMARK INTRA:                   0.000
REMARK UNBOUND:                 0.000
REMARK SMILES CC(C)=C1CC[C@H](C)CC1=O
REMARK SMILES IDX 8 1 7 2 6 3 5 4 4 5 2 6 1 7 3 8 10 9 11 10 9 11
REMARK H PARENT
REMARK Flexibility Score: inf
ROOT
ATOM      1  C   UNL     1     -18.636  34.807  11.034  1.00  0.00     0.008 C 
ATOM      2  C   UNL     1     -18.714  35.967  12.033  1.00  0.00    -0.006 C 
ATOM      3  C   UNL     1     -18.914  35.438  13.462  1.00  0.00     0.008 C 
ATOM      4  C   UNL     1     -19.096  36.589  14.461  1.00  0.00     0.039 C 
ATOM      5  C   UNL     1     -17.983  37.623  14.371  1.00  0.00    -0.006 C 
ATOM      6  C   UNL     1     -17.569  38.318  15.471  1.00  0.00    -0.070 C 
ATOM      7  C   UNL     1     -18.211  38.103  16.821  1.00  0.00     0.039 C 
ATOM      8  C   UNL     1     -16.427  39.306  15.405  1.00  0.00     0.039 C 
ATOM      9  C   UNL     1     -17.462  37.908  13.000  1.00  0.00     0.159 C 
ATOM     10  O   UNL     1     -17.040  39.053  12.685  1.00  0.00    -0.295 OA
ATOM     11  C   UNL     1     -17.441  36.823  11.963  1.00  0.00     0.084 C 
ENDROOT
TORSDOF 0
ENDMDL
MODEL 7
REMARK VINA RESULT:    -6.005      1.841      4.365
REMARK INTER + INTRA:          -6.005
REMARK INTER:                  -6.005
REMARK INTRA:                   0.000
REMARK UNBOUND:                 0.000
REMARK SMILES CC(C)=C1CC[C@H](C)CC1=O
REMARK SMILES IDX 8 1 7 2 6 3 5 4 4 5 2 6 1 7 3 8 10 9 11 10 9 11
REMARK H PARENT
REMARK Flexibility Score: inf
ROOT
ATOM      1  C   UNL     1     -20.811  36.219  15.195  1.00  0.00     0.008 C 
ATOM      2  C   UNL     1     -19.312  36.421  14.947  1.00  0.00    -0.006 C 
ATOM      3  C   UNL     1     -18.911  35.864  13.573  1.00  0.00     0.008 C 
ATOM      4  C   UNL     1     -17.395  35.967  13.350  1.00  0.00     0.039 C 
ATOM      5  C   UNL     1     -16.863  37.373  13.590  1.00  0.00    -0.006 C 
ATOM      6  C   UNL     1     -15.795  37.856  12.890  1.00  0.00    -0.070 C 
ATOM      7  C   UNL     1     -15.084  37.008  11.861  1.00  0.00     0.039 C 
ATOM      8  C   UNL     1     -15.294  39.269  13.078  1.00  0.00     0.039 C 
ATOM      9  C   UNL     1     -17.502  38.134  14.705  1.00  0.00     0.159 C 
ATOM     10  O   UNL     1     -16.847  38.968  15.388  1.00  0.00    -0.295 OA
ATOM     11  C   UNL     1     -18.948  37.911  15.037  1.00  0.00     0.084 C 
ENDROOT
TORSDOF 0
ENDMDL
MODEL 8
REMARK VINA RESULT:    -5.857      2.290      2.829
REMARK INTER + INTRA:          -5.857
REMARK INTER:                  -5.857
REMARK INTRA:                   0.000
REMARK UNBOUND:                 0.000
REMARK SMILES CC(C)=C1CC[C@H](C)CC1=O
REMARK SMILES IDX 8 1 7 2 6 3 5 4 4 5 2 6 1 7 3 8 10 9 11 10 9 11
REMARK H PARENT
REMARK Flexibility Score: inf
ROOT
ATOM      1  C   UNL     1     -16.241  39.714  14.906  1.00  0.00     0.008 C 
ATOM      2  C   UNL     1     -16.356  38.442  14.060  1.00  0.00    -0.006 C 
ATOM      3  C   UNL     1     -16.917  37.283  14.899  1.00  0.00     0.008 C 
ATOM      4  C   UNL     1     -16.944  35.975  14.096  1.00  0.00     0.039 C 
ATOM      5  C   UNL     1     -17.654  36.126  12.757  1.00  0.00    -0.006 C 
ATOM      6  C   UNL     1     -18.344  35.088  12.199  1.00  0.00    -0.070 C 
ATOM      7  C   UNL     1     -18.416  33.740  12.879  1.00  0.00     0.039 C 
ATOM      8  C   UNL     1     -19.100  35.242  10.900  1.00  0.00     0.039 C 
ATOM      9  C   UNL     1     -17.451  37.425  12.050  1.00  0.00     0.159 C 
ATOM     10  O   UNL     1     -17.436  37.490  10.791  1.00  0.00    -0.295 OA
ATOM     11  C   UNL     1     -17.254  38.688  12.838  1.00  0.00     0.084 C 
ENDROOT
TORSDOF 0
ENDMDL
MODEL 9
REMARK VINA RESULT:    -5.836     16.444     19.230
REMARK INTER + INTRA:          -5.836
REMARK INTER:                  -5.836
REMARK INTRA:                   0.000
REMARK UNBOUND:                 0.000
REMARK SMILES CC(C)=C1CC[C@H](C)CC1=O
REMARK SMILES IDX 8 1 7 2 6 3 5 4 4 5 2 6 1 7 3 8 10 9 11 10 9 11
REMARK H PARENT
REMARK Flexibility Score: inf
ROOT
ATOM      1  C   UNL     1     -30.434  19.875  14.900  1.00  0.00     0.008 C 
ATOM      2  C   UNL     1     -30.314  21.134  14.034  1.00  0.00    -0.006 C 
ATOM      3  C   UNL     1     -29.736  22.300  14.851  1.00  0.00     0.008 C 
ATOM      4  C   UNL     1     -29.704  23.595  14.028  1.00  0.00     0.039 C 
ATOM      5  C   UNL     1     -29.006  23.418  12.686  1.00  0.00    -0.006 C 
ATOM      6  C   UNL     1     -28.312  24.441  12.107  1.00  0.00    -0.070 C 
ATOM      7  C   UNL     1     -28.221  25.798  12.766  1.00  0.00     0.039 C 
ATOM      8  C   UNL     1     -27.568  24.261  10.804  1.00  0.00     0.039 C 
ATOM      9  C   UNL     1     -29.227  22.110  12.001  1.00  0.00     0.159 C 
ATOM     10  O   UNL     1     -29.254  22.027  10.743  1.00  0.00    -0.295 OA
ATOM     11  C   UNL     1     -29.430  20.861  12.808  1.00  0.00     0.084 C 
ENDROOT
TORSDOF 0
ENDMDL
