MODEL 1
REMARK VINA RESULT:    -3.874      0.000      0.000
REMARK INTER + INTRA:          -6.096
REMARK INTER:                  -5.913
REMARK INTRA:                  -0.184
REMARK UNBOUND:                -0.184
REMARK SMILES CC1=CCC[C@@H](C)C(=O)C[C@H](C(C)C)C(=O)C1
REMARK SMILES IDX 8 1 9 2 6 3 7 4 5 5 4 6 3 7 2 8 1 9 10 11 11 12 15 13 16 14
REMARK SMILES IDX 17 15 12 17 13 18 14 19
REMARK H PARENT
REMARK Flexibility Score: 70.00
ROOT
ATOM      1  C   UNL     1      67.581  66.649  30.829  1.00  0.00     0.136 C 
ATOM      2  O   UNL     1      66.442  66.221  30.737  1.00  0.00    -0.299 OA
ENDROOT
BRANCH   1   3
ATOM      3  C   UNL     1      68.027  67.207  32.173  1.00  0.00     0.053 C 
ATOM      4  C   UNL     1      67.316  66.576  33.381  1.00  0.00     0.016 C 
BRANCH   3   5
ATOM      5  C   UNL     1      68.008  68.751  32.187  1.00  0.00     0.015 C 
BRANCH   5   6
ATOM      6  C   UNL     1      69.384  69.419  31.997  1.00  0.00     0.028 C 
BRANCH   6   7
ATOM      7  C   UNL     1      69.292  70.520  30.970  1.00  0.00    -0.028 C 
ATOM      8  C   UNL     1      69.674  70.399  29.677  1.00  0.00    -0.070 CG0
ATOM      9  C   UNL     1      69.631  71.629  28.808  1.00  0.00     0.039 C 
ATOM     10  G   UNL     1      70.095  69.072  29.062  1.00  0.00     0.000 G0
ENDBRANCH   6   7
ENDBRANCH   5   6
ENDBRANCH   3   5
ENDBRANCH   1   3
BRANCH   1  11
ATOM     11  C   UNL     1      68.481  66.598  29.606  1.00  0.00     0.087 C 
BRANCH  11  12
ATOM     12  C   UNL     1      68.070  67.532  28.428  1.00  0.00     0.066 C 
BRANCH  12  13
ATOM     13  C   UNL     1      69.151  68.529  28.022  1.00  0.00     0.140 C 
ATOM     14  O   UNL     1      69.202  68.948  26.875  1.00  0.00    -0.299 OA
BRANCH  13  15
ATOM     15  C   UNL     1      70.115  69.072  29.051  1.00  0.00     0.106 CG0
ATOM     16  G   UNL     1      69.659  70.395  29.647  1.00  0.00     0.000 G0
ENDBRANCH  13  15
ENDBRANCH  12  13
BRANCH  12  17
ATOM     17  C   UNL     1      67.418  66.783  27.222  1.00  0.00    -0.006 C 
ATOM     18  C   UNL     1      65.882  66.775  27.223  1.00  0.00     0.008 C 
ATOM     19  C   UNL     1      67.955  65.348  27.093  1.00  0.00     0.008 C 
ENDBRANCH  12  17
ENDBRANCH  11  12
ENDBRANCH   1  11
TORSDOF 1
ENDMDL
MODEL 2
REMARK VINA RESULT:    -3.378      1.907      4.163
REMARK INTER + INTRA:          -5.340
REMARK INTER:                  -5.390
REMARK INTRA:                   0.050
REMARK UNBOUND:                -0.184
REMARK SMILES CC1=CCC[C@@H](C)C(=O)C[C@H](C(C)C)C(=O)C1
REMARK SMILES IDX 8 1 9 2 6 3 7 4 5 5 4 6 3 7 2 8 1 9 10 11 11 12 15 13 16 14
REMARK SMILES IDX 17 15 12 17 13 18 14 19
REMARK H PARENT
REMARK Flexibility Score: 70.00
ROOT
ATOM      1  C   UNL     1      68.240  68.149  32.267  1.00  0.00     0.136 C 
ATOM      2  O   UNL     1      69.158  68.078  33.069  1.00  0.00    -0.299 OA
ENDROOT
BRANCH   1   3
ATOM      3  C   UNL     1      67.242  67.000  32.222  1.00  0.00     0.053 C 
ATOM      4  C   UNL     1      67.291  66.078  33.451  1.00  0.00     0.016 C 
BRANCH   3   5
ATOM      5  C   UNL     1      67.305  66.238  30.880  1.00  0.00     0.015 C 
BRANCH   5   6
ATOM      6  C   UNL     1      68.650  65.544  30.590  1.00  0.00     0.028 C 
BRANCH   6   7
ATOM      7  C   UNL     1      68.947  65.577  29.112  1.00  0.00    -0.028 C 
ATOM      8  C   UNL     1      69.655  66.551  28.491  1.00  0.00    -0.070 CG0
ATOM      9  C   UNL     1      69.760  66.501  26.989  1.00  0.00     0.039 C 
ATOM     10  G   UNL     1      70.379  67.654  29.248  1.00  0.00     0.000 G0
ENDBRANCH   6   7
ENDBRANCH   5   6
ENDBRANCH   3   5
ENDBRANCH   1   3
BRANCH   1  11
ATOM     11  C   UNL     1      68.147  69.370  31.371  1.00  0.00     0.087 C 
BRANCH  11  12
ATOM     12  C   UNL     1      69.447  69.733  30.590  1.00  0.00     0.066 C 
BRANCH  12  13
ATOM     13  C   UNL     1      69.610  68.977  29.274  1.00  0.00     0.140 C 
ATOM     14  O   UNL     1      69.169  69.447  28.236  1.00  0.00    -0.299 OA
BRANCH  13  15
ATOM     15  C   UNL     1      70.393  67.685  29.227  1.00  0.00     0.106 CG0
ATOM     16  G   UNL     1      69.646  66.568  28.515  1.00  0.00     0.000 G0
ENDBRANCH  13  15
ENDBRANCH  12  13
BRANCH  12  17
ATOM     17  C   UNL     1      69.710  71.269  30.472  1.00  0.00    -0.006 C 
ATOM     18  C   UNL     1      70.788  71.812  31.420  1.00  0.00     0.008 C 
ATOM     19  C   UNL     1      68.410  72.076  30.628  1.00  0.00     0.008 C 
ENDBRANCH  12  17
ENDBRANCH  11  12
ENDBRANCH   1  11
TORSDOF 1
ENDMDL
MODEL 3
REMARK VINA RESULT:    -3.257      9.786     12.126
REMARK INTER + INTRA:          -5.154
REMARK INTER:                  -5.023
REMARK INTRA:                  -0.131
REMARK UNBOUND:                -0.184
REMARK SMILES CC1=CCC[C@@H](C)C(=O)C[C@H](C(C)C)C(=O)C1
REMARK SMILES IDX 8 1 9 2 6 3 7 4 5 5 4 6 3 7 2 8 1 9 10 11 11 12 15 13 16 14
REMARK SMILES IDX 17 15 12 17 13 18 14 19
REMARK H PARENT
REMARK Flexibility Score: 70.00
ROOT
ATOM      1  C   UNL     1      66.759  67.537  41.208  1.00  0.00     0.136 C 
ATOM      2  O   UNL     1      66.356  67.174  42.302  1.00  0.00    -0.299 OA
ENDROOT
BRANCH   1   3
ATOM      3  C   UNL     1      65.992  67.073  39.977  1.00  0.00     0.053 C 
ATOM      4  C   UNL     1      64.542  67.577  39.915  1.00  0.00     0.016 C 
BRANCH   3   5
ATOM      5  C   UNL     1      66.123  65.550  39.760  1.00  0.00     0.015 C 
BRANCH   5   6
ATOM      6  C   UNL     1      67.504  64.961  40.105  1.00  0.00     0.028 C 
BRANCH   6   7
ATOM      7  C   UNL     1      68.493  65.270  39.010  1.00  0.00    -0.028 C 
ATOM      8  C   UNL     1      69.732  65.776  39.213  1.00  0.00    -0.070 CG0
ATOM      9  C   UNL     1      70.554  66.143  38.004  1.00  0.00     0.039 C 
ATOM     10  G   UNL     1      70.339  65.942  40.598  1.00  0.00     0.000 G0
ENDBRANCH   6   7
ENDBRANCH   5   6
ENDBRANCH   3   5
ENDBRANCH   1   3
BRANCH   1  11
ATOM     11  C   UNL     1      67.989  68.423  41.140  1.00  0.00     0.087 C 
BRANCH  11  12
ATOM     12  C   UNL     1      69.228  67.918  41.941  1.00  0.00     0.066 C 
BRANCH  12  13
ATOM     13  C   UNL     1      70.358  67.387  41.064  1.00  0.00     0.140 C 
ATOM     14  O   UNL     1      71.314  68.098  40.794  1.00  0.00    -0.299 OA
BRANCH  13  15
ATOM     15  C   UNL     1      70.349  65.951  40.592  1.00  0.00     0.106 CG0
ATOM     16  G   UNL     1      69.743  65.789  39.206  1.00  0.00     0.000 G0
ENDBRANCH  13  15
ENDBRANCH  12  13
BRANCH  12  17
ATOM     17  C   UNL     1      69.706  68.901  43.058  1.00  0.00    -0.006 C 
ATOM     18  C   UNL     1      70.185  68.222  44.350  1.00  0.00     0.008 C 
ATOM     19  C   UNL     1      68.633  69.954  43.378  1.00  0.00     0.008 C 
ENDBRANCH  12  17
ENDBRANCH  11  12
ENDBRANCH   1  11
TORSDOF 1
ENDMDL
MODEL 4
REMARK VINA RESULT:    -2.966      1.834      2.321
REMARK INTER + INTRA:          -4.710
REMARK INTER:                  -5.052
REMARK INTRA:                   0.341
REMARK UNBOUND:                -0.184
REMARK SMILES CC1=CCC[C@@H](C)C(=O)C[C@H](C(C)C)C(=O)C1
REMARK SMILES IDX 8 1 9 2 6 3 7 4 5 5 4 6 3 7 2 8 1 9 10 11 11 12 15 13 16 14
REMARK SMILES IDX 17 15 12 17 13 18 14 19
REMARK H PARENT
REMARK Flexibility Score: 70.00
ROOT
ATOM      1  C   UNL     1      68.947  68.514  30.933  1.00  0.00     0.136 C 
ATOM      2  O   UNL     1      67.851  68.768  31.408  1.00  0.00    -0.299 OA
ENDROOT
BRANCH   1   3
ATOM      3  C   UNL     1      70.171  69.133  31.594  1.00  0.00     0.053 C 
ATOM      4  C   UNL     1      70.431  68.634  33.024  1.00  0.00     0.016 C 
BRANCH   3   5
ATOM      5  C   UNL     1      70.171  70.673  31.471  1.00  0.00     0.015 C 
BRANCH   5   6
ATOM      6  C   UNL     1      70.976  71.229  30.280  1.00  0.00     0.028 C 
BRANCH   6   7
ATOM      7  C   UNL     1      70.043  71.755  29.220  1.00  0.00    -0.028 C 
ATOM      8  C   UNL     1      70.037  71.347  27.929  1.00  0.00    -0.070 CG0
ATOM      9  C   UNL     1      69.123  72.058  26.965  1.00  0.00     0.039 C 
ATOM     10  G   UNL     1      70.874  70.178  27.430  1.00  0.00     0.000 G0
ENDBRANCH   6   7
ENDBRANCH   5   6
ENDBRANCH   3   5
ENDBRANCH   1   3
BRANCH   1  11
ATOM     11  C   UNL     1      69.025  67.600  29.724  1.00  0.00     0.087 C 
BRANCH  11  12
ATOM     12  C   UNL     1      69.244  68.312  28.354  1.00  0.00     0.066 C 
BRANCH  12  13
ATOM     13  C   UNL     1      70.649  68.879  28.169  1.00  0.00     0.140 C 
ATOM     14  O   UNL     1      71.620  68.262  28.580  1.00  0.00    -0.299 OA
BRANCH  13  15
ATOM     15  C   UNL     1      70.859  70.164  27.403  1.00  0.00     0.106 CG0
ATOM     16  G   UNL     1      70.035  71.320  27.950  1.00  0.00     0.000 G0
ENDBRANCH  13  15
ENDBRANCH  12  13
BRANCH  12  17
ATOM     17  C   UNL     1      68.725  67.499  27.125  1.00  0.00    -0.006 C 
ATOM     18  C   UNL     1      67.197  67.390  27.024  1.00  0.00     0.008 C 
ATOM     19  C   UNL     1      69.362  66.100  27.066  1.00  0.00     0.008 C 
ENDBRANCH  12  17
ENDBRANCH  11  12
ENDBRANCH   1  11
TORSDOF 1
ENDMDL
MODEL 5
REMARK VINA RESULT:    -2.962      2.145      4.396
REMARK INTER + INTRA:          -4.705
REMARK INTER:                  -4.488
REMARK INTRA:                  -0.217
REMARK UNBOUND:                -0.184
REMARK SMILES CC1=CCC[C@@H](C)C(=O)C[C@H](C(C)C)C(=O)C1
REMARK SMILES IDX 8 1 9 2 6 3 7 4 5 5 4 6 3 7 2 8 1 9 10 11 11 12 15 13 16 14
REMARK SMILES IDX 17 15 12 17 13 18 14 19
REMARK H PARENT
REMARK Flexibility Score: 70.00
ROOT
ATOM      1  C   UNL     1      68.559  67.873  29.846  1.00  0.00     0.136 C 
ATOM      2  O   UNL     1      68.112  66.915  30.457  1.00  0.00    -0.299 OA
ENDROOT
BRANCH   1   3
ATOM      3  C   UNL     1      68.577  67.803  28.325  1.00  0.00     0.053 C 
ATOM      4  C   UNL     1      67.275  67.270  27.707  1.00  0.00     0.016 C 
BRANCH   3   5
ATOM      5  C   UNL     1      69.843  67.092  27.800  1.00  0.00     0.015 C 
BRANCH   5   6
ATOM      6  C   UNL     1      71.006  68.030  27.423  1.00  0.00     0.028 C 
BRANCH   6   7
ATOM      7  C   UNL     1      70.477  69.384  27.024  1.00  0.00    -0.028 C 
ATOM      8  C   UNL     1      70.760  70.541  27.668  1.00  0.00    -0.070 CG0
ATOM      9  C   UNL     1      70.054  71.794  27.217  1.00  0.00     0.039 C 
ATOM     10  G   UNL     1      71.788  70.632  28.786  1.00  0.00     0.000 G0
ENDBRANCH   6   7
ENDBRANCH   5   6
ENDBRANCH   3   5
ENDBRANCH   1   3
BRANCH   1  11
ATOM     11  C   UNL     1      69.064  69.070  30.633  1.00  0.00     0.087 C 
BRANCH  11  12
ATOM     12  C   UNL     1      70.613  69.222  30.705  1.00  0.00     0.066 C 
BRANCH  12  13
ATOM     13  C   UNL     1      71.130  70.558  30.178  1.00  0.00     0.140 C 
ATOM     14  O   UNL     1      71.088  71.556  30.882  1.00  0.00    -0.299 OA
BRANCH  13  15
ATOM     15  C   UNL     1      71.775  70.643  28.814  1.00  0.00     0.106 CG0
ATOM     16  G   UNL     1      70.767  70.558  27.677  1.00  0.00     0.000 G0
ENDBRANCH  13  15
ENDBRANCH  12  13
BRANCH  12  17
ATOM     17  C   UNL     1      71.229  68.808  32.080  1.00  0.00    -0.006 C 
ATOM     18  C   UNL     1      71.704  67.349  32.159  1.00  0.00     0.008 C 
ATOM     19  C   UNL     1      70.271  69.117  33.242  1.00  0.00     0.008 C 
ENDBRANCH  12  17
ENDBRANCH  11  12
ENDBRANCH   1  11
TORSDOF 1
ENDMDL
MODEL 6
REMARK VINA RESULT:    -2.898      8.978     11.533
REMARK INTER + INTRA:          -4.607
REMARK INTER:                  -4.620
REMARK INTRA:                   0.013
REMARK UNBOUND:                -0.184
REMARK SMILES CC1=CCC[C@@H](C)C(=O)C[C@H](C(C)C)C(=O)C1
REMARK SMILES IDX 8 1 9 2 6 3 7 4 5 5 4 6 3 7 2 8 1 9 10 11 11 12 15 13 16 14
REMARK SMILES IDX 17 15 12 17 13 18 14 19
REMARK H PARENT
REMARK Flexibility Score: 70.00
ROOT
ATOM      1  C   UNL     1      67.003  66.870  39.451  1.00  0.00     0.136 C 
ATOM      2  O   UNL     1      67.008  67.625  38.491  1.00  0.00    -0.299 OA
ENDROOT
BRANCH   1   3
ATOM      3  C   UNL     1      65.961  67.104  40.537  1.00  0.00     0.053 C 
ATOM      4  C   UNL     1      64.573  67.489  40.000  1.00  0.00     0.016 C 
BRANCH   3   5
ATOM      5  C   UNL     1      66.482  68.056  41.635  1.00  0.00     0.015 C 
BRANCH   5   6
ATOM      6  C   UNL     1      67.109  67.357  42.857  1.00  0.00     0.028 C 
BRANCH   6   7
ATOM      7  C   UNL     1      68.505  67.874  43.095  1.00  0.00    -0.028 C 
ATOM      8  C   UNL     1      69.638  67.202  42.779  1.00  0.00    -0.070 CG0
ATOM      9  C   UNL     1      70.956  67.804  43.192  1.00  0.00     0.039 C 
ATOM     10  G   UNL     1      69.633  65.902  41.990  1.00  0.00     0.000 G0
ENDBRANCH   6   7
ENDBRANCH   5   6
ENDBRANCH   3   5
ENDBRANCH   1   3
BRANCH   1  11
ATOM     11  C   UNL     1      68.026  65.749  39.504  1.00  0.00     0.087 C 
BRANCH  11  12
ATOM     12  C   UNL     1      69.515  66.190  39.365  1.00  0.00     0.066 C 
BRANCH  12  13
ATOM     13  C   UNL     1      70.332  66.025  40.644  1.00  0.00     0.140 C 
ATOM     14  O   UNL     1      71.552  66.067  40.604  1.00  0.00    -0.299 OA
BRANCH  13  15
ATOM     15  C   UNL     1      69.640  65.895  41.981  1.00  0.00     0.106 CG0
ATOM     16  G   UNL     1      69.634  67.194  42.772  1.00  0.00     0.000 G0
ENDBRANCH  13  15
ENDBRANCH  12  13
BRANCH  12  17
ATOM     17  C   UNL     1      70.225  65.635  38.088  1.00  0.00    -0.006 C 
ATOM     18  C   UNL     1      70.327  66.632  36.924  1.00  0.00     0.008 C 
ATOM     19  C   UNL     1      69.579  64.325  37.609  1.00  0.00     0.008 C 
ENDBRANCH  12  17
ENDBRANCH  11  12
ENDBRANCH   1  11
TORSDOF 1
ENDMDL
MODEL 7
REMARK VINA RESULT:    -2.775      2.283      4.559
REMARK INTER + INTRA:          -4.419
REMARK INTER:                  -4.361
REMARK INTRA:                  -0.058
REMARK UNBOUND:                -0.184
REMARK SMILES CC1=CCC[C@@H](C)C(=O)C[C@H](C(C)C)C(=O)C1
REMARK SMILES IDX 8 1 9 2 6 3 7 4 5 5 4 6 3 7 2 8 1 9 10 11 11 12 15 13 16 14
REMARK SMILES IDX 17 15 12 17 13 18 14 19
REMARK H PARENT
REMARK Flexibility Score: 70.00
ROOT
ATOM      1  C   UNL     1      70.842  70.961  31.180  1.00  0.00     0.136 C 
ATOM      2  O   UNL     1      71.833  71.561  30.793  1.00  0.00    -0.299 OA
ENDROOT
BRANCH   1   3
ATOM      3  C   UNL     1      70.830  70.454  32.615  1.00  0.00     0.053 C 
ATOM      4  C   UNL     1      71.654  71.311  33.589  1.00  0.00     0.016 C 
BRANCH   3   5
ATOM      5  C   UNL     1      71.158  68.947  32.694  1.00  0.00     0.015 C 
BRANCH   5   6
ATOM      6  C   UNL     1      70.026  68.064  33.254  1.00  0.00     0.028 C 
BRANCH   6   7
ATOM      7  C   UNL     1      69.807  66.868  32.363  1.00  0.00    -0.028 C 
ATOM      8  C   UNL     1      68.976  66.847  31.294  1.00  0.00    -0.070 CG0
ATOM      9  C   UNL     1      68.777  65.536  30.578  1.00  0.00     0.039 C 
ATOM     10  G   UNL     1      68.281  68.093  30.766  1.00  0.00     0.000 G0
ENDBRANCH   6   7
ENDBRANCH   5   6
ENDBRANCH   3   5
ENDBRANCH   1   3
BRANCH   1  11
ATOM     11  C   UNL     1      69.689  70.759  30.213  1.00  0.00     0.087 C 
BRANCH  11  12
ATOM     12  C   UNL     1      69.838  69.561  29.227  1.00  0.00     0.066 C 
BRANCH  12  13
ATOM     13  C   UNL     1      68.755  68.496  29.379  1.00  0.00     0.140 C 
ATOM     14  O   UNL     1      68.324  67.912  28.395  1.00  0.00    -0.299 OA
BRANCH  13  15
ATOM     15  C   UNL     1      68.266  68.092  30.751  1.00  0.00     0.106 CG0
ATOM     16  G   UNL     1      68.974  66.859  31.291  1.00  0.00     0.000 G0
ENDBRANCH  13  15
ENDBRANCH  12  13
BRANCH  12  17
ATOM     17  C   UNL     1      70.101  69.986  27.747  1.00  0.00    -0.006 C 
ATOM     18  C   UNL     1      71.482  69.592  27.201  1.00  0.00     0.008 C 
ATOM     19  C   UNL     1      69.858  71.490  27.541  1.00  0.00     0.008 C 
ENDBRANCH  12  17
ENDBRANCH  11  12
ENDBRANCH   1  11
TORSDOF 1
ENDMDL
MODEL 8
REMARK VINA RESULT:    -2.754     14.824     16.069
REMARK INTER + INTRA:          -4.387
REMARK INTER:                  -4.767
REMARK INTRA:                   0.379
REMARK UNBOUND:                -0.184
REMARK SMILES CC1=CCC[C@@H](C)C(=O)C[C@H](C(C)C)C(=O)C1
REMARK SMILES IDX 8 1 9 2 6 3 7 4 5 5 4 6 3 7 2 8 1 9 10 11 11 12 15 13 16 14
REMARK SMILES IDX 17 15 12 17 13 18 14 19
REMARK H PARENT
REMARK Flexibility Score: 70.00
ROOT
ATOM      1  C   UNL     1      55.313  69.935  33.217  1.00  0.00     0.136 C 
ATOM      2  O   UNL     1      56.407  69.411  33.359  1.00  0.00    -0.299 OA
ENDROOT
BRANCH   1   3
ATOM      3  C   UNL     1      54.144  69.371  34.012  1.00  0.00     0.053 C 
ATOM      4  C   UNL     1      52.934  68.976  33.151  1.00  0.00     0.016 C 
BRANCH   3   5
ATOM      5  C   UNL     1      53.777  70.273  35.211  1.00  0.00     0.015 C 
BRANCH   5   6
ATOM      6  C   UNL     1      52.316  70.763  35.231  1.00  0.00     0.028 C 
BRANCH   6   7
ATOM      7  C   UNL     1      52.268  72.250  35.473  1.00  0.00    -0.028 C 
ATOM      8  C   UNL     1      52.169  73.185  34.498  1.00  0.00    -0.070 CG0
ATOM      9  C   UNL     1      52.254  74.636  34.898  1.00  0.00     0.039 C 
ATOM     10  G   UNL     1      51.929  72.832  33.038  1.00  0.00     0.000 G0
ENDBRANCH   6   7
ENDBRANCH   5   6
ENDBRANCH   3   5
ENDBRANCH   1   3
BRANCH   1  11
ATOM     11  C   UNL     1      55.185  71.111  32.265  1.00  0.00     0.087 C 
BRANCH  11  12
ATOM     12  C   UNL     1      53.742  71.414  31.759  1.00  0.00     0.066 C 
BRANCH  12  13
ATOM     13  C   UNL     1      53.197  72.765  32.214  1.00  0.00     0.140 C 
ATOM     14  O   UNL     1      53.745  73.799  31.865  1.00  0.00    -0.299 OA
BRANCH  13  15
ATOM     15  C   UNL     1      51.926  72.840  33.029  1.00  0.00     0.106 CG0
ATOM     16  G   UNL     1      52.179  73.197  34.486  1.00  0.00     0.000 G0
ENDBRANCH  13  15
ENDBRANCH  12  13
BRANCH  12  17
ATOM     17  C   UNL     1      53.531  71.129  30.237  1.00  0.00    -0.006 C 
ATOM     18  C   UNL     1      52.734  69.854  29.926  1.00  0.00     0.008 C 
ATOM     19  C   UNL     1      54.866  71.120  29.475  1.00  0.00     0.008 C 
ENDBRANCH  12  17
ENDBRANCH  11  12
ENDBRANCH   1  11
TORSDOF 1
ENDMDL
MODEL 9
REMARK VINA RESULT:    -2.720      8.968     11.206
REMARK INTER + INTRA:          -4.335
REMARK INTER:                  -4.140
REMARK INTRA:                  -0.195
REMARK UNBOUND:                -0.184
REMARK SMILES CC1=CCC[C@@H](C)C(=O)C[C@H](C(C)C)C(=O)C1
REMARK SMILES IDX 8 1 9 2 6 3 7 4 5 5 4 6 3 7 2 8 1 9 10 11 11 12 15 13 16 14
REMARK SMILES IDX 17 15 12 17 13 18 14 19
REMARK H PARENT
REMARK Flexibility Score: 70.00
ROOT
ATOM      1  C   UNL     1      66.897  66.061  40.428  1.00  0.00     0.136 C 
ATOM      2  O   UNL     1      65.751  66.191  40.026  1.00  0.00    -0.299 OA
ENDROOT
BRANCH   1   3
ATOM      3  C   UNL     1      67.422  67.084  41.427  1.00  0.00     0.053 C 
ATOM      4  C   UNL     1      66.532  67.262  42.667  1.00  0.00     0.016 C 
BRANCH   3   5
ATOM      5  C   UNL     1      67.794  68.416  40.741  1.00  0.00     0.015 C 
BRANCH   5   6
ATOM      6  C   UNL     1      69.306  68.646  40.547  1.00  0.00     0.028 C 
BRANCH   6   7
ATOM      7  C   UNL     1      70.071  68.120  41.734  1.00  0.00    -0.028 C 
ATOM      8  C   UNL     1      70.859  67.019  41.715  1.00  0.00    -0.070 CG0
ATOM      9  C   UNL     1      71.460  66.556  43.017  1.00  0.00     0.039 C 
ATOM     10  G   UNL     1      71.195  66.268  40.436  1.00  0.00     0.000 G0
ENDBRANCH   6   7
ENDBRANCH   5   6
ENDBRANCH   3   5
ENDBRANCH   1   3
BRANCH   1  11
ATOM     11  C   UNL     1      67.723  64.895  39.915  1.00  0.00     0.087 C 
BRANCH  11  12
ATOM     12  C   UNL     1      69.074  65.275  39.236  1.00  0.00     0.066 C 
BRANCH  12  13
ATOM     13  C   UNL     1      70.292  65.099  40.139  1.00  0.00     0.140 C 
ATOM     14  O   UNL     1      70.570  63.997  40.589  1.00  0.00    -0.299 OA
BRANCH  13  15
ATOM     15  C   UNL     1      71.213  66.264  40.416  1.00  0.00     0.106 CG0
ATOM     16  G   UNL     1      70.853  67.011  41.692  1.00  0.00     0.000 G0
ENDBRANCH  13  15
ENDBRANCH  12  13
BRANCH  12  17
ATOM     17  C   UNL     1      69.257  64.672  37.806  1.00  0.00    -0.006 C 
ATOM     18  C   UNL     1      69.806  65.653  36.760  1.00  0.00     0.008 C 
ATOM     19  C   UNL     1      67.959  64.025  37.297  1.00  0.00     0.008 C 
ENDBRANCH  12  17
ENDBRANCH  11  12
ENDBRANCH   1  11
TORSDOF 1
ENDMDL
