MODEL 1
REMARK VINA RESULT:    -3.786      0.000      0.000
REMARK INTER + INTRA:          -8.033
REMARK INTER:                  -6.885
REMARK INTRA:                  -1.148
REMARK UNBOUND:                -1.148
REMARK SMILES CCCCCCCCCCCCCCCC(=O)[O-]
REMARK SMILES IDX 9 1 10 2 11 3 12 4 13 5 14 6 15 7 16 8 17 9 18 10 8 11 7 12
REMARK SMILES IDX 6 13 5 14 4 15 3 16 2 17 1 18
REMARK H PARENT
REMARK Flexibility Score: inf
ROOT
ATOM      1  C   UNL     1      -3.909  25.393  25.336  1.00  0.00     0.000 C 
ENDROOT
BRANCH   1   2
ATOM      2  C   UNL     1      -3.463  26.559  26.236  1.00  0.00     0.000 C 
BRANCH   2   3
ATOM      3  C   UNL     1      -2.292  27.356  25.646  1.00  0.00     0.000 C 
BRANCH   3   4
ATOM      4  C   UNL     1      -2.111  27.045  24.155  1.00  0.00     0.000 C 
BRANCH   4   5
ATOM      5  C   UNL     1      -0.623  27.020  23.775  1.00  0.00     0.000 C 
BRANCH   5   6
ATOM      6  C   UNL     1       0.143  25.860  24.437  1.00  0.00     0.006 C 
BRANCH   6   7
ATOM      7  C   UNL     1      -0.421  24.467  24.121  1.00  0.00     0.053 C 
BRANCH   7   8
ATOM      8  C   UNL     1       0.410  23.742  23.107  1.00  0.00     0.041 C 
ATOM      9  O   UNL     1      -0.049  22.730  22.516  1.00  0.00    -0.550 OA
ATOM     10  O   UNL     1       1.682  24.206  22.791  1.00  0.00    -0.550 OA
ENDBRANCH   7   8
ENDBRANCH   6   7
ENDBRANCH   5   6
ENDBRANCH   4   5
ENDBRANCH   3   4
ENDBRANCH   2   3
ENDBRANCH   1   2
BRANCH   1  11
ATOM     11  C   UNL     1      -3.682  23.987  25.926  1.00  0.00     0.000 C 
BRANCH  11  12
ATOM     12  C   UNL     1      -4.906  23.364  26.621  1.00  0.00    -0.000 C 
BRANCH  12  13
ATOM     13  C   UNL     1      -6.221  23.644  25.877  1.00  0.00    -0.000 C 
BRANCH  13  14
ATOM     14  C   UNL     1      -7.400  22.942  26.566  1.00  0.00    -0.000 C 
BRANCH  14  15
ATOM     15  C   UNL     1      -8.747  23.212  25.872  1.00  0.00    -0.000 C 
BRANCH  15  16
ATOM     16  C   UNL     1      -8.731  24.356  24.842  1.00  0.00    -0.000 C 
BRANCH  16  17
ATOM     17  C   UNL     1      -9.865  24.250  23.813  1.00  0.00    -0.003 C 
ATOM     18  C   UNL     1     -10.501  22.862  23.837  1.00  0.00     0.004 C 
ENDBRANCH  16  17
ENDBRANCH  15  16
ENDBRANCH  14  15
ENDBRANCH  13  14
ENDBRANCH  12  13
ENDBRANCH  11  12
ENDBRANCH   1  11
TORSDOF 14
ENDMDL
MODEL 2
REMARK VINA RESULT:    -3.664     14.487     16.631
REMARK INTER + INTRA:          -7.811
REMARK INTER:                  -6.336
REMARK INTRA:                  -1.476
REMARK UNBOUND:                -1.148
REMARK SMILES CCCCCCCCCCCCCCCC(=O)[O-]
REMARK SMILES IDX 9 1 10 2 11 3 12 4 13 5 14 6 15 7 16 8 17 9 18 10 8 11 7 12
REMARK SMILES IDX 6 13 5 14 4 15 3 16 2 17 1 18
REMARK H PARENT
REMARK Flexibility Score: inf
ROOT
ATOM      1  C   UNL     1     -17.259  24.117  36.076  1.00  0.00     0.000 C 
ENDROOT
BRANCH   1   2
ATOM      2  C   UNL     1     -17.939  22.926  35.377  1.00  0.00     0.000 C 
BRANCH   2   3
ATOM      3  C   UNL     1     -17.634  22.862  33.874  1.00  0.00     0.000 C 
BRANCH   3   4
ATOM      4  C   UNL     1     -17.189  21.453  33.462  1.00  0.00     0.000 C 
BRANCH   4   5
ATOM      5  C   UNL     1     -15.657  21.349  33.424  1.00  0.00     0.000 C 
BRANCH   5   6
ATOM      6  C   UNL     1     -14.960  22.695  33.692  1.00  0.00     0.006 C 
BRANCH   6   7
ATOM      7  C   UNL     1     -13.624  22.579  34.440  1.00  0.00     0.053 C 
BRANCH   7   8
ATOM      8  C   UNL     1     -13.734  21.705  35.652  1.00  0.00     0.041 C 
ATOM      9  O   UNL     1     -14.456  22.054  36.622  1.00  0.00    -0.550 OA
ATOM     10  O   UNL     1     -13.063  20.489  35.695  1.00  0.00    -0.550 OA
ENDBRANCH   7   8
ENDBRANCH   6   7
ENDBRANCH   5   6
ENDBRANCH   4   5
ENDBRANCH   3   4
ENDBRANCH   2   3
ENDBRANCH   1   2
BRANCH   1  11
ATOM     11  C   UNL     1     -17.991  25.465  35.928  1.00  0.00     0.000 C 
BRANCH  11  12
ATOM     12  C   UNL     1     -17.676  26.503  37.021  1.00  0.00    -0.000 C 
BRANCH  12  13
ATOM     13  C   UNL     1     -17.254  27.864  36.448  1.00  0.00    -0.000 C 
BRANCH  13  14
ATOM     14  C   UNL     1     -17.844  28.076  35.047  1.00  0.00    -0.000 C 
BRANCH  14  15
ATOM     15  C   UNL     1     -16.783  28.018  33.934  1.00  0.00    -0.000 C 
BRANCH  15  16
ATOM     16  C   UNL     1     -17.335  27.760  32.520  1.00  0.00    -0.000 C 
BRANCH  16  17
ATOM     17  C   UNL     1     -17.526  26.267  32.216  1.00  0.00    -0.003 C 
ATOM     18  C   UNL     1     -16.188  25.587  31.940  1.00  0.00     0.004 C 
ENDBRANCH  16  17
ENDBRANCH  15  16
ENDBRANCH  14  15
ENDBRANCH  13  14
ENDBRANCH  12  13
ENDBRANCH  11  12
ENDBRANCH   1  11
TORSDOF 14
ENDMDL
MODEL 3
REMARK VINA RESULT:    -3.649      1.079      2.366
REMARK INTER + INTRA:          -7.784
REMARK INTER:                  -6.920
REMARK INTRA:                  -0.864
REMARK UNBOUND:                -1.148
REMARK SMILES CCCCCCCCCCCCCCCC(=O)[O-]
REMARK SMILES IDX 9 1 10 2 11 3 12 4 13 5 14 6 15 7 16 8 17 9 18 10 8 11 7 12
REMARK SMILES IDX 6 13 5 14 4 15 3 16 2 17 1 18
REMARK H PARENT
REMARK Flexibility Score: inf
ROOT
ATOM      1  C   UNL     1      -4.685  23.432  26.550  1.00  0.00     0.000 C 
ENDROOT
BRANCH   1   2
ATOM      2  C   UNL     1      -3.528  24.229  25.923  1.00  0.00     0.000 C 
BRANCH   2   3
ATOM      3  C   UNL     1      -3.923  25.667  25.557  1.00  0.00     0.000 C 
BRANCH   3   4
ATOM      4  C   UNL     1      -2.955  26.679  26.182  1.00  0.00     0.000 C 
BRANCH   4   5
ATOM      5  C   UNL     1      -2.528  27.738  25.155  1.00  0.00     0.000 C 
BRANCH   5   6
ATOM      6  C   UNL     1      -1.837  27.130  23.922  1.00  0.00     0.006 C 
BRANCH   6   7
ATOM      7  C   UNL     1      -0.306  27.059  24.025  1.00  0.00     0.053 C 
BRANCH   7   8
ATOM      8  C   UNL     1       0.201  25.656  23.881  1.00  0.00     0.041 C 
ATOM      9  O   UNL     1      -0.514  24.684  24.238  1.00  0.00    -0.550 OA
ATOM     10  O   UNL     1       1.453  25.423  23.323  1.00  0.00    -0.550 OA
ENDBRANCH   7   8
ENDBRANCH   6   7
ENDBRANCH   5   6
ENDBRANCH   4   5
ENDBRANCH   3   4
ENDBRANCH   2   3
ENDBRANCH   1   2
BRANCH   1  11
ATOM     11  C   UNL     1      -6.057  23.631  25.875  1.00  0.00     0.000 C 
BRANCH  11  12
ATOM     12  C   UNL     1      -7.225  22.872  26.531  1.00  0.00    -0.000 C 
BRANCH  12  13
ATOM     13  C   UNL     1      -8.589  23.241  25.931  1.00  0.00    -0.000 C 
BRANCH  13  14
ATOM     14  C   UNL     1      -8.445  24.356  24.885  1.00  0.00    -0.000 C 
BRANCH  14  15
ATOM     15  C   UNL     1      -9.697  24.519  24.005  1.00  0.00    -0.000 C 
BRANCH  15  16
ATOM     16  C   UNL     1     -10.442  23.210  23.684  1.00  0.00    -0.000 C 
BRANCH  16  17
ATOM     17  C   UNL     1     -11.774  23.444  22.958  1.00  0.00    -0.003 C 
ATOM     18  C   UNL     1     -11.566  23.561  21.451  1.00  0.00     0.004 C 
ENDBRANCH  16  17
ENDBRANCH  15  16
ENDBRANCH  14  15
ENDBRANCH  13  14
ENDBRANCH  12  13
ENDBRANCH  11  12
ENDBRANCH   1  11
TORSDOF 14
ENDMDL
MODEL 4
REMARK VINA RESULT:    -3.407      3.594      8.131
REMARK INTER + INTRA:          -7.344
REMARK INTER:                  -6.415
REMARK INTRA:                  -0.928
REMARK UNBOUND:                -1.148
REMARK SMILES CCCCCCCCCCCCCCCC(=O)[O-]
REMARK SMILES IDX 9 1 10 2 11 3 12 4 13 5 14 6 15 7 16 8 17 9 18 10 8 11 7 12
REMARK SMILES IDX 6 13 5 14 4 15 3 16 2 17 1 18
REMARK H PARENT
REMARK Flexibility Score: inf
ROOT
ATOM      1  C   UNL     1      -3.885  25.043  25.781  1.00  0.00     0.000 C 
ENDROOT
BRANCH   1   2
ATOM      2  C   UNL     1      -4.289  23.959  26.796  1.00  0.00     0.000 C 
BRANCH   2   3
ATOM      3  C   UNL     1      -5.292  22.949  26.224  1.00  0.00     0.000 C 
BRANCH   3   4
ATOM      4  C   UNL     1      -6.705  23.543  26.176  1.00  0.00     0.000 C 
BRANCH   4   5
ATOM      5  C   UNL     1      -7.758  22.488  26.547  1.00  0.00     0.000 C 
BRANCH   5   6
ATOM      6  C   UNL     1      -9.193  22.935  26.215  1.00  0.00     0.006 C 
BRANCH   6   7
ATOM      7  C   UNL     1      -9.724  22.414  24.872  1.00  0.00     0.053 C 
BRANCH   7   8
ATOM      8  C   UNL     1     -10.133  23.531  23.960  1.00  0.00     0.041 C 
ATOM      9  O   UNL     1      -9.480  24.606  23.941  1.00  0.00    -0.550 OA
ATOM     10  O   UNL     1     -11.219  23.369  23.107  1.00  0.00    -0.550 OA
ENDBRANCH   7   8
ENDBRANCH   6   7
ENDBRANCH   5   6
ENDBRANCH   4   5
ENDBRANCH   3   4
ENDBRANCH   2   3
ENDBRANCH   1   2
BRANCH   1  11
ATOM     11  C   UNL     1      -3.479  26.397  26.396  1.00  0.00     0.000 C 
BRANCH  11  12
ATOM     12  C   UNL     1      -2.730  27.349  25.446  1.00  0.00    -0.000 C 
BRANCH  12  13
ATOM     13  C   UNL     1      -1.949  26.607  24.351  1.00  0.00    -0.000 C 
BRANCH  13  14
ATOM     14  C   UNL     1      -0.435  26.762  24.557  1.00  0.00    -0.000 C 
BRANCH  14  15
ATOM     15  C   UNL     1       0.342  25.460  24.296  1.00  0.00    -0.000 C 
BRANCH  15  16
ATOM     16  C   UNL     1      -0.512  24.180  24.299  1.00  0.00    -0.000 C 
BRANCH  16  17
ATOM     17  C   UNL     1      -0.130  23.204  23.177  1.00  0.00    -0.003 C 
ATOM     18  C   UNL     1      -0.875  21.880  23.323  1.00  0.00     0.004 C 
ENDBRANCH  16  17
ENDBRANCH  15  16
ENDBRANCH  14  15
ENDBRANCH  13  14
ENDBRANCH  12  13
ENDBRANCH  11  12
ENDBRANCH   1  11
TORSDOF 14
ENDMDL
MODEL 5
REMARK VINA RESULT:    -3.376     14.102     16.303
REMARK INTER + INTRA:          -7.287
REMARK INTER:                  -6.065
REMARK INTRA:                  -1.222
REMARK UNBOUND:                -1.148
REMARK SMILES CCCCCCCCCCCCCCCC(=O)[O-]
REMARK SMILES IDX 9 1 10 2 11 3 12 4 13 5 14 6 15 7 16 8 17 9 18 10 8 11 7 12
REMARK SMILES IDX 6 13 5 14 4 15 3 16 2 17 1 18
REMARK H PARENT
REMARK Flexibility Score: inf
ROOT
ATOM      1  C   UNL     1     -18.061  24.387  35.308  1.00  0.00     0.000 C 
ENDROOT
BRANCH   1   2
ATOM      2  C   UNL     1     -18.112  25.424  36.443  1.00  0.00     0.000 C 
BRANCH   2   3
ATOM      3  C   UNL     1     -17.500  26.775  36.046  1.00  0.00     0.000 C 
BRANCH   3   4
ATOM      4  C   UNL     1     -18.077  27.270  34.714  1.00  0.00     0.000 C 
BRANCH   4   5
ATOM      5  C   UNL     1     -16.957  27.579  33.710  1.00  0.00     0.000 C 
BRANCH   5   6
ATOM      6  C   UNL     1     -17.326  27.190  32.266  1.00  0.00     0.006 C 
BRANCH   6   7
ATOM      7  C   UNL     1     -17.074  25.714  31.924  1.00  0.00     0.053 C 
BRANCH   7   8
ATOM      8  C   UNL     1     -15.642  25.459  31.564  1.00  0.00     0.041 C 
ATOM      9  O   UNL     1     -15.254  25.584  30.374  1.00  0.00    -0.550 OA
ATOM     10  O   UNL     1     -14.728  25.113  32.553  1.00  0.00    -0.550 OA
ENDBRANCH   7   8
ENDBRANCH   6   7
ENDBRANCH   5   6
ENDBRANCH   4   5
ENDBRANCH   3   4
ENDBRANCH   2   3
ENDBRANCH   1   2
BRANCH   1  11
ATOM     11  C   UNL     1     -17.919  22.922  35.768  1.00  0.00     0.000 C 
BRANCH  11  12
ATOM     12  C   UNL     1     -18.125  21.868  34.664  1.00  0.00    -0.000 C 
BRANCH  12  13
ATOM     13  C   UNL     1     -17.286  22.145  33.409  1.00  0.00    -0.000 C 
BRANCH  13  14
ATOM     14  C   UNL     1     -16.164  21.108  33.259  1.00  0.00    -0.000 C 
BRANCH  14  15
ATOM     15  C   UNL     1     -14.762  21.705  33.478  1.00  0.00    -0.000 C 
BRANCH  15  16
ATOM     16  C   UNL     1     -14.682  22.801  34.556  1.00  0.00    -0.000 C 
BRANCH  16  17
ATOM     17  C   UNL     1     -13.672  22.476  35.665  1.00  0.00    -0.003 C 
ATOM     18  C   UNL     1     -13.251  21.010  35.613  1.00  0.00     0.004 C 
ENDBRANCH  16  17
ENDBRANCH  15  16
ENDBRANCH  14  15
ENDBRANCH  13  14
ENDBRANCH  12  13
ENDBRANCH  11  12
ENDBRANCH   1  11
TORSDOF 14
ENDMDL
MODEL 6
REMARK VINA RESULT:    -3.101     12.508     16.090
REMARK INTER + INTRA:          -6.786
REMARK INTER:                  -5.326
REMARK INTRA:                  -1.460
REMARK UNBOUND:                -1.148
REMARK SMILES CCCCCCCCCCCCCCCC(=O)[O-]
REMARK SMILES IDX 9 1 10 2 11 3 12 4 13 5 14 6 15 7 16 8 17 9 18 10 8 11 7 12
REMARK SMILES IDX 6 13 5 14 4 15 3 16 2 17 1 18
REMARK H PARENT
REMARK Flexibility Score: inf
ROOT
ATOM      1  C   UNL     1     -17.145  25.574  35.247  1.00  0.00     0.000 C 
ENDROOT
BRANCH   1   2
ATOM      2  C   UNL     1     -18.125  24.453  34.861  1.00  0.00     0.000 C 
BRANCH   2   3
ATOM      3  C   UNL     1     -17.536  23.470  33.839  1.00  0.00     0.000 C 
BRANCH   3   4
ATOM      4  C   UNL     1     -17.119  22.158  34.514  1.00  0.00     0.000 C 
BRANCH   4   5
ATOM      5  C   UNL     1     -16.825  22.376  36.005  1.00  0.00     0.000 C 
BRANCH   5   6
ATOM      6  C   UNL     1     -15.318  22.472  36.308  1.00  0.00     0.006 C 
BRANCH   6   7
ATOM      7  C   UNL     1     -14.418  21.776  35.275  1.00  0.00     0.053 C 
BRANCH   7   8
ATOM      8  C   UNL     1     -13.460  22.732  34.633  1.00  0.00     0.041 C 
ATOM      9  O   UNL     1     -12.245  22.730  34.963  1.00  0.00    -0.550 OA
ATOM     10  O   UNL     1     -13.904  23.604  33.646  1.00  0.00    -0.550 OA
ENDBRANCH   7   8
ENDBRANCH   6   7
ENDBRANCH   5   6
ENDBRANCH   4   5
ENDBRANCH   3   4
ENDBRANCH   2   3
ENDBRANCH   1   2
BRANCH   1  11
ATOM     11  C   UNL     1     -17.798  26.838  35.840  1.00  0.00     0.000 C 
BRANCH  11  12
ATOM     12  C   UNL     1     -17.919  28.028  34.870  1.00  0.00    -0.000 C 
BRANCH  12  13
ATOM     13  C   UNL     1     -16.737  28.125  33.894  1.00  0.00    -0.000 C 
BRANCH  13  14
ATOM     14  C   UNL     1     -17.223  28.064  32.438  1.00  0.00    -0.000 C 
BRANCH  14  15
ATOM     15  C   UNL     1     -17.254  26.632  31.876  1.00  0.00    -0.000 C 
BRANCH  15  16
ATOM     16  C   UNL     1     -15.896  25.907  31.864  1.00  0.00    -0.000 C 
BRANCH  16  17
ATOM     17  C   UNL     1     -15.573  25.263  30.509  1.00  0.00    -0.003 C 
ATOM     18  C   UNL     1     -14.185  25.671  30.023  1.00  0.00     0.004 C 
ENDBRANCH  16  17
ENDBRANCH  15  16
ENDBRANCH  14  15
ENDBRANCH  13  14
ENDBRANCH  12  13
ENDBRANCH  11  12
ENDBRANCH   1  11
TORSDOF 14
ENDMDL
MODEL 7
REMARK VINA RESULT:    -3.085      3.653      7.507
REMARK INTER + INTRA:          -6.758
REMARK INTER:                  -5.644
REMARK INTRA:                  -1.115
REMARK UNBOUND:                -1.148
REMARK SMILES CCCCCCCCCCCCCCCC(=O)[O-]
REMARK SMILES IDX 9 1 10 2 11 3 12 4 13 5 14 6 15 7 16 8 17 9 18 10 8 11 7 12
REMARK SMILES IDX 6 13 5 14 4 15 3 16 2 17 1 18
REMARK H PARENT
REMARK Flexibility Score: inf
ROOT
ATOM      1  C   UNL     1      -0.220  24.874  24.171  1.00  0.00     0.000 C 
ENDROOT
BRANCH   1   2
ATOM      2  C   UNL     1       0.455  26.228  23.891  1.00  0.00     0.000 C 
BRANCH   2   3
ATOM      3  C   UNL     1      -0.548  27.386  23.787  1.00  0.00     0.000 C 
BRANCH   3   4
ATOM      4  C   UNL     1      -1.970  26.913  24.113  1.00  0.00     0.000 C 
BRANCH   4   5
ATOM      5  C   UNL     1      -2.398  27.378  25.513  1.00  0.00     0.000 C 
BRANCH   5   6
ATOM      6  C   UNL     1      -3.466  26.467  26.144  1.00  0.00     0.006 C 
BRANCH   6   7
ATOM      7  C   UNL     1      -3.565  25.072  25.509  1.00  0.00     0.053 C 
BRANCH   7   8
ATOM      8  C   UNL     1      -4.294  24.105  26.391  1.00  0.00     0.041 C 
ATOM      9  O   UNL     1      -5.155  23.327  25.904  1.00  0.00    -0.550 OA
ATOM     10  O   UNL     1      -3.998  24.042  27.747  1.00  0.00    -0.550 OA
ENDBRANCH   7   8
ENDBRANCH   6   7
ENDBRANCH   5   6
ENDBRANCH   4   5
ENDBRANCH   3   4
ENDBRANCH   2   3
ENDBRANCH   1   2
BRANCH   1  11
ATOM     11  C   UNL     1       0.228  23.718  23.255  1.00  0.00     0.000 C 
BRANCH  11  12
ATOM     12  C   UNL     1       1.177  24.122  22.111  1.00  0.00    -0.000 C 
BRANCH  12  13
ATOM     13  C   UNL     1       0.878  23.382  20.799  1.00  0.00    -0.000 C 
BRANCH  13  14
ATOM     14  C   UNL     1       0.190  22.037  21.072  1.00  0.00    -0.000 C 
BRANCH  14  15
ATOM     15  C   UNL     1       0.524  20.966  20.018  1.00  0.00    -0.000 C 
BRANCH  15  16
ATOM     16  C   UNL     1       1.282  21.484  18.782  1.00  0.00    -0.000 C 
BRANCH  16  17
ATOM     17  C   UNL     1       0.507  21.273  17.474  1.00  0.00    -0.003 C 
ATOM     18  C   UNL     1      -0.747  22.142  17.431  1.00  0.00     0.004 C 
ENDBRANCH  16  17
ENDBRANCH  15  16
ENDBRANCH  14  15
ENDBRANCH  13  14
ENDBRANCH  12  13
ENDBRANCH  11  12
ENDBRANCH   1  11
TORSDOF 14
ENDMDL
MODEL 8
REMARK VINA RESULT:    -3.063      4.174      7.275
REMARK INTER + INTRA:          -6.717
REMARK INTER:                  -6.031
REMARK INTRA:                  -0.686
REMARK UNBOUND:                -1.148
REMARK SMILES CCCCCCCCCCCCCCCC(=O)[O-]
REMARK SMILES IDX 9 1 10 2 11 3 12 4 13 5 14 6 15 7 16 8 17 9 18 10 8 11 7 12
REMARK SMILES IDX 6 13 5 14 4 15 3 16 2 17 1 18
REMARK H PARENT
REMARK Flexibility Score: inf
ROOT
ATOM      1  C   UNL     1       0.563  23.039  22.314  1.00  0.00     0.000 C 
ENDROOT
BRANCH   1   2
ATOM      2  C   UNL     1       0.696  23.036  20.781  1.00  0.00     0.000 C 
BRANCH   2   3
ATOM      3  C   UNL     1       1.276  21.724  20.235  1.00  0.00     0.000 C 
BRANCH   3   4
ATOM      4  C   UNL     1       0.357  21.118  19.167  1.00  0.00     0.000 C 
BRANCH   4   5
ATOM      5  C   UNL     1       1.156  20.262  18.174  1.00  0.00     0.000 C 
BRANCH   5   6
ATOM      6  C   UNL     1       1.634  18.932  18.783  1.00  0.00     0.006 C 
BRANCH   6   7
ATOM      7  C   UNL     1       0.521  18.097  19.435  1.00  0.00     0.053 C 
BRANCH   7   8
ATOM      8  C   UNL     1       1.073  16.991  20.281  1.00  0.00     0.041 C 
ATOM      9  O   UNL     1       1.898  16.173  19.797  1.00  0.00    -0.550 OA
ATOM     10  O   UNL     1       0.699  16.883  21.615  1.00  0.00    -0.550 OA
ENDBRANCH   7   8
ENDBRANCH   6   7
ENDBRANCH   5   6
ENDBRANCH   4   5
ENDBRANCH   3   4
ENDBRANCH   2   3
ENDBRANCH   1   2
BRANCH   1  11
ATOM     11  C   UNL     1       0.660  24.428  22.976  1.00  0.00     0.000 C 
BRANCH  11  12
ATOM     12  C   UNL     1      -0.381  24.702  24.077  1.00  0.00    -0.000 C 
BRANCH  12  13
ATOM     13  C   UNL     1      -0.423  26.176  24.505  1.00  0.00    -0.000 C 
BRANCH  13  14
ATOM     14  C   UNL     1      -1.816  26.776  24.269  1.00  0.00    -0.000 C 
BRANCH  14  15
ATOM     15  C   UNL     1      -2.434  27.379  25.544  1.00  0.00    -0.000 C 
BRANCH  15  16
ATOM     16  C   UNL     1      -3.448  26.473  26.267  1.00  0.00    -0.000 C 
BRANCH  16  17
ATOM     17  C   UNL     1      -3.918  25.295  25.403  1.00  0.00    -0.003 C 
ATOM     18  C   UNL     1      -4.080  24.029  26.241  1.00  0.00     0.004 C 
ENDBRANCH  16  17
ENDBRANCH  15  16
ENDBRANCH  14  15
ENDBRANCH  13  14
ENDBRANCH  12  13
ENDBRANCH  11  12
ENDBRANCH   1  11
TORSDOF 14
ENDMDL
MODEL 9
REMARK VINA RESULT:    -2.934     13.374     16.861
REMARK INTER + INTRA:          -6.483
REMARK INTER:                  -5.021
REMARK INTRA:                  -1.463
REMARK UNBOUND:                -1.148
REMARK SMILES CCCCCCCCCCCCCCCC(=O)[O-]
REMARK SMILES IDX 9 1 10 2 11 3 12 4 13 5 14 6 15 7 16 8 17 9 18 10 8 11 7 12
REMARK SMILES IDX 6 13 5 14 4 15 3 16 2 17 1 18
REMARK H PARENT
REMARK Flexibility Score: inf
ROOT
ATOM      1  C   UNL     1     -17.919  25.549  35.936  1.00  0.00     0.000 C 
ENDROOT
BRANCH   1   2
ATOM      2  C   UNL     1     -18.102  24.328  36.854  1.00  0.00     0.000 C 
BRANCH   2   3
ATOM      3  C   UNL     1     -18.054  22.996  36.092  1.00  0.00     0.000 C 
BRANCH   3   4
ATOM      4  C   UNL     1     -16.856  22.150  36.539  1.00  0.00     0.000 C 
BRANCH   4   5
ATOM      5  C   UNL     1     -15.589  22.537  35.761  1.00  0.00     0.000 C 
BRANCH   5   6
ATOM      6  C   UNL     1     -15.881  22.923  34.300  1.00  0.00     0.006 C 
BRANCH   6   7
ATOM      7  C   UNL     1     -15.448  21.870  33.268  1.00  0.00     0.053 C 
BRANCH   7   8
ATOM      8  C   UNL     1     -16.566  20.936  32.918  1.00  0.00     0.041 C 
ATOM      9  O   UNL     1     -16.326  19.853  32.324  1.00  0.00    -0.550 OA
ATOM     10  O   UNL     1     -17.872  21.248  33.279  1.00  0.00    -0.550 OA
ENDBRANCH   7   8
ENDBRANCH   6   7
ENDBRANCH   5   6
ENDBRANCH   4   5
ENDBRANCH   3   4
ENDBRANCH   2   3
ENDBRANCH   1   2
BRANCH   1  11
ATOM     11  C   UNL     1     -17.753  26.897  36.666  1.00  0.00     0.000 C 
BRANCH  11  12
ATOM     12  C   UNL     1     -17.614  28.125  35.748  1.00  0.00    -0.000 C 
BRANCH  12  13
ATOM     13  C   UNL     1     -16.777  27.840  34.492  1.00  0.00    -0.000 C 
BRANCH  13  14
ATOM     14  C   UNL     1     -17.634  27.959  33.223  1.00  0.00    -0.000 C 
BRANCH  14  15
ATOM     15  C   UNL     1     -17.566  26.705  32.334  1.00  0.00    -0.000 C 
BRANCH  15  16
ATOM     16  C   UNL     1     -16.246  25.917  32.419  1.00  0.00    -0.000 C 
BRANCH  16  17
ATOM     17  C   UNL     1     -15.982  25.057  31.176  1.00  0.00    -0.003 C 
ATOM     18  C   UNL     1     -14.778  25.576  30.394  1.00  0.00     0.004 C 
ENDBRANCH  16  17
ENDBRANCH  15  16
ENDBRANCH  14  15
ENDBRANCH  13  14
ENDBRANCH  12  13
ENDBRANCH  11  12
ENDBRANCH   1  11
TORSDOF 14
ENDMDL
