MODEL 1
REMARK VINA RESULT:    -5.634      0.000      0.000
REMARK INTER + INTRA:          -6.380
REMARK INTER:                  -6.787
REMARK INTRA:                   0.406
REMARK UNBOUND:                 0.406
REMARK SMILES O=c1c(O)c(-c2ccc(O)c(O)c2)oc2cc(O)cc(O)c12
REMARK SMILES IDX 5 1 3 2 2 3 1 4 22 5 20 6 19 7 17 8 16 9 15 10 14 11 6 12
REMARK SMILES IDX 7 13 8 14 9 15 13 16 11 17 10 18 12 20 4 22 21 24 18 26
REMARK H PARENT 10 19 12 21 4 23 21 25 18 27
REMARK Flexibility Score: inf
ROOT
ATOM      1  C   UNL     1       3.824   9.056  -2.008  1.00  0.00     0.180 A 
ATOM      2  C   UNL     1       2.572   9.467  -1.518  1.00  0.00     0.208 A 
ATOM      3  C   UNL     1       2.231   9.169  -0.189  1.00  0.00     0.238 A 
ATOM      4  O   UNL     1       1.088   9.491   0.227  1.00  0.00    -0.285 OA
ATOM      5  C   UNL     1       3.152   8.482   0.638  1.00  0.00     0.111 A 
ATOM      6  C   UNL     1       2.928   8.163   2.011  1.00  0.00     0.134 A 
ATOM      7  C   UNL     1       3.853   7.366   2.696  1.00  0.00     0.093 A 
ATOM      8  C   UNL     1       5.026   6.929   2.075  1.00  0.00     0.123 A 
ATOM      9  C   UNL     1       5.282   7.284   0.753  1.00  0.00     0.094 A 
ATOM     10  C   UNL     1       4.361   8.048   0.033  1.00  0.00     0.146 A 
ATOM     11  O   UNL     1       4.639   8.355  -1.228  1.00  0.00    -0.452 OA
ENDROOT
BRANCH   1  12
ATOM     12  C   UNL     1       4.266   9.354  -3.390  1.00  0.00     0.025 A 
ATOM     13  C   UNL     1       5.628   9.370  -3.736  1.00  0.00     0.016 A 
ATOM     14  C   UNL     1       6.019   9.630  -5.052  1.00  0.00     0.051 A 
ATOM     15  C   UNL     1       5.058   9.865  -6.044  1.00  0.00     0.157 A 
ATOM     16  C   UNL     1       3.304   9.568  -4.392  1.00  0.00     0.062 A 
ATOM     17  C   UNL     1       3.693   9.830  -5.711  1.00  0.00     0.158 A 
BRANCH  15  18
ATOM     18  O   UNL     1       5.451  10.125  -7.355  1.00  0.00    -0.504 OA
ATOM     19  H   UNL     1       6.412  10.353  -7.585  1.00  0.00     0.293 HD
ENDBRANCH  15  18
BRANCH  17  20
ATOM     20  O   UNL     1       2.710  10.051  -6.675  1.00  0.00    -0.504 OA
ATOM     21  H   UNL     1       2.420   9.328  -7.324  1.00  0.00     0.293 HD
ENDBRANCH  17  20
ENDBRANCH   1  12
BRANCH   2  22
ATOM     22  O   UNL     1       1.670  10.125  -2.358  1.00  0.00    -0.502 OA
ATOM     23  H   UNL     1       1.560   9.881  -3.335  1.00  0.00     0.293 HD
ENDBRANCH   2  22
BRANCH   6  24
ATOM     24  O   UNL     1       1.835   8.626   2.751  1.00  0.00    -0.507 OA
ATOM     25  H   UNL     1       1.889   9.313   3.488  1.00  0.00     0.293 HD
ENDBRANCH   6  24
BRANCH   8  26
ATOM     26  O   UNL     1       5.949   6.149   2.769  1.00  0.00    -0.508 OA
ATOM     27  H   UNL     1       6.514   5.452   2.297  1.00  0.00     0.293 HD
ENDBRANCH   8  26
TORSDOF 6
ENDMDL
MODEL 2
REMARK VINA RESULT:    -5.562      1.798      7.314
REMARK INTER + INTRA:          -6.294
REMARK INTER:                  -5.996
REMARK INTRA:                  -0.299
REMARK UNBOUND:                 0.406
REMARK SMILES O=c1c(O)c(-c2ccc(O)c(O)c2)oc2cc(O)cc(O)c12
REMARK SMILES IDX 5 1 3 2 2 3 1 4 22 5 20 6 19 7 17 8 16 9 15 10 14 11 6 12
REMARK SMILES IDX 7 13 8 14 9 15 13 16 11 17 10 18 12 20 4 22 21 24 18 26
REMARK H PARENT 10 19 12 21 4 23 21 25 18 27
REMARK Flexibility Score: inf
ROOT
ATOM      1  C   UNL     1       3.660   9.132  -0.213  1.00  0.00     0.180 A 
ATOM      2  C   UNL     1       4.936   8.990  -0.785  1.00  0.00     0.208 A 
ATOM      3  C   UNL     1       5.082   9.156  -2.171  1.00  0.00     0.238 A 
ATOM      4  O   UNL     1       6.217   8.974  -2.684  1.00  0.00    -0.285 OA
ATOM      5  C   UNL     1       3.956   9.479  -2.965  1.00  0.00     0.111 A 
ATOM      6  C   UNL     1       3.995   9.709  -4.373  1.00  0.00     0.134 A 
ATOM      7  C   UNL     1       2.799   9.893  -5.078  1.00  0.00     0.093 A 
ATOM      8  C   UNL     1       1.569   9.919  -4.415  1.00  0.00     0.123 A 
ATOM      9  C   UNL     1       1.526   9.754  -3.032  1.00  0.00     0.094 A 
ATOM     10  C   UNL     1       2.699   9.533  -2.307  1.00  0.00     0.146 A 
ATOM     11  O   UNL     1       2.611   9.370  -0.993  1.00  0.00    -0.452 OA
ENDROOT
BRANCH   1  12
ATOM     12  C   UNL     1       3.430   8.996   1.244  1.00  0.00     0.025 A 
ATOM     13  C   UNL     1       3.291  10.125   2.071  1.00  0.00     0.016 A 
ATOM     14  C   UNL     1       3.051   9.972   3.439  1.00  0.00     0.051 A 
ATOM     15  C   UNL     1       2.931   8.693   3.999  1.00  0.00     0.157 A 
ATOM     16  C   UNL     1       3.287   7.716   1.805  1.00  0.00     0.062 A 
ATOM     17  C   UNL     1       3.047   7.560   3.175  1.00  0.00     0.158 A 
BRANCH  15  18
ATOM     18  O   UNL     1       2.693   8.544   5.363  1.00  0.00    -0.504 OA
ATOM     19  H   UNL     1       1.755   8.407   5.726  1.00  0.00     0.293 HD
ENDBRANCH  15  18
BRANCH  17  20
ATOM     20  O   UNL     1       2.926   6.273   3.699  1.00  0.00    -0.504 OA
ATOM     21  H   UNL     1       3.421   5.983   4.534  1.00  0.00     0.293 HD
ENDBRANCH  17  20
ENDBRANCH   1  12
BRANCH   2  22
ATOM     22  O   UNL     1       6.030   8.649   0.014  1.00  0.00    -0.502 OA
ATOM     23  H   UNL     1       6.732   9.325   0.293  1.00  0.00     0.293 HD
ENDBRANCH   2  22
BRANCH   6  24
ATOM     24  O   UNL     1       5.177   9.795  -5.117  1.00  0.00    -0.507 OA
ATOM     25  H   UNL     1       5.596  10.657  -5.433  1.00  0.00     0.293 HD
ENDBRANCH   6  24
BRANCH   8  26
ATOM     26  O   UNL     1       0.386  10.118  -5.121  1.00  0.00    -0.508 OA
ATOM     27  H   UNL     1       0.390  10.342  -6.110  1.00  0.00     0.293 HD
ENDBRANCH   8  26
TORSDOF 6
ENDMDL
MODEL 3
REMARK VINA RESULT:    -5.121      1.441      6.827
REMARK INTER + INTRA:          -5.762
REMARK INTER:                  -5.491
REMARK INTRA:                  -0.271
REMARK UNBOUND:                 0.406
REMARK SMILES O=c1c(O)c(-c2ccc(O)c(O)c2)oc2cc(O)cc(O)c12
REMARK SMILES IDX 5 1 3 2 2 3 1 4 22 5 20 6 19 7 17 8 16 9 15 10 14 11 6 12
REMARK SMILES IDX 7 13 8 14 9 15 13 16 11 17 10 18 12 20 4 22 21 24 18 26
REMARK H PARENT 10 19 12 21 4 23 21 25 18 27
REMARK Flexibility Score: inf
ROOT
ATOM      1  C   UNL     1       2.896   9.369  -0.552  1.00  0.00     0.180 A 
ATOM      2  C   UNL     1       1.641   9.563  -1.154  1.00  0.00     0.208 A 
ATOM      3  C   UNL     1       1.577   9.793  -2.537  1.00  0.00     0.238 A 
ATOM      4  O   UNL     1       0.455  10.020  -3.060  1.00  0.00    -0.285 OA
ATOM      5  C   UNL     1       2.766   9.810  -3.304  1.00  0.00     0.111 A 
ATOM      6  C   UNL     1       2.817   9.995  -4.719  1.00  0.00     0.134 A 
ATOM      7  C   UNL     1       4.057  10.124  -5.355  1.00  0.00     0.093 A 
ATOM      8  C   UNL     1       5.251  10.011  -4.637  1.00  0.00     0.123 A 
ATOM      9  C   UNL     1       5.212   9.772  -3.266  1.00  0.00     0.094 A 
ATOM     10  C   UNL     1       3.990   9.674  -2.597  1.00  0.00     0.146 A 
ATOM     11  O   UNL     1       3.999   9.456  -1.288  1.00  0.00    -0.452 OA
ENDROOT
BRANCH   1  12
ATOM     12  C   UNL     1       3.043   9.096   0.896  1.00  0.00     0.025 A 
ATOM     13  C   UNL     1       2.907  10.119   1.850  1.00  0.00     0.016 A 
ATOM     14  C   UNL     1       3.026   9.833   3.213  1.00  0.00     0.051 A 
ATOM     15  C   UNL     1       3.267   8.521   3.643  1.00  0.00     0.157 A 
ATOM     16  C   UNL     1       3.263   7.778   1.332  1.00  0.00     0.062 A 
ATOM     17  C   UNL     1       3.383   7.489   2.697  1.00  0.00     0.158 A 
BRANCH  15  18
ATOM     18  O   UNL     1       3.386   8.239   5.003  1.00  0.00    -0.504 OA
ATOM     19  H   UNL     1       3.436   7.286   5.344  1.00  0.00     0.293 HD
ENDBRANCH  15  18
BRANCH  17  20
ATOM     20  O   UNL     1       3.616   6.172   3.091  1.00  0.00    -0.504 OA
ATOM     21  H   UNL     1       4.165   5.945   3.913  1.00  0.00     0.293 HD
ENDBRANCH  17  20
ENDBRANCH   1  12
BRANCH   2  22
ATOM     22  O   UNL     1       0.481   9.564  -0.374  1.00  0.00    -0.502 OA
ATOM     23  H   UNL     1      -0.283   8.919  -0.535  1.00  0.00     0.293 HD
ENDBRANCH   2  22
BRANCH   6  24
ATOM     24  O   UNL     1       1.686  10.029  -5.542  1.00  0.00    -0.507 OA
ATOM     25  H   UNL     1       1.704   9.934  -6.546  1.00  0.00     0.293 HD
ENDBRANCH   6  24
BRANCH   8  26
ATOM     26  O   UNL     1       6.480  10.125  -5.282  1.00  0.00    -0.508 OA
ATOM     27  H   UNL     1       7.098   9.328  -5.390  1.00  0.00     0.293 HD
ENDBRANCH   8  26
TORSDOF 6
ENDMDL
MODEL 4
REMARK VINA RESULT:    -4.345      1.498      3.007
REMARK INTER + INTRA:          -4.828
REMARK INTER:                  -5.165
REMARK INTRA:                   0.337
REMARK UNBOUND:                 0.406
REMARK SMILES O=c1c(O)c(-c2ccc(O)c(O)c2)oc2cc(O)cc(O)c12
REMARK SMILES IDX 5 1 3 2 2 3 1 4 22 5 20 6 19 7 17 8 16 9 15 10 14 11 6 12
REMARK SMILES IDX 7 13 8 14 9 15 13 16 11 17 10 18 12 20 4 22 21 24 18 26
REMARK H PARENT 10 19 12 21 4 23 21 25 18 27
REMARK Flexibility Score: inf
ROOT
ATOM      1  C   UNL     1       4.305   9.404  -1.982  1.00  0.00     0.180 A 
ATOM      2  C   UNL     1       5.605   9.647  -1.506  1.00  0.00     0.208 A 
ATOM      3  C   UNL     1       5.880   9.445  -0.144  1.00  0.00     0.238 A 
ATOM      4  O   UNL     1       7.031   9.716   0.286  1.00  0.00    -0.285 OA
ATOM      5  C   UNL     1       4.858   8.985   0.721  1.00  0.00     0.111 A 
ATOM      6  C   UNL     1       5.035   8.707   2.109  1.00  0.00     0.134 A 
ATOM      7  C   UNL     1       3.923   8.382   2.897  1.00  0.00     0.093 A 
ATOM      8  C   UNL     1       2.651   8.263   2.332  1.00  0.00     0.123 A 
ATOM      9  C   UNL     1       2.478   8.475   0.966  1.00  0.00     0.094 A 
ATOM     10  C   UNL     1       3.561   8.835   0.162  1.00  0.00     0.146 A 
ATOM     11  O   UNL     1       3.351   9.037  -1.133  1.00  0.00    -0.452 OA
ENDROOT
BRANCH   1  12
ATOM     12  C   UNL     1       3.944   9.572  -3.408  1.00  0.00     0.025 A 
ATOM     13  C   UNL     1       2.646   9.950  -3.795  1.00  0.00     0.016 A 
ATOM     14  C   UNL     1       2.335  10.125  -5.146  1.00  0.00     0.051 A 
ATOM     15  C   UNL     1       3.317   9.939  -6.129  1.00  0.00     0.157 A 
ATOM     16  C   UNL     1       4.930   9.407  -4.395  1.00  0.00     0.062 A 
ATOM     17  C   UNL     1       4.622   9.582  -5.749  1.00  0.00     0.158 A 
BRANCH  15  18
ATOM     18  O   UNL     1       3.003  10.114  -7.475  1.00  0.00    -0.504 OA
ATOM     19  H   UNL     1       3.279   9.435  -8.176  1.00  0.00     0.293 HD
ENDBRANCH  15  18
BRANCH  17  20
ATOM     20  O   UNL     1       5.624   9.396  -6.701  1.00  0.00    -0.504 OA
ATOM     21  H   UNL     1       5.431   9.419  -7.696  1.00  0.00     0.293 HD
ENDBRANCH  17  20
ENDBRANCH   1  12
BRANCH   2  22
ATOM     22  O   UNL     1       6.593  10.122  -2.372  1.00  0.00    -0.502 OA
ATOM     23  H   UNL     1       7.416   9.580  -2.607  1.00  0.00     0.293 HD
ENDBRANCH   2  22
BRANCH   6  24
ATOM     24  O   UNL     1       6.276   8.708   2.753  1.00  0.00    -0.507 OA
ATOM     25  H   UNL     1       7.077   9.247   2.457  1.00  0.00     0.293 HD
ENDBRANCH   6  24
BRANCH   8  26
ATOM     26  O   UNL     1       1.553   7.924   3.119  1.00  0.00    -0.508 OA
ATOM     27  H   UNL     1       0.687   7.596   2.708  1.00  0.00     0.293 HD
ENDBRANCH   8  26
TORSDOF 6
ENDMDL
MODEL 5
REMARK VINA RESULT:    -3.355      1.582      2.874
REMARK INTER + INTRA:          -3.636
REMARK INTER:                  -3.991
REMARK INTRA:                   0.355
REMARK UNBOUND:                 0.406
REMARK SMILES O=c1c(O)c(-c2ccc(O)c(O)c2)oc2cc(O)cc(O)c12
REMARK SMILES IDX 5 1 3 2 2 3 1 4 22 5 20 6 19 7 17 8 16 9 15 10 14 11 6 12
REMARK SMILES IDX 7 13 8 14 9 15 13 16 11 17 10 18 12 20 4 22 21 24 18 26
REMARK H PARENT 10 19 12 21 4 23 21 25 18 27
REMARK Flexibility Score: inf
ROOT
ATOM      1  C   UNL     1       4.426   9.471  -1.906  1.00  0.00     0.180 A 
ATOM      2  C   UNL     1       5.739   9.661  -1.441  1.00  0.00     0.208 A 
ATOM      3  C   UNL     1       6.018   9.442  -0.083  1.00  0.00     0.238 A 
ATOM      4  O   UNL     1       7.182   9.666   0.338  1.00  0.00    -0.285 OA
ATOM      5  C   UNL     1       4.987   9.017   0.789  1.00  0.00     0.111 A 
ATOM      6  C   UNL     1       5.164   8.726   2.175  1.00  0.00     0.134 A 
ATOM      7  C   UNL     1       4.048   8.441   2.970  1.00  0.00     0.093 A 
ATOM      8  C   UNL     1       2.767   8.373   2.416  1.00  0.00     0.123 A 
ATOM      9  C   UNL     1       2.591   8.598   1.053  1.00  0.00     0.094 A 
ATOM     10  C   UNL     1       3.680   8.920   0.241  1.00  0.00     0.146 A 
ATOM     11  O   UNL     1       3.466   9.137  -1.051  1.00  0.00    -0.452 OA
ENDROOT
BRANCH   1  12
ATOM     12  C   UNL     1       4.059   9.659  -3.329  1.00  0.00     0.025 A 
ATOM     13  C   UNL     1       5.031   9.632  -4.345  1.00  0.00     0.016 A 
ATOM     14  C   UNL     1       4.658   9.788  -5.682  1.00  0.00     0.051 A 
ATOM     15  C   UNL     1       3.310   9.959  -6.027  1.00  0.00     0.157 A 
ATOM     16  C   UNL     1       2.707   9.808  -3.680  1.00  0.00     0.062 A 
ATOM     17  C   UNL     1       2.331   9.965  -5.019  1.00  0.00     0.158 A 
BRANCH  15  18
ATOM     18  O   UNL     1       2.942  10.115  -7.361  1.00  0.00    -0.504 OA
ATOM     19  H   UNL     1       2.102  10.619  -7.624  1.00  0.00     0.293 HD
ENDBRANCH  15  18
BRANCH  17  20
ATOM     20  O   UNL     1       0.980  10.125  -5.329  1.00  0.00    -0.504 OA
ATOM     21  H   UNL     1       0.618   9.958  -6.261  1.00  0.00     0.293 HD
ENDBRANCH  17  20
ENDBRANCH   1  12
BRANCH   2  22
ATOM     22  O   UNL     1       6.737  10.101  -2.314  1.00  0.00    -0.502 OA
ATOM     23  H   UNL     1       7.712   9.855  -2.194  1.00  0.00     0.293 HD
ENDBRANCH   2  22
BRANCH   6  24
ATOM     24  O   UNL     1       6.411   8.676   2.808  1.00  0.00    -0.507 OA
ATOM     25  H   UNL     1       7.014   7.868   2.826  1.00  0.00     0.293 HD
ENDBRANCH   6  24
BRANCH   8  26
ATOM     26  O   UNL     1       1.664   8.073   3.212  1.00  0.00    -0.508 OA
ATOM     27  H   UNL     1       1.292   7.132   3.269  1.00  0.00     0.293 HD
ENDBRANCH   8  26
TORSDOF 6
ENDMDL
