MODEL 1
REMARK VINA RESULT:    -4.668      0.000      0.000
REMARK INTER + INTRA:          -5.170
REMARK INTER:                  -5.077
REMARK INTRA:                  -0.093
REMARK UNBOUND:                -0.093
REMARK SMILES C=C(C)[C@@H]1CC[C@@H](C)[C@H](O)C1
REMARK SMILES IDX 8 1 7 2 6 3 5 4 4 5 11 6 9 7 10 8 2 10 1 11 3 12
REMARK H PARENT 10 9
REMARK Flexibility Score: inf
ROOT
ATOM      1  C   UNL     1     182.348 185.881 189.981  1.00  0.00     0.010 C 
ATOM      2  C   UNL     1     183.327 187.062 190.056  1.00  0.00     0.015 C 
ATOM      3  C   UNL     1     182.900 188.026 191.183  1.00  0.00     0.006 C 
ATOM      4  C   UNL     1     183.849 189.226 191.279  1.00  0.00     0.008 C 
ATOM      5  C   UNL     1     183.924 189.970 189.933  1.00  0.00     0.017 C 
ATOM      6  C   UNL     1     184.359 189.015 188.806  1.00  0.00     0.040 C 
ATOM      7  C   UNL     1     183.410 187.810 188.701  1.00  0.00     0.117 C 
ENDROOT
BRANCH   7   8
ATOM      8  O   UNL     1     183.894 186.948 187.702  1.00  0.00    -0.393 OA
ATOM      9  H   UNL     1     184.625 186.411 188.105  1.00  0.00     0.210 HD
ENDBRANCH   7   8
BRANCH   5  10
ATOM     10  C   UNL     1     184.850 191.176 190.022  1.00  0.00    -0.077 C 
ATOM     11  C   UNL     1     184.991 191.996 188.968  1.00  0.00     0.008 C 
ATOM     12  C   UNL     1     185.628 191.479 191.279  1.00  0.00     0.039 C 
ENDBRANCH   5  10
TORSDOF 2
ENDMDL
MODEL 2
REMARK VINA RESULT:    -4.524      2.907      4.298
REMARK INTER + INTRA:          -5.013
REMARK INTER:                  -4.920
REMARK INTRA:                  -0.093
REMARK UNBOUND:                -0.093
REMARK SMILES C=C(C)[C@@H]1CC[C@@H](C)[C@H](O)C1
REMARK SMILES IDX 8 1 7 2 6 3 5 4 4 5 11 6 9 7 10 8 2 10 1 11 3 12
REMARK H PARENT 10 9
REMARK Flexibility Score: inf
ROOT
ATOM      1  C   UNL     1     184.143 189.950 186.998  1.00  0.00     0.010 C 
ATOM      2  C   UNL     1     184.426 191.129 187.940  1.00  0.00     0.015 C 
ATOM      3  C   UNL     1     185.667 191.905 187.450  1.00  0.00     0.006 C 
ATOM      4  C   UNL     1     185.989 193.083 188.376  1.00  0.00     0.008 C 
ATOM      5  C   UNL     1     186.192 192.599 189.824  1.00  0.00     0.017 C 
ATOM      6  C   UNL     1     184.952 191.833 190.321  1.00  0.00     0.040 C 
ATOM      7  C   UNL     1     184.625 190.646 189.399  1.00  0.00     0.117 C 
ENDROOT
BRANCH   7   8
ATOM      8  O   UNL     1     183.453 190.028 189.868  1.00  0.00    -0.393 OA
ATOM      9  H   UNL     1     183.668 189.619 190.746  1.00  0.00     0.210 HD
ENDBRANCH   7   8
BRANCH   5  10
ATOM     10  C   UNL     1     186.530 193.760 190.750  1.00  0.00    -0.077 C 
ATOM     11  C   UNL     1     186.890 193.525 192.021  1.00  0.00     0.008 C 
ATOM     12  C   UNL     1     186.469 195.190 190.272  1.00  0.00     0.039 C 
ENDBRANCH   5  10
TORSDOF 2
ENDMDL
MODEL 3
REMARK VINA RESULT:    -4.523      2.116      2.856
REMARK INTER + INTRA:          -5.013
REMARK INTER:                  -4.915
REMARK INTRA:                  -0.098
REMARK UNBOUND:                -0.093
REMARK SMILES C=C(C)[C@@H]1CC[C@@H](C)[C@H](O)C1
REMARK SMILES IDX 8 1 7 2 6 3 5 4 4 5 11 6 9 7 10 8 2 10 1 11 3 12
REMARK H PARENT 10 9
REMARK Flexibility Score: inf
ROOT
ATOM      1  C   UNL     1     184.872 187.126 191.316  1.00  0.00     0.010 C 
ATOM      2  C   UNL     1     184.850 188.355 190.395  1.00  0.00     0.015 C 
ATOM      3  C   UNL     1     186.294 188.768 190.040  1.00  0.00     0.006 C 
ATOM      4  C   UNL     1     186.311 190.002 189.130  1.00  0.00     0.008 C 
ATOM      5  C   UNL     1     185.561 191.175 189.787  1.00  0.00     0.017 C 
ATOM      6  C   UNL     1     184.116 190.770 190.136  1.00  0.00     0.040 C 
ATOM      7  C   UNL     1     184.090 189.535 191.051  1.00  0.00     0.117 C 
ENDROOT
BRANCH   7   8
ATOM      8  O   UNL     1     182.750 189.180 191.280  1.00  0.00    -0.393 OA
ATOM      9  H   UNL     1     182.483 188.556 190.556  1.00  0.00     0.210 HD
ENDBRANCH   7   8
BRANCH   5  10
ATOM     10  C   UNL     1     185.588 192.412 188.900  1.00  0.00    -0.077 C 
ATOM     11  C   UNL     1     185.360 192.300 187.582  1.00  0.00     0.008 C 
ATOM     12  C   UNL     1     185.870 193.781 189.467  1.00  0.00     0.039 C 
ENDBRANCH   5  10
TORSDOF 2
ENDMDL
MODEL 4
REMARK VINA RESULT:    -4.366      1.653      2.210
REMARK INTER + INTRA:          -4.841
REMARK INTER:                  -4.748
REMARK INTRA:                  -0.093
REMARK UNBOUND:                -0.093
REMARK SMILES C=C(C)[C@@H]1CC[C@@H](C)[C@H](O)C1
REMARK SMILES IDX 8 1 7 2 6 3 5 4 4 5 11 6 9 7 10 8 2 10 1 11 3 12
REMARK H PARENT 10 9
REMARK Flexibility Score: inf
ROOT
ATOM      1  C   UNL     1     183.452 187.507 188.122  1.00  0.00     0.010 C 
ATOM      2  C   UNL     1     184.362 188.669 188.547  1.00  0.00     0.015 C 
ATOM      3  C   UNL     1     183.849 189.281 189.867  1.00  0.00     0.006 C 
ATOM      4  C   UNL     1     184.728 190.455 190.315  1.00  0.00     0.008 C 
ATOM      5  C   UNL     1     184.803 191.530 189.216  1.00  0.00     0.017 C 
ATOM      6  C   UNL     1     185.323 190.927 187.898  1.00  0.00     0.040 C 
ATOM      7  C   UNL     1     184.445 189.751 187.440  1.00  0.00     0.117 C 
ENDROOT
BRANCH   7   8
ATOM      8  O   UNL     1     185.006 189.205 186.272  1.00  0.00    -0.393 OA
ATOM      9  H   UNL     1     185.968 189.044 186.455  1.00  0.00     0.210 HD
ENDBRANCH   7   8
BRANCH   5  10
ATOM     10  C   UNL     1     185.658 192.710 189.658  1.00  0.00    -0.077 C 
ATOM     11  C   UNL     1     185.792 193.781 188.860  1.00  0.00     0.008 C 
ATOM     12  C   UNL     1     186.373 192.709 190.987  1.00  0.00     0.039 C 
ENDBRANCH   5  10
TORSDOF 2
ENDMDL
MODEL 5
REMARK VINA RESULT:    -4.363      1.434      4.065
REMARK INTER + INTRA:          -4.839
REMARK INTER:                  -4.741
REMARK INTRA:                  -0.098
REMARK UNBOUND:                -0.093
REMARK SMILES C=C(C)[C@@H]1CC[C@@H](C)[C@H](O)C1
REMARK SMILES IDX 8 1 7 2 6 3 5 4 4 5 11 6 9 7 10 8 2 10 1 11 3 12
REMARK H PARENT 10 9
REMARK Flexibility Score: inf
ROOT
ATOM      1  C   UNL     1     185.340 191.979 187.414  1.00  0.00     0.010 C 
ATOM      2  C   UNL     1     184.575 190.853 188.123  1.00  0.00     0.015 C 
ATOM      3  C   UNL     1     184.631 191.063 189.651  1.00  0.00     0.006 C 
ATOM      4  C   UNL     1     183.886 189.947 190.393  1.00  0.00     0.008 C 
ATOM      5  C   UNL     1     184.456 188.567 190.017  1.00  0.00     0.017 C 
ATOM      6  C   UNL     1     184.393 188.349 188.494  1.00  0.00     0.040 C 
ATOM      7  C   UNL     1     185.141 189.462 187.742  1.00  0.00     0.117 C 
ENDROOT
BRANCH   7   8
ATOM      8  O   UNL     1     184.995 189.242 186.361  1.00  0.00    -0.393 OA
ATOM      9  H   UNL     1     185.815 188.780 186.048  1.00  0.00     0.210 HD
ENDBRANCH   7   8
BRANCH   5  10
ATOM     10  C   UNL     1     183.735 187.452 190.763  1.00  0.00    -0.077 C 
ATOM     11  C   UNL     1     182.453 187.607 191.129  1.00  0.00     0.008 C 
ATOM     12  C   UNL     1     184.432 186.160 191.110  1.00  0.00     0.039 C 
ENDBRANCH   5  10
TORSDOF 2
ENDMDL
MODEL 6
REMARK VINA RESULT:    -4.308      4.305      6.909
REMARK INTER + INTRA:          -4.779
REMARK INTER:                  -4.686
REMARK INTRA:                  -0.093
REMARK UNBOUND:                -0.093
REMARK SMILES C=C(C)[C@@H]1CC[C@@H](C)[C@H](O)C1
REMARK SMILES IDX 8 1 7 2 6 3 5 4 4 5 11 6 9 7 10 8 2 10 1 11 3 12
REMARK H PARENT 10 9
REMARK Flexibility Score: inf
ROOT
ATOM      1  C   UNL     1     188.132 196.040 191.881  1.00  0.00     0.010 C 
ATOM      2  C   UNL     1     187.065 195.202 191.162  1.00  0.00     0.015 C 
ATOM      3  C   UNL     1     187.134 193.739 191.648  1.00  0.00     0.006 C 
ATOM      4  C   UNL     1     186.089 192.868 190.940  1.00  0.00     0.008 C 
ATOM      5  C   UNL     1     186.266 192.939 189.412  1.00  0.00     0.017 C 
ATOM      6  C   UNL     1     186.188 194.396 188.921  1.00  0.00     0.040 C 
ATOM      7  C   UNL     1     187.235 195.276 189.624  1.00  0.00     0.117 C 
ENDROOT
BRANCH   7   8
ATOM      8  O   UNL     1     187.073 196.600 189.182  1.00  0.00    -0.393 OA
ATOM      9  H   UNL     1     186.468 196.576 188.396  1.00  0.00     0.210 HD
ENDBRANCH   7   8
BRANCH   5  10
ATOM     10  C   UNL     1     185.244 192.062 188.699  1.00  0.00    -0.077 C 
ATOM     11  C   UNL     1     185.246 191.979 187.359  1.00  0.00     0.008 C 
ATOM     12  C   UNL     1     184.212 191.274 189.467  1.00  0.00     0.039 C 
ENDBRANCH   5  10
TORSDOF 2
ENDMDL
MODEL 7
REMARK VINA RESULT:    -4.207      2.028      4.733
REMARK INTER + INTRA:          -4.669
REMARK INTER:                  -4.574
REMARK INTRA:                  -0.095
REMARK UNBOUND:                -0.093
REMARK SMILES C=C(C)[C@@H]1CC[C@@H](C)[C@H](O)C1
REMARK SMILES IDX 8 1 7 2 6 3 5 4 4 5 11 6 9 7 10 8 2 10 1 11 3 12
REMARK H PARENT 10 9
REMARK Flexibility Score: inf
ROOT
ATOM      1  C   UNL     1     186.370 193.660 189.500  1.00  0.00     0.010 C 
ATOM      2  C   UNL     1     185.381 192.486 189.455  1.00  0.00     0.015 C 
ATOM      3  C   UNL     1     185.439 191.701 190.783  1.00  0.00     0.006 C 
ATOM      4  C   UNL     1     184.472 190.511 190.768  1.00  0.00     0.008 C 
ATOM      5  C   UNL     1     184.771 189.581 189.578  1.00  0.00     0.017 C 
ATOM      6  C   UNL     1     184.704 190.357 188.250  1.00  0.00     0.040 C 
ATOM      7  C   UNL     1     185.674 191.551 188.255  1.00  0.00     0.117 C 
ENDROOT
BRANCH   7   8
ATOM      8  O   UNL     1     185.522 192.253 187.046  1.00  0.00    -0.393 OA
ATOM      9  H   UNL     1     184.554 192.256 186.828  1.00  0.00     0.210 HD
ENDBRANCH   7   8
BRANCH   5  10
ATOM     10  C   UNL     1     183.827 188.385 189.565  1.00  0.00    -0.077 C 
ATOM     11  C   UNL     1     183.225 187.990 190.698  1.00  0.00     0.008 C 
ATOM     12  C   UNL     1     183.547 187.619 188.296  1.00  0.00     0.039 C 
ENDBRANCH   5  10
TORSDOF 2
ENDMDL
MODEL 8
REMARK VINA RESULT:    -4.173      2.659      4.251
REMARK INTER + INTRA:          -4.632
REMARK INTER:                  -4.541
REMARK INTRA:                  -0.091
REMARK UNBOUND:                -0.093
REMARK SMILES C=C(C)[C@@H]1CC[C@@H](C)[C@H](O)C1
REMARK SMILES IDX 8 1 7 2 6 3 5 4 4 5 11 6 9 7 10 8 2 10 1 11 3 12
REMARK H PARENT 10 9
REMARK Flexibility Score: inf
ROOT
ATOM      1  C   UNL     1     183.899 189.805 190.153  1.00  0.00     0.010 C 
ATOM      2  C   UNL     1     185.024 190.818 189.898  1.00  0.00     0.015 C 
ATOM      3  C   UNL     1     185.407 191.519 191.219  1.00  0.00     0.006 C 
ATOM      4  C   UNL     1     186.522 192.549 190.999  1.00  0.00     0.008 C 
ATOM      5  C   UNL     1     186.106 193.585 189.938  1.00  0.00     0.017 C 
ATOM      6  C   UNL     1     185.732 192.890 188.616  1.00  0.00     0.040 C 
ATOM      7  C   UNL     1     184.612 191.858 188.827  1.00  0.00     0.117 C 
ENDROOT
BRANCH   7   8
ATOM      8  O   UNL     1     184.361 191.217 187.601  1.00  0.00    -0.393 OA
ATOM      9  H   UNL     1     184.324 191.921 186.903  1.00  0.00     0.210 HD
ENDBRANCH   7   8
BRANCH   5  10
ATOM     10  C   UNL     1     187.199 194.623 189.726  1.00  0.00    -0.077 C 
ATOM     11  C   UNL     1     186.879 195.919 189.582  1.00  0.00     0.008 C 
ATOM     12  C   UNL     1     188.655 194.232 189.669  1.00  0.00     0.039 C 
ENDBRANCH   5  10
TORSDOF 2
ENDMDL
