MODEL 1
REMARK VINA RESULT:    -7.039      0.000      0.000
REMARK INTER + INTRA:          -8.540
REMARK INTER:                  -8.274
REMARK INTRA:                  -0.266
REMARK UNBOUND:                -0.266
REMARK SMILES O=c1cc(-c2ccc(O)c(O)c2)oc2cc(O)cc(O)c12
REMARK SMILES IDX 4 1 3 2 2 3 1 4 21 5 19 6 18 7 16 8 15 9 14 10 13 11 5 12
REMARK SMILES IDX 6 13 7 14 8 15 12 16 10 17 9 18 11 20 20 22 17 24
REMARK H PARENT 9 19 11 21 20 23 17 25
REMARK Flexibility Score: inf
ROOT
ATOM      1  C   UNL     1     125.394 123.678 127.559  1.00  0.00     0.138 A 
ATOM      2  C   UNL     1     125.664 122.437 128.152  1.00  0.00     0.100 A 
ATOM      3  C   UNL     1     125.493 122.276 129.527  1.00  0.00     0.197 A 
ATOM      4  O   UNL     1     125.683 121.135 130.020  1.00  0.00    -0.289 OA
ATOM      5  C   UNL     1     125.077 123.374 130.318  1.00  0.00     0.107 A 
ATOM      6  C   UNL     1     124.908 123.338 131.733  1.00  0.00     0.134 A 
ATOM      7  C   UNL     1     124.380 124.455 132.394  1.00  0.00     0.093 A 
ATOM      8  C   UNL     1     124.073 125.627 131.697  1.00  0.00     0.123 A 
ATOM      9  C   UNL     1     124.286 125.689 130.321  1.00  0.00     0.094 A 
ATOM     10  C   UNL     1     124.778 124.581 129.629  1.00  0.00     0.146 A 
ATOM     11  O   UNL     1     124.953 124.678 128.316  1.00  0.00    -0.456 OA
ENDROOT
BRANCH   1  12
ATOM     12  C   UNL     1     125.561 123.904 126.101  1.00  0.00     0.021 A 
ATOM     13  C   UNL     1     126.619 124.679 125.589  1.00  0.00     0.016 A 
ATOM     14  C   UNL     1     126.745 124.882 124.212  1.00  0.00     0.051 A 
ATOM     15  C   UNL     1     125.816 124.324 123.325  1.00  0.00     0.157 A 
ATOM     16  C   UNL     1     124.624 123.358 125.204  1.00  0.00     0.062 A 
ATOM     17  C   UNL     1     124.750 123.559 123.826  1.00  0.00     0.158 A 
BRANCH  15  18
ATOM     18  O   UNL     1     125.947 124.528 121.952  1.00  0.00    -0.504 OA
ATOM     19  H   UNL     1     125.704 123.808 121.283  1.00  0.00     0.293 HD
ENDBRANCH  15  18
BRANCH  17  20
ATOM     20  O   UNL     1     123.805 122.994 122.969  1.00  0.00    -0.504 OA
ATOM     21  H   UNL     1     123.462 123.479 122.150  1.00  0.00     0.293 HD
ENDBRANCH  17  20
ENDBRANCH   1  12
BRANCH   6  22
ATOM     22  O   UNL     1     125.262 122.250 132.536  1.00  0.00    -0.507 OA
ATOM     23  H   UNL     1     126.102 121.702 132.425  1.00  0.00     0.293 HD
ENDBRANCH   6  22
BRANCH   8  24
ATOM     24  O   UNL     1     123.563 126.738 132.364  1.00  0.00    -0.508 OA
ATOM     25  H   UNL     1     123.936 127.038 133.257  1.00  0.00     0.293 HD
ENDBRANCH   8  24
TORSDOF 5
ENDMDL
MODEL 2
REMARK VINA RESULT:    -6.958     13.180     15.526
REMARK INTER + INTRA:          -8.444
REMARK INTER:                  -8.177
REMARK INTRA:                  -0.267
REMARK UNBOUND:                -0.266
REMARK SMILES O=c1cc(-c2ccc(O)c(O)c2)oc2cc(O)cc(O)c12
REMARK SMILES IDX 4 1 3 2 2 3 1 4 21 5 19 6 18 7 16 8 15 9 14 10 13 11 5 12
REMARK SMILES IDX 6 13 7 14 8 15 12 16 10 17 9 18 11 20 20 22 17 24
REMARK H PARENT 9 19 11 21 20 23 17 25
REMARK Flexibility Score: inf
ROOT
ATOM      1  C   UNL     1     134.057 134.688 128.747  1.00  0.00     0.138 A 
ATOM      2  C   UNL     1     135.353 134.269 128.414  1.00  0.00     0.100 A 
ATOM      3  C   UNL     1     135.643 133.898 127.101  1.00  0.00     0.197 A 
ATOM      4  O   UNL     1     136.829 133.587 126.820  1.00  0.00    -0.289 OA
ATOM      5  C   UNL     1     134.621 133.917 126.122  1.00  0.00     0.107 A 
ATOM      6  C   UNL     1     134.791 133.522 124.762  1.00  0.00     0.134 A 
ATOM      7  C   UNL     1     133.736 133.695 123.857  1.00  0.00     0.093 A 
ATOM      8  C   UNL     1     132.499 134.191 124.276  1.00  0.00     0.123 A 
ATOM      9  C   UNL     1     132.307 134.529 125.614  1.00  0.00     0.094 A 
ATOM     10  C   UNL     1     133.350 134.402 126.534  1.00  0.00     0.146 A 
ATOM     11  O   UNL     1     133.129 134.748 127.797  1.00  0.00    -0.456 OA
ENDROOT
BRANCH   1  12
ATOM     12  C   UNL     1     133.695 135.092 130.129  1.00  0.00     0.021 A 
ATOM     13  C   UNL     1     133.417 134.141 131.129  1.00  0.00     0.016 A 
ATOM     14  C   UNL     1     133.068 134.551 132.419  1.00  0.00     0.051 A 
ATOM     15  C   UNL     1     132.983 135.913 132.730  1.00  0.00     0.157 A 
ATOM     16  C   UNL     1     133.593 136.459 130.446  1.00  0.00     0.062 A 
ATOM     17  C   UNL     1     133.245 136.871 131.737  1.00  0.00     0.158 A 
BRANCH  15  18
ATOM     18  O   UNL     1     132.636 136.318 134.018  1.00  0.00    -0.504 OA
ATOM     19  H   UNL     1     131.680 136.274 134.350  1.00  0.00     0.293 HD
ENDBRANCH  15  18
BRANCH  17  20
ATOM     20  O   UNL     1     133.164 138.236 132.014  1.00  0.00    -0.504 OA
ATOM     21  H   UNL     1     132.284 138.693 132.216  1.00  0.00     0.293 HD
ENDBRANCH  17  20
ENDBRANCH   1  12
BRANCH   6  22
ATOM     22  O   UNL     1     135.956 132.937 124.258  1.00  0.00    -0.507 OA
ATOM     23  H   UNL     1     136.046 132.533 123.338  1.00  0.00     0.293 HD
ENDBRANCH   6  22
BRANCH   8  24
ATOM     24  O   UNL     1     131.451 134.344 123.372  1.00  0.00    -0.508 OA
ATOM     25  H   UNL     1     130.738 133.633 123.259  1.00  0.00     0.293 HD
ENDBRANCH   8  24
TORSDOF 5
ENDMDL
MODEL 3
REMARK VINA RESULT:    -6.954      2.171      3.580
REMARK INTER + INTRA:          -8.440
REMARK INTER:                  -8.150
REMARK INTRA:                  -0.290
REMARK UNBOUND:                -0.266
REMARK SMILES O=c1cc(-c2ccc(O)c(O)c2)oc2cc(O)cc(O)c12
REMARK SMILES IDX 4 1 3 2 2 3 1 4 21 5 19 6 18 7 16 8 15 9 14 10 13 11 5 12
REMARK SMILES IDX 6 13 7 14 8 15 12 16 10 17 9 18 11 20 20 22 17 24
REMARK H PARENT 9 19 11 21 20 23 17 25
REMARK Flexibility Score: inf
ROOT
ATOM      1  C   UNL     1     125.485 124.708 128.809  1.00  0.00     0.138 A 
ATOM      2  C   UNL     1     125.500 125.238 130.107  1.00  0.00     0.100 A 
ATOM      3  C   UNL     1     125.397 124.382 131.204  1.00  0.00     0.197 A 
ATOM      4  O   UNL     1     125.477 124.881 132.356  1.00  0.00    -0.289 OA
ATOM      5  C   UNL     1     125.248 122.990 130.998  1.00  0.00     0.107 A 
ATOM      6  C   UNL     1     125.094 122.027 132.039  1.00  0.00     0.134 A 
ATOM      7  C   UNL     1     125.071 120.664 131.720  1.00  0.00     0.093 A 
ATOM      8  C   UNL     1     125.135 120.233 130.392  1.00  0.00     0.123 A 
ATOM      9  C   UNL     1     125.232 121.169 129.365  1.00  0.00     0.094 A 
ATOM     10  C   UNL     1     125.292 122.534 129.653  1.00  0.00     0.146 A 
ATOM     11  O   UNL     1     125.398 123.392 128.645  1.00  0.00    -0.456 OA
ENDROOT
BRANCH   1  12
ATOM     12  C   UNL     1     125.589 125.575 127.607  1.00  0.00     0.021 A 
ATOM     13  C   UNL     1     126.559 126.590 127.509  1.00  0.00     0.016 A 
ATOM     14  C   UNL     1     126.626 127.397 126.370  1.00  0.00     0.051 A 
ATOM     15  C   UNL     1     125.724 127.210 125.315  1.00  0.00     0.157 A 
ATOM     16  C   UNL     1     124.678 125.402 126.549  1.00  0.00     0.062 A 
ATOM     17  C   UNL     1     124.744 126.207 125.407  1.00  0.00     0.158 A 
BRANCH  15  18
ATOM     18  O   UNL     1     125.797 128.015 124.180  1.00  0.00    -0.504 OA
ATOM     19  H   UNL     1     125.567 129.002 124.213  1.00  0.00     0.293 HD
ENDBRANCH  15  18
BRANCH  17  20
ATOM     20  O   UNL     1     123.829 125.999 124.376  1.00  0.00    -0.504 OA
ATOM     21  H   UNL     1     123.090 126.659 124.170  1.00  0.00     0.293 HD
ENDBRANCH  17  20
ENDBRANCH   1  12
BRANCH   6  22
ATOM     22  O   UNL     1     124.935 122.354 133.389  1.00  0.00    -0.507 OA
ATOM     23  H   UNL     1     125.068 123.274 133.779  1.00  0.00     0.293 HD
ENDBRANCH   6  22
BRANCH   8  24
ATOM     24  O   UNL     1     125.097 118.875 130.083  1.00  0.00    -0.508 OA
ATOM     25  H   UNL     1     124.401 118.259 130.487  1.00  0.00     0.293 HD
ENDBRANCH   8  24
TORSDOF 5
ENDMDL
MODEL 4
REMARK VINA RESULT:    -6.875      0.649      1.454
REMARK INTER + INTRA:          -8.346
REMARK INTER:                  -8.081
REMARK INTRA:                  -0.266
REMARK UNBOUND:                -0.266
REMARK SMILES O=c1cc(-c2ccc(O)c(O)c2)oc2cc(O)cc(O)c12
REMARK SMILES IDX 4 1 3 2 2 3 1 4 21 5 19 6 18 7 16 8 15 9 14 10 13 11 5 12
REMARK SMILES IDX 6 13 7 14 8 15 12 16 10 17 9 18 11 20 20 22 17 24
REMARK H PARENT 9 19 11 21 20 23 17 25
REMARK Flexibility Score: inf
ROOT
ATOM      1  C   UNL     1     125.136 123.419 127.602  1.00  0.00     0.138 A 
ATOM      2  C   UNL     1     125.537 122.238 128.243  1.00  0.00     0.100 A 
ATOM      3  C   UNL     1     125.508 122.165 129.636  1.00  0.00     0.197 A 
ATOM      4  O   UNL     1     125.813 121.071 130.179  1.00  0.00    -0.289 OA
ATOM      5  C   UNL     1     125.105 123.291 130.392  1.00  0.00     0.107 A 
ATOM      6  C   UNL     1     125.076 123.344 131.817  1.00  0.00     0.134 A 
ATOM      7  C   UNL     1     124.548 124.474 132.455  1.00  0.00     0.093 A 
ATOM      8  C   UNL     1     124.106 125.577 131.718  1.00  0.00     0.123 A 
ATOM      9  C   UNL     1     124.181 125.555 130.327  1.00  0.00     0.094 A 
ATOM     10  C   UNL     1     124.669 124.429 129.662  1.00  0.00     0.146 A 
ATOM     11  O   UNL     1     124.711 124.444 128.334  1.00  0.00    -0.456 OA
ENDROOT
BRANCH   1  12
ATOM     12  C   UNL     1     125.149 123.551 126.123  1.00  0.00     0.021 A 
ATOM     13  C   UNL     1     124.109 123.037 125.326  1.00  0.00     0.016 A 
ATOM     14  C   UNL     1     124.153 123.168 123.935  1.00  0.00     0.051 A 
ATOM     15  C   UNL     1     125.236 123.804 123.317  1.00  0.00     0.157 A 
ATOM     16  C   UNL     1     126.240 124.178 125.494  1.00  0.00     0.062 A 
ATOM     17  C   UNL     1     126.286 124.310 124.102  1.00  0.00     0.158 A 
BRANCH  15  18
ATOM     18  O   UNL     1     125.275 123.934 121.930  1.00  0.00    -0.504 OA
ATOM     19  H   UNL     1     126.081 124.324 121.455  1.00  0.00     0.293 HD
ENDBRANCH  15  18
BRANCH  17  20
ATOM     20  O   UNL     1     127.381 124.945 123.517  1.00  0.00    -0.504 OA
ATOM     21  H   UNL     1     127.344 125.909 123.211  1.00  0.00     0.293 HD
ENDBRANCH  17  20
ENDBRANCH   1  12
BRANCH   6  22
ATOM     22  O   UNL     1     125.571 122.335 132.648  1.00  0.00    -0.507 OA
ATOM     23  H   UNL     1     125.002 121.655 133.130  1.00  0.00     0.293 HD
ENDBRANCH   6  22
BRANCH   8  24
ATOM     24  O   UNL     1     123.597 126.703 132.361  1.00  0.00    -0.508 OA
ATOM     25  H   UNL     1     122.682 127.075 132.135  1.00  0.00     0.293 HD
ENDBRANCH   8  24
TORSDOF 5
ENDMDL
MODEL 5
REMARK VINA RESULT:    -6.847     13.410     14.200
REMARK INTER + INTRA:          -8.313
REMARK INTER:                  -8.034
REMARK INTRA:                  -0.279
REMARK UNBOUND:                -0.266
REMARK SMILES O=c1cc(-c2ccc(O)c(O)c2)oc2cc(O)cc(O)c12
REMARK SMILES IDX 4 1 3 2 2 3 1 4 21 5 19 6 18 7 16 8 15 9 14 10 13 11 5 12
REMARK SMILES IDX 6 13 7 14 8 15 12 16 10 17 9 18 11 20 20 22 17 24
REMARK H PARENT 9 19 11 21 20 23 17 25
REMARK Flexibility Score: inf
ROOT
ATOM      1  C   UNL     1     133.961 134.754 127.960  1.00  0.00     0.138 A 
ATOM      2  C   UNL     1     133.544 136.033 128.353  1.00  0.00     0.100 A 
ATOM      3  C   UNL     1     133.646 136.412 129.692  1.00  0.00     0.197 A 
ATOM      4  O   UNL     1     133.323 137.588 130.002  1.00  0.00    -0.289 OA
ATOM      5  C   UNL     1     134.141 135.493 130.647  1.00  0.00     0.107 A 
ATOM      6  C   UNL     1     134.252 135.756 132.045  1.00  0.00     0.134 A 
ATOM      7  C   UNL     1     134.865 134.811 132.878  1.00  0.00     0.093 A 
ATOM      8  C   UNL     1     135.315 133.588 132.372  1.00  0.00     0.123 A 
ATOM      9  C   UNL     1     135.162 133.301 131.018  1.00  0.00     0.094 A 
ATOM     10  C   UNL     1     134.587 134.237 130.156  1.00  0.00     0.146 A 
ATOM     11  O   UNL     1     134.473 133.929 128.868  1.00  0.00    -0.456 OA
ENDROOT
BRANCH   1  12
ATOM     12  C   UNL     1     133.873 134.299 126.549  1.00  0.00     0.021 A 
ATOM     13  C   UNL     1     134.910 133.566 125.942  1.00  0.00     0.016 A 
ATOM     14  C   UNL     1     134.803 133.161 124.608  1.00  0.00     0.051 A 
ATOM     15  C   UNL     1     133.666 133.486 123.858  1.00  0.00     0.157 A 
ATOM     16  C   UNL     1     132.740 134.634 125.784  1.00  0.00     0.062 A 
ATOM     17  C   UNL     1     132.631 134.228 124.450  1.00  0.00     0.158 A 
BRANCH  15  18
ATOM     18  O   UNL     1     133.563 133.078 122.529  1.00  0.00    -0.504 OA
ATOM     19  H   UNL     1     133.560 132.097 122.273  1.00  0.00     0.293 HD
ENDBRANCH  15  18
BRANCH  17  20
ATOM     20  O   UNL     1     131.488 134.571 123.728  1.00  0.00    -0.504 OA
ATOM     21  H   UNL     1     130.703 133.939 123.631  1.00  0.00     0.293 HD
ENDBRANCH  17  20
ENDBRANCH   1  12
BRANCH   6  22
ATOM     22  O   UNL     1     133.758 136.907 132.666  1.00  0.00    -0.507 OA
ATOM     23  H   UNL     1     133.776 137.078 133.660  1.00  0.00     0.293 HD
ENDBRANCH   6  22
BRANCH   8  24
ATOM     24  O   UNL     1     135.910 132.649 133.211  1.00  0.00    -0.508 OA
ATOM     25  H   UNL     1     135.410 132.244 133.994  1.00  0.00     0.293 HD
ENDBRANCH   8  24
TORSDOF 5
ENDMDL
MODEL 6
REMARK VINA RESULT:    -6.760      1.754      2.815
REMARK INTER + INTRA:          -8.212
REMARK INTER:                  -7.921
REMARK INTRA:                  -0.290
REMARK UNBOUND:                -0.266
REMARK SMILES O=c1cc(-c2ccc(O)c(O)c2)oc2cc(O)cc(O)c12
REMARK SMILES IDX 4 1 3 2 2 3 1 4 21 5 19 6 18 7 16 8 15 9 14 10 13 11 5 12
REMARK SMILES IDX 6 13 7 14 8 15 12 16 10 17 9 18 11 20 20 22 17 24
REMARK H PARENT 9 19 11 21 20 23 17 25
REMARK Flexibility Score: inf
ROOT
ATOM      1  C   UNL     1     124.616 124.461 127.693  1.00  0.00     0.138 A 
ATOM      2  C   UNL     1     125.406 125.372 128.408  1.00  0.00     0.100 A 
ATOM      3  C   UNL     1     125.180 125.561 129.771  1.00  0.00     0.197 A 
ATOM      4  O   UNL     1     125.946 126.337 130.398  1.00  0.00    -0.289 OA
ATOM      5  C   UNL     1     124.135 124.856 130.416  1.00  0.00     0.107 A 
ATOM      6  C   UNL     1     123.787 124.999 131.791  1.00  0.00     0.134 A 
ATOM      7  C   UNL     1     122.810 124.162 132.346  1.00  0.00     0.093 A 
ATOM      8  C   UNL     1     122.126 123.232 131.559  1.00  0.00     0.123 A 
ATOM      9  C   UNL     1     122.422 123.122 130.202  1.00  0.00     0.094 A 
ATOM     10  C   UNL     1     123.416 123.917 129.628  1.00  0.00     0.146 A 
ATOM     11  O   UNL     1     123.677 123.772 128.333  1.00  0.00    -0.456 OA
ENDROOT
BRANCH   1  12
ATOM     12  C   UNL     1     124.814 124.223 126.240  1.00  0.00     0.021 A 
ATOM     13  C   UNL     1     123.819 123.620 125.447  1.00  0.00     0.016 A 
ATOM     14  C   UNL     1     124.038 123.399 124.085  1.00  0.00     0.051 A 
ATOM     15  C   UNL     1     125.252 123.768 123.493  1.00  0.00     0.157 A 
ATOM     16  C   UNL     1     126.036 124.579 125.641  1.00  0.00     0.062 A 
ATOM     17  C   UNL     1     126.256 124.359 124.277  1.00  0.00     0.158 A 
BRANCH  15  18
ATOM     18  O   UNL     1     125.465 123.547 122.133  1.00  0.00    -0.504 OA
ATOM     19  H   UNL     1     124.958 124.066 121.425  1.00  0.00     0.293 HD
ENDBRANCH  15  18
BRANCH  17  20
ATOM     20  O   UNL     1     127.478 124.734 123.719  1.00  0.00    -0.504 OA
ATOM     21  H   UNL     1     128.316 124.177 123.832  1.00  0.00     0.293 HD
ENDBRANCH  17  20
ENDBRANCH   1  12
BRANCH   6  22
ATOM     22  O   UNL     1     124.346 125.954 132.645  1.00  0.00    -0.507 OA
ATOM     23  H   UNL     1     123.826 126.669 133.130  1.00  0.00     0.293 HD
ENDBRANCH   6  22
BRANCH   8  24
ATOM     24  O   UNL     1     121.145 122.415 132.116  1.00  0.00    -0.508 OA
ATOM     25  H   UNL     1     121.358 121.483 132.451  1.00  0.00     0.293 HD
ENDBRANCH   8  24
TORSDOF 5
ENDMDL
MODEL 7
REMARK VINA RESULT:    -6.753     12.866     13.907
REMARK INTER + INTRA:          -8.203
REMARK INTER:                  -7.924
REMARK INTRA:                  -0.279
REMARK UNBOUND:                -0.266
REMARK SMILES O=c1cc(-c2ccc(O)c(O)c2)oc2cc(O)cc(O)c12
REMARK SMILES IDX 4 1 3 2 2 3 1 4 21 5 19 6 18 7 16 8 15 9 14 10 13 11 5 12
REMARK SMILES IDX 6 13 7 14 8 15 12 16 10 17 9 18 11 20 20 22 17 24
REMARK H PARENT 9 19 11 21 20 23 17 25
REMARK Flexibility Score: inf
ROOT
ATOM      1  C   UNL     1     133.696 134.328 128.053  1.00  0.00     0.138 A 
ATOM      2  C   UNL     1     133.759 133.313 129.018  1.00  0.00     0.100 A 
ATOM      3  C   UNL     1     133.777 133.648 130.372  1.00  0.00     0.197 A 
ATOM      4  O   UNL     1     133.770 132.713 131.215  1.00  0.00    -0.289 OA
ATOM      5  C   UNL     1     133.761 135.008 130.761  1.00  0.00     0.107 A 
ATOM      6  C   UNL     1     133.816 135.469 132.110  1.00  0.00     0.134 A 
ATOM      7  C   UNL     1     133.676 136.836 132.379  1.00  0.00     0.093 A 
ATOM      8  C   UNL     1     133.544 137.765 131.343  1.00  0.00     0.123 A 
ATOM      9  C   UNL     1     133.544 137.330 130.019  1.00  0.00     0.094 A 
ATOM     10  C   UNL     1     133.646 135.969 129.721  1.00  0.00     0.146 A 
ATOM     11  O   UNL     1     133.627 135.595 128.446  1.00  0.00    -0.456 OA
ENDROOT
BRANCH   1  12
ATOM     12  C   UNL     1     133.677 134.026 126.599  1.00  0.00     0.021 A 
ATOM     13  C   UNL     1     134.742 133.356 125.968  1.00  0.00     0.016 A 
ATOM     14  C   UNL     1     134.700 133.096 124.595  1.00  0.00     0.051 A 
ATOM     15  C   UNL     1     133.602 133.505 123.829  1.00  0.00     0.157 A 
ATOM     16  C   UNL     1     132.583 134.447 125.820  1.00  0.00     0.062 A 
ATOM     17  C   UNL     1     132.539 134.186 124.446  1.00  0.00     0.158 A 
BRANCH  15  18
ATOM     18  O   UNL     1     133.565 133.242 122.461  1.00  0.00    -0.504 OA
ATOM     19  H   UNL     1     133.927 133.901 121.783  1.00  0.00     0.293 HD
ENDBRANCH  15  18
BRANCH  17  20
ATOM     20  O   UNL     1     131.434 134.611 123.710  1.00  0.00    -0.504 OA
ATOM     21  H   UNL     1     131.147 135.581 123.680  1.00  0.00     0.293 HD
ENDBRANCH  17  20
ENDBRANCH   1  12
BRANCH   6  22
ATOM     22  O   UNL     1     134.029 134.636 133.212  1.00  0.00    -0.507 OA
ATOM     23  H   UNL     1     133.738 133.672 133.271  1.00  0.00     0.293 HD
ENDBRANCH   6  22
BRANCH   8  24
ATOM     24  O   UNL     1     133.421 139.125 131.619  1.00  0.00    -0.508 OA
ATOM     25  H   UNL     1     134.174 139.775 131.427  1.00  0.00     0.293 HD
ENDBRANCH   8  24
TORSDOF 5
ENDMDL
MODEL 8
REMARK VINA RESULT:    -6.745      1.842      7.239
REMARK INTER + INTRA:          -8.194
REMARK INTER:                  -7.911
REMARK INTRA:                  -0.283
REMARK UNBOUND:                -0.266
REMARK SMILES O=c1cc(-c2ccc(O)c(O)c2)oc2cc(O)cc(O)c12
REMARK SMILES IDX 4 1 3 2 2 3 1 4 21 5 19 6 18 7 16 8 15 9 14 10 13 11 5 12
REMARK SMILES IDX 6 13 7 14 8 15 12 16 10 17 9 18 11 20 20 22 17 24
REMARK H PARENT 9 19 11 21 20 23 17 25
REMARK Flexibility Score: inf
ROOT
ATOM      1  C   UNL     1     124.482 124.276 128.147  1.00  0.00     0.138 A 
ATOM      2  C   UNL     1     125.734 124.852 127.889  1.00  0.00     0.100 A 
ATOM      3  C   UNL     1     126.238 124.854 126.589  1.00  0.00     0.197 A 
ATOM      4  O   UNL     1     127.335 125.433 126.378  1.00  0.00    -0.289 OA
ATOM      5  C   UNL     1     125.497 124.249 125.545  1.00  0.00     0.107 A 
ATOM      6  C   UNL     1     125.929 124.156 124.190  1.00  0.00     0.134 A 
ATOM      7  C   UNL     1     125.059 123.639 123.222  1.00  0.00     0.093 A 
ATOM      8  C   UNL     1     123.796 123.154 123.573  1.00  0.00     0.123 A 
ATOM      9  C   UNL     1     123.386 123.192 124.903  1.00  0.00     0.094 A 
ATOM     10  C   UNL     1     124.217 123.734 125.886  1.00  0.00     0.146 A 
ATOM     11  O   UNL     1     123.782 123.763 127.141  1.00  0.00    -0.456 OA
ENDROOT
BRANCH   1  12
ATOM     12  C   UNL     1     123.900 124.246 129.514  1.00  0.00     0.021 A 
ATOM     13  C   UNL     1     123.079 123.186 129.945  1.00  0.00     0.016 A 
ATOM     14  C   UNL     1     122.537 123.190 131.233  1.00  0.00     0.051 A 
ATOM     15  C   UNL     1     122.797 124.252 132.108  1.00  0.00     0.157 A 
ATOM     16  C   UNL     1     124.145 125.316 130.394  1.00  0.00     0.062 A 
ATOM     17  C   UNL     1     123.605 125.320 131.684  1.00  0.00     0.158 A 
BRANCH  15  18
ATOM     18  O   UNL     1     122.256 124.250 133.392  1.00  0.00    -0.504 OA
ATOM     19  H   UNL     1     121.307 123.939 133.569  1.00  0.00     0.293 HD
ENDBRANCH  15  18
BRANCH  17  20
ATOM     20  O   UNL     1     123.879 126.394 132.531  1.00  0.00    -0.504 OA
ATOM     21  H   UNL     1     124.618 127.058 132.336  1.00  0.00     0.293 HD
ENDBRANCH  17  20
ENDBRANCH   1  12
BRANCH   6  22
ATOM     22  O   UNL     1     127.201 124.531 123.747  1.00  0.00    -0.507 OA
ATOM     23  H   UNL     1     128.009 124.639 124.341  1.00  0.00     0.293 HD
ENDBRANCH   6  22
BRANCH   8  24
ATOM     24  O   UNL     1     122.943 122.627 122.605  1.00  0.00    -0.508 OA
ATOM     25  H   UNL     1     123.298 122.248 121.735  1.00  0.00     0.293 HD
ENDBRANCH   8  24
TORSDOF 5
ENDMDL
MODEL 9
REMARK VINA RESULT:    -6.599     13.545     16.022
REMARK INTER + INTRA:          -8.022
REMARK INTER:                  -7.744
REMARK INTRA:                  -0.278
REMARK UNBOUND:                -0.266
REMARK SMILES O=c1cc(-c2ccc(O)c(O)c2)oc2cc(O)cc(O)c12
REMARK SMILES IDX 4 1 3 2 2 3 1 4 21 5 19 6 18 7 16 8 15 9 14 10 13 11 5 12
REMARK SMILES IDX 6 13 7 14 8 15 12 16 10 17 9 18 11 20 20 22 17 24
REMARK H PARENT 9 19 11 21 20 23 17 25
REMARK Flexibility Score: inf
ROOT
ATOM      1  C   UNL     1     134.546 134.711 128.182  1.00  0.00     0.138 A 
ATOM      2  C   UNL     1     133.270 134.192 127.918  1.00  0.00     0.100 A 
ATOM      3  C   UNL     1     132.770 134.218 126.616  1.00  0.00     0.197 A 
ATOM      4  O   UNL     1     131.650 133.688 126.400  1.00  0.00    -0.289 OA
ATOM      5  C   UNL     1     133.540 134.795 125.577  1.00  0.00     0.107 A 
ATOM      6  C   UNL     1     133.115 134.912 124.221  1.00  0.00     0.134 A 
ATOM      7  C   UNL     1     134.009 135.396 123.258  1.00  0.00     0.093 A 
ATOM      8  C   UNL     1     135.291 135.824 123.614  1.00  0.00     0.123 A 
ATOM      9  C   UNL     1     135.696 135.763 124.945  1.00  0.00     0.094 A 
ATOM     10  C   UNL     1     134.840 135.252 125.923  1.00  0.00     0.146 A 
ATOM     11  O   UNL     1     135.270 135.198 127.179  1.00  0.00    -0.456 OA
ENDROOT
BRANCH   1  12
ATOM     12  C   UNL     1     135.125 134.710 129.549  1.00  0.00     0.021 A 
ATOM     13  C   UNL     1     135.861 135.804 130.042  1.00  0.00     0.016 A 
ATOM     14  C   UNL     1     136.404 135.770 131.329  1.00  0.00     0.051 A 
ATOM     15  C   UNL     1     136.228 134.644 132.143  1.00  0.00     0.157 A 
ATOM     16  C   UNL     1     134.964 133.577 130.368  1.00  0.00     0.062 A 
ATOM     17  C   UNL     1     135.505 133.542 131.657  1.00  0.00     0.158 A 
BRANCH  15  18
ATOM     18  O   UNL     1     136.769 134.616 133.427  1.00  0.00    -0.504 OA
ATOM     19  H   UNL     1     137.739 134.852 133.600  1.00  0.00     0.293 HD
ENDBRANCH  15  18
BRANCH  17  20
ATOM     20  O   UNL     1     135.316 132.404 132.441  1.00  0.00    -0.504 OA
ATOM     21  H   UNL     1     135.063 131.510 132.040  1.00  0.00     0.293 HD
ENDBRANCH  17  20
ENDBRANCH   1  12
BRANCH   6  22
ATOM     22  O   UNL     1     131.829 134.595 123.774  1.00  0.00    -0.507 OA
ATOM     23  H   UNL     1     131.005 134.574 124.356  1.00  0.00     0.293 HD
ENDBRANCH   6  22
BRANCH   8  24
ATOM     24  O   UNL     1     136.168 136.318 122.651  1.00  0.00    -0.508 OA
ATOM     25  H   UNL     1     135.878 137.018 121.979  1.00  0.00     0.293 HD
ENDBRANCH   8  24
TORSDOF 5
ENDMDL
