MODEL 1
REMARK VINA RESULT:    -4.117      0.000      0.000
REMARK INTER + INTRA:         -16.949
REMARK INTER:                  -9.773
REMARK INTRA:                  -7.176
REMARK UNBOUND:                -7.176
REMARK SMILES O=C(OC[C@@H]1O[C@@H](OC(=O)c2cc(O)c(O)c(O)c2)[C@@H](OC(=O)c2cc(O)c(O)c(O)c2)[C@H](OC(=O)c2cc(O)c(O)c(O)c2)[C@@H]1OC(=O)c1cc(O)c(O)c(O)c1)c1cc(O)c(O)c(O)c1
REMARK SMILES IDX 5 1 46 2 33 3 20 4 7 5 6 6 4 7 3 8 2 9 1 10 59 11 60 12
REMARK SMILES IDX 61 13 67 14 63 15 65 16 62 17 64 19 66 21 47 23 48 24 49 25
REMARK SMILES IDX 50 26 58 27 51 28 56 29 52 30 54 31 57 32 53 34 55 36 34 38
REMARK SMILES IDX 35 39 36 40 37 41 45 42 38 43 43 44 39 45 41 46 44 47 40 49
REMARK SMILES IDX 42 51 8 53 9 54 10 55 11 56 19 57 12 58 17 59 13 60 15 61
REMARK SMILES IDX 18 62 14 64 16 66 21 68 22 69 23 70 24 71 32 72 25 73 30 74
REMARK SMILES IDX 26 75 28 76 31 77 27 79 29 81
REMARK H PARENT 62 18 64 20 66 22 57 33 53 35 55 37 44 48 40 50 42 52 18 63
REMARK H PARENT 14 65 16 67 31 78 27 80 29 82
REMARK Flexibility Score: inf
ROOT
ATOM      1  C   UNL     1      37.437   4.829  18.588  1.00  0.00     0.205 C 
ATOM      2  C   UNL     1      36.286   5.858  18.634  1.00  0.00     0.254 C 
ATOM      3  C   UNL     1      35.100   5.254  19.412  1.00  0.00     0.267 C 
ATOM      4  C   UNL     1      34.729   3.879  18.828  1.00  0.00     0.290 C 
ATOM      5  C   UNL     1      35.983   2.993  18.721  1.00  0.00     0.357 C 
ATOM      6  O   UNL     1      37.004   3.628  17.968  1.00  0.00    -0.329 OA
ENDROOT
BRANCH   1   7
ATOM      7  C   UNL     1      38.647   5.387  17.819  1.00  0.00     0.269 C 
BRANCH   7   8
ATOM      8  O   UNL     1      39.709   5.710  18.716  1.00  0.00    -0.459 OA
BRANCH   8   9
ATOM      9  C   UNL     1      39.729   5.354  20.070  1.00  0.00     0.338 C 
ATOM     10  O   UNL     1      40.270   4.275  20.434  1.00  0.00    -0.246 OA
BRANCH   9  11
ATOM     11  C   UNL     1      39.142   6.268  21.074  1.00  0.00     0.067 A 
ATOM     12  C   UNL     1      38.520   5.751  22.219  1.00  0.00     0.066 A 
ATOM     13  C   UNL     1      37.947   6.602  23.166  1.00  0.00     0.162 A 
ATOM     14  C   UNL     1      39.194   7.658  20.895  1.00  0.00     0.066 A 
ATOM     15  C   UNL     1      37.989   7.996  22.981  1.00  0.00     0.200 A 
ATOM     16  C   UNL     1      38.629   8.528  21.834  1.00  0.00     0.162 A 
BRANCH  13  17
ATOM     17  O   UNL     1      37.322   6.043  24.283  1.00  0.00    -0.504 OA
ATOM     18  H   UNL     1      37.838   5.758  25.107  1.00  0.00     0.293 HD
ENDBRANCH  13  17
BRANCH  15  19
ATOM     19  O   UNL     1      37.386   8.812  23.943  1.00  0.00    -0.502 OA
ATOM     20  H   UNL     1      36.395   8.993  23.990  1.00  0.00     0.293 HD
ENDBRANCH  15  19
BRANCH  16  21
ATOM     21  O   UNL     1      38.731   9.901  21.593  1.00  0.00    -0.504 OA
ATOM     22  H   UNL     1      37.944  10.522  21.502  1.00  0.00     0.293 HD
ENDBRANCH  16  21
ENDBRANCH   9  11
ENDBRANCH   8   9
ENDBRANCH   7   8
ENDBRANCH   1   7
BRANCH   2  23
ATOM     23  O   UNL     1      35.880   6.177  17.303  1.00  0.00    -0.452 OA
BRANCH  23  24
ATOM     24  C   UNL     1      36.003   7.451  16.731  1.00  0.00     0.338 C 
ATOM     25  O   UNL     1      36.844   7.659  15.813  1.00  0.00    -0.246 OA
BRANCH  24  26
ATOM     26  C   UNL     1      35.139   8.550  17.208  1.00  0.00     0.067 A 
ATOM     27  C   UNL     1      33.750   8.515  16.992  1.00  0.00     0.066 A 
ATOM     28  C   UNL     1      35.697   9.639  17.892  1.00  0.00     0.066 A 
ATOM     29  C   UNL     1      32.932   9.550  17.451  1.00  0.00     0.162 A 
ATOM     30  C   UNL     1      34.888  10.683  18.350  1.00  0.00     0.162 A 
ATOM     31  C   UNL     1      33.500  10.643  18.129  1.00  0.00     0.200 A 
BRANCH  29  32
ATOM     32  O   UNL     1      31.554   9.468  17.244  1.00  0.00    -0.504 OA
ATOM     33  H   UNL     1      30.977   8.800  17.741  1.00  0.00     0.293 HD
ENDBRANCH  29  32
BRANCH  30  34
ATOM     34  O   UNL     1      35.457  11.767  19.020  1.00  0.00    -0.504 OA
ATOM     35  H   UNL     1      35.720  12.613  18.523  1.00  0.00     0.293 HD
ENDBRANCH  30  34
BRANCH  31  36
ATOM     36  O   UNL     1      32.677  11.675  18.585  1.00  0.00    -0.502 OA
ATOM     37  H   UNL     1      32.520  11.845  19.574  1.00  0.00     0.293 HD
ENDBRANCH  31  36
ENDBRANCH  24  26
ENDBRANCH  23  24
ENDBRANCH   2  23
BRANCH   3  38
ATOM     38  O   UNL     1      33.960   6.111  19.343  1.00  0.00    -0.450 OA
BRANCH  38  39
ATOM     39  C   UNL     1      33.130   6.414  20.428  1.00  0.00     0.338 C 
ATOM     40  O   UNL     1      32.329   5.548  20.873  1.00  0.00    -0.246 OA
BRANCH  39  41
ATOM     41  C   UNL     1      33.192   7.761  21.041  1.00  0.00     0.067 A 
ATOM     42  C   UNL     1      32.035   8.396  21.525  1.00  0.00     0.066 A 
ATOM     43  C   UNL     1      34.423   8.429  21.139  1.00  0.00     0.066 A 
ATOM     44  C   UNL     1      32.098   9.688  22.067  1.00  0.00     0.162 A 
ATOM     45  C   UNL     1      34.497   9.717  21.676  1.00  0.00     0.162 A 
ATOM     46  C   UNL     1      33.334  10.355  22.137  1.00  0.00     0.200 A 
BRANCH  44  47
ATOM     47  O   UNL     1      30.939  10.314  22.534  1.00  0.00    -0.504 OA
ATOM     48  H   UNL     1      30.851  11.324  22.563  1.00  0.00     0.293 HD
ENDBRANCH  44  47
BRANCH  45  49
ATOM     49  O   UNL     1      35.738  10.351  21.748  1.00  0.00    -0.504 OA
ATOM     50  H   UNL     1      35.892  11.162  22.332  1.00  0.00     0.293 HD
ENDBRANCH  45  49
BRANCH  46  51
ATOM     51  O   UNL     1      33.420  11.643  22.663  1.00  0.00    -0.502 OA
ATOM     52  H   UNL     1      32.659  12.074  23.177  1.00  0.00     0.293 HD
ENDBRANCH  46  51
ENDBRANCH  39  41
ENDBRANCH  38  39
ENDBRANCH   3  38
BRANCH   5  53
ATOM     53  O   UNL     1      36.463   2.632  20.019  1.00  0.00    -0.428 OA
BRANCH  53  54
ATOM     54  C   UNL     1      37.229   1.486  20.267  1.00  0.00     0.340 C 
ATOM     55  O   UNL     1      38.422   1.594  20.660  1.00  0.00    -0.246 OA
BRANCH  54  56
ATOM     56  C   UNL     1      36.636   0.150  20.035  1.00  0.00     0.067 A 
ATOM     57  C   UNL     1      35.882  -0.471  21.045  1.00  0.00     0.066 A 
ATOM     58  C   UNL     1      36.807  -0.504  18.804  1.00  0.00     0.066 A 
ATOM     59  C   UNL     1      35.314  -1.736  20.832  1.00  0.00     0.162 A 
ATOM     60  C   UNL     1      36.236  -1.764  18.583  1.00  0.00     0.162 A 
ATOM     61  C   UNL     1      35.494  -2.387  19.600  1.00  0.00     0.200 A 
BRANCH  59  62
ATOM     62  O   UNL     1      34.572  -2.348  21.839  1.00  0.00    -0.504 OA
ATOM     63  H   UNL     1      34.365  -1.874  22.711  1.00  0.00     0.293 HD
ENDBRANCH  59  62
BRANCH  60  64
ATOM     64  O   UNL     1      36.424  -2.396  17.354  1.00  0.00    -0.504 OA
ATOM     65  H   UNL     1      36.176  -3.368  17.209  1.00  0.00     0.293 HD
ENDBRANCH  60  64
BRANCH  61  66
ATOM     66  O   UNL     1      34.941  -3.649  19.369  1.00  0.00    -0.502 OA
ATOM     67  H   UNL     1      34.750  -4.300  20.130  1.00  0.00     0.293 HD
ENDBRANCH  61  66
ENDBRANCH  54  56
ENDBRANCH  53  54
ENDBRANCH   5  53
BRANCH   4  68
ATOM     68  O   UNL     1      33.760   3.232  19.658  1.00  0.00    -0.448 OA
BRANCH  68  69
ATOM     69  C   UNL     1      32.619   2.587  19.159  1.00  0.00     0.339 C 
ATOM     70  O   UNL     1      31.870   3.176  18.334  1.00  0.00    -0.246 OA
BRANCH  69  71
ATOM     71  C   UNL     1      32.314   1.199  19.568  1.00  0.00     0.067 A 
ATOM     72  C   UNL     1      32.459   0.137  18.658  1.00  0.00     0.066 A 
ATOM     73  C   UNL     1      31.879   0.924  20.875  1.00  0.00     0.066 A 
ATOM     74  C   UNL     1      32.206  -1.183  19.058  1.00  0.00     0.162 A 
ATOM     75  C   UNL     1      31.608  -0.389  21.283  1.00  0.00     0.162 A 
ATOM     76  C   UNL     1      31.792  -1.457  20.369  1.00  0.00     0.200 A 
BRANCH  74  77
ATOM     77  O   UNL     1      32.378  -2.236  18.159  1.00  0.00    -0.504 OA
ATOM     78  H   UNL     1      33.248  -2.742  18.100  1.00  0.00     0.293 HD
ENDBRANCH  74  77
BRANCH  75  79
ATOM     79  O   UNL     1      31.150  -0.578  22.591  1.00  0.00    -0.504 OA
ATOM     80  H   UNL     1      31.519  -1.270  23.223  1.00  0.00     0.293 HD
ENDBRANCH  75  79
BRANCH  76  81
ATOM     81  O   UNL     1      31.586  -2.790  20.730  1.00  0.00    -0.502 OA
ATOM     82  H   UNL     1      30.795  -3.331  20.426  1.00  0.00     0.293 HD
ENDBRANCH  76  81
ENDBRANCH  69  71
ENDBRANCH  68  69
ENDBRANCH   4  68
TORSDOF 31
ENDMDL
MODEL 2
REMARK VINA RESULT:    -3.960      4.885     11.810
REMARK INTER + INTRA:         -16.576
REMARK INTER:                  -8.869
REMARK INTRA:                  -7.708
REMARK UNBOUND:                -7.176
REMARK SMILES O=C(OC[C@@H]1O[C@@H](OC(=O)c2cc(O)c(O)c(O)c2)[C@@H](OC(=O)c2cc(O)c(O)c(O)c2)[C@H](OC(=O)c2cc(O)c(O)c(O)c2)[C@@H]1OC(=O)c1cc(O)c(O)c(O)c1)c1cc(O)c(O)c(O)c1
REMARK SMILES IDX 5 1 46 2 33 3 20 4 7 5 6 6 4 7 3 8 2 9 1 10 59 11 60 12
REMARK SMILES IDX 61 13 67 14 63 15 65 16 62 17 64 19 66 21 47 23 48 24 49 25
REMARK SMILES IDX 50 26 58 27 51 28 56 29 52 30 54 31 57 32 53 34 55 36 34 38
REMARK SMILES IDX 35 39 36 40 37 41 45 42 38 43 43 44 39 45 41 46 44 47 40 49
REMARK SMILES IDX 42 51 8 53 9 54 10 55 11 56 19 57 12 58 17 59 13 60 15 61
REMARK SMILES IDX 18 62 14 64 16 66 21 68 22 69 23 70 24 71 32 72 25 73 30 74
REMARK SMILES IDX 26 75 28 76 31 77 27 79 29 81
REMARK H PARENT 62 18 64 20 66 22 57 33 53 35 55 37 44 48 40 50 42 52 18 63
REMARK H PARENT 14 65 16 67 31 78 27 80 29 82
REMARK Flexibility Score: inf
ROOT
ATOM      1  C   UNL     1      33.912  -5.206  18.312  1.00  0.00     0.205 C 
ATOM      2  C   UNL     1      35.099  -5.046  19.287  1.00  0.00     0.254 C 
ATOM      3  C   UNL     1      35.363  -3.544  19.519  1.00  0.00     0.267 C 
ATOM      4  C   UNL     1      35.519  -2.820  18.170  1.00  0.00     0.290 C 
ATOM      5  C   UNL     1      34.336  -3.159  17.246  1.00  0.00     0.357 C 
ATOM      6  O   UNL     1      34.194  -4.561  17.079  1.00  0.00    -0.329 OA
ENDROOT
BRANCH   1   7
ATOM      7  C   UNL     1      33.611  -6.691  18.047  1.00  0.00     0.269 C 
BRANCH   7   8
ATOM      8  O   UNL     1      33.180  -7.338  19.244  1.00  0.00    -0.459 OA
BRANCH   8   9
ATOM      9  C   UNL     1      31.967  -7.070  19.889  1.00  0.00     0.338 C 
ATOM     10  O   UNL     1      30.876  -7.408  19.355  1.00  0.00    -0.246 OA
BRANCH   9  11
ATOM     11  C   UNL     1      31.974  -6.419  21.217  1.00  0.00     0.067 A 
ATOM     12  C   UNL     1      32.219  -5.043  21.326  1.00  0.00     0.066 A 
ATOM     13  C   UNL     1      32.245  -4.419  22.575  1.00  0.00     0.162 A 
ATOM     14  C   UNL     1      31.744  -7.165  22.382  1.00  0.00     0.066 A 
ATOM     15  C   UNL     1      32.025  -5.169  23.744  1.00  0.00     0.200 A 
ATOM     16  C   UNL     1      31.763  -6.558  23.642  1.00  0.00     0.162 A 
BRANCH  13  17
ATOM     17  O   UNL     1      32.509  -3.049  22.637  1.00  0.00    -0.504 OA
ATOM     18  H   UNL     1      31.867  -2.355  22.273  1.00  0.00     0.293 HD
ENDBRANCH  13  17
BRANCH  15  19
ATOM     19  O   UNL     1      32.080  -4.510  24.976  1.00  0.00    -0.502 OA
ATOM     20  H   UNL     1      32.890  -4.016  25.317  1.00  0.00     0.293 HD
ENDBRANCH  15  19
BRANCH  16  21
ATOM     21  O   UNL     1      31.512  -7.364  24.756  1.00  0.00    -0.504 OA
ATOM     22  H   UNL     1      31.191  -7.019  25.646  1.00  0.00     0.293 HD
ENDBRANCH  16  21
ENDBRANCH   9  11
ENDBRANCH   8   9
ENDBRANCH   7   8
ENDBRANCH   1   7
BRANCH   2  23
ATOM     23  O   UNL     1      36.260  -5.661  18.730  1.00  0.00    -0.452 OA
BRANCH  23  24
ATOM     24  C   UNL     1      36.981  -6.687  19.357  1.00  0.00     0.338 C 
ATOM     25  O   UNL     1      36.629  -7.890  19.217  1.00  0.00    -0.246 OA
BRANCH  24  26
ATOM     26  C   UNL     1      38.159  -6.350  20.181  1.00  0.00     0.067 A 
ATOM     27  C   UNL     1      38.150  -6.570  21.570  1.00  0.00     0.066 A 
ATOM     28  C   UNL     1      39.307  -5.813  19.581  1.00  0.00     0.066 A 
ATOM     29  C   UNL     1      39.269  -6.260  22.347  1.00  0.00     0.162 A 
ATOM     30  C   UNL     1      40.429  -5.493  20.351  1.00  0.00     0.162 A 
ATOM     31  C   UNL     1      40.413  -5.714  21.740  1.00  0.00     0.200 A 
BRANCH  29  32
ATOM     32  O   UNL     1      39.235  -6.519  23.718  1.00  0.00    -0.504 OA
ATOM     33  H   UNL     1      40.002  -6.977  24.195  1.00  0.00     0.293 HD
ENDBRANCH  29  32
BRANCH  30  34
ATOM     34  O   UNL     1      41.562  -4.948  19.744  1.00  0.00    -0.504 OA
ATOM     35  H   UNL     1      41.483  -4.332  18.942  1.00  0.00     0.293 HD
ENDBRANCH  30  34
BRANCH  31  36
ATOM     36  O   UNL     1      41.527  -5.405  22.523  1.00  0.00    -0.502 OA
ATOM     37  H   UNL     1      41.506  -4.677  23.230  1.00  0.00     0.293 HD
ENDBRANCH  31  36
ENDBRANCH  24  26
ENDBRANCH  23  24
ENDBRANCH   2  23
BRANCH   3  38
ATOM     38  O   UNL     1      36.549  -3.351  20.291  1.00  0.00    -0.450 OA
BRANCH  38  39
ATOM     39  C   UNL     1      36.569  -2.882  21.608  1.00  0.00     0.338 C 
ATOM     40  O   UNL     1      35.539  -2.975  22.330  1.00  0.00    -0.246 OA
BRANCH  39  41
ATOM     41  C   UNL     1      37.805  -2.266  22.145  1.00  0.00     0.067 A 
ATOM     42  C   UNL     1      39.067  -2.578  21.609  1.00  0.00     0.066 A 
ATOM     43  C   UNL     1      37.728  -1.360  23.214  1.00  0.00     0.066 A 
ATOM     44  C   UNL     1      40.234  -2.022  22.152  1.00  0.00     0.162 A 
ATOM     45  C   UNL     1      38.885  -0.801  23.763  1.00  0.00     0.162 A 
ATOM     46  C   UNL     1      40.144  -1.134  23.238  1.00  0.00     0.200 A 
BRANCH  44  47
ATOM     47  O   UNL     1      41.484  -2.348  21.618  1.00  0.00    -0.504 OA
ATOM     48  H   UNL     1      41.582  -2.763  20.697  1.00  0.00     0.293 HD
ENDBRANCH  44  47
BRANCH  45  49
ATOM     49  O   UNL     1      38.767   0.090  24.831  1.00  0.00    -0.504 OA
ATOM     50  H   UNL     1      38.472   1.048  24.699  1.00  0.00     0.293 HD
ENDBRANCH  45  49
BRANCH  46  51
ATOM     51  O   UNL     1      41.292  -0.576  23.799  1.00  0.00    -0.502 OA
ATOM     52  H   UNL     1      42.221  -0.759  23.437  1.00  0.00     0.293 HD
ENDBRANCH  46  51
ENDBRANCH  39  41
ENDBRANCH  38  39
ENDBRANCH   3  38
BRANCH   5  53
ATOM     53  O   UNL     1      33.124  -2.584  17.740  1.00  0.00    -0.428 OA
BRANCH  53  54
ATOM     54  C   UNL     1      32.705  -1.284  17.430  1.00  0.00     0.340 C 
ATOM     55  O   UNL     1      32.504  -0.952  16.230  1.00  0.00    -0.246 OA
BRANCH  54  56
ATOM     56  C   UNL     1      32.529  -0.297  18.519  1.00  0.00     0.067 A 
ATOM     57  C   UNL     1      32.165  -0.725  19.806  1.00  0.00     0.066 A 
ATOM     58  C   UNL     1      32.736   1.072  18.282  1.00  0.00     0.066 A 
ATOM     59  C   UNL     1      31.999   0.203  20.844  1.00  0.00     0.162 A 
ATOM     60  C   UNL     1      32.579   2.003  19.317  1.00  0.00     0.162 A 
ATOM     61  C   UNL     1      32.203   1.572  20.599  1.00  0.00     0.200 A 
BRANCH  59  62
ATOM     62  O   UNL     1      31.632  -0.228  22.116  1.00  0.00    -0.504 OA
ATOM     63  H   UNL     1      32.321  -0.387  22.843  1.00  0.00     0.293 HD
ENDBRANCH  59  62
BRANCH  60  64
ATOM     64  O   UNL     1      32.787   3.358  19.057  1.00  0.00    -0.504 OA
ATOM     65  H   UNL     1      33.340   3.943  19.673  1.00  0.00     0.293 HD
ENDBRANCH  60  64
BRANCH  61  66
ATOM     66  O   UNL     1      32.038   2.514  21.618  1.00  0.00    -0.502 OA
ATOM     67  H   UNL     1      32.074   3.516  21.435  1.00  0.00     0.293 HD
ENDBRANCH  61  66
ENDBRANCH  54  56
ENDBRANCH  53  54
ENDBRANCH   5  53
BRANCH   4  68
ATOM     68  O   UNL     1      35.575  -1.404  18.370  1.00  0.00    -0.448 OA
BRANCH  68  69
ATOM     69  C   UNL     1      36.732  -0.637  18.163  1.00  0.00     0.339 C 
ATOM     70  O   UNL     1      37.445  -0.833  17.143  1.00  0.00    -0.246 OA
BRANCH  69  71
ATOM     71  C   UNL     1      37.094   0.428  19.121  1.00  0.00     0.067 A 
ATOM     72  C   UNL     1      38.381   0.475  19.687  1.00  0.00     0.066 A 
ATOM     73  C   UNL     1      36.157   1.413  19.476  1.00  0.00     0.066 A 
ATOM     74  C   UNL     1      38.736   1.507  20.567  1.00  0.00     0.162 A 
ATOM     75  C   UNL     1      36.493   2.441  20.366  1.00  0.00     0.162 A 
ATOM     76  C   UNL     1      37.804   2.500  20.903  1.00  0.00     0.200 A 
BRANCH  74  77
ATOM     77  O   UNL     1      40.021   1.563  21.105  1.00  0.00    -0.504 OA
ATOM     78  H   UNL     1      40.200   1.323  22.068  1.00  0.00     0.293 HD
ENDBRANCH  74  77
BRANCH  75  79
ATOM     79  O   UNL     1      35.497   3.366  20.692  1.00  0.00    -0.504 OA
ATOM     80  H   UNL     1      34.514   3.218  20.531  1.00  0.00     0.293 HD
ENDBRANCH  75  79
BRANCH  76  81
ATOM     81  O   UNL     1      38.215   3.527  21.755  1.00  0.00    -0.502 OA
ATOM     82  H   UNL     1      39.139   3.587  22.147  1.00  0.00     0.293 HD
ENDBRANCH  76  81
ENDBRANCH  69  71
ENDBRANCH  68  69
ENDBRANCH   4  68
TORSDOF 31
ENDMDL
MODEL 3
REMARK VINA RESULT:    -3.920      1.560     10.007
REMARK INTER + INTRA:         -16.482
REMARK INTER:                  -9.623
REMARK INTRA:                  -6.860
REMARK UNBOUND:                -7.176
REMARK SMILES O=C(OC[C@@H]1O[C@@H](OC(=O)c2cc(O)c(O)c(O)c2)[C@@H](OC(=O)c2cc(O)c(O)c(O)c2)[C@H](OC(=O)c2cc(O)c(O)c(O)c2)[C@@H]1OC(=O)c1cc(O)c(O)c(O)c1)c1cc(O)c(O)c(O)c1
REMARK SMILES IDX 5 1 46 2 33 3 20 4 7 5 6 6 4 7 3 8 2 9 1 10 59 11 60 12
REMARK SMILES IDX 61 13 67 14 63 15 65 16 62 17 64 19 66 21 47 23 48 24 49 25
REMARK SMILES IDX 50 26 58 27 51 28 56 29 52 30 54 31 57 32 53 34 55 36 34 38
REMARK SMILES IDX 35 39 36 40 37 41 45 42 38 43 43 44 39 45 41 46 44 47 40 49
REMARK SMILES IDX 42 51 8 53 9 54 10 55 11 56 19 57 12 58 17 59 13 60 15 61
REMARK SMILES IDX 18 62 14 64 16 66 21 68 22 69 23 70 24 71 32 72 25 73 30 74
REMARK SMILES IDX 26 75 28 76 31 77 27 79 29 81
REMARK H PARENT 62 18 64 20 66 22 57 33 53 35 55 37 44 48 40 50 42 52 18 63
REMARK H PARENT 14 65 16 67 31 78 27 80 29 82
REMARK Flexibility Score: inf
ROOT
ATOM      1  C   UNL     1      33.434   3.278  20.665  1.00  0.00     0.205 C 
ATOM      2  C   UNL     1      34.894   3.081  20.202  1.00  0.00     0.254 C 
ATOM      3  C   UNL     1      35.512   4.456  19.877  1.00  0.00     0.267 C 
ATOM      4  C   UNL     1      34.609   5.222  18.894  1.00  0.00     0.290 C 
ATOM      5  C   UNL     1      33.160   5.242  19.411  1.00  0.00     0.357 C 
ATOM      6  O   UNL     1      32.678   3.931  19.656  1.00  0.00    -0.329 OA
ENDROOT
BRANCH   1   7
ATOM      7  C   UNL     1      32.773   1.931  21.001  1.00  0.00     0.269 C 
BRANCH   7   8
ATOM      8  O   UNL     1      31.731   1.636  20.072  1.00  0.00    -0.459 OA
BRANCH   8   9
ATOM      9  C   UNL     1      31.824   0.662  19.071  1.00  0.00     0.338 C 
ATOM     10  O   UNL     1      31.512   0.941  17.882  1.00  0.00    -0.246 OA
BRANCH   9  11
ATOM     11  C   UNL     1      32.322  -0.689  19.411  1.00  0.00     0.067 A 
ATOM     12  C   UNL     1      33.032  -1.437  18.462  1.00  0.00     0.066 A 
ATOM     13  C   UNL     1      33.494  -2.720  18.764  1.00  0.00     0.162 A 
ATOM     14  C   UNL     1      32.088  -1.242  20.678  1.00  0.00     0.066 A 
ATOM     15  C   UNL     1      33.249  -3.279  20.031  1.00  0.00     0.200 A 
ATOM     16  C   UNL     1      32.544  -2.524  21.001  1.00  0.00     0.162 A 
BRANCH  13  17
ATOM     17  O   UNL     1      34.182  -3.436  17.782  1.00  0.00    -0.504 OA
ATOM     18  H   UNL     1      33.976  -4.406  17.573  1.00  0.00     0.293 HD
ENDBRANCH  13  17
BRANCH  15  19
ATOM     19  O   UNL     1      33.710  -4.574  20.287  1.00  0.00    -0.502 OA
ATOM     20  H   UNL     1      33.768  -4.982  21.207  1.00  0.00     0.293 HD
ENDBRANCH  15  19
BRANCH  16  21
ATOM     21  O   UNL     1      32.283  -3.002  22.289  1.00  0.00    -0.504 OA
ATOM     22  H   UNL     1      32.073  -2.417  23.080  1.00  0.00     0.293 HD
ENDBRANCH  16  21
ENDBRANCH   9  11
ENDBRANCH   8   9
ENDBRANCH   7   8
ENDBRANCH   1   7
BRANCH   2  23
ATOM     23  O   UNL     1      34.917   2.253  19.039  1.00  0.00    -0.452 OA
BRANCH  23  24
ATOM     24  C   UNL     1      35.826   1.204  18.842  1.00  0.00     0.338 C 
ATOM     25  O   UNL     1      36.110   0.819  17.674  1.00  0.00    -0.246 OA
BRANCH  24  26
ATOM     26  C   UNL     1      36.453   0.554  20.010  1.00  0.00     0.067 A 
ATOM     27  C   UNL     1      37.688   1.007  20.506  1.00  0.00     0.066 A 
ATOM     28  C   UNL     1      35.813  -0.521  20.644  1.00  0.00     0.066 A 
ATOM     29  C   UNL     1      38.275   0.397  21.618  1.00  0.00     0.162 A 
ATOM     30  C   UNL     1      36.397  -1.142  21.752  1.00  0.00     0.162 A 
ATOM     31  C   UNL     1      37.633  -0.686  22.243  1.00  0.00     0.200 A 
BRANCH  29  32
ATOM     32  O   UNL     1      39.488   0.892  22.100  1.00  0.00    -0.504 OA
ATOM     33  H   UNL     1      39.815   0.685  23.036  1.00  0.00     0.293 HD
ENDBRANCH  29  32
BRANCH  30  34
ATOM     34  O   UNL     1      35.756  -2.219  22.368  1.00  0.00    -0.504 OA
ATOM     35  H   UNL     1      34.820  -2.501  22.094  1.00  0.00     0.293 HD
ENDBRANCH  30  34
BRANCH  31  36
ATOM     36  O   UNL     1      38.226  -1.291  23.352  1.00  0.00    -0.502 OA
ATOM     37  H   UNL     1      39.000  -0.864  23.853  1.00  0.00     0.293 HD
ENDBRANCH  31  36
ENDBRANCH  24  26
ENDBRANCH  23  24
ENDBRANCH   2  23
BRANCH   3  38
ATOM     38  O   UNL     1      36.808   4.305  19.297  1.00  0.00    -0.450 OA
BRANCH  38  39
ATOM     39  C   UNL     1      38.003   4.688  19.916  1.00  0.00     0.338 C 
ATOM     40  O   UNL     1      39.076   4.082  19.650  1.00  0.00    -0.246 OA
BRANCH  39  41
ATOM     41  C   UNL     1      37.995   5.804  20.890  1.00  0.00     0.067 A 
ATOM     42  C   UNL     1      37.830   5.569  22.266  1.00  0.00     0.066 A 
ATOM     43  C   UNL     1      38.148   7.126  20.441  1.00  0.00     0.066 A 
ATOM     44  C   UNL     1      37.784   6.635  23.176  1.00  0.00     0.162 A 
ATOM     45  C   UNL     1      38.101   8.195  21.339  1.00  0.00     0.162 A 
ATOM     46  C   UNL     1      37.913   7.955  22.710  1.00  0.00     0.200 A 
BRANCH  44  47
ATOM     47  O   UNL     1      37.607   6.390  24.540  1.00  0.00    -0.504 OA
ATOM     48  H   UNL     1      36.695   6.446  24.981  1.00  0.00     0.293 HD
ENDBRANCH  44  47
BRANCH  45  49
ATOM     49  O   UNL     1      38.248   9.495  20.853  1.00  0.00    -0.504 OA
ATOM     50  H   UNL     1      38.576  10.252  21.439  1.00  0.00     0.293 HD
ENDBRANCH  45  49
BRANCH  46  51
ATOM     51  O   UNL     1      37.861   9.032  23.595  1.00  0.00    -0.502 OA
ATOM     52  H   UNL     1      37.745   8.910  24.595  1.00  0.00     0.293 HD
ENDBRANCH  46  51
ENDBRANCH  39  41
ENDBRANCH  38  39
ENDBRANCH   3  38
BRANCH   5  53
ATOM     53  O   UNL     1      33.050   6.048  20.587  1.00  0.00    -0.428 OA
BRANCH  53  54
ATOM     54  C   UNL     1      32.157   7.120  20.707  1.00  0.00     0.340 C 
ATOM     55  O   UNL     1      30.992   7.030  20.232  1.00  0.00    -0.246 OA
BRANCH  54  56
ATOM     56  C   UNL     1      32.601   8.367  21.368  1.00  0.00     0.067 A 
ATOM     57  C   UNL     1      33.925   8.811  21.218  1.00  0.00     0.066 A 
ATOM     58  C   UNL     1      31.704   9.125  22.139  1.00  0.00     0.066 A 
ATOM     59  C   UNL     1      34.353   9.993  21.839  1.00  0.00     0.162 A 
ATOM     60  C   UNL     1      32.125  10.311  22.756  1.00  0.00     0.162 A 
ATOM     61  C   UNL     1      33.452  10.745  22.614  1.00  0.00     0.200 A 
BRANCH  59  62
ATOM     62  O   UNL     1      35.669  10.425  21.691  1.00  0.00    -0.504 OA
ATOM     63  H   UNL     1      36.021  11.238  22.183  1.00  0.00     0.293 HD
ENDBRANCH  59  62
BRANCH  60  64
ATOM     64  O   UNL     1      31.217  11.045  23.520  1.00  0.00    -0.504 OA
ATOM     65  H   UNL     1      30.455  11.562  23.096  1.00  0.00     0.293 HD
ENDBRANCH  60  64
BRANCH  61  66
ATOM     66  O   UNL     1      33.860  11.923  23.244  1.00  0.00    -0.502 OA
ATOM     67  H   UNL     1      33.363  12.803  23.111  1.00  0.00     0.293 HD
ENDBRANCH  61  66
ENDBRANCH  54  56
ENDBRANCH  53  54
ENDBRANCH   5  53
BRANCH   4  68
ATOM     68  O   UNL     1      35.076   6.566  18.736  1.00  0.00    -0.448 OA
BRANCH  68  69
ATOM     69  C   UNL     1      35.692   7.040  17.568  1.00  0.00     0.339 C 
ATOM     70  O   UNL     1      35.658   6.352  16.512  1.00  0.00    -0.246 OA
BRANCH  69  71
ATOM     71  C   UNL     1      36.349   8.364  17.563  1.00  0.00     0.067 A 
ATOM     72  C   UNL     1      35.782   9.446  18.259  1.00  0.00     0.066 A 
ATOM     73  C   UNL     1      37.551   8.557  16.864  1.00  0.00     0.066 A 
ATOM     74  C   UNL     1      36.424  10.692  18.285  1.00  0.00     0.162 A 
ATOM     75  C   UNL     1      38.196   9.802  16.868  1.00  0.00     0.162 A 
ATOM     76  C   UNL     1      37.636  10.876  17.603  1.00  0.00     0.200 A 
BRANCH  74  77
ATOM     77  O   UNL     1      35.872  11.755  19.000  1.00  0.00    -0.504 OA
ATOM     78  H   UNL     1      36.427  12.552  19.273  1.00  0.00     0.293 HD
ENDBRANCH  74  77
BRANCH  75  79
ATOM     79  O   UNL     1      39.374   9.922  16.124  1.00  0.00    -0.504 OA
ATOM     80  H   UNL     1      39.818   9.158  15.641  1.00  0.00     0.293 HD
ENDBRANCH  75  79
BRANCH  76  81
ATOM     81  O   UNL     1      38.255  12.125  17.686  1.00  0.00    -0.502 OA
ATOM     82  H   UNL     1      38.974  12.344  18.354  1.00  0.00     0.293 HD
ENDBRANCH  76  81
ENDBRANCH  69  71
ENDBRANCH  68  69
ENDBRANCH   4  68
TORSDOF 31
ENDMDL
MODEL 4
REMARK VINA RESULT:    -3.905      2.006      9.086
REMARK INTER + INTRA:         -16.447
REMARK INTER:                 -10.456
REMARK INTRA:                  -5.991
REMARK UNBOUND:                -7.176
REMARK SMILES O=C(OC[C@@H]1O[C@@H](OC(=O)c2cc(O)c(O)c(O)c2)[C@@H](OC(=O)c2cc(O)c(O)c(O)c2)[C@H](OC(=O)c2cc(O)c(O)c(O)c2)[C@@H]1OC(=O)c1cc(O)c(O)c(O)c1)c1cc(O)c(O)c(O)c1
REMARK SMILES IDX 5 1 46 2 33 3 20 4 7 5 6 6 4 7 3 8 2 9 1 10 59 11 60 12
REMARK SMILES IDX 61 13 67 14 63 15 65 16 62 17 64 19 66 21 47 23 48 24 49 25
REMARK SMILES IDX 50 26 58 27 51 28 56 29 52 30 54 31 57 32 53 34 55 36 34 38
REMARK SMILES IDX 35 39 36 40 37 41 45 42 38 43 43 44 39 45 41 46 44 47 40 49
REMARK SMILES IDX 42 51 8 53 9 54 10 55 11 56 19 57 12 58 17 59 13 60 15 61
REMARK SMILES IDX 18 62 14 64 16 66 21 68 22 69 23 70 24 71 32 72 25 73 30 74
REMARK SMILES IDX 26 75 28 76 31 77 27 79 29 81
REMARK H PARENT 62 18 64 20 66 22 57 33 53 35 55 37 44 48 40 50 42 52 18 63
REMARK H PARENT 14 65 16 67 31 78 27 80 29 82
REMARK Flexibility Score: inf
ROOT
ATOM      1  C   UNL     1      33.203   5.453  19.470  1.00  0.00     0.205 C 
ATOM      2  C   UNL     1      33.185   3.946  19.806  1.00  0.00     0.254 C 
ATOM      3  C   UNL     1      34.522   3.560  20.470  1.00  0.00     0.267 C 
ATOM      4  C   UNL     1      35.700   4.023  19.594  1.00  0.00     0.290 C 
ATOM      5  C   UNL     1      35.536   5.509  19.228  1.00  0.00     0.357 C 
ATOM      6  O   UNL     1      34.286   5.755  18.603  1.00  0.00    -0.329 OA
ENDROOT
BRANCH   1   7
ATOM      7  C   UNL     1      31.886   5.887  18.803  1.00  0.00     0.269 C 
BRANCH   7   8
ATOM      8  O   UNL     1      31.325   7.009  19.482  1.00  0.00    -0.459 OA
BRANCH   8   9
ATOM      9  C   UNL     1      31.385   7.200  20.867  1.00  0.00     0.338 C 
ATOM     10  O   UNL     1      30.875   6.352  21.648  1.00  0.00    -0.246 OA
BRANCH   9  11
ATOM     11  C   UNL     1      32.081   8.387  21.411  1.00  0.00     0.067 A 
ATOM     12  C   UNL     1      31.533   9.092  22.492  1.00  0.00     0.066 A 
ATOM     13  C   UNL     1      32.171  10.223  23.004  1.00  0.00     0.162 A 
ATOM     14  C   UNL     1      33.291   8.826  20.853  1.00  0.00     0.066 A 
ATOM     15  C   UNL     1      33.378  10.671  22.438  1.00  0.00     0.200 A 
ATOM     16  C   UNL     1      33.947   9.956  21.354  1.00  0.00     0.162 A 
BRANCH  13  17
ATOM     17  O   UNL     1      31.580  10.904  24.070  1.00  0.00    -0.504 OA
ATOM     18  H   UNL     1      32.118  11.254  24.855  1.00  0.00     0.293 HD
ENDBRANCH  13  17
BRANCH  15  19
ATOM     19  O   UNL     1      33.975  11.819  22.966  1.00  0.00    -0.502 OA
ATOM     20  H   UNL     1      34.850  11.822  23.467  1.00  0.00     0.293 HD
ENDBRANCH  15  19
BRANCH  16  21
ATOM     21  O   UNL     1      35.155  10.325  20.755  1.00  0.00    -0.504 OA
ATOM     22  H   UNL     1      35.581   9.834  19.986  1.00  0.00     0.293 HD
ENDBRANCH  16  21
ENDBRANCH   9  11
ENDBRANCH   8   9
ENDBRANCH   7   8
ENDBRANCH   1   7
BRANCH   2  23
ATOM     23  O   UNL     1      33.004   3.193  18.607  1.00  0.00    -0.452 OA
BRANCH  23  24
ATOM     24  C   UNL     1      31.970   2.267  18.411  1.00  0.00     0.338 C 
ATOM     25  O   UNL     1      31.032   2.521  17.605  1.00  0.00    -0.246 OA
BRANCH  24  26
ATOM     26  C   UNL     1      31.986   0.990  19.151  1.00  0.00     0.067 A 
ATOM     27  C   UNL     1      32.439  -0.190  18.535  1.00  0.00     0.066 A 
ATOM     28  C   UNL     1      31.556   0.944  20.485  1.00  0.00     0.066 A 
ATOM     29  C   UNL     1      32.463  -1.397  19.240  1.00  0.00     0.162 A 
ATOM     30  C   UNL     1      31.570  -0.259  21.196  1.00  0.00     0.162 A 
ATOM     31  C   UNL     1      32.023  -1.437  20.575  1.00  0.00     0.200 A 
BRANCH  29  32
ATOM     32  O   UNL     1      32.946  -2.543  18.606  1.00  0.00    -0.504 OA
ATOM     33  H   UNL     1      33.457  -2.495  17.733  1.00  0.00     0.293 HD
ENDBRANCH  29  32
BRANCH  30  34
ATOM     34  O   UNL     1      31.129  -0.295  22.520  1.00  0.00    -0.504 OA
ATOM     35  H   UNL     1      30.774  -1.151  22.933  1.00  0.00     0.293 HD
ENDBRANCH  30  34
BRANCH  31  36
ATOM     36  O   UNL     1      32.048  -2.646  21.272  1.00  0.00    -0.502 OA
ATOM     37  H   UNL     1      32.608  -2.775  22.110  1.00  0.00     0.293 HD
ENDBRANCH  31  36
ENDBRANCH  24  26
ENDBRANCH  23  24
ENDBRANCH   2  23
BRANCH   3  38
ATOM     38  O   UNL     1      34.607   2.146  20.653  1.00  0.00    -0.450 OA
BRANCH  38  39
ATOM     39  C   UNL     1      35.474   1.307  19.946  1.00  0.00     0.338 C 
ATOM     40  O   UNL     1      35.569   1.406  18.692  1.00  0.00    -0.246 OA
BRANCH  39  41
ATOM     41  C   UNL     1      36.272   0.296  20.679  1.00  0.00     0.067 A 
ATOM     42  C   UNL     1      35.663  -0.825  21.269  1.00  0.00     0.066 A 
ATOM     43  C   UNL     1      37.661   0.455  20.800  1.00  0.00     0.066 A 
ATOM     44  C   UNL     1      36.421  -1.754  21.995  1.00  0.00     0.162 A 
ATOM     45  C   UNL     1      38.426  -0.464  21.524  1.00  0.00     0.162 A 
ATOM     46  C   UNL     1      37.808  -1.570  22.129  1.00  0.00     0.200 A 
BRANCH  44  47
ATOM     47  O   UNL     1      35.803  -2.860  22.587  1.00  0.00    -0.504 OA
ATOM     48  H   UNL     1      35.524  -3.671  22.044  1.00  0.00     0.293 HD
ENDBRANCH  44  47
BRANCH  45  49
ATOM     49  O   UNL     1      39.803  -0.266  21.628  1.00  0.00    -0.504 OA
ATOM     50  H   UNL     1      40.242   0.001  22.499  1.00  0.00     0.293 HD
ENDBRANCH  45  49
BRANCH  46  51
ATOM     51  O   UNL     1      38.581  -2.476  22.854  1.00  0.00    -0.502 OA
ATOM     52  H   UNL     1      38.383  -3.471  22.873  1.00  0.00     0.293 HD
ENDBRANCH  46  51
ENDBRANCH  39  41
ENDBRANCH  38  39
ENDBRANCH   3  38
BRANCH   5  53
ATOM     53  O   UNL     1      35.694   6.338  20.383  1.00  0.00    -0.428 OA
BRANCH  53  54
ATOM     54  C   UNL     1      36.748   7.246  20.541  1.00  0.00     0.340 C 
ATOM     55  O   UNL     1      36.930   8.160  19.691  1.00  0.00    -0.246 OA
BRANCH  54  56
ATOM     56  C   UNL     1      37.663   7.107  21.697  1.00  0.00     0.067 A 
ATOM     57  C   UNL     1      37.382   6.173  22.708  1.00  0.00     0.066 A 
ATOM     58  C   UNL     1      38.823   7.893  21.789  1.00  0.00     0.066 A 
ATOM     59  C   UNL     1      38.244   6.032  23.805  1.00  0.00     0.162 A 
ATOM     60  C   UNL     1      39.692   7.751  22.879  1.00  0.00     0.162 A 
ATOM     61  C   UNL     1      39.401   6.825  23.894  1.00  0.00     0.200 A 
BRANCH  59  62
ATOM     62  O   UNL     1      37.957   5.108  24.807  1.00  0.00    -0.504 OA
ATOM     63  H   UNL     1      37.221   4.420  24.701  1.00  0.00     0.293 HD
ENDBRANCH  59  62
BRANCH  60  64
ATOM     64  O   UNL     1      40.836   8.545  22.951  1.00  0.00    -0.504 OA
ATOM     65  H   UNL     1      41.072   9.211  22.224  1.00  0.00     0.293 HD
ENDBRANCH  60  64
BRANCH  61  66
ATOM     66  O   UNL     1      40.271   6.704  24.981  1.00  0.00    -0.502 OA
ATOM     67  H   UNL     1      40.259   5.887  25.591  1.00  0.00     0.293 HD
ENDBRANCH  61  66
ENDBRANCH  54  56
ENDBRANCH  53  54
ENDBRANCH   5  53
BRANCH   4  68
ATOM     68  O   UNL     1      36.937   3.839  20.289  1.00  0.00    -0.448 OA
BRANCH  68  69
ATOM     69  C   UNL     1      38.187   3.805  19.652  1.00  0.00     0.339 C 
ATOM     70  O   UNL     1      38.263   3.509  18.429  1.00  0.00    -0.246 OA
BRANCH  69  71
ATOM     71  C   UNL     1      39.411   4.153  20.403  1.00  0.00     0.067 A 
ATOM     72  C   UNL     1      39.716   3.507  21.614  1.00  0.00     0.066 A 
ATOM     73  C   UNL     1      40.289   5.134  19.913  1.00  0.00     0.066 A 
ATOM     74  C   UNL     1      40.896   3.811  22.307  1.00  0.00     0.162 A 
ATOM     75  C   UNL     1      41.464   5.460  20.604  1.00  0.00     0.162 A 
ATOM     76  C   UNL     1      41.781   4.776  21.804  1.00  0.00     0.200 A 
BRANCH  74  77
ATOM     77  O   UNL     1      41.207   3.148  23.494  1.00  0.00    -0.504 OA
ATOM     78  H   UNL     1      42.159   2.920  23.736  1.00  0.00     0.293 HD
ENDBRANCH  74  77
BRANCH  75  79
ATOM     79  O   UNL     1      42.272   6.467  20.067  1.00  0.00    -0.504 OA
ATOM     80  H   UNL     1      43.240   6.342  19.818  1.00  0.00     0.293 HD
ENDBRANCH  75  79
BRANCH  76  81
ATOM     81  O   UNL     1      42.960   5.020  22.512  1.00  0.00    -0.502 OA
ATOM     82  H   UNL     1      43.109   5.839  23.076  1.00  0.00     0.293 HD
ENDBRANCH  76  81
ENDBRANCH  69  71
ENDBRANCH  68  69
ENDBRANCH   4  68
TORSDOF 31
ENDMDL
MODEL 5
REMARK VINA RESULT:    -3.898      1.908      8.748
REMARK INTER + INTRA:         -16.430
REMARK INTER:                 -10.226
REMARK INTRA:                  -6.203
REMARK UNBOUND:                -7.176
REMARK SMILES O=C(OC[C@@H]1O[C@@H](OC(=O)c2cc(O)c(O)c(O)c2)[C@@H](OC(=O)c2cc(O)c(O)c(O)c2)[C@H](OC(=O)c2cc(O)c(O)c(O)c2)[C@@H]1OC(=O)c1cc(O)c(O)c(O)c1)c1cc(O)c(O)c(O)c1
REMARK SMILES IDX 5 1 46 2 33 3 20 4 7 5 6 6 4 7 3 8 2 9 1 10 59 11 60 12
REMARK SMILES IDX 61 13 67 14 63 15 65 16 62 17 64 19 66 21 47 23 48 24 49 25
REMARK SMILES IDX 50 26 58 27 51 28 56 29 52 30 54 31 57 32 53 34 55 36 34 38
REMARK SMILES IDX 35 39 36 40 37 41 45 42 38 43 43 44 39 45 41 46 44 47 40 49
REMARK SMILES IDX 42 51 8 53 9 54 10 55 11 56 19 57 12 58 17 59 13 60 15 61
REMARK SMILES IDX 18 62 14 64 16 66 21 68 22 69 23 70 24 71 32 72 25 73 30 74
REMARK SMILES IDX 26 75 28 76 31 77 27 79 29 81
REMARK H PARENT 62 18 64 20 66 22 57 33 53 35 55 37 44 48 40 50 42 52 18 63
REMARK H PARENT 14 65 16 67 31 78 27 80 29 82
REMARK Flexibility Score: inf
ROOT
ATOM      1  C   UNL     1      35.708   3.287  19.130  1.00  0.00     0.205 C 
ATOM      2  C   UNL     1      34.386   3.840  19.705  1.00  0.00     0.254 C 
ATOM      3  C   UNL     1      34.628   5.262  20.251  1.00  0.00     0.267 C 
ATOM      4  C   UNL     1      35.819   5.259  21.226  1.00  0.00     0.290 C 
ATOM      5  C   UNL     1      37.034   4.573  20.577  1.00  0.00     0.357 C 
ATOM      6  O   UNL     1      36.714   3.264  20.132  1.00  0.00    -0.329 OA
ENDROOT
BRANCH   1   7
ATOM      7  C   UNL     1      35.518   1.866  18.573  1.00  0.00     0.269 C 
BRANCH   7   8
ATOM      8  O   UNL     1      36.773   1.198  18.458  1.00  0.00    -0.459 OA
BRANCH   8   9
ATOM      9  C   UNL     1      36.921  -0.194  18.422  1.00  0.00     0.338 C 
ATOM     10  O   UNL     1      37.418  -0.753  17.407  1.00  0.00    -0.246 OA
BRANCH   9  11
ATOM     11  C   UNL     1      36.523  -1.002  19.595  1.00  0.00     0.067 A 
ATOM     12  C   UNL     1      35.560  -2.011  19.462  1.00  0.00     0.066 A 
ATOM     13  C   UNL     1      35.163  -2.770  20.565  1.00  0.00     0.162 A 
ATOM     14  C   UNL     1      37.095  -0.767  20.854  1.00  0.00     0.066 A 
ATOM     15  C   UNL     1      35.728  -2.527  21.830  1.00  0.00     0.200 A 
ATOM     16  C   UNL     1      36.712  -1.517  21.971  1.00  0.00     0.162 A 
BRANCH  13  17
ATOM     17  O   UNL     1      34.188  -3.755  20.389  1.00  0.00    -0.504 OA
ATOM     18  H   UNL     1      33.253  -3.540  20.063  1.00  0.00     0.293 HD
ENDBRANCH  13  17
BRANCH  15  19
ATOM     19  O   UNL     1      35.288  -3.295  22.912  1.00  0.00    -0.502 OA
ATOM     20  H   UNL     1      35.791  -4.084  23.287  1.00  0.00     0.293 HD
ENDBRANCH  15  19
BRANCH  16  21
ATOM     21  O   UNL     1      37.336  -1.234  23.190  1.00  0.00    -0.504 OA
ATOM     22  H   UNL     1      38.001  -1.840  23.641  1.00  0.00     0.293 HD
ENDBRANCH  16  21
ENDBRANCH   9  11
ENDBRANCH   8   9
ENDBRANCH   7   8
ENDBRANCH   1   7
BRANCH   2  23
ATOM     23  O   UNL     1      33.932   2.989  20.758  1.00  0.00    -0.452 OA
BRANCH  23  24
ATOM     24  C   UNL     1      32.621   2.503  20.862  1.00  0.00     0.338 C 
ATOM     25  O   UNL     1      31.706   3.235  21.331  1.00  0.00    -0.246 OA
BRANCH  24  26
ATOM     26  C   UNL     1      32.317   1.129  20.416  1.00  0.00     0.067 A 
ATOM     27  C   UNL     1      32.277   0.068  21.337  1.00  0.00     0.066 A 
ATOM     28  C   UNL     1      32.054   0.870  19.063  1.00  0.00     0.066 A 
ATOM     29  C   UNL     1      31.979  -1.231  20.916  1.00  0.00     0.162 A 
ATOM     30  C   UNL     1      31.761  -0.426  18.630  1.00  0.00     0.162 A 
ATOM     31  C   UNL     1      31.725  -1.484  19.556  1.00  0.00     0.200 A 
BRANCH  29  32
ATOM     32  O   UNL     1      31.919  -2.254  21.862  1.00  0.00    -0.504 OA
ATOM     33  H   UNL     1      31.796  -2.063  22.850  1.00  0.00     0.293 HD
ENDBRANCH  29  32
BRANCH  30  34
ATOM     34  O   UNL     1      31.513  -0.674  17.279  1.00  0.00    -0.504 OA
ATOM     35  H   UNL     1      30.592  -0.525  16.878  1.00  0.00     0.293 HD
ENDBRANCH  30  34
BRANCH  31  36
ATOM     36  O   UNL     1      31.429  -2.783  19.141  1.00  0.00    -0.502 OA
ATOM     37  H   UNL     1      30.841  -2.974  18.335  1.00  0.00     0.293 HD
ENDBRANCH  31  36
ENDBRANCH  24  26
ENDBRANCH  23  24
ENDBRANCH   2  23
BRANCH   3  38
ATOM     38  O   UNL     1      33.471   5.748  20.932  1.00  0.00    -0.450 OA
BRANCH  38  39
ATOM     39  C   UNL     1      32.601   6.717  20.422  1.00  0.00     0.338 C 
ATOM     40  O   UNL     1      31.749   6.405  19.546  1.00  0.00    -0.246 OA
BRANCH  39  41
ATOM     41  C   UNL     1      32.693   8.112  20.912  1.00  0.00     0.067 A 
ATOM     42  C   UNL     1      31.821   8.595  21.904  1.00  0.00     0.066 A 
ATOM     43  C   UNL     1      33.658   8.979  20.378  1.00  0.00     0.066 A 
ATOM     44  C   UNL     1      31.890   9.928  22.332  1.00  0.00     0.162 A 
ATOM     45  C   UNL     1      33.734  10.310  20.795  1.00  0.00     0.162 A 
ATOM     46  C   UNL     1      32.846  10.792  21.771  1.00  0.00     0.200 A 
BRANCH  44  47
ATOM     47  O   UNL     1      31.011  10.400  23.311  1.00  0.00    -0.504 OA
ATOM     48  H   UNL     1      30.263  11.050  23.091  1.00  0.00     0.293 HD
ENDBRANCH  44  47
BRANCH  45  49
ATOM     49  O   UNL     1      34.702  11.144  20.234  1.00  0.00    -0.504 OA
ATOM     50  H   UNL     1      35.403  10.795  19.593  1.00  0.00     0.293 HD
ENDBRANCH  45  49
BRANCH  46  51
ATOM     51  O   UNL     1      32.926  12.125  22.174  1.00  0.00    -0.502 OA
ATOM     52  H   UNL     1      32.398  12.490  22.959  1.00  0.00     0.293 HD
ENDBRANCH  46  51
ENDBRANCH  39  41
ENDBRANCH  38  39
ENDBRANCH   3  38
BRANCH   5  53
ATOM     53  O   UNL     1      37.549   5.360  19.501  1.00  0.00    -0.428 OA
BRANCH  53  54
ATOM     54  C   UNL     1      38.841   5.209  18.983  1.00  0.00     0.340 C 
ATOM     55  O   UNL     1      39.009   4.979  17.755  1.00  0.00    -0.246 OA
BRANCH  54  56
ATOM     56  C   UNL     1      40.005   5.291  19.895  1.00  0.00     0.067 A 
ATOM     57  C   UNL     1      40.617   4.117  20.364  1.00  0.00     0.066 A 
ATOM     58  C   UNL     1      40.517   6.538  20.289  1.00  0.00     0.066 A 
ATOM     59  C   UNL     1      41.721   4.185  21.225  1.00  0.00     0.162 A 
ATOM     60  C   UNL     1      41.625   6.613  21.144  1.00  0.00     0.162 A 
ATOM     61  C   UNL     1      42.225   5.437  21.620  1.00  0.00     0.200 A 
BRANCH  59  62
ATOM     62  O   UNL     1      42.320   3.018  21.691  1.00  0.00    -0.504 OA
ATOM     63  H   UNL     1      42.100   2.112  21.293  1.00  0.00     0.293 HD
ENDBRANCH  59  62
BRANCH  60  64
ATOM     64  O   UNL     1      42.113   7.862  21.525  1.00  0.00    -0.504 OA
ATOM     65  H   UNL     1      42.576   8.008  22.414  1.00  0.00     0.293 HD
ENDBRANCH  60  64
BRANCH  61  66
ATOM     66  O   UNL     1      43.322   5.528  22.481  1.00  0.00    -0.502 OA
ATOM     67  H   UNL     1      43.295   6.093  23.329  1.00  0.00     0.293 HD
ENDBRANCH  61  66
ENDBRANCH  54  56
ENDBRANCH  53  54
ENDBRANCH   5  53
BRANCH   4  68
ATOM     68  O   UNL     1      36.168   6.599  21.588  1.00  0.00    -0.448 OA
BRANCH  68  69
ATOM     69  C   UNL     1      37.044   6.915  22.637  1.00  0.00     0.339 C 
ATOM     70  O   UNL     1      37.340   6.043  23.498  1.00  0.00    -0.246 OA
BRANCH  69  71
ATOM     71  C   UNL     1      37.653   8.260  22.713  1.00  0.00     0.067 A 
ATOM     72  C   UNL     1      36.901   9.405  22.397  1.00  0.00     0.066 A 
ATOM     73  C   UNL     1      38.993   8.411  23.107  1.00  0.00     0.066 A 
ATOM     74  C   UNL     1      37.468  10.683  22.505  1.00  0.00     0.162 A 
ATOM     75  C   UNL     1      39.577   9.681  23.204  1.00  0.00     0.162 A 
ATOM     76  C   UNL     1      38.800  10.831  22.918  1.00  0.00     0.200 A 
BRANCH  74  77
ATOM     77  O   UNL     1      36.710  11.817  22.216  1.00  0.00    -0.504 OA
ATOM     78  H   UNL     1      36.424  12.458  22.940  1.00  0.00     0.293 HD
ENDBRANCH  74  77
BRANCH  75  79
ATOM     79  O   UNL     1      40.924   9.746  23.574  1.00  0.00    -0.504 OA
ATOM     80  H   UNL     1      41.582  10.410  23.197  1.00  0.00     0.293 HD
ENDBRANCH  75  79
BRANCH  76  81
ATOM     81  O   UNL     1      39.310  12.125  23.044  1.00  0.00    -0.502 OA
ATOM     82  H   UNL     1      40.197  12.411  22.666  1.00  0.00     0.293 HD
ENDBRANCH  76  81
ENDBRANCH  69  71
ENDBRANCH  68  69
ENDBRANCH   4  68
TORSDOF 31
ENDMDL
MODEL 6
REMARK VINA RESULT:    -3.867      1.207      2.317
REMARK INTER + INTRA:         -16.356
REMARK INTER:                  -9.164
REMARK INTRA:                  -7.192
REMARK UNBOUND:                -7.176
REMARK SMILES O=C(OC[C@@H]1O[C@@H](OC(=O)c2cc(O)c(O)c(O)c2)[C@@H](OC(=O)c2cc(O)c(O)c(O)c2)[C@H](OC(=O)c2cc(O)c(O)c(O)c2)[C@@H]1OC(=O)c1cc(O)c(O)c(O)c1)c1cc(O)c(O)c(O)c1
REMARK SMILES IDX 5 1 46 2 33 3 20 4 7 5 6 6 4 7 3 8 2 9 1 10 59 11 60 12
REMARK SMILES IDX 61 13 67 14 63 15 65 16 62 17 64 19 66 21 47 23 48 24 49 25
REMARK SMILES IDX 50 26 58 27 51 28 56 29 52 30 54 31 57 32 53 34 55 36 34 38
REMARK SMILES IDX 35 39 36 40 37 41 45 42 38 43 43 44 39 45 41 46 44 47 40 49
REMARK SMILES IDX 42 51 8 53 9 54 10 55 11 56 19 57 12 58 17 59 13 60 15 61
REMARK SMILES IDX 18 62 14 64 16 66 21 68 22 69 23 70 24 71 32 72 25 73 30 74
REMARK SMILES IDX 26 75 28 76 31 77 27 79 29 81
REMARK H PARENT 62 18 64 20 66 22 57 33 53 35 55 37 44 48 40 50 42 52 18 63
REMARK H PARENT 14 65 16 67 31 78 27 80 29 82
REMARK Flexibility Score: inf
ROOT
ATOM      1  C   UNL     1      37.361   4.833  18.868  1.00  0.00     0.205 C 
ATOM      2  C   UNL     1      36.215   5.868  18.837  1.00  0.00     0.254 C 
ATOM      3  C   UNL     1      34.971   5.264  19.520  1.00  0.00     0.267 C 
ATOM      4  C   UNL     1      34.638   3.896  18.897  1.00  0.00     0.290 C 
ATOM      5  C   UNL     1      35.892   3.004  18.877  1.00  0.00     0.357 C 
ATOM      6  O   UNL     1      36.970   3.639  18.208  1.00  0.00    -0.329 OA
ENDROOT
BRANCH   1   7
ATOM      7  C   UNL     1      38.628   5.391  18.196  1.00  0.00     0.269 C 
BRANCH   7   8
ATOM      8  O   UNL     1      39.641   5.647  19.166  1.00  0.00    -0.459 OA
BRANCH   8   9
ATOM      9  C   UNL     1      39.550   6.633  20.156  1.00  0.00     0.338 C 
ATOM     10  O   UNL     1      39.389   6.308  21.363  1.00  0.00    -0.246 OA
BRANCH   9  11
ATOM     11  C   UNL     1      39.678   8.058  19.781  1.00  0.00     0.067 A 
ATOM     12  C   UNL     1      38.759   9.000  20.262  1.00  0.00     0.066 A 
ATOM     13  C   UNL     1      38.858  10.345  19.902  1.00  0.00     0.162 A 
ATOM     14  C   UNL     1      40.714   8.487  18.937  1.00  0.00     0.066 A 
ATOM     15  C   UNL     1      39.890  10.773  19.047  1.00  0.00     0.200 A 
ATOM     16  C   UNL     1      40.833   9.831  18.567  1.00  0.00     0.162 A 
BRANCH  13  17
ATOM     17  O   UNL     1      37.909  11.245  20.392  1.00  0.00    -0.504 OA
ATOM     18  H   UNL     1      37.774  11.405  21.383  1.00  0.00     0.293 HD
ENDBRANCH  13  17
BRANCH  15  19
ATOM     19  O   UNL     1      39.943  12.125  18.694  1.00  0.00    -0.502 OA
ATOM     20  H   UNL     1      39.263  12.811  18.983  1.00  0.00     0.293 HD
ENDBRANCH  15  19
BRANCH  16  21
ATOM     21  O   UNL     1      41.898  10.184  17.734  1.00  0.00    -0.504 OA
ATOM     22  H   UNL     1      41.865  10.924  17.052  1.00  0.00     0.293 HD
ENDBRANCH  16  21
ENDBRANCH   9  11
ENDBRANCH   8   9
ENDBRANCH   7   8
ENDBRANCH   1   7
BRANCH   2  23
ATOM     23  O   UNL     1      35.911   6.200  17.482  1.00  0.00    -0.452 OA
BRANCH  23  24
ATOM     24  C   UNL     1      36.084   7.477  16.931  1.00  0.00     0.338 C 
ATOM     25  O   UNL     1      36.992   7.685  16.080  1.00  0.00    -0.246 OA
BRANCH  24  26
ATOM     26  C   UNL     1      35.195   8.579  17.350  1.00  0.00     0.067 A 
ATOM     27  C   UNL     1      33.812   8.517  17.105  1.00  0.00     0.066 A 
ATOM     28  C   UNL     1      35.723   9.698  18.009  1.00  0.00     0.066 A 
ATOM     29  C   UNL     1      32.969   9.555  17.511  1.00  0.00     0.162 A 
ATOM     30  C   UNL     1      34.889  10.745  18.413  1.00  0.00     0.162 A 
ATOM     31  C   UNL     1      33.507  10.678  18.163  1.00  0.00     0.200 A 
BRANCH  29  32
ATOM     32  O   UNL     1      31.598   9.446  17.276  1.00  0.00    -0.504 OA
ATOM     33  H   UNL     1      31.186   9.697  16.385  1.00  0.00     0.293 HD
ENDBRANCH  29  32
BRANCH  30  34
ATOM     34  O   UNL     1      35.429  11.860  19.058  1.00  0.00    -0.504 OA
ATOM     35  H   UNL     1      35.541  12.744  18.573  1.00  0.00     0.293 HD
ENDBRANCH  30  34
BRANCH  31  36
ATOM     36  O   UNL     1      32.660  11.713  18.565  1.00  0.00    -0.502 OA
ATOM     37  H   UNL     1      31.724  11.824  18.186  1.00  0.00     0.293 HD
ENDBRANCH  31  36
ENDBRANCH  24  26
ENDBRANCH  23  24
ENDBRANCH   2  23
BRANCH   3  38
ATOM     38  O   UNL     1      33.843   6.128  19.373  1.00  0.00    -0.450 OA
BRANCH  38  39
ATOM     39  C   UNL     1      32.981   6.489  20.414  1.00  0.00     0.338 C 
ATOM     40  O   UNL     1      32.111   5.674  20.827  1.00  0.00    -0.246 OA
BRANCH  39  41
ATOM     41  C   UNL     1      33.093   7.836  21.021  1.00  0.00     0.067 A 
ATOM     42  C   UNL     1      34.333   8.491  21.119  1.00  0.00     0.066 A 
ATOM     43  C   UNL     1      31.946   8.476  21.517  1.00  0.00     0.066 A 
ATOM     44  C   UNL     1      34.433   9.748  21.732  1.00  0.00     0.162 A 
ATOM     45  C   UNL     1      32.036   9.728  22.132  1.00  0.00     0.162 A 
ATOM     46  C   UNL     1      33.281  10.367  22.247  1.00  0.00     0.200 A 
BRANCH  44  47
ATOM     47  O   UNL     1      35.674  10.385  21.834  1.00  0.00    -0.504 OA
ATOM     48  H   UNL     1      35.846  11.292  21.413  1.00  0.00     0.293 HD
ENDBRANCH  44  47
BRANCH  45  49
ATOM     49  O   UNL     1      30.875  10.328  22.620  1.00  0.00    -0.504 OA
ATOM     50  H   UNL     1      30.886  11.241  23.055  1.00  0.00     0.293 HD
ENDBRANCH  45  49
BRANCH  46  51
ATOM     51  O   UNL     1      33.359  11.613  22.868  1.00  0.00    -0.502 OA
ATOM     52  H   UNL     1      33.098  11.756  23.838  1.00  0.00     0.293 HD
ENDBRANCH  46  51
ENDBRANCH  39  41
ENDBRANCH  38  39
ENDBRANCH   3  38
BRANCH   5  53
ATOM     53  O   UNL     1      36.273   2.630  20.204  1.00  0.00    -0.428 OA
BRANCH  53  54
ATOM     54  C   UNL     1      36.985   1.462  20.502  1.00  0.00     0.340 C 
ATOM     55  O   UNL     1      38.128   1.533  21.030  1.00  0.00    -0.246 OA
BRANCH  54  56
ATOM     56  C   UNL     1      36.398   0.145  20.164  1.00  0.00     0.067 A 
ATOM     57  C   UNL     1      36.534  -0.375  18.867  1.00  0.00     0.066 A 
ATOM     58  C   UNL     1      35.712  -0.601  21.136  1.00  0.00     0.066 A 
ATOM     59  C   UNL     1      35.983  -1.623  18.539  1.00  0.00     0.162 A 
ATOM     60  C   UNL     1      35.166  -1.852  20.817  1.00  0.00     0.162 A 
ATOM     61  C   UNL     1      35.294  -2.363  19.516  1.00  0.00     0.200 A 
BRANCH  59  62
ATOM     62  O   UNL     1      36.118  -2.131  17.250  1.00  0.00    -0.504 OA
ATOM     63  H   UNL     1      35.597  -1.747  16.470  1.00  0.00     0.293 HD
ENDBRANCH  59  62
BRANCH  60  64
ATOM     64  O   UNL     1      34.486  -2.573  21.798  1.00  0.00    -0.504 OA
ATOM     65  H   UNL     1      33.732  -3.210  21.568  1.00  0.00     0.293 HD
ENDBRANCH  60  64
BRANCH  61  66
ATOM     66  O   UNL     1      34.734  -3.606  19.209  1.00  0.00    -0.502 OA
ATOM     67  H   UNL     1      34.311  -4.196  19.925  1.00  0.00     0.293 HD
ENDBRANCH  61  66
ENDBRANCH  54  56
ENDBRANCH  53  54
ENDBRANCH   5  53
BRANCH   4  68
ATOM     68  O   UNL     1      33.607   3.247  19.648  1.00  0.00    -0.448 OA
BRANCH  68  69
ATOM     69  C   UNL     1      32.537   2.556  19.059  1.00  0.00     0.339 C 
ATOM     70  O   UNL     1      31.861   3.100  18.144  1.00  0.00    -0.246 OA
BRANCH  69  71
ATOM     71  C   UNL     1      32.226   1.174  19.482  1.00  0.00     0.067 A 
ATOM     72  C   UNL     1      32.295   0.112  18.562  1.00  0.00     0.066 A 
ATOM     73  C   UNL     1      31.863   0.903  20.810  1.00  0.00     0.066 A 
ATOM     74  C   UNL     1      32.037  -1.203  18.972  1.00  0.00     0.162 A 
ATOM     75  C   UNL     1      31.586  -0.405  21.230  1.00  0.00     0.162 A 
ATOM     76  C   UNL     1      31.693  -1.473  20.305  1.00  0.00     0.200 A 
BRANCH  74  77
ATOM     77  O   UNL     1      32.132  -2.256  18.062  1.00  0.00    -0.504 OA
ATOM     78  H   UNL     1      32.986  -2.781  17.951  1.00  0.00     0.293 HD
ENDBRANCH  74  77
BRANCH  75  79
ATOM     79  O   UNL     1      31.201  -0.589  22.562  1.00  0.00    -0.504 OA
ATOM     80  H   UNL     1      30.522  -1.268  22.865  1.00  0.00     0.293 HD
ENDBRANCH  75  79
BRANCH  76  81
ATOM     81  O   UNL     1      31.479  -2.803  20.673  1.00  0.00    -0.502 OA
ATOM     82  H   UNL     1      32.182  -3.518  20.603  1.00  0.00     0.293 HD
ENDBRANCH  76  81
ENDBRANCH  69  71
ENDBRANCH  68  69
ENDBRANCH   4  68
TORSDOF 31
ENDMDL
MODEL 7
REMARK VINA RESULT:    -3.861      4.411      9.454
REMARK INTER + INTRA:         -16.342
REMARK INTER:                  -8.231
REMARK INTRA:                  -8.111
REMARK UNBOUND:                -7.176
REMARK SMILES O=C(OC[C@@H]1O[C@@H](OC(=O)c2cc(O)c(O)c(O)c2)[C@@H](OC(=O)c2cc(O)c(O)c(O)c2)[C@H](OC(=O)c2cc(O)c(O)c(O)c2)[C@@H]1OC(=O)c1cc(O)c(O)c(O)c1)c1cc(O)c(O)c(O)c1
REMARK SMILES IDX 5 1 46 2 33 3 20 4 7 5 6 6 4 7 3 8 2 9 1 10 59 11 60 12
REMARK SMILES IDX 61 13 67 14 63 15 65 16 62 17 64 19 66 21 47 23 48 24 49 25
REMARK SMILES IDX 50 26 58 27 51 28 56 29 52 30 54 31 57 32 53 34 55 36 34 38
REMARK SMILES IDX 35 39 36 40 37 41 45 42 38 43 43 44 39 45 41 46 44 47 40 49
REMARK SMILES IDX 42 51 8 53 9 54 10 55 11 56 19 57 12 58 17 59 13 60 15 61
REMARK SMILES IDX 18 62 14 64 16 66 21 68 22 69 23 70 24 71 32 72 25 73 30 74
REMARK SMILES IDX 26 75 28 76 31 77 27 79 29 81
REMARK H PARENT 62 18 64 20 66 22 57 33 53 35 55 37 44 48 40 50 42 52 18 63
REMARK H PARENT 14 65 16 67 31 78 27 80 29 82
REMARK Flexibility Score: inf
ROOT
ATOM      1  C   UNL     1      40.983  11.030  20.131  1.00  0.00     0.205 C 
ATOM      2  C   UNL     1      40.910  10.360  21.521  1.00  0.00     0.254 C 
ATOM      3  C   UNL     1      39.467   9.881  21.777  1.00  0.00     0.267 C 
ATOM      4  C   UNL     1      38.478  11.039  21.553  1.00  0.00     0.290 C 
ATOM      5  C   UNL     1      38.734  11.699  20.186  1.00  0.00     0.357 C 
ATOM      6  O   UNL     1      40.082  12.125  20.060  1.00  0.00    -0.329 OA
ENDROOT
BRANCH   1   7
ATOM      7  C   UNL     1      42.407  11.526  19.829  1.00  0.00     0.269 C 
BRANCH   7   8
ATOM      8  O   UNL     1      42.942  10.859  18.688  1.00  0.00    -0.459 OA
BRANCH   8   9
ATOM      9  C   UNL     1      43.953   9.893  18.746  1.00  0.00     0.338 C 
ATOM     10  O   UNL     1      45.162  10.243  18.821  1.00  0.00    -0.246 OA
BRANCH   9  11
ATOM     11  C   UNL     1      43.593   8.458  18.753  1.00  0.00     0.067 A 
ATOM     12  C   UNL     1      42.480   8.007  18.032  1.00  0.00     0.066 A 
ATOM     13  C   UNL     1      42.119   6.658  18.044  1.00  0.00     0.162 A 
ATOM     14  C   UNL     1      44.353   7.532  19.483  1.00  0.00     0.066 A 
ATOM     15  C   UNL     1      42.874   5.731  18.785  1.00  0.00     0.200 A 
ATOM     16  C   UNL     1      44.010   6.176  19.506  1.00  0.00     0.162 A 
BRANCH  13  17
ATOM     17  O   UNL     1      40.991   6.256  17.325  1.00  0.00    -0.504 OA
ATOM     18  H   UNL     1      40.263   5.683  17.734  1.00  0.00     0.293 HD
ENDBRANCH  13  17
BRANCH  15  19
ATOM     19  O   UNL     1      42.468   4.393  18.788  1.00  0.00    -0.502 OA
ATOM     20  H   UNL     1      42.862   3.684  19.387  1.00  0.00     0.293 HD
ENDBRANCH  15  19
BRANCH  16  21
ATOM     21  O   UNL     1      44.823   5.312  20.246  1.00  0.00    -0.504 OA
ATOM     22  H   UNL     1      44.868   4.316  20.106  1.00  0.00     0.293 HD
ENDBRANCH  16  21
ENDBRANCH   9  11
ENDBRANCH   8   9
ENDBRANCH   7   8
ENDBRANCH   1   7
BRANCH   2  23
ATOM     23  O   UNL     1      41.293  11.302  22.523  1.00  0.00    -0.452 OA
BRANCH  23  24
ATOM     24  C   UNL     1      42.395  11.137  23.373  1.00  0.00     0.338 C 
ATOM     25  O   UNL     1      42.658  12.005  24.251  1.00  0.00    -0.246 OA
BRANCH  24  26
ATOM     26  C   UNL     1      43.246   9.938  23.238  1.00  0.00     0.067 A 
ATOM     27  C   UNL     1      42.753   8.666  23.579  1.00  0.00     0.066 A 
ATOM     28  C   UNL     1      44.558  10.057  22.757  1.00  0.00     0.066 A 
ATOM     29  C   UNL     1      43.556   7.531  23.441  1.00  0.00     0.162 A 
ATOM     30  C   UNL     1      45.371   8.928  22.622  1.00  0.00     0.162 A 
ATOM     31  C   UNL     1      44.873   7.659  22.966  1.00  0.00     0.200 A 
BRANCH  29  32
ATOM     32  O   UNL     1      43.024   6.281  23.762  1.00  0.00    -0.504 OA
ATOM     33  H   UNL     1      42.025   6.117  23.792  1.00  0.00     0.293 HD
ENDBRANCH  29  32
BRANCH  30  34
ATOM     34  O   UNL     1      46.679   9.060  22.153  1.00  0.00    -0.504 OA
ATOM     35  H   UNL     1      46.953   9.849  21.576  1.00  0.00     0.293 HD
ENDBRANCH  30  34
BRANCH  31  36
ATOM     36  O   UNL     1      45.670   6.521  22.832  1.00  0.00    -0.502 OA
ATOM     37  H   UNL     1      45.688   5.787  23.534  1.00  0.00     0.293 HD
ENDBRANCH  31  36
ENDBRANCH  24  26
ENDBRANCH  23  24
ENDBRANCH   2  23
BRANCH   3  38
ATOM     38  O   UNL     1      39.322   9.398  23.112  1.00  0.00    -0.450 OA
BRANCH  38  39
ATOM     39  C   UNL     1      38.642   8.227  23.462  1.00  0.00     0.338 C 
ATOM     40  O   UNL     1      38.388   7.980  24.673  1.00  0.00    -0.246 OA
BRANCH  39  41
ATOM     41  C   UNL     1      38.232   7.276  22.402  1.00  0.00     0.067 A 
ATOM     42  C   UNL     1      39.185   6.571  21.647  1.00  0.00     0.066 A 
ATOM     43  C   UNL     1      36.869   7.074  22.134  1.00  0.00     0.066 A 
ATOM     44  C   UNL     1      38.787   5.704  20.619  1.00  0.00     0.162 A 
ATOM     45  C   UNL     1      36.462   6.214  21.110  1.00  0.00     0.162 A 
ATOM     46  C   UNL     1      37.420   5.529  20.345  1.00  0.00     0.200 A 
BRANCH  44  47
ATOM     47  O   UNL     1      39.744   5.016  19.867  1.00  0.00    -0.504 OA
ATOM     48  H   UNL     1      39.674   4.019  19.694  1.00  0.00     0.293 HD
ENDBRANCH  44  47
BRANCH  45  49
ATOM     49  O   UNL     1      35.098   6.045  20.868  1.00  0.00    -0.504 OA
ATOM     50  H   UNL     1      34.450   6.821  20.890  1.00  0.00     0.293 HD
ENDBRANCH  45  49
BRANCH  46  51
ATOM     51  O   UNL     1      37.001   4.679  19.321  1.00  0.00    -0.502 OA
ATOM     52  H   UNL     1      37.438   4.671  18.406  1.00  0.00     0.293 HD
ENDBRANCH  46  51
ENDBRANCH  39  41
ENDBRANCH  38  39
ENDBRANCH   3  38
BRANCH   5  53
ATOM     53  O   UNL     1      38.384  10.814  19.120  1.00  0.00    -0.428 OA
BRANCH  53  54
ATOM     54  C   UNL     1      37.423  11.120  18.147  1.00  0.00     0.340 C 
ATOM     55  O   UNL     1      37.592  12.106  17.379  1.00  0.00    -0.246 OA
BRANCH  54  56
ATOM     56  C   UNL     1      36.198  10.297  18.050  1.00  0.00     0.067 A 
ATOM     57  C   UNL     1      34.939  10.914  17.959  1.00  0.00     0.066 A 
ATOM     58  C   UNL     1      36.278   8.894  18.035  1.00  0.00     0.066 A 
ATOM     59  C   UNL     1      33.773  10.142  17.863  1.00  0.00     0.162 A 
ATOM     60  C   UNL     1      35.117   8.117  17.932  1.00  0.00     0.162 A 
ATOM     61  C   UNL     1      33.860   8.739  17.853  1.00  0.00     0.200 A 
BRANCH  59  62
ATOM     62  O   UNL     1      32.528  10.760  17.778  1.00  0.00    -0.504 OA
ATOM     63  H   UNL     1      31.717  10.393  18.261  1.00  0.00     0.293 HD
ENDBRANCH  59  62
BRANCH  60  64
ATOM     64  O   UNL     1      35.221   6.727  17.923  1.00  0.00    -0.504 OA
ATOM     65  H   UNL     1      35.458   6.202  18.757  1.00  0.00     0.293 HD
ENDBRANCH  60  64
BRANCH  61  66
ATOM     66  O   UNL     1      32.710   7.950  17.763  1.00  0.00    -0.502 OA
ATOM     67  H   UNL     1      32.716   7.041  17.303  1.00  0.00     0.293 HD
ENDBRANCH  61  66
ENDBRANCH  54  56
ENDBRANCH  53  54
ENDBRANCH   5  53
BRANCH   4  68
ATOM     68  O   UNL     1      37.131  10.558  21.602  1.00  0.00    -0.448 OA
BRANCH  68  69
ATOM     69  C   UNL     1      36.139  11.117  22.422  1.00  0.00     0.339 C 
ATOM     70  O   UNL     1      36.412  12.097  23.166  1.00  0.00    -0.246 OA
BRANCH  69  71
ATOM     71  C   UNL     1      34.761  10.583  22.383  1.00  0.00     0.067 A 
ATOM     72  C   UNL     1      34.427   9.524  21.520  1.00  0.00     0.066 A 
ATOM     73  C   UNL     1      33.766  11.125  23.214  1.00  0.00     0.066 A 
ATOM     74  C   UNL     1      33.129   8.993  21.512  1.00  0.00     0.162 A 
ATOM     75  C   UNL     1      32.461  10.616  23.204  1.00  0.00     0.162 A 
ATOM     76  C   UNL     1      32.144   9.524  22.357  1.00  0.00     0.200 A 
BRANCH  74  77
ATOM     77  O   UNL     1      32.811   7.925  20.673  1.00  0.00    -0.504 OA
ATOM     78  H   UNL     1      33.462   7.585  19.983  1.00  0.00     0.293 HD
ENDBRANCH  74  77
BRANCH  75  79
ATOM     79  O   UNL     1      31.521  11.228  24.037  1.00  0.00    -0.504 OA
ATOM     80  H   UNL     1      31.058  10.765  24.803  1.00  0.00     0.293 HD
ENDBRANCH  75  79
BRANCH  76  81
ATOM     81  O   UNL     1      30.876   8.940  22.338  1.00  0.00    -0.502 OA
ATOM     82  H   UNL     1      30.550   8.299  23.040  1.00  0.00     0.293 HD
ENDBRANCH  76  81
ENDBRANCH  69  71
ENDBRANCH  68  69
ENDBRANCH   4  68
TORSDOF 31
ENDMDL
MODEL 8
REMARK VINA RESULT:    -3.829      2.336      4.360
REMARK INTER + INTRA:         -16.267
REMARK INTER:                  -8.055
REMARK INTRA:                  -8.212
REMARK UNBOUND:                -7.176
REMARK SMILES O=C(OC[C@@H]1O[C@@H](OC(=O)c2cc(O)c(O)c(O)c2)[C@@H](OC(=O)c2cc(O)c(O)c(O)c2)[C@H](OC(=O)c2cc(O)c(O)c(O)c2)[C@@H]1OC(=O)c1cc(O)c(O)c(O)c1)c1cc(O)c(O)c(O)c1
REMARK SMILES IDX 5 1 46 2 33 3 20 4 7 5 6 6 4 7 3 8 2 9 1 10 59 11 60 12
REMARK SMILES IDX 61 13 67 14 63 15 65 16 62 17 64 19 66 21 47 23 48 24 49 25
REMARK SMILES IDX 50 26 58 27 51 28 56 29 52 30 54 31 57 32 53 34 55 36 34 38
REMARK SMILES IDX 35 39 36 40 37 41 45 42 38 43 43 44 39 45 41 46 44 47 40 49
REMARK SMILES IDX 42 51 8 53 9 54 10 55 11 56 19 57 12 58 17 59 13 60 15 61
REMARK SMILES IDX 18 62 14 64 16 66 21 68 22 69 23 70 24 71 32 72 25 73 30 74
REMARK SMILES IDX 26 75 28 76 31 77 27 79 29 81
REMARK H PARENT 62 18 64 20 66 22 57 33 53 35 55 37 44 48 40 50 42 52 18 63
REMARK H PARENT 14 65 16 67 31 78 27 80 29 82
REMARK Flexibility Score: inf
ROOT
ATOM      1  C   UNL     1      37.945   2.552  19.045  1.00  0.00     0.205 C 
ATOM      2  C   UNL     1      37.531   4.010  19.342  1.00  0.00     0.254 C 
ATOM      3  C   UNL     1      36.357   4.009  20.342  1.00  0.00     0.267 C 
ATOM      4  C   UNL     1      35.228   3.097  19.830  1.00  0.00     0.290 C 
ATOM      5  C   UNL     1      35.791   1.715  19.454  1.00  0.00     0.357 C 
ATOM      6  O   UNL     1      36.848   1.824  18.514  1.00  0.00    -0.329 OA
ENDROOT
BRANCH   1   7
ATOM      7  C   UNL     1      39.115   2.501  18.049  1.00  0.00     0.269 C 
BRANCH   7   8
ATOM      8  O   UNL     1      40.295   3.056  18.629  1.00  0.00    -0.459 OA
BRANCH   8   9
ATOM      9  C   UNL     1      40.959   2.510  19.733  1.00  0.00     0.338 C 
ATOM     10  O   UNL     1      41.875   1.659  19.565  1.00  0.00    -0.246 OA
BRANCH   9  11
ATOM     11  C   UNL     1      40.605   2.961  21.096  1.00  0.00     0.067 A 
ATOM     12  C   UNL     1      40.546   4.329  21.393  1.00  0.00     0.066 A 
ATOM     13  C   UNL     1      40.229   4.769  22.680  1.00  0.00     0.162 A 
ATOM     14  C   UNL     1      40.329   2.031  22.110  1.00  0.00     0.066 A 
ATOM     15  C   UNL     1      39.964   3.837  23.699  1.00  0.00     0.200 A 
ATOM     16  C   UNL     1      40.008   2.451  23.405  1.00  0.00     0.162 A 
BRANCH  13  17
ATOM     17  O   UNL     1      40.199   6.141  22.934  1.00  0.00    -0.504 OA
ATOM     18  H   UNL     1      40.128   6.829  22.193  1.00  0.00     0.293 HD
ENDBRANCH  13  17
BRANCH  15  19
ATOM     19  O   UNL     1      39.671   4.317  24.979  1.00  0.00    -0.502 OA
ATOM     20  H   UNL     1      39.530   5.290  25.199  1.00  0.00     0.293 HD
ENDBRANCH  15  19
BRANCH  16  21
ATOM     21  O   UNL     1      39.733   1.466  24.358  1.00  0.00    -0.504 OA
ATOM     22  H   UNL     1      39.850   0.478  24.205  1.00  0.00     0.293 HD
ENDBRANCH  16  21
ENDBRANCH   9  11
ENDBRANCH   8   9
ENDBRANCH   7   8
ENDBRANCH   1   7
BRANCH   2  23
ATOM     23  O   UNL     1      37.133   4.648  18.129  1.00  0.00    -0.452 OA
BRANCH  23  24
ATOM     24  C   UNL     1      37.721   5.819  17.630  1.00  0.00     0.338 C 
ATOM     25  O   UNL     1      38.907   5.803  17.199  1.00  0.00    -0.246 OA
BRANCH  24  26
ATOM     26  C   UNL     1      36.942   7.073  17.607  1.00  0.00     0.067 A 
ATOM     27  C   UNL     1      35.664   7.113  17.022  1.00  0.00     0.066 A 
ATOM     28  C   UNL     1      37.468   8.240  18.181  1.00  0.00     0.066 A 
ATOM     29  C   UNL     1      34.923   8.298  17.010  1.00  0.00     0.162 A 
ATOM     30  C   UNL     1      36.737   9.431  18.168  1.00  0.00     0.162 A 
ATOM     31  C   UNL     1      35.461   9.465  17.580  1.00  0.00     0.200 A 
BRANCH  29  32
ATOM     32  O   UNL     1      33.646   8.293  16.447  1.00  0.00    -0.504 OA
ATOM     33  H   UNL     1      32.845   7.919  16.940  1.00  0.00     0.293 HD
ENDBRANCH  29  32
BRANCH  30  34
ATOM     34  O   UNL     1      37.277  10.589  18.732  1.00  0.00    -0.504 OA
ATOM     35  H   UNL     1      38.268  10.659  18.941  1.00  0.00     0.293 HD
ENDBRANCH  30  34
BRANCH  31  36
ATOM     36  O   UNL     1      34.716  10.646  17.563  1.00  0.00    -0.502 OA
ATOM     37  H   UNL     1      33.704  10.646  17.475  1.00  0.00     0.293 HD
ENDBRANCH  31  36
ENDBRANCH  24  26
ENDBRANCH  23  24
ENDBRANCH   2  23
BRANCH   3  38
ATOM     38  O   UNL     1      35.843   5.329  20.522  1.00  0.00    -0.450 OA
BRANCH  38  39
ATOM     39  C   UNL     1      36.337   6.252  21.450  1.00  0.00     0.338 C 
ATOM     40  O   UNL     1      37.196   5.895  22.302  1.00  0.00    -0.246 OA
BRANCH  39  41
ATOM     41  C   UNL     1      35.837   7.647  21.430  1.00  0.00     0.067 A 
ATOM     42  C   UNL     1      36.525   8.676  22.095  1.00  0.00     0.066 A 
ATOM     43  C   UNL     1      34.651   7.955  20.746  1.00  0.00     0.066 A 
ATOM     44  C   UNL     1      36.022   9.985  22.105  1.00  0.00     0.162 A 
ATOM     45  C   UNL     1      34.140   9.255  20.751  1.00  0.00     0.162 A 
ATOM     46  C   UNL     1      34.821  10.275  21.435  1.00  0.00     0.200 A 
BRANCH  44  47
ATOM     47  O   UNL     1      36.709  10.999  22.778  1.00  0.00    -0.504 OA
ATOM     48  H   UNL     1      37.473  10.797  23.415  1.00  0.00     0.293 HD
ENDBRANCH  44  47
BRANCH  45  49
ATOM     49  O   UNL     1      32.954   9.520  20.065  1.00  0.00    -0.504 OA
ATOM     50  H   UNL     1      32.528  10.438  20.066  1.00  0.00     0.293 HD
ENDBRANCH  45  49
BRANCH  46  51
ATOM     51  O   UNL     1      34.297  11.568  21.439  1.00  0.00    -0.502 OA
ATOM     52  H   UNL     1      33.982  12.031  20.593  1.00  0.00     0.293 HD
ENDBRANCH  46  51
ENDBRANCH  39  41
ENDBRANCH  38  39
ENDBRANCH   3  38
BRANCH   5  53
ATOM     53  O   UNL     1      36.224   1.008  20.619  1.00  0.00    -0.428 OA
BRANCH  53  54
ATOM     54  C   UNL     1      35.726  -0.248  20.989  1.00  0.00     0.340 C 
ATOM     55  O   UNL     1      34.555  -0.586  20.662  1.00  0.00    -0.246 OA
BRANCH  54  56
ATOM     56  C   UNL     1      36.572  -1.160  21.789  1.00  0.00     0.067 A 
ATOM     57  C   UNL     1      36.101  -2.437  22.135  1.00  0.00     0.066 A 
ATOM     58  C   UNL     1      37.856  -0.767  22.200  1.00  0.00     0.066 A 
ATOM     59  C   UNL     1      36.897  -3.309  22.892  1.00  0.00     0.162 A 
ATOM     60  C   UNL     1      38.660  -1.636  22.950  1.00  0.00     0.162 A 
ATOM     61  C   UNL     1      38.180  -2.907  23.304  1.00  0.00     0.200 A 
BRANCH  59  62
ATOM     62  O   UNL     1      36.422  -4.571  23.235  1.00  0.00    -0.504 OA
ATOM     63  H   UNL     1      35.779  -4.706  24.008  1.00  0.00     0.293 HD
ENDBRANCH  59  62
BRANCH  60  64
ATOM     64  O   UNL     1      39.930  -1.222  23.350  1.00  0.00    -0.504 OA
ATOM     65  H   UNL     1      40.380  -1.597  24.177  1.00  0.00     0.293 HD
ENDBRANCH  60  64
BRANCH  61  66
ATOM     66  O   UNL     1      38.988  -3.758  24.062  1.00  0.00    -0.502 OA
ATOM     67  H   UNL     1      39.781  -3.410  24.599  1.00  0.00     0.293 HD
ENDBRANCH  61  66
ENDBRANCH  54  56
ENDBRANCH  53  54
ENDBRANCH   5  53
BRANCH   4  68
ATOM     68  O   UNL     1      34.221   2.942  20.835  1.00  0.00    -0.448 OA
BRANCH  68  69
ATOM     69  C   UNL     1      32.850   3.117  20.593  1.00  0.00     0.339 C 
ATOM     70  O   UNL     1      32.026   2.238  20.964  1.00  0.00    -0.246 OA
BRANCH  69  71
ATOM     71  C   UNL     1      32.366   4.351  19.939  1.00  0.00     0.067 A 
ATOM     72  C   UNL     1      31.818   5.397  20.701  1.00  0.00     0.066 A 
ATOM     73  C   UNL     1      32.451   4.495  18.545  1.00  0.00     0.066 A 
ATOM     74  C   UNL     1      31.393   6.582  20.084  1.00  0.00     0.162 A 
ATOM     75  C   UNL     1      32.015   5.667  17.912  1.00  0.00     0.162 A 
ATOM     76  C   UNL     1      31.498   6.731  18.693  1.00  0.00     0.200 A 
BRANCH  74  77
ATOM     77  O   UNL     1      30.875   7.628  20.848  1.00  0.00    -0.504 OA
ATOM     78  H   UNL     1      30.309   7.454  21.664  1.00  0.00     0.293 HD
ENDBRANCH  74  77
BRANCH  75  79
ATOM     79  O   UNL     1      32.106   5.722  16.518  1.00  0.00    -0.504 OA
ATOM     80  H   UNL     1      31.753   5.009  15.901  1.00  0.00     0.293 HD
ENDBRANCH  75  79
BRANCH  76  81
ATOM     81  O   UNL     1      31.094   7.942  18.128  1.00  0.00    -0.502 OA
ATOM     82  H   UNL     1      31.735   8.663  17.845  1.00  0.00     0.293 HD
ENDBRANCH  76  81
ENDBRANCH  69  71
ENDBRANCH  68  69
ENDBRANCH   4  68
TORSDOF 31
ENDMDL
MODEL 9
REMARK VINA RESULT:    -3.712      2.581      6.798
REMARK INTER + INTRA:         -15.987
REMARK INTER:                  -6.909
REMARK INTRA:                  -9.078
REMARK UNBOUND:                -7.176
REMARK SMILES O=C(OC[C@@H]1O[C@@H](OC(=O)c2cc(O)c(O)c(O)c2)[C@@H](OC(=O)c2cc(O)c(O)c(O)c2)[C@H](OC(=O)c2cc(O)c(O)c(O)c2)[C@@H]1OC(=O)c1cc(O)c(O)c(O)c1)c1cc(O)c(O)c(O)c1
REMARK SMILES IDX 5 1 46 2 33 3 20 4 7 5 6 6 4 7 3 8 2 9 1 10 59 11 60 12
REMARK SMILES IDX 61 13 67 14 63 15 65 16 62 17 64 19 66 21 47 23 48 24 49 25
REMARK SMILES IDX 50 26 58 27 51 28 56 29 52 30 54 31 57 32 53 34 55 36 34 38
REMARK SMILES IDX 35 39 36 40 37 41 45 42 38 43 43 44 39 45 41 46 44 47 40 49
REMARK SMILES IDX 42 51 8 53 9 54 10 55 11 56 19 57 12 58 17 59 13 60 15 61
REMARK SMILES IDX 18 62 14 64 16 66 21 68 22 69 23 70 24 71 32 72 25 73 30 74
REMARK SMILES IDX 26 75 28 76 31 77 27 79 29 81
REMARK H PARENT 62 18 64 20 66 22 57 33 53 35 55 37 44 48 40 50 42 52 18 63
REMARK H PARENT 14 65 16 67 31 78 27 80 29 82
REMARK Flexibility Score: inf
ROOT
ATOM      1  C   UNL     1      34.296   8.949  20.065  1.00  0.00     0.205 C 
ATOM      2  C   UNL     1      35.369   8.895  18.955  1.00  0.00     0.254 C 
ATOM      3  C   UNL     1      35.299   7.526  18.249  1.00  0.00     0.267 C 
ATOM      4  C   UNL     1      35.370   6.392  19.288  1.00  0.00     0.290 C 
ATOM      5  C   UNL     1      34.334   6.627  20.402  1.00  0.00     0.357 C 
ATOM      6  O   UNL     1      34.499   7.902  21.002  1.00  0.00    -0.329 OA
ENDROOT
BRANCH   1   7
ATOM      7  C   UNL     1      34.328  10.299  20.800  1.00  0.00     0.269 C 
BRANCH   7   8
ATOM      8  O   UNL     1      34.896  10.151  22.100  1.00  0.00    -0.459 OA
BRANCH   8   9
ATOM      9  C   UNL     1      36.004  10.872  22.560  1.00  0.00     0.338 C 
ATOM     10  O   UNL     1      35.917  12.115  22.753  1.00  0.00    -0.246 OA
BRANCH   9  11
ATOM     11  C   UNL     1      37.268  10.162  22.852  1.00  0.00     0.067 A 
ATOM     12  C   UNL     1      37.261   8.784  23.105  1.00  0.00     0.066 A 
ATOM     13  C   UNL     1      38.445   8.105  23.398  1.00  0.00     0.162 A 
ATOM     14  C   UNL     1      38.488  10.855  22.885  1.00  0.00     0.066 A 
ATOM     15  C   UNL     1      39.666   8.801  23.443  1.00  0.00     0.200 A 
ATOM     16  C   UNL     1      39.686  10.192  23.175  1.00  0.00     0.162 A 
BRANCH  13  17
ATOM     17  O   UNL     1      38.387   6.734  23.661  1.00  0.00    -0.504 OA
ATOM     18  H   UNL     1      37.510   6.234  23.745  1.00  0.00     0.293 HD
ENDBRANCH  13  17
BRANCH  15  19
ATOM     19  O   UNL     1      40.826   8.088  23.761  1.00  0.00    -0.502 OA
ATOM     20  H   UNL     1      41.090   7.827  24.698  1.00  0.00     0.293 HD
ENDBRANCH  15  19
BRANCH  16  21
ATOM     21  O   UNL     1      40.862  10.946  23.177  1.00  0.00    -0.504 OA
ATOM     22  H   UNL     1      41.324  11.276  24.008  1.00  0.00     0.293 HD
ENDBRANCH  16  21
ENDBRANCH   9  11
ENDBRANCH   8   9
ENDBRANCH   7   8
ENDBRANCH   1   7
BRANCH   2  23
ATOM     23  O   UNL     1      36.661   9.075  19.534  1.00  0.00    -0.452 OA
BRANCH  23  24
ATOM     24  C   UNL     1      37.478  10.189  19.296  1.00  0.00     0.338 C 
ATOM     25  O   UNL     1      36.966  11.301  18.989  1.00  0.00    -0.246 OA
BRANCH  24  26
ATOM     26  C   UNL     1      38.945  10.055  19.410  1.00  0.00     0.067 A 
ATOM     27  C   UNL     1      39.523   8.845  19.833  1.00  0.00     0.066 A 
ATOM     28  C   UNL     1      39.778  11.136  19.087  1.00  0.00     0.066 A 
ATOM     29  C   UNL     1      40.911   8.716  19.931  1.00  0.00     0.162 A 
ATOM     30  C   UNL     1      41.167  11.018  19.189  1.00  0.00     0.162 A 
ATOM     31  C   UNL     1      41.740   9.806  19.614  1.00  0.00     0.200 A 
BRANCH  29  32
ATOM     32  O   UNL     1      41.452   7.491  20.326  1.00  0.00    -0.504 OA
ATOM     33  H   UNL     1      41.774   7.329  21.272  1.00  0.00     0.293 HD
ENDBRANCH  29  32
BRANCH  30  34
ATOM     34  O   UNL     1      41.986  12.105  18.876  1.00  0.00    -0.504 OA
ATOM     35  H   UNL     1      42.980  12.090  19.080  1.00  0.00     0.293 HD
ENDBRANCH  30  34
BRANCH  31  36
ATOM     36  O   UNL     1      43.125   9.671  19.715  1.00  0.00    -0.502 OA
ATOM     37  H   UNL     1      43.576   9.331  20.560  1.00  0.00     0.293 HD
ENDBRANCH  31  36
ENDBRANCH  24  26
ENDBRANCH  23  24
ENDBRANCH   2  23
BRANCH   3  38
ATOM     38  O   UNL     1      36.375   7.376  17.324  1.00  0.00    -0.450 OA
BRANCH  38  39
ATOM     39  C   UNL     1      36.682   8.291  16.312  1.00  0.00     0.338 C 
ATOM     40  O   UNL     1      35.769   8.741  15.566  1.00  0.00    -0.246 OA
BRANCH  39  41
ATOM     41  C   UNL     1      38.087   8.721  16.117  1.00  0.00     0.067 A 
ATOM     42  C   UNL     1      39.159   7.858  16.402  1.00  0.00     0.066 A 
ATOM     43  C   UNL     1      38.364  10.014  15.647  1.00  0.00     0.066 A 
ATOM     44  C   UNL     1      40.485   8.288  16.253  1.00  0.00     0.162 A 
ATOM     45  C   UNL     1      39.681  10.454  15.497  1.00  0.00     0.162 A 
ATOM     46  C   UNL     1      40.748   9.594  15.804  1.00  0.00     0.200 A 
BRANCH  44  47
ATOM     47  O   UNL     1      41.544   7.425  16.550  1.00  0.00    -0.504 OA
ATOM     48  H   UNL     1      42.493   7.763  16.672  1.00  0.00     0.293 HD
ENDBRANCH  44  47
BRANCH  45  49
ATOM     49  O   UNL     1      39.916  11.750  15.035  1.00  0.00    -0.504 OA
ATOM     50  H   UNL     1      40.485  11.933  14.219  1.00  0.00     0.293 HD
ENDBRANCH  45  49
BRANCH  46  51
ATOM     51  O   UNL     1      42.059  10.047  15.657  1.00  0.00    -0.502 OA
ATOM     52  H   UNL     1      42.280  10.985  15.342  1.00  0.00     0.293 HD
ENDBRANCH  46  51
ENDBRANCH  39  41
ENDBRANCH  38  39
ENDBRANCH   3  38
BRANCH   5  53
ATOM     53  O   UNL     1      33.004   6.473  19.902  1.00  0.00    -0.428 OA
BRANCH  53  54
ATOM     54  C   UNL     1      32.055   5.622  20.482  1.00  0.00     0.340 C 
ATOM     55  O   UNL     1      31.232   6.071  21.325  1.00  0.00    -0.246 OA
BRANCH  54  56
ATOM     56  C   UNL     1      32.047   4.187  20.119  1.00  0.00     0.067 A 
ATOM     57  C   UNL     1      32.170   3.207  21.118  1.00  0.00     0.066 A 
ATOM     58  C   UNL     1      31.902   3.789  18.780  1.00  0.00     0.066 A 
ATOM     59  C   UNL     1      32.160   1.845  20.783  1.00  0.00     0.162 A 
ATOM     60  C   UNL     1      31.884   2.430  18.440  1.00  0.00     0.162 A 
ATOM     61  C   UNL     1      32.021   1.454  19.440  1.00  0.00     0.200 A 
BRANCH  59  62
ATOM     62  O   UNL     1      32.289   0.879  21.777  1.00  0.00    -0.504 OA
ATOM     63  H   UNL     1      32.594   1.116  22.714  1.00  0.00     0.293 HD
ENDBRANCH  59  62
BRANCH  60  64
ATOM     64  O   UNL     1      31.743   2.060  17.103  1.00  0.00    -0.504 OA
ATOM     65  H   UNL     1      30.846   1.797  16.711  1.00  0.00     0.293 HD
ENDBRANCH  60  64
BRANCH  61  66
ATOM     66  O   UNL     1      32.012   0.103  19.085  1.00  0.00    -0.502 OA
ATOM     67  H   UNL     1      31.826  -0.201  18.130  1.00  0.00     0.293 HD
ENDBRANCH  61  66
ENDBRANCH  54  56
ENDBRANCH  53  54
ENDBRANCH   5  53
BRANCH   4  68
ATOM     68  O   UNL     1      35.115   5.130  18.663  1.00  0.00    -0.448 OA
BRANCH  68  69
ATOM     69  C   UNL     1      36.015   4.054  18.694  1.00  0.00     0.339 C 
ATOM     70  O   UNL     1      35.722   2.969  18.124  1.00  0.00    -0.246 OA
BRANCH  69  71
ATOM     71  C   UNL     1      37.325   4.203  19.362  1.00  0.00     0.067 A 
ATOM     72  C   UNL     1      38.456   4.617  18.635  1.00  0.00     0.066 A 
ATOM     73  C   UNL     1      37.456   3.938  20.735  1.00  0.00     0.066 A 
ATOM     74  C   UNL     1      39.689   4.795  19.277  1.00  0.00     0.162 A 
ATOM     75  C   UNL     1      38.687   4.096  21.386  1.00  0.00     0.162 A 
ATOM     76  C   UNL     1      39.812   4.549  20.652  1.00  0.00     0.200 A 
BRANCH  74  77
ATOM     77  O   UNL     1      40.802   5.231  18.557  1.00  0.00    -0.504 OA
ATOM     78  H   UNL     1      41.565   4.609  18.340  1.00  0.00     0.293 HD
ENDBRANCH  74  77
BRANCH  75  79
ATOM     79  O   UNL     1      38.743   3.784  22.748  1.00  0.00    -0.504 OA
ATOM     80  H   UNL     1      38.798   4.470  23.483  1.00  0.00     0.293 HD
ENDBRANCH  75  79
BRANCH  76  81
ATOM     81  O   UNL     1      41.052   4.773  21.254  1.00  0.00    -0.502 OA
ATOM     82  H   UNL     1      41.478   4.134  21.902  1.00  0.00     0.293 HD
ENDBRANCH  76  81
ENDBRANCH  69  71
ENDBRANCH  68  69
ENDBRANCH   4  68
TORSDOF 31
ENDMDL
