MODEL 1
REMARK VINA RESULT:    -3.743      0.000      0.000
REMARK INTER + INTRA:          -4.447
REMARK INTER:                  -4.400
REMARK INTRA:                  -0.047
REMARK UNBOUND:                -0.047
REMARK SMILES O=C([O-])CCC(=O)[O-]
REMARK SMILES IDX 4 1 2 2 1 3 3 4 5 5 6 6 7 7 8 8
REMARK H PARENT
REMARK Flexibility Score: inf
ROOT
ATOM      1  C   UNL     1      -0.850 -18.041  -2.015  1.00  0.00     0.059 C 
ENDROOT
BRANCH   1   2
ATOM      2  C   UNL     1      -1.066 -18.944  -3.191  1.00  0.00     0.042 C 
ATOM      3  O   UNL     1      -0.103 -19.254  -3.939  1.00  0.00    -0.550 OA
ATOM      4  O   UNL     1      -2.326 -19.476  -3.435  1.00  0.00    -0.550 OA
ENDBRANCH   1   2
BRANCH   1   5
ATOM      5  C   UNL     1      -1.737 -18.436  -0.829  1.00  0.00     0.059 C 
BRANCH   5   6
ATOM      6  C   UNL     1      -0.920 -18.846   0.357  1.00  0.00     0.042 C 
ATOM      7  O   UNL     1      -1.027 -20.007   0.832  1.00  0.00    -0.550 OA
ATOM      8  O   UNL     1      -0.009 -17.957   0.914  1.00  0.00    -0.550 OA
ENDBRANCH   5   6
ENDBRANCH   1   5
TORSDOF 3
ENDMDL
MODEL 2
REMARK VINA RESULT:    -3.743      0.031      4.052
REMARK INTER + INTRA:          -4.447
REMARK INTER:                  -4.399
REMARK INTRA:                  -0.047
REMARK UNBOUND:                -0.047
REMARK SMILES O=C([O-])CCC(=O)[O-]
REMARK SMILES IDX 4 1 2 2 1 3 3 4 5 5 6 6 7 7 8 8
REMARK H PARENT
REMARK Flexibility Score: inf
ROOT
ATOM      1  C   UNL     1      -1.735 -18.427  -0.812  1.00  0.00     0.059 C 
ENDROOT
BRANCH   1   2
ATOM      2  C   UNL     1      -0.907 -18.834   0.368  1.00  0.00     0.042 C 
ATOM      3  O   UNL     1      -1.025 -19.986   0.860  1.00  0.00    -0.550 OA
ATOM      4  O   UNL     1       0.027 -17.952   0.899  1.00  0.00    -0.550 OA
ENDBRANCH   1   2
BRANCH   1   5
ATOM      5  C   UNL     1      -0.858 -18.016  -2.001  1.00  0.00     0.059 C 
BRANCH   5   6
ATOM      6  C   UNL     1      -1.061 -18.924  -3.175  1.00  0.00     0.042 C 
ATOM      7  O   UNL     1      -0.086 -19.245  -3.904  1.00  0.00    -0.550 OA
ATOM      8  O   UNL     1      -2.320 -19.449  -3.439  1.00  0.00    -0.550 OA
ENDBRANCH   5   6
ENDBRANCH   1   5
TORSDOF 3
ENDMDL
MODEL 3
REMARK VINA RESULT:    -3.585      2.191      3.652
REMARK INTER + INTRA:          -4.260
REMARK INTER:                  -4.199
REMARK INTRA:                  -0.061
REMARK UNBOUND:                -0.047
REMARK SMILES O=C([O-])CCC(=O)[O-]
REMARK SMILES IDX 4 1 2 2 1 3 3 4 5 5 6 6 7 7 8 8
REMARK H PARENT
REMARK Flexibility Score: inf
ROOT
ATOM      1  C   UNL     1       0.207 -17.565  -1.968  1.00  0.00     0.059 C 
ENDROOT
BRANCH   1   2
ATOM      2  C   UNL     1       0.304 -16.130  -2.386  1.00  0.00     0.042 C 
ATOM      3  O   UNL     1       0.074 -15.210  -1.559  1.00  0.00    -0.550 OA
ATOM      4  O   UNL     1       0.689 -15.808  -3.682  1.00  0.00    -0.550 OA
ENDBRANCH   1   2
BRANCH   1   5
ATOM      5  C   UNL     1      -0.341 -18.445  -3.097  1.00  0.00     0.059 C 
BRANCH   5   6
ATOM      6  C   UNL     1      -1.674 -19.029  -2.743  1.00  0.00     0.042 C 
ATOM      7  O   UNL     1      -2.385 -19.571  -3.629  1.00  0.00    -0.550 OA
ATOM      8  O   UNL     1      -2.114 -19.009  -1.425  1.00  0.00    -0.550 OA
ENDBRANCH   5   6
ENDBRANCH   1   5
TORSDOF 3
ENDMDL
MODEL 4
REMARK VINA RESULT:    -3.562      2.148      3.242
REMARK INTER + INTRA:          -4.234
REMARK INTER:                  -4.166
REMARK INTRA:                  -0.068
REMARK UNBOUND:                -0.047
REMARK SMILES O=C([O-])CCC(=O)[O-]
REMARK SMILES IDX 4 1 2 2 1 3 3 4 5 5 6 6 7 7 8 8
REMARK H PARENT
REMARK Flexibility Score: inf
ROOT
ATOM      1  C   UNL     1      -0.312 -18.469  -3.015  1.00  0.00     0.059 C 
ENDROOT
BRANCH   1   2
ATOM      2  C   UNL     1      -1.663 -19.029  -2.688  1.00  0.00     0.042 C 
ATOM      3  O   UNL     1      -2.376 -19.537  -3.593  1.00  0.00    -0.550 OA
ATOM      4  O   UNL     1      -2.117 -19.026  -1.375  1.00  0.00    -0.550 OA
ENDBRANCH   1   2
BRANCH   1   5
ATOM      5  C   UNL     1       0.253 -17.647  -1.851  1.00  0.00     0.059 C 
BRANCH   5   6
ATOM      6  C   UNL     1       0.284 -16.185  -2.173  1.00  0.00     0.042 C 
ATOM      7  O   UNL     1      -0.005 -15.335  -1.291  1.00  0.00    -0.550 OA
ATOM      8  O   UNL     1       0.670 -15.759  -3.438  1.00  0.00    -0.550 OA
ENDBRANCH   5   6
ENDBRANCH   1   5
TORSDOF 3
ENDMDL
MODEL 5
REMARK VINA RESULT:    -3.492      2.290      2.895
REMARK INTER + INTRA:          -4.152
REMARK INTER:                  -4.111
REMARK INTRA:                  -0.041
REMARK UNBOUND:                -0.047
REMARK SMILES O=C([O-])CCC(=O)[O-]
REMARK SMILES IDX 4 1 2 2 1 3 3 4 5 5 6 6 7 7 8 8
REMARK H PARENT
REMARK Flexibility Score: inf
ROOT
ATOM      1  C   UNL     1      -0.105 -17.518  -2.531  1.00  0.00     0.059 C 
ENDROOT
BRANCH   1   2
ATOM      2  C   UNL     1       0.496 -16.191  -2.882  1.00  0.00     0.042 C 
ATOM      3  O   UNL     1       0.806 -15.929  -4.073  1.00  0.00    -0.550 OA
ATOM      4  O   UNL     1       0.676 -15.227  -1.897  1.00  0.00    -0.550 OA
ENDBRANCH   1   2
BRANCH   1   5
ATOM      5  C   UNL     1      -0.119 -17.747  -1.015  1.00  0.00     0.059 C 
BRANCH   5   6
ATOM      6  C   UNL     1      -1.091 -18.819  -0.629  1.00  0.00     0.042 C 
ATOM      7  O   UNL     1      -2.105 -19.043  -1.341  1.00  0.00    -0.550 OA
ATOM      8  O   UNL     1      -0.854 -19.599   0.495  1.00  0.00    -0.550 OA
ENDBRANCH   5   6
ENDBRANCH   1   5
TORSDOF 3
ENDMDL
MODEL 6
REMARK VINA RESULT:    -3.456      2.164      3.679
REMARK INTER + INTRA:          -4.109
REMARK INTER:                  -4.035
REMARK INTRA:                  -0.074
REMARK UNBOUND:                -0.047
REMARK SMILES O=C([O-])CCC(=O)[O-]
REMARK SMILES IDX 4 1 2 2 1 3 3 4 5 5 6 6 7 7 8 8
REMARK H PARENT
REMARK Flexibility Score: inf
ROOT
ATOM      1  C   UNL     1       0.249 -17.634  -1.620  1.00  0.00     0.059 C 
ENDROOT
BRANCH   1   2
ATOM      2  C   UNL     1       0.233 -16.139  -1.729  1.00  0.00     0.042 C 
ATOM      3  O   UNL     1       0.662 -15.573  -2.768  1.00  0.00    -0.550 OA
ATOM      4  O   UNL     1      -0.295 -15.374  -0.697  1.00  0.00    -0.550 OA
ENDBRANCH   1   2
BRANCH   1   5
ATOM      5  C   UNL     1      -0.336 -18.296  -2.873  1.00  0.00     0.059 C 
BRANCH   5   6
ATOM      6  C   UNL     1      -1.642 -18.969  -2.582  1.00  0.00     0.042 C 
ATOM      7  O   UNL     1      -2.088 -19.008  -1.405  1.00  0.00    -0.550 OA
ATOM      8  O   UNL     1      -2.387 -19.518  -3.618  1.00  0.00    -0.550 OA
ENDBRANCH   5   6
ENDBRANCH   1   5
TORSDOF 3
ENDMDL
MODEL 7
REMARK VINA RESULT:    -3.456      2.274      3.949
REMARK INTER + INTRA:          -4.109
REMARK INTER:                  -4.070
REMARK INTRA:                  -0.039
REMARK UNBOUND:                -0.047
REMARK SMILES O=C([O-])CCC(=O)[O-]
REMARK SMILES IDX 4 1 2 2 1 3 3 4 5 5 6 6 7 7 8 8
REMARK H PARENT
REMARK Flexibility Score: inf
ROOT
ATOM      1  C   UNL     1      -0.270 -17.679  -0.708  1.00  0.00     0.059 C 
ENDROOT
BRANCH   1   2
ATOM      2  C   UNL     1      -1.173 -18.823  -0.361  1.00  0.00     0.042 C 
ATOM      3  O   UNL     1      -2.253 -18.991  -0.984  1.00  0.00    -0.550 OA
ATOM      4  O   UNL     1      -0.800 -19.727   0.626  1.00  0.00    -0.550 OA
ENDBRANCH   1   2
BRANCH   1   5
ATOM      5  C   UNL     1      -0.151 -17.496  -2.226  1.00  0.00     0.059 C 
BRANCH   5   6
ATOM      6  C   UNL     1       0.464 -16.176  -2.575  1.00  0.00     0.042 C 
ATOM      7  O   UNL     1       0.815 -15.379  -1.666  1.00  0.00    -0.550 OA
ATOM      8  O   UNL     1       0.687 -15.842  -3.905  1.00  0.00    -0.550 OA
ENDBRANCH   5   6
ENDBRANCH   1   5
TORSDOF 3
ENDMDL
MODEL 8
REMARK VINA RESULT:    -3.370     11.646     12.275
REMARK INTER + INTRA:          -4.009
REMARK INTER:                  -3.957
REMARK INTRA:                  -0.052
REMARK UNBOUND:                -0.047
REMARK SMILES O=C([O-])CCC(=O)[O-]
REMARK SMILES IDX 4 1 2 2 1 3 3 4 5 5 6 6 7 7 8 8
REMARK H PARENT
REMARK Flexibility Score: inf
ROOT
ATOM      1  C   UNL     1      -1.356 -30.750  -1.343  1.00  0.00     0.059 C 
ENDROOT
BRANCH   1   2
ATOM      2  C   UNL     1      -2.687 -30.137  -1.029  1.00  0.00     0.042 C 
ATOM      3  O   UNL     1      -3.182 -29.268  -1.794  1.00  0.00    -0.550 OA
ATOM      4  O   UNL     1      -3.399 -30.557   0.088  1.00  0.00    -0.550 OA
ENDBRANCH   1   2
BRANCH   1   5
ATOM      5  C   UNL     1      -0.291 -30.338  -0.320  1.00  0.00     0.059 C 
BRANCH   5   6
ATOM      6  C   UNL     1       0.575 -31.496   0.071  1.00  0.00     0.042 C 
ATOM      7  O   UNL     1       1.748 -31.590  -0.374  1.00  0.00    -0.550 OA
ATOM      8  O   UNL     1       0.098 -32.452   0.959  1.00  0.00    -0.550 OA
ENDBRANCH   5   6
ENDBRANCH   1   5
TORSDOF 3
ENDMDL
MODEL 9
REMARK VINA RESULT:    -3.362     11.212     11.895
REMARK INTER + INTRA:          -3.999
REMARK INTER:                  -3.941
REMARK INTRA:                  -0.058
REMARK UNBOUND:                -0.047
REMARK SMILES O=C([O-])CCC(=O)[O-]
REMARK SMILES IDX 4 1 2 2 1 3 3 4 5 5 6 6 7 7 8 8
REMARK H PARENT
REMARK Flexibility Score: inf
ROOT
ATOM      1  C   UNL     1      -9.919 -23.533  -8.634  1.00  0.00     0.059 C 
ENDROOT
BRANCH   1   2
ATOM      2  C   UNL     1      -9.992 -22.039  -8.550  1.00  0.00     0.042 C 
ATOM      3  O   UNL     1     -11.107 -21.455  -8.577  1.00  0.00    -0.550 OA
ATOM      4  O   UNL     1      -8.829 -21.293  -8.401  1.00  0.00    -0.550 OA
ENDBRANCH   1   2
BRANCH   1   5
ATOM      5  C   UNL     1      -8.678 -24.077  -7.916  1.00  0.00     0.059 C 
BRANCH   5   6
ATOM      6  C   UNL     1      -9.035 -25.160  -6.945  1.00  0.00     0.042 C 
ATOM      7  O   UNL     1     -10.240 -25.464  -6.748  1.00  0.00    -0.550 OA
ATOM      8  O   UNL     1      -8.032 -25.861  -6.287  1.00  0.00    -0.550 OA
ENDBRANCH   5   6
ENDBRANCH   1   5
TORSDOF 3
ENDMDL
