MODEL 1
REMARK VINA RESULT:    -3.606      0.000      0.000
REMARK INTER + INTRA:          -4.543
REMARK INTER:                  -4.450
REMARK INTRA:                  -0.094
REMARK UNBOUND:                -0.094
REMARK SMILES CCCCCC(=O)[O-]
REMARK SMILES IDX 4 1 5 2 6 3 7 4 8 5 3 6 2 7 1 8
REMARK H PARENT
REMARK Flexibility Score: inf
ROOT
ATOM      1  C   UNL     1      -7.688   5.105 -34.091  1.00  0.00     0.006 C 
ENDROOT
BRANCH   1   2
ATOM      2  C   UNL     1      -7.903   3.586 -34.129  1.00  0.00     0.053 C 
BRANCH   2   3
ATOM      3  C   UNL     1      -8.691   3.168 -35.332  1.00  0.00     0.041 C 
ATOM      4  O   UNL     1      -9.745   2.493 -35.197  1.00  0.00    -0.550 OA
ATOM      5  O   UNL     1      -8.243   3.498 -36.605  1.00  0.00    -0.550 OA
ENDBRANCH   2   3
ENDBRANCH   1   2
BRANCH   1   6
ATOM      6  C   UNL     1      -7.858   5.681 -32.677  1.00  0.00     0.000 C 
BRANCH   6   7
ATOM      7  C   UNL     1      -6.773   6.720 -32.373  1.00  0.00    -0.003 C 
ATOM      8  C   UNL     1      -5.957   7.046 -33.620  1.00  0.00     0.004 C 
ENDBRANCH   6   7
ENDBRANCH   1   6
TORSDOF 4
ENDMDL
MODEL 2
REMARK VINA RESULT:    -3.570      2.933      4.206
REMARK INTER + INTRA:          -4.499
REMARK INTER:                  -4.275
REMARK INTRA:                  -0.224
REMARK UNBOUND:                -0.094
REMARK SMILES CCCCCC(=O)[O-]
REMARK SMILES IDX 4 1 5 2 6 3 7 4 8 5 3 6 2 7 1 8
REMARK H PARENT
REMARK Flexibility Score: inf
ROOT
ATOM      1  C   UNL     1      -8.696   5.268 -34.280  1.00  0.00     0.006 C 
ENDROOT
BRANCH   1   2
ATOM      2  C   UNL     1      -7.925   5.360 -32.956  1.00  0.00     0.053 C 
BRANCH   2   3
ATOM      3  C   UNL     1      -6.931   6.481 -32.971  1.00  0.00     0.041 C 
ATOM      4  O   UNL     1      -6.132   6.607 -33.936  1.00  0.00    -0.550 OA
ATOM      5  O   UNL     1      -6.866   7.367 -31.903  1.00  0.00    -0.550 OA
ENDBRANCH   2   3
ENDBRANCH   1   2
BRANCH   1   6
ATOM      6  C   UNL     1      -8.708   3.840 -34.846  1.00  0.00     0.000 C 
BRANCH   6   7
ATOM      7  C   UNL     1      -7.329   3.184 -34.711  1.00  0.00    -0.003 C 
ATOM      8  C   UNL     1      -6.470   3.449 -35.944  1.00  0.00     0.004 C 
ENDBRANCH   6   7
ENDBRANCH   1   6
TORSDOF 4
ENDMDL
MODEL 3
REMARK VINA RESULT:    -3.513      0.809      1.203
REMARK INTER + INTRA:          -4.428
REMARK INTER:                  -4.300
REMARK INTRA:                  -0.127
REMARK UNBOUND:                -0.094
REMARK SMILES CCCCCC(=O)[O-]
REMARK SMILES IDX 4 1 5 2 6 3 7 4 8 5 3 6 2 7 1 8
REMARK H PARENT
REMARK Flexibility Score: inf
ROOT
ATOM      1  C   UNL     1      -6.974   4.396 -34.993  1.00  0.00     0.006 C 
ENDROOT
BRANCH   1   2
ATOM      2  C   UNL     1      -8.097   3.522 -34.416  1.00  0.00     0.053 C 
BRANCH   2   3
ATOM      3  C   UNL     1      -8.975   2.964 -35.494  1.00  0.00     0.041 C 
ATOM      4  O   UNL     1      -9.991   2.283 -35.195  1.00  0.00    -0.550 OA
ATOM      5  O   UNL     1      -8.652   3.170 -36.829  1.00  0.00    -0.550 OA
ENDBRANCH   2   3
ENDBRANCH   1   2
BRANCH   1   6
ATOM      6  C   UNL     1      -6.966   5.807 -34.388  1.00  0.00     0.000 C 
BRANCH   6   7
ATOM      7  C   UNL     1      -7.614   5.812 -32.999  1.00  0.00    -0.003 C 
ATOM      8  C   UNL     1      -6.893   6.773 -32.058  1.00  0.00     0.004 C 
ENDBRANCH   6   7
ENDBRANCH   1   6
TORSDOF 4
ENDMDL
MODEL 4
REMARK VINA RESULT:    -3.492     12.507     13.495
REMARK INTER + INTRA:          -4.402
REMARK INTER:                  -4.152
REMARK INTRA:                  -0.250
REMARK UNBOUND:                -0.094
REMARK SMILES CCCCCC(=O)[O-]
REMARK SMILES IDX 4 1 5 2 6 3 7 4 8 5 3 6 2 7 1 8
REMARK H PARENT
REMARK Flexibility Score: inf
ROOT
ATOM      1  C   UNL     1     -13.989   5.529 -23.386  1.00  0.00     0.006 C 
ENDROOT
BRANCH   1   2
ATOM      2  C   UNL     1     -13.702   4.264 -22.565  1.00  0.00     0.053 C 
BRANCH   2   3
ATOM      3  C   UNL     1     -14.952   3.486 -22.291  1.00  0.00     0.041 C 
ATOM      4  O   UNL     1     -15.851   3.971 -21.554  1.00  0.00    -0.550 OA
ATOM      5  O   UNL     1     -15.110   2.213 -22.823  1.00  0.00    -0.550 OA
ENDBRANCH   2   3
ENDBRANCH   1   2
BRANCH   1   6
ATOM      6  C   UNL     1     -14.764   5.221 -24.676  1.00  0.00     0.000 C 
BRANCH   6   7
ATOM      7  C   UNL     1     -15.828   6.291 -24.946  1.00  0.00    -0.003 C 
ATOM      8  C   UNL     1     -16.551   6.686 -23.661  1.00  0.00     0.004 C 
ENDBRANCH   6   7
ENDBRANCH   1   6
TORSDOF 4
ENDMDL
MODEL 5
REMARK VINA RESULT:    -3.482     12.928     13.689
REMARK INTER + INTRA:          -4.390
REMARK INTER:                  -4.137
REMARK INTRA:                  -0.253
REMARK UNBOUND:                -0.094
REMARK SMILES CCCCCC(=O)[O-]
REMARK SMILES IDX 4 1 5 2 6 3 7 4 8 5 3 6 2 7 1 8
REMARK H PARENT
REMARK Flexibility Score: inf
ROOT
ATOM      1  C   UNL     1      -9.152   1.454 -22.224  1.00  0.00     0.006 C 
ENDROOT
BRANCH   1   2
ATOM      2  C   UNL     1     -10.081   0.456 -22.930  1.00  0.00     0.053 C 
BRANCH   2   3
ATOM      3  C   UNL     1     -10.595  -0.587 -21.985  1.00  0.00     0.041 C 
ATOM      4  O   UNL     1      -9.794  -1.366 -21.405  1.00  0.00    -0.550 OA
ATOM      5  O   UNL     1     -11.961  -0.719 -21.771  1.00  0.00    -0.550 OA
ENDBRANCH   2   3
ENDBRANCH   1   2
BRANCH   1   6
ATOM      6  C   UNL     1      -9.853   2.182 -21.067  1.00  0.00     0.000 C 
BRANCH   6   7
ATOM      7  C   UNL     1      -8.956   2.228 -19.825  1.00  0.00    -0.003 C 
ATOM      8  C   UNL     1      -7.629   1.518 -20.076  1.00  0.00     0.004 C 
ENDBRANCH   6   7
ENDBRANCH   1   6
TORSDOF 4
ENDMDL
MODEL 6
REMARK VINA RESULT:    -3.456      1.186      1.805
REMARK INTER + INTRA:          -4.358
REMARK INTER:                  -4.200
REMARK INTRA:                  -0.158
REMARK UNBOUND:                -0.094
REMARK SMILES CCCCCC(=O)[O-]
REMARK SMILES IDX 4 1 5 2 6 3 7 4 8 5 3 6 2 7 1 8
REMARK H PARENT
REMARK Flexibility Score: inf
ROOT
ATOM      1  C   UNL     1      -7.840   5.645 -32.743  1.00  0.00     0.006 C 
ENDROOT
BRANCH   1   2
ATOM      2  C   UNL     1      -8.384   5.325 -34.142  1.00  0.00     0.053 C 
BRANCH   2   3
ATOM      3  C   UNL     1      -8.388   3.852 -34.411  1.00  0.00     0.041 C 
ATOM      4  O   UNL     1      -7.388   3.149 -34.106  1.00  0.00    -0.550 OA
ATOM      5  O   UNL     1      -9.482   3.261 -35.029  1.00  0.00    -0.550 OA
ENDBRANCH   2   3
ENDBRANCH   1   2
BRANCH   1   6
ATOM      6  C   UNL     1      -6.714   6.690 -32.782  1.00  0.00     0.000 C 
BRANCH   6   7
ATOM      7  C   UNL     1      -6.175   6.862 -34.206  1.00  0.00    -0.003 C 
ATOM      8  C   UNL     1      -5.066   7.908 -34.254  1.00  0.00     0.004 C 
ENDBRANCH   6   7
ENDBRANCH   1   6
TORSDOF 4
ENDMDL
MODEL 7
REMARK VINA RESULT:    -3.395     12.587     13.669
REMARK INTER + INTRA:          -4.282
REMARK INTER:                  -4.190
REMARK INTRA:                  -0.093
REMARK UNBOUND:                -0.094
REMARK SMILES CCCCCC(=O)[O-]
REMARK SMILES IDX 4 1 5 2 6 3 7 4 8 5 3 6 2 7 1 8
REMARK H PARENT
REMARK Flexibility Score: inf
ROOT
ATOM      1  C   UNL     1     -15.132   4.481 -23.116  1.00  0.00     0.006 C 
ENDROOT
BRANCH   1   2
ATOM      2  C   UNL     1     -14.697   3.013 -22.995  1.00  0.00     0.053 C 
BRANCH   2   3
ATOM      3  C   UNL     1     -13.748   2.809 -21.854  1.00  0.00     0.041 C 
ATOM      4  O   UNL     1     -12.546   2.505 -22.075  1.00  0.00    -0.550 OA
ATOM      5  O   UNL     1     -14.199   2.923 -20.545  1.00  0.00    -0.550 OA
ENDBRANCH   2   3
ENDBRANCH   1   2
BRANCH   1   6
ATOM      6  C   UNL     1     -14.818   5.068 -24.500  1.00  0.00     0.000 C 
BRANCH   6   7
ATOM      7  C   UNL     1     -15.790   6.200 -24.849  1.00  0.00    -0.003 C 
ATOM      8  C   UNL     1     -16.587   6.639 -23.624  1.00  0.00     0.004 C 
ENDBRANCH   6   7
ENDBRANCH   1   6
TORSDOF 4
ENDMDL
MODEL 8
REMARK VINA RESULT:    -3.371     12.487     13.649
REMARK INTER + INTRA:          -4.253
REMARK INTER:                  -4.033
REMARK INTRA:                  -0.220
REMARK UNBOUND:                -0.094
REMARK SMILES CCCCCC(=O)[O-]
REMARK SMILES IDX 4 1 5 2 6 3 7 4 8 5 3 6 2 7 1 8
REMARK H PARENT
REMARK Flexibility Score: inf
ROOT
ATOM      1  C   UNL     1     -14.024   4.909 -22.971  1.00  0.00     0.006 C 
ENDROOT
BRANCH   1   2
ATOM      2  C   UNL     1     -14.658   5.135 -24.350  1.00  0.00     0.053 C 
BRANCH   2   3
ATOM      3  C   UNL     1     -15.763   6.146 -24.294  1.00  0.00     0.041 C 
ATOM      4  O   UNL     1     -15.783   7.110 -25.103  1.00  0.00    -0.550 OA
ATOM      5  O   UNL     1     -16.753   6.039 -23.325  1.00  0.00    -0.550 OA
ENDBRANCH   2   3
ENDBRANCH   1   2
BRANCH   1   6
ATOM      6  C   UNL     1     -13.795   3.420 -22.673  1.00  0.00     0.000 C 
BRANCH   6   7
ATOM      7  C   UNL     1     -15.127   2.665 -22.595  1.00  0.00    -0.003 C 
ATOM      8  C   UNL     1     -15.943   3.111 -21.385  1.00  0.00     0.004 C 
ENDBRANCH   6   7
ENDBRANCH   1   6
TORSDOF 4
ENDMDL
MODEL 9
REMARK VINA RESULT:    -3.354     12.576     13.629
REMARK INTER + INTRA:          -4.232
REMARK INTER:                  -4.020
REMARK INTRA:                  -0.212
REMARK UNBOUND:                -0.094
REMARK SMILES CCCCCC(=O)[O-]
REMARK SMILES IDX 4 1 5 2 6 3 7 4 8 5 3 6 2 7 1 8
REMARK H PARENT
REMARK Flexibility Score: inf
ROOT
ATOM      1  C   UNL     1     -15.331   4.834 -21.850  1.00  0.00     0.006 C 
ENDROOT
BRANCH   1   2
ATOM      2  C   UNL     1     -16.048   5.622 -22.956  1.00  0.00     0.053 C 
BRANCH   2   3
ATOM      3  C   UNL     1     -15.151   5.869 -24.130  1.00  0.00     0.041 C 
ATOM      4  O   UNL     1     -13.903   5.758 -24.009  1.00  0.00    -0.550 OA
ATOM      5  O   UNL     1     -15.693   6.254 -25.350  1.00  0.00    -0.550 OA
ENDBRANCH   2   3
ENDBRANCH   1   2
BRANCH   1   6
ATOM      6  C   UNL     1     -15.741   3.354 -21.832  1.00  0.00     0.000 C 
BRANCH   6   7
ATOM      7  C   UNL     1     -14.813   2.517 -22.719  1.00  0.00    -0.003 C 
ATOM      8  C   UNL     1     -13.367   2.604 -22.240  1.00  0.00     0.004 C 
ENDBRANCH   6   7
ENDBRANCH   1   6
TORSDOF 4
ENDMDL
