MODEL 1
REMARK VINA RESULT:    -4.786      0.000      0.000
REMARK INTER + INTRA:          -7.873
REMARK INTER:                  -7.304
REMARK INTRA:                  -0.569
REMARK UNBOUND:                -0.569
REMARK SMILES CCCCCCCCCCC(=O)[O-]
REMARK SMILES IDX 7 1 8 2 9 3 10 4 11 5 12 6 13 7 6 8 5 9 4 10 3 11 2 12 1 13
REMARK H PARENT
REMARK Flexibility Score: inf
ROOT
ATOM      1  C   UNL     1      45.755  26.497   2.937  1.00  0.00     0.000 C 
ENDROOT
BRANCH   1   2
ATOM      2  C   UNL     1      44.268  26.522   3.334  1.00  0.00     0.000 C 
BRANCH   2   3
ATOM      3  C   UNL     1      43.980  27.053   4.753  1.00  0.00     0.006 C 
BRANCH   3   4
ATOM      4  C   UNL     1      44.952  26.550   5.831  1.00  0.00     0.053 C 
BRANCH   4   5
ATOM      5  C   UNL     1      44.264  26.311   7.140  1.00  0.00     0.041 C 
ATOM      6  O   UNL     1      43.126  26.803   7.356  1.00  0.00    -0.550 OA
ATOM      7  O   UNL     1      44.895  25.573   8.133  1.00  0.00    -0.550 OA
ENDBRANCH   4   5
ENDBRANCH   3   4
ENDBRANCH   2   3
ENDBRANCH   1   2
BRANCH   1   8
ATOM      8  C   UNL     1      46.138  25.253   2.122  1.00  0.00     0.000 C 
BRANCH   8   9
ATOM      9  C   UNL     1      47.560  24.787   2.470  1.00  0.00    -0.000 C 
BRANCH   9  10
ATOM     10  C   UNL     1      47.723  24.432   3.957  1.00  0.00    -0.000 C 
BRANCH  10  11
ATOM     11  C   UNL     1      48.448  23.092   4.169  1.00  0.00    -0.000 C 
BRANCH  11  12
ATOM     12  C   UNL     1      47.889  21.974   3.276  1.00  0.00    -0.003 C 
ATOM     13  C   UNL     1      48.115  20.580   3.861  1.00  0.00     0.004 C 
ENDBRANCH  11  12
ENDBRANCH  10  11
ENDBRANCH   9  10
ENDBRANCH   8   9
ENDBRANCH   1   8
TORSDOF 9
ENDMDL
MODEL 2
REMARK VINA RESULT:    -4.678      1.282      1.971
REMARK INTER + INTRA:          -7.707
REMARK INTER:                  -7.062
REMARK INTRA:                  -0.646
REMARK UNBOUND:                -0.569
REMARK SMILES CCCCCCCCCCC(=O)[O-]
REMARK SMILES IDX 7 1 8 2 9 3 10 4 11 5 12 6 13 7 6 8 5 9 4 10 3 11 2 12 1 13
REMARK H PARENT
REMARK Flexibility Score: inf
ROOT
ATOM      1  C   UNL     1      46.153  26.229   2.838  1.00  0.00     0.000 C 
ENDROOT
BRANCH   1   2
ATOM      2  C   UNL     1      44.872  27.044   3.094  1.00  0.00     0.000 C 
BRANCH   2   3
ATOM      3  C   UNL     1      44.143  26.716   4.412  1.00  0.00     0.006 C 
BRANCH   3   4
ATOM      4  C   UNL     1      44.752  27.377   5.659  1.00  0.00     0.053 C 
BRANCH   4   5
ATOM      5  C   UNL     1      45.282  26.365   6.628  1.00  0.00     0.041 C 
ATOM      6  O   UNL     1      46.457  25.929   6.508  1.00  0.00    -0.550 OA
ATOM      7  O   UNL     1      44.468  25.880   7.643  1.00  0.00    -0.550 OA
ENDBRANCH   4   5
ENDBRANCH   3   4
ENDBRANCH   2   3
ENDBRANCH   1   2
BRANCH   1   8
ATOM      8  C   UNL     1      45.878  24.869   2.180  1.00  0.00     0.000 C 
BRANCH   8   9
ATOM      9  C   UNL     1      46.986  23.861   2.523  1.00  0.00    -0.000 C 
BRANCH   9  10
ATOM     10  C   UNL     1      47.773  24.248   3.786  1.00  0.00    -0.000 C 
BRANCH  10  11
ATOM     11  C   UNL     1      48.790  23.172   4.202  1.00  0.00    -0.000 C 
BRANCH  11  12
ATOM     12  C   UNL     1      50.211  23.486   3.709  1.00  0.00    -0.003 C 
ATOM     13  C   UNL     1      50.408  24.962   3.365  1.00  0.00     0.004 C 
ENDBRANCH  11  12
ENDBRANCH  10  11
ENDBRANCH   9  10
ENDBRANCH   8   9
ENDBRANCH   1   8
TORSDOF 9
ENDMDL
MODEL 3
REMARK VINA RESULT:    -4.588      3.269      5.895
REMARK INTER + INTRA:          -7.571
REMARK INTER:                  -7.018
REMARK INTRA:                  -0.553
REMARK UNBOUND:                -0.569
REMARK SMILES CCCCCCCCCCC(=O)[O-]
REMARK SMILES IDX 7 1 8 2 9 3 10 4 11 5 12 6 13 7 6 8 5 9 4 10 3 11 2 12 1 13
REMARK H PARENT
REMARK Flexibility Score: inf
ROOT
ATOM      1  C   UNL     1      46.181  25.088   2.073  1.00  0.00     0.000 C 
ENDROOT
BRANCH   1   2
ATOM      2  C   UNL     1      47.279  24.086   2.477  1.00  0.00     0.000 C 
BRANCH   2   3
ATOM      3  C   UNL     1      47.761  24.201   3.937  1.00  0.00     0.006 C 
BRANCH   3   4
ATOM      4  C   UNL     1      48.850  23.190   4.330  1.00  0.00     0.053 C 
BRANCH   4   5
ATOM      5  C   UNL     1      50.179  23.536   3.734  1.00  0.00     0.041 C 
ATOM      6  O   UNL     1      50.889  22.640   3.207  1.00  0.00    -0.550 OA
ATOM      7  O   UNL     1      50.648  24.843   3.790  1.00  0.00    -0.550 OA
ENDBRANCH   4   5
ENDBRANCH   3   4
ENDBRANCH   2   3
ENDBRANCH   1   2
BRANCH   1   8
ATOM      8  C   UNL     1      46.066  26.274   3.041  1.00  0.00     0.000 C 
BRANCH   8   9
ATOM      9  C   UNL     1      44.645  26.860   3.022  1.00  0.00    -0.000 C 
BRANCH   9  10
ATOM     10  C   UNL     1      44.051  27.026   4.430  1.00  0.00    -0.000 C 
BRANCH  10  11
ATOM     11  C   UNL     1      45.122  26.982   5.533  1.00  0.00    -0.000 C 
BRANCH  11  12
ATOM     12  C   UNL     1      44.553  27.322   6.919  1.00  0.00    -0.003 C 
ATOM     13  C   UNL     1      43.817  26.146   7.562  1.00  0.00     0.004 C 
ENDBRANCH  11  12
ENDBRANCH  10  11
ENDBRANCH   9  10
ENDBRANCH   8   9
ENDBRANCH   1   8
TORSDOF 9
ENDMDL
MODEL 4
REMARK VINA RESULT:    -4.496     14.840     16.280
REMARK INTER + INTRA:          -7.429
REMARK INTER:                  -6.474
REMARK INTRA:                  -0.956
REMARK UNBOUND:                -0.569
REMARK SMILES CCCCCCCCCCC(=O)[O-]
REMARK SMILES IDX 7 1 8 2 9 3 10 4 11 5 12 6 13 7 6 8 5 9 4 10 3 11 2 12 1 13
REMARK H PARENT
REMARK Flexibility Score: inf
ROOT
ATOM      1  C   UNL     1      43.705  22.392  21.759  1.00  0.00     0.000 C 
ENDROOT
BRANCH   1   2
ATOM      2  C   UNL     1      42.331  22.617  21.101  1.00  0.00     0.000 C 
BRANCH   2   3
ATOM      3  C   UNL     1      42.358  23.447  19.802  1.00  0.00     0.006 C 
BRANCH   3   4
ATOM      4  C   UNL     1      41.090  24.278  19.549  1.00  0.00     0.053 C 
BRANCH   4   5
ATOM      5  C   UNL     1      40.246  23.698  18.456  1.00  0.00     0.041 C 
ATOM      6  O   UNL     1      40.651  22.698  17.808  1.00  0.00    -0.550 OA
ATOM      7  O   UNL     1      39.029  24.283  18.132  1.00  0.00    -0.550 OA
ENDBRANCH   4   5
ENDBRANCH   3   4
ENDBRANCH   2   3
ENDBRANCH   1   2
BRANCH   1   8
ATOM      8  C   UNL     1      44.329  21.038  21.395  1.00  0.00     0.000 C 
BRANCH   8   9
ATOM      9  C   UNL     1      45.864  21.128  21.384  1.00  0.00    -0.000 C 
BRANCH   9  10
ATOM     10  C   UNL     1      46.374  22.574  21.277  1.00  0.00    -0.000 C 
BRANCH  10  11
ATOM     11  C   UNL     1      46.936  22.901  19.883  1.00  0.00    -0.000 C 
BRANCH  11  12
ATOM     12  C   UNL     1      46.067  23.914  19.122  1.00  0.00    -0.003 C 
ATOM     13  C   UNL     1      45.632  25.094  19.991  1.00  0.00     0.004 C 
ENDBRANCH  11  12
ENDBRANCH  10  11
ENDBRANCH   9  10
ENDBRANCH   8   9
ENDBRANCH   1   8
TORSDOF 9
ENDMDL
MODEL 5
REMARK VINA RESULT:    -4.492     14.818     16.515
REMARK INTER + INTRA:          -7.425
REMARK INTER:                  -6.875
REMARK INTRA:                  -0.550
REMARK UNBOUND:                -0.569
REMARK SMILES CCCCCCCCCCC(=O)[O-]
REMARK SMILES IDX 7 1 8 2 9 3 10 4 11 5 12 6 13 7 6 8 5 9 4 10 3 11 2 12 1 13
REMARK H PARENT
REMARK Flexibility Score: inf
ROOT
ATOM      1  C   UNL     1      42.951  22.731  19.725  1.00  0.00     0.000 C 
ENDROOT
BRANCH   1   2
ATOM      2  C   UNL     1      43.137  21.848  20.973  1.00  0.00     0.000 C 
BRANCH   2   3
ATOM      3  C   UNL     1      44.395  22.157  21.809  1.00  0.00     0.006 C 
BRANCH   3   4
ATOM      4  C   UNL     1      45.673  21.457  21.321  1.00  0.00     0.053 C 
BRANCH   4   5
ATOM      5  C   UNL     1      46.670  22.429  20.770  1.00  0.00     0.041 C 
ATOM      6  O   UNL     1      46.506  22.921  19.623  1.00  0.00    -0.550 OA
ATOM      7  O   UNL     1      47.798  22.764  21.509  1.00  0.00    -0.550 OA
ENDBRANCH   4   5
ENDBRANCH   3   4
ENDBRANCH   2   3
ENDBRANCH   1   2
BRANCH   1   8
ATOM      8  C   UNL     1      42.684  24.204  20.067  1.00  0.00     0.000 C 
BRANCH   8   9
ATOM      9  C   UNL     1      41.244  24.598  19.704  1.00  0.00    -0.000 C 
BRANCH   9  10
ATOM     10  C   UNL     1      40.514  23.509  18.901  1.00  0.00    -0.000 C 
BRANCH  10  11
ATOM     11  C   UNL     1      39.298  24.054  18.135  1.00  0.00    -0.000 C 
BRANCH  11  12
ATOM     12  C   UNL     1      38.957  23.212  16.896  1.00  0.00    -0.003 C 
ATOM     13  C   UNL     1      39.337  21.740  17.057  1.00  0.00     0.004 C 
ENDBRANCH  11  12
ENDBRANCH  10  11
ENDBRANCH   9  10
ENDBRANCH   8   9
ENDBRANCH   1   8
TORSDOF 9
ENDMDL
MODEL 6
REMARK VINA RESULT:    -4.413     14.744     15.818
REMARK INTER + INTRA:          -7.304
REMARK INTER:                  -6.785
REMARK INTRA:                  -0.519
REMARK UNBOUND:                -0.569
REMARK SMILES CCCCCCCCCCC(=O)[O-]
REMARK SMILES IDX 7 1 8 2 9 3 10 4 11 5 12 6 13 7 6 8 5 9 4 10 3 11 2 12 1 13
REMARK H PARENT
REMARK Flexibility Score: inf
ROOT
ATOM      1  C   UNL     1      42.219  22.886  20.112  1.00  0.00     0.000 C 
ENDROOT
BRANCH   1   2
ATOM      2  C   UNL     1      43.660  23.256  20.510  1.00  0.00     0.000 C 
BRANCH   2   3
ATOM      3  C   UNL     1      44.564  23.708  19.345  1.00  0.00     0.006 C 
BRANCH   3   4
ATOM      4  C   UNL     1      45.514  24.866  19.688  1.00  0.00     0.053 C 
BRANCH   4   5
ATOM      5  C   UNL     1      46.946  24.515  19.423  1.00  0.00     0.041 C 
ATOM      6  O   UNL     1      47.681  25.303  18.773  1.00  0.00    -0.550 OA
ATOM      7  O   UNL     1      47.458  23.302  19.866  1.00  0.00    -0.550 OA
ENDBRANCH   4   5
ENDBRANCH   3   4
ENDBRANCH   2   3
ENDBRANCH   1   2
BRANCH   1   8
ATOM      8  C   UNL     1      41.312  24.113  19.936  1.00  0.00     0.000 C 
BRANCH   8   9
ATOM      9  C   UNL     1      40.242  23.853  18.864  1.00  0.00    -0.000 C 
BRANCH   9  10
ATOM     10  C   UNL     1      40.702  22.848  17.795  1.00  0.00    -0.000 C 
BRANCH  10  11
ATOM     11  C   UNL     1      39.556  21.955  17.291  1.00  0.00    -0.000 C 
BRANCH  11  12
ATOM     12  C   UNL     1      38.383  22.768  16.723  1.00  0.00    -0.003 C 
ATOM     13  C   UNL     1      37.060  22.473  17.429  1.00  0.00     0.004 C 
ENDBRANCH  11  12
ENDBRANCH  10  11
ENDBRANCH   9  10
ENDBRANCH   8   9
ENDBRANCH   1   8
TORSDOF 9
ENDMDL
MODEL 7
REMARK VINA RESULT:    -4.386     14.930     16.155
REMARK INTER + INTRA:          -7.262
REMARK INTER:                  -6.602
REMARK INTRA:                  -0.660
REMARK UNBOUND:                -0.569
REMARK SMILES CCCCCCCCCCC(=O)[O-]
REMARK SMILES IDX 7 1 8 2 9 3 10 4 11 5 12 6 13 7 6 8 5 9 4 10 3 11 2 12 1 13
REMARK H PARENT
REMARK Flexibility Score: inf
ROOT
ATOM      1  C   UNL     1      42.774  23.189  19.887  1.00  0.00     0.000 C 
ENDROOT
BRANCH   1   2
ATOM      2  C   UNL     1      41.867  24.434  19.869  1.00  0.00     0.000 C 
BRANCH   2   3
ATOM      3  C   UNL     1      40.515  24.245  19.153  1.00  0.00     0.006 C 
BRANCH   3   4
ATOM      4  C   UNL     1      40.517  23.164  18.061  1.00  0.00     0.053 C 
BRANCH   4   5
ATOM      5  C   UNL     1      39.131  22.811  17.616  1.00  0.00     0.041 C 
ATOM      6  O   UNL     1      38.166  23.574  17.886  1.00  0.00    -0.550 OA
ATOM      7  O   UNL     1      38.899  21.624  16.934  1.00  0.00    -0.550 OA
ENDBRANCH   4   5
ENDBRANCH   3   4
ENDBRANCH   2   3
ENDBRANCH   1   2
BRANCH   1   8
ATOM      8  C   UNL     1      42.842  22.518  21.267  1.00  0.00     0.000 C 
BRANCH   8   9
ATOM      9  C   UNL     1      43.592  21.178  21.187  1.00  0.00    -0.000 C 
BRANCH   9  10
ATOM     10  C   UNL     1      44.918  21.193  21.965  1.00  0.00    -0.000 C 
BRANCH  10  11
ATOM     11  C   UNL     1      46.140  21.363  21.047  1.00  0.00    -0.000 C 
BRANCH  11  12
ATOM     12  C   UNL     1      46.600  22.825  20.945  1.00  0.00    -0.003 C 
ATOM     13  C   UNL     1      46.455  23.396  19.534  1.00  0.00     0.004 C 
ENDBRANCH  11  12
ENDBRANCH  10  11
ENDBRANCH   9  10
ENDBRANCH   8   9
ENDBRANCH   1   8
TORSDOF 9
ENDMDL
MODEL 8
REMARK VINA RESULT:    -4.363     10.475     12.643
REMARK INTER + INTRA:          -7.227
REMARK INTER:                  -6.279
REMARK INTRA:                  -0.948
REMARK UNBOUND:                -0.569
REMARK SMILES CCCCCCCCCCC(=O)[O-]
REMARK SMILES IDX 7 1 8 2 9 3 10 4 11 5 12 6 13 7 6 8 5 9 4 10 3 11 2 12 1 13
REMARK H PARENT
REMARK Flexibility Score: inf
ROOT
ATOM      1  C   UNL     1      45.834  32.207  13.492  1.00  0.00     0.000 C 
ENDROOT
BRANCH   1   2
ATOM      2  C   UNL     1      45.453  33.585  14.063  1.00  0.00     0.000 C 
BRANCH   2   3
ATOM      3  C   UNL     1      45.201  33.614  15.584  1.00  0.00     0.006 C 
BRANCH   3   4
ATOM      4  C   UNL     1      44.213  32.550  16.087  1.00  0.00     0.053 C 
BRANCH   4   5
ATOM      5  C   UNL     1      42.845  32.733  15.505  1.00  0.00     0.041 C 
ATOM      6  O   UNL     1      42.097  33.653  15.925  1.00  0.00    -0.550 OA
ATOM      7  O   UNL     1      42.385  31.866  14.522  1.00  0.00    -0.550 OA
ENDBRANCH   4   5
ENDBRANCH   3   4
ENDBRANCH   2   3
ENDBRANCH   1   2
BRANCH   1   8
ATOM      8  C   UNL     1      45.504  32.065  11.999  1.00  0.00     0.000 C 
BRANCH   8   9
ATOM      9  C   UNL     1      46.772  32.205  11.142  1.00  0.00    -0.000 C 
BRANCH   9  10
ATOM     10  C   UNL     1      46.896  33.589  10.484  1.00  0.00    -0.000 C 
BRANCH  10  11
ATOM     11  C   UNL     1      47.850  34.523  11.246  1.00  0.00    -0.000 C 
BRANCH  11  12
ATOM     12  C   UNL     1      47.161  35.817  11.708  1.00  0.00    -0.003 C 
ATOM     13  C   UNL     1      45.802  36.035  11.045  1.00  0.00     0.004 C 
ENDBRANCH  11  12
ENDBRANCH  10  11
ENDBRANCH   9  10
ENDBRANCH   8   9
ENDBRANCH   1   8
TORSDOF 9
ENDMDL
