MODEL 1
REMARK VINA RESULT:    -3.067      0.000      0.000
REMARK INTER + INTRA:          -3.711
REMARK INTER:                  -3.605
REMARK INTRA:                  -0.106
REMARK UNBOUND:                -0.106
REMARK SMILES O=C([O-])CCC(=O)[O-]
REMARK SMILES IDX 4 1 2 2 1 3 3 4 5 5 6 6 7 7 8 8
REMARK H PARENT
REMARK Flexibility Score: inf
ROOT
ATOM      1  C   UNL     1     112.884 107.701 123.762  1.00  0.00     0.059 C 
ENDROOT
BRANCH   1   2
ATOM      2  C   UNL     1     111.483 108.020 124.188  1.00  0.00     0.042 C 
ATOM      3  O   UNL     1     110.862 107.241 124.957  1.00  0.00    -0.550 OA
ATOM      4  O   UNL     1     110.879 109.199 123.768  1.00  0.00    -0.550 OA
ENDBRANCH   1   2
BRANCH   1   5
ATOM      5  C   UNL     1     113.260 106.254 124.095  1.00  0.00     0.059 C 
BRANCH   5   6
ATOM      6  C   UNL     1     114.191 106.183 125.267  1.00  0.00     0.042 C 
ATOM      7  O   UNL     1     115.425 106.370 125.109  1.00  0.00    -0.550 OA
ATOM      8  O   UNL     1     113.698 105.871 126.529  1.00  0.00    -0.550 OA
ENDBRANCH   5   6
ENDBRANCH   1   5
TORSDOF 3
ENDMDL
MODEL 2
REMARK VINA RESULT:    -3.044      1.302      3.783
REMARK INTER + INTRA:          -3.684
REMARK INTER:                  -3.547
REMARK INTRA:                  -0.138
REMARK UNBOUND:                -0.106
REMARK SMILES O=C([O-])CCC(=O)[O-]
REMARK SMILES IDX 4 1 2 2 1 3 3 4 5 5 6 6 7 7 8 8
REMARK H PARENT
REMARK Flexibility Score: inf
ROOT
ATOM      1  C   UNL     1     113.450 107.248 124.078  1.00  0.00     0.059 C 
ENDROOT
BRANCH   1   2
ATOM      2  C   UNL     1     113.751 105.981 124.820  1.00  0.00     0.042 C 
ATOM      3  O   UNL     1     114.016 104.925 124.190  1.00  0.00    -0.550 OA
ATOM      4  O   UNL     1     113.777 105.979 126.210  1.00  0.00    -0.550 OA
ENDBRANCH   1   2
BRANCH   1   5
ATOM      5  C   UNL     1     112.319 107.051 123.062  1.00  0.00     0.059 C 
BRANCH   5   6
ATOM      6  C   UNL     1     110.978 107.016 123.731  1.00  0.00     0.042 C 
ATOM      7  O   UNL     1     110.055 106.300 123.264  1.00  0.00    -0.550 OA
ATOM      8  O   UNL     1     110.738 107.805 124.850  1.00  0.00    -0.550 OA
ENDBRANCH   5   6
ENDBRANCH   1   5
TORSDOF 3
ENDMDL
MODEL 3
REMARK VINA RESULT:    -3.035      1.303      1.457
REMARK INTER + INTRA:          -3.674
REMARK INTER:                  -3.549
REMARK INTRA:                  -0.125
REMARK UNBOUND:                -0.106
REMARK SMILES O=C([O-])CCC(=O)[O-]
REMARK SMILES IDX 4 1 2 2 1 3 3 4 5 5 6 6 7 7 8 8
REMARK H PARENT
REMARK Flexibility Score: inf
ROOT
ATOM      1  C   UNL     1     112.371 107.052 123.027  1.00  0.00     0.059 C 
ENDROOT
BRANCH   1   2
ATOM      2  C   UNL     1     111.037 107.018 123.710  1.00  0.00     0.042 C 
ATOM      3  O   UNL     1     110.128 106.257 123.287  1.00  0.00    -0.550 OA
ATOM      4  O   UNL     1     110.814 107.796 124.839  1.00  0.00    -0.550 OA
ENDBRANCH   1   2
BRANCH   1   5
ATOM      5  C   UNL     1     113.506 107.325 124.019  1.00  0.00     0.059 C 
BRANCH   5   6
ATOM      6  C   UNL     1     113.870 106.093 124.791  1.00  0.00     0.042 C 
ATOM      7  O   UNL     1     113.934 104.977 124.212  1.00  0.00    -0.550 OA
ATOM      8  O   UNL     1     114.101 106.172 126.159  1.00  0.00    -0.550 OA
ENDBRANCH   5   6
ENDBRANCH   1   5
TORSDOF 3
ENDMDL
MODEL 4
REMARK VINA RESULT:    -3.015      0.966      3.837
REMARK INTER + INTRA:          -3.650
REMARK INTER:                  -3.538
REMARK INTRA:                  -0.112
REMARK UNBOUND:                -0.106
REMARK SMILES O=C([O-])CCC(=O)[O-]
REMARK SMILES IDX 4 1 2 2 1 3 3 4 5 5 6 6 7 7 8 8
REMARK H PARENT
REMARK Flexibility Score: inf
ROOT
ATOM      1  C   UNL     1     113.826 106.056 124.232  1.00  0.00     0.059 C 
ENDROOT
BRANCH   1   2
ATOM      2  C   UNL     1     114.380 106.184 125.618  1.00  0.00     0.042 C 
ATOM      3  O   UNL     1     113.660 105.914 126.615  1.00  0.00    -0.550 OA
ATOM      4  O   UNL     1     115.704 106.561 125.806  1.00  0.00    -0.550 OA
ENDBRANCH   1   2
BRANCH   1   5
ATOM      5  C   UNL     1     112.998 107.285 123.839  1.00  0.00     0.059 C 
BRANCH   5   6
ATOM      6  C   UNL     1     111.528 107.011 123.931  1.00  0.00     0.042 C 
ATOM      7  O   UNL     1     110.856 107.470 124.892  1.00  0.00    -0.550 OA
ATOM      8  O   UNL     1     110.908 106.215 122.976  1.00  0.00    -0.550 OA
ENDBRANCH   5   6
ENDBRANCH   1   5
TORSDOF 3
ENDMDL
MODEL 5
REMARK VINA RESULT:    -2.972      1.012      1.666
REMARK INTER + INTRA:          -3.600
REMARK INTER:                  -3.494
REMARK INTRA:                  -0.106
REMARK UNBOUND:                -0.106
REMARK SMILES O=C([O-])CCC(=O)[O-]
REMARK SMILES IDX 4 1 2 2 1 3 3 4 5 5 6 6 7 7 8 8
REMARK H PARENT
REMARK Flexibility Score: inf
ROOT
ATOM      1  C   UNL     1     113.107 107.350 123.797  1.00  0.00     0.059 C 
ENDROOT
BRANCH   1   2
ATOM      2  C   UNL     1     111.660 106.962 123.831  1.00  0.00     0.042 C 
ATOM      3  O   UNL     1     111.192 106.181 122.962  1.00  0.00    -0.550 OA
ATOM      4  O   UNL     1     110.838 107.432 124.849  1.00  0.00    -0.550 OA
ENDBRANCH   1   2
BRANCH   1   5
ATOM      5  C   UNL     1     114.018 106.164 124.129  1.00  0.00     0.059 C 
BRANCH   5   6
ATOM      6  C   UNL     1     114.500 106.221 125.547  1.00  0.00     0.042 C 
ATOM      7  O   UNL     1     113.725 105.922 126.493  1.00  0.00    -0.550 OA
ATOM      8  O   UNL     1     115.794 106.642 125.825  1.00  0.00    -0.550 OA
ENDBRANCH   5   6
ENDBRANCH   1   5
TORSDOF 3
ENDMDL
MODEL 6
REMARK VINA RESULT:    -2.933      3.273      4.227
REMARK INTER + INTRA:          -3.554
REMARK INTER:                  -3.500
REMARK INTRA:                  -0.054
REMARK UNBOUND:                -0.106
REMARK SMILES O=C([O-])CCC(=O)[O-]
REMARK SMILES IDX 4 1 2 2 1 3 3 4 5 5 6 6 7 7 8 8
REMARK H PARENT
REMARK Flexibility Score: inf
ROOT
ATOM      1  C   UNL     1     113.985 106.787 122.539  1.00  0.00     0.059 C 
ENDROOT
BRANCH   1   2
ATOM      2  C   UNL     1     113.508 106.311 123.877  1.00  0.00     0.042 C 
ATOM      3  O   UNL     1     112.599 106.936 124.485  1.00  0.00    -0.550 OA
ATOM      4  O   UNL     1     114.039 105.154 124.434  1.00  0.00    -0.550 OA
ENDBRANCH   1   2
BRANCH   1   5
ATOM      5  C   UNL     1     115.433 106.363 122.272  1.00  0.00     0.059 C 
BRANCH   5   6
ATOM      6  C   UNL     1     115.616 105.888 120.862  1.00  0.00     0.042 C 
ATOM      7  O   UNL     1     114.746 106.144 119.989  1.00  0.00    -0.550 OA
ATOM      8  O   UNL     1     116.730 105.129 120.523  1.00  0.00    -0.550 OA
ENDBRANCH   5   6
ENDBRANCH   1   5
TORSDOF 3
ENDMDL
MODEL 7
REMARK VINA RESULT:    -2.864      2.274      4.178
REMARK INTER + INTRA:          -3.473
REMARK INTER:                  -3.378
REMARK INTRA:                  -0.095
REMARK UNBOUND:                -0.106
REMARK SMILES O=C([O-])CCC(=O)[O-]
REMARK SMILES IDX 4 1 2 2 1 3 3 4 5 5 6 6 7 7 8 8
REMARK H PARENT
REMARK Flexibility Score: inf
ROOT
ATOM      1  C   UNL     1     112.614 107.048 124.110  1.00  0.00     0.059 C 
ENDROOT
BRANCH   1   2
ATOM      2  C   UNL     1     113.691 106.182 124.689  1.00  0.00     0.042 C 
ATOM      3  O   UNL     1     114.541 105.640 123.936  1.00  0.00    -0.550 OA
ATOM      4  O   UNL     1     113.778 106.007 126.065  1.00  0.00    -0.550 OA
ENDBRANCH   1   2
BRANCH   1   5
ATOM      5  C   UNL     1     112.752 107.178 122.589  1.00  0.00     0.059 C 
BRANCH   5   6
ATOM      6  C   UNL     1     111.726 106.354 121.872  1.00  0.00     0.042 C 
ATOM      7  O   UNL     1     110.791 105.807 122.513  1.00  0.00    -0.550 OA
ATOM      8  O   UNL     1     111.826 106.158 120.500  1.00  0.00    -0.550 OA
ENDBRANCH   5   6
ENDBRANCH   1   5
TORSDOF 3
ENDMDL
MODEL 8
REMARK VINA RESULT:    -2.823      2.468      2.628
REMARK INTER + INTRA:          -3.425
REMARK INTER:                  -3.345
REMARK INTRA:                  -0.080
REMARK UNBOUND:                -0.106
REMARK SMILES O=C([O-])CCC(=O)[O-]
REMARK SMILES IDX 4 1 2 2 1 3 3 4 5 5 6 6 7 7 8 8
REMARK H PARENT
REMARK Flexibility Score: inf
ROOT
ATOM      1  C   UNL     1     112.558 107.340 122.394  1.00  0.00     0.059 C 
ENDROOT
BRANCH   1   2
ATOM      2  C   UNL     1     111.686 106.532 121.482  1.00  0.00     0.042 C 
ATOM      3  O   UNL     1     112.114 106.168 120.355  1.00  0.00    -0.550 OA
ATOM      4  O   UNL     1     110.416 106.147 121.894  1.00  0.00    -0.550 OA
ENDBRANCH   1   2
BRANCH   1   5
ATOM      5  C   UNL     1     112.425 106.886 123.851  1.00  0.00     0.059 C 
BRANCH   5   6
ATOM      6  C   UNL     1     113.681 106.232 124.341  1.00  0.00     0.042 C 
ATOM      7  O   UNL     1     114.542 105.819 123.521  1.00  0.00    -0.550 OA
ATOM      8  O   UNL     1     113.882 106.045 125.703  1.00  0.00    -0.550 OA
ENDBRANCH   5   6
ENDBRANCH   1   5
TORSDOF 3
ENDMDL
MODEL 9
REMARK VINA RESULT:    -2.779      3.164      4.440
REMARK INTER + INTRA:          -3.372
REMARK INTER:                  -3.258
REMARK INTRA:                  -0.114
REMARK UNBOUND:                -0.106
REMARK SMILES O=C([O-])CCC(=O)[O-]
REMARK SMILES IDX 4 1 2 2 1 3 3 4 5 5 6 6 7 7 8 8
REMARK H PARENT
REMARK Flexibility Score: inf
ROOT
ATOM      1  C   UNL     1     115.249 106.241 122.631  1.00  0.00     0.059 C 
ENDROOT
BRANCH   1   2
ATOM      2  C   UNL     1     115.491 106.056 121.164  1.00  0.00     0.042 C 
ATOM      3  O   UNL     1     116.493 105.408 120.764  1.00  0.00    -0.550 OA
ATOM      4  O   UNL     1     114.586 106.566 120.240  1.00  0.00    -0.550 OA
ENDBRANCH   1   2
BRANCH   1   5
ATOM      5  C   UNL     1     114.200 107.326 122.899  1.00  0.00     0.059 C 
BRANCH   5   6
ATOM      6  C   UNL     1     112.947 106.747 123.483  1.00  0.00     0.042 C 
ATOM      7  O   UNL     1     112.784 106.718 124.731  1.00  0.00    -0.550 OA
ATOM      8  O   UNL     1     111.976 106.204 122.650  1.00  0.00    -0.550 OA
ENDBRANCH   5   6
ENDBRANCH   1   5
TORSDOF 3
ENDMDL
