MODEL 1
REMARK VINA RESULT:    -4.411      0.000      0.000
REMARK INTER + INTRA:          -4.832
REMARK INTER:                  -4.669
REMARK INTRA:                  -0.163
REMARK UNBOUND:                -0.163
REMARK SMILES C=C(C)[C@H]1CC=C(C)CC1
REMARK SMILES IDX 8 1 7 2 6 3 5 4 4 5 10 6 9 7 2 8 1 9 3 10
REMARK H PARENT
REMARK Flexibility Score: inf
ROOT
ATOM      1  C   UNL     1     139.039 137.125 164.948  1.00  0.00     0.039 C 
ATOM      2  C   UNL     1     138.213 137.024 163.696  1.00  0.00    -0.077 C 
ATOM      3  C   UNL     1     138.617 136.240 162.682  1.00  0.00    -0.027 C 
ATOM      4  C   UNL     1     137.753 136.112 161.459  1.00  0.00     0.035 C 
ATOM      5  C   UNL     1     136.278 135.883 161.868  1.00  0.00     0.018 C 
ATOM      6  C   UNL     1     135.803 136.810 163.036  1.00  0.00     0.013 C 
ATOM      7  C   UNL     1     136.898 137.756 163.561  1.00  0.00     0.031 C 
ENDROOT
BRANCH   5   8
ATOM      8  C   UNL     1     135.360 135.981 160.656  1.00  0.00    -0.077 C 
ATOM      9  C   UNL     1     134.888 134.875 160.057  1.00  0.00     0.008 C 
ATOM     10  C   UNL     1     134.964 137.328 160.109  1.00  0.00     0.039 C 
ENDBRANCH   5   8
TORSDOF 1
ENDMDL
MODEL 2
REMARK VINA RESULT:    -3.719     14.156     16.325
REMARK INTER + INTRA:          -4.100
REMARK INTER:                  -3.940
REMARK INTRA:                  -0.159
REMARK UNBOUND:                -0.163
REMARK SMILES C=C(C)[C@H]1CC=C(C)CC1
REMARK SMILES IDX 8 1 7 2 6 3 5 4 4 5 10 6 9 7 2 8 1 9 3 10
REMARK H PARENT
REMARK Flexibility Score: inf
ROOT
ATOM      1  C   UNL     1     150.325 136.746 158.797  1.00  0.00     0.039 C 
ATOM      2  C   UNL     1     151.058 136.813 160.107  1.00  0.00    -0.077 C 
ATOM      3  C   UNL     1     151.489 135.686 160.699  1.00  0.00    -0.027 C 
ATOM      4  C   UNL     1     152.265 135.778 161.983  1.00  0.00     0.035 C 
ATOM      5  C   UNL     1     153.353 136.873 161.874  1.00  0.00     0.018 C 
ATOM      6  C   UNL     1     152.844 138.193 161.202  1.00  0.00     0.013 C 
ATOM      7  C   UNL     1     151.369 138.138 160.765  1.00  0.00     0.031 C 
ENDROOT
BRANCH   5   8
ATOM      8  C   UNL     1     153.991 137.138 163.231  1.00  0.00    -0.077 C 
ATOM      9  C   UNL     1     154.833 136.247 163.782  1.00  0.00     0.008 C 
ATOM     10  C   UNL     1     153.689 138.410 163.980  1.00  0.00     0.039 C 
ENDBRANCH   5   8
TORSDOF 1
ENDMDL
MODEL 3
REMARK VINA RESULT:    -3.671     16.322     17.666
REMARK INTER + INTRA:          -4.049
REMARK INTER:                  -3.890
REMARK INTRA:                  -0.159
REMARK UNBOUND:                -0.163
REMARK SMILES C=C(C)[C@H]1CC=C(C)CC1
REMARK SMILES IDX 8 1 7 2 6 3 5 4 4 5 10 6 9 7 2 8 1 9 3 10
REMARK H PARENT
REMARK Flexibility Score: inf
ROOT
ATOM      1  C   UNL     1     140.408 154.011 158.834  1.00  0.00     0.039 C 
ATOM      2  C   UNL     1     139.668 153.953 160.141  1.00  0.00    -0.077 C 
ATOM      3  C   UNL     1     139.192 155.079 160.698  1.00  0.00    -0.027 C 
ATOM      4  C   UNL     1     138.410 154.994 161.980  1.00  0.00     0.035 C 
ATOM      5  C   UNL     1     137.364 153.856 161.894  1.00  0.00     0.018 C 
ATOM      6  C   UNL     1     137.926 152.538 161.262  1.00  0.00     0.013 C 
ATOM      7  C   UNL     1     139.402 152.636 160.833  1.00  0.00     0.031 C 
ENDROOT
BRANCH   5   8
ATOM      8  C   UNL     1     136.726 153.605 163.254  1.00  0.00    -0.077 C 
ATOM      9  C   UNL     1     135.853 154.481 163.778  1.00  0.00     0.008 C 
ATOM     10  C   UNL     1     137.065 152.363 164.036  1.00  0.00     0.039 C 
ENDBRANCH   5   8
TORSDOF 1
ENDMDL
MODEL 4
REMARK VINA RESULT:    -3.309     14.659     15.810
REMARK INTER + INTRA:          -3.666
REMARK INTER:                  -3.508
REMARK INTRA:                  -0.157
REMARK UNBOUND:                -0.163
REMARK SMILES C=C(C)[C@H]1CC=C(C)CC1
REMARK SMILES IDX 8 1 7 2 6 3 5 4 4 5 10 6 9 7 2 8 1 9 3 10
REMARK H PARENT
REMARK Flexibility Score: inf
ROOT
ATOM      1  C   UNL     1     154.165 139.037 164.657  1.00  0.00     0.039 C 
ATOM      2  C   UNL     1     153.680 138.182 163.520  1.00  0.00    -0.077 C 
ATOM      3  C   UNL     1     153.246 136.931 163.752  1.00  0.00    -0.027 C 
ATOM      4  C   UNL     1     152.716 136.110 162.610  1.00  0.00     0.035 C 
ATOM      5  C   UNL     1     151.742 136.953 161.752  1.00  0.00     0.018 C 
ATOM      6  C   UNL     1     152.258 138.403 161.465  1.00  0.00     0.013 C 
ATOM      7  C   UNL     1     153.623 138.714 162.107  1.00  0.00     0.031 C 
ENDROOT
BRANCH   5   8
ATOM      8  C   UNL     1     151.378 136.217 160.469  1.00  0.00    -0.077 C 
ATOM      9  C   UNL     1     151.424 134.876 160.406  1.00  0.00     0.008 C 
ATOM     10  C   UNL     1     150.956 136.986 159.244  1.00  0.00     0.039 C 
ENDBRANCH   5   8
TORSDOF 1
ENDMDL
MODEL 5
REMARK VINA RESULT:    -3.007     13.958     16.330
REMARK INTER + INTRA:          -3.346
REMARK INTER:                  -3.187
REMARK INTRA:                  -0.159
REMARK UNBOUND:                -0.163
REMARK SMILES C=C(C)[C@H]1CC=C(C)CC1
REMARK SMILES IDX 8 1 7 2 6 3 5 4 4 5 10 6 9 7 2 8 1 9 3 10
REMARK H PARENT
REMARK Flexibility Score: inf
ROOT
ATOM      1  C   UNL     1     149.806 137.409 159.550  1.00  0.00     0.039 C 
ATOM      2  C   UNL     1     151.063 137.101 160.314  1.00  0.00    -0.077 C 
ATOM      3  C   UNL     1     151.930 138.082 160.614  1.00  0.00    -0.027 C 
ATOM      4  C   UNL     1     153.156 137.763 161.424  1.00  0.00     0.035 C 
ATOM      5  C   UNL     1     152.781 136.877 162.636  1.00  0.00     0.018 C 
ATOM      6  C   UNL     1     151.786 135.721 162.281  1.00  0.00     0.013 C 
ATOM      7  C   UNL     1     151.362 135.701 160.801  1.00  0.00     0.031 C 
ENDROOT
BRANCH   5   8
ATOM      8  C   UNL     1     154.031 136.355 163.331  1.00  0.00    -0.077 C 
ATOM      9  C   UNL     1     154.911 137.201 163.894  1.00  0.00     0.008 C 
ATOM     10  C   UNL     1     154.302 134.875 163.401  1.00  0.00     0.039 C 
ENDBRANCH   5   8
TORSDOF 1
ENDMDL
MODEL 6
REMARK VINA RESULT:    -2.920     14.230     15.953
REMARK INTER + INTRA:          -3.253
REMARK INTER:                  -3.098
REMARK INTRA:                  -0.155
REMARK UNBOUND:                -0.163
REMARK SMILES C=C(C)[C@H]1CC=C(C)CC1
REMARK SMILES IDX 8 1 7 2 6 3 5 4 4 5 10 6 9 7 2 8 1 9 3 10
REMARK H PARENT
REMARK Flexibility Score: inf
ROOT
ATOM      1  C   UNL     1     154.777 138.900 164.423  1.00  0.00     0.039 C 
ATOM      2  C   UNL     1     153.737 138.371 163.475  1.00  0.00    -0.077 C 
ATOM      3  C   UNL     1     153.578 138.934 162.265  1.00  0.00    -0.027 C 
ATOM      4  C   UNL     1     152.568 138.359 161.311  1.00  0.00     0.035 C 
ATOM      5  C   UNL     1     152.694 136.817 161.265  1.00  0.00     0.018 C 
ATOM      6  C   UNL     1     152.860 136.161 162.677  1.00  0.00     0.013 C 
ATOM      7  C   UNL     1     152.883 137.177 163.833  1.00  0.00     0.031 C 
ENDROOT
BRANCH   5   8
ATOM      8  C   UNL     1     151.537 136.204 160.487  1.00  0.00    -0.077 C 
ATOM      9  C   UNL     1     151.338 134.875 160.480  1.00  0.00     0.008 C 
ATOM     10  C   UNL     1     150.590 137.083 159.712  1.00  0.00     0.039 C 
ENDBRANCH   5   8
TORSDOF 1
ENDMDL
MODEL 7
REMARK VINA RESULT:    -2.874     16.333     17.629
REMARK INTER + INTRA:          -3.205
REMARK INTER:                  -3.049
REMARK INTRA:                  -0.156
REMARK UNBOUND:                -0.163
REMARK SMILES C=C(C)[C@H]1CC=C(C)CC1
REMARK SMILES IDX 8 1 7 2 6 3 5 4 4 5 10 6 9 7 2 8 1 9 3 10
REMARK H PARENT
REMARK Flexibility Score: inf
ROOT
ATOM      1  C   UNL     1     140.929 153.581 159.433  1.00  0.00     0.039 C 
ATOM      2  C   UNL     1     139.639 153.645 160.202  1.00  0.00    -0.077 C 
ATOM      3  C   UNL     1     139.029 152.513 160.593  1.00  0.00    -0.027 C 
ATOM      4  C   UNL     1     137.767 152.598 161.406  1.00  0.00     0.035 C 
ATOM      5  C   UNL     1     137.932 153.636 162.542  1.00  0.00     0.018 C 
ATOM      6  C   UNL     1     138.625 154.962 162.081  1.00  0.00     0.013 C 
ATOM      7  C   UNL     1     139.023 154.968 160.593  1.00  0.00     0.031 C 
ENDROOT
BRANCH   5   8
ATOM      8  C   UNL     1     136.598 153.903 163.227  1.00  0.00    -0.077 C 
ATOM      9  C   UNL     1     136.297 155.124 163.700  1.00  0.00     0.008 C 
ATOM     10  C   UNL     1     135.587 152.796 163.382  1.00  0.00     0.039 C 
ENDBRANCH   5   8
TORSDOF 1
ENDMDL
MODEL 8
REMARK VINA RESULT:    -2.860     13.864     15.678
REMARK INTER + INTRA:          -3.190
REMARK INTER:                  -3.026
REMARK INTRA:                  -0.164
REMARK UNBOUND:                -0.163
REMARK SMILES C=C(C)[C@H]1CC=C(C)CC1
REMARK SMILES IDX 8 1 7 2 6 3 5 4 4 5 10 6 9 7 2 8 1 9 3 10
REMARK H PARENT
REMARK Flexibility Score: inf
ROOT
ATOM      1  C   UNL     1     154.771 136.220 163.815  1.00  0.00     0.039 C 
ATOM      2  C   UNL     1     153.633 136.577 162.900  1.00  0.00    -0.077 C 
ATOM      3  C   UNL     1     153.612 137.770 162.283  1.00  0.00    -0.027 C 
ATOM      4  C   UNL     1     152.492 138.089 161.332  1.00  0.00     0.035 C 
ATOM      5  C   UNL     1     152.243 136.895 160.379  1.00  0.00     0.018 C 
ATOM      6  C   UNL     1     152.248 135.507 161.104  1.00  0.00     0.013 C 
ATOM      7  C   UNL     1     152.517 135.599 162.617  1.00  0.00     0.031 C 
ENDROOT
BRANCH   5   8
ATOM      8  C   UNL     1     150.970 137.107 159.570  1.00  0.00    -0.077 C 
ATOM      9  C   UNL     1     149.947 137.822 160.067  1.00  0.00     0.008 C 
ATOM     10  C   UNL     1     150.839 136.518 158.189  1.00  0.00     0.039 C 
ENDBRANCH   5   8
TORSDOF 1
ENDMDL
