MODEL 1
REMARK VINA RESULT:    -3.240      0.000      0.000
REMARK INTER + INTRA:          -3.240
REMARK INTER:                  -3.240
REMARK INTRA:                   0.000
REMARK UNBOUND:                 0.000
REMARK SMILES CC(=O)[O-]
REMARK SMILES IDX 1 1 2 2 3 3 4 4
REMARK H PARENT
REMARK Flexibility Score: inf
ROOT
ATOM      1  C   UNL     1     125.978 117.273 104.727  1.00  0.00     0.063 C 
ATOM      2  C   UNL     1     125.283 117.296 106.046  1.00  0.00     0.038 C 
ATOM      3  O   UNL     1     124.815 116.233 106.532  1.00  0.00    -0.550 OA
ATOM      4  O   UNL     1     125.198 118.479 106.767  1.00  0.00    -0.550 OA
ENDROOT
TORSDOF 0
ENDMDL
MODEL 2
REMARK VINA RESULT:    -3.183      0.126      1.623
REMARK INTER + INTRA:          -3.183
REMARK INTER:                  -3.183
REMARK INTRA:                   0.000
REMARK UNBOUND:                 0.000
REMARK SMILES CC(=O)[O-]
REMARK SMILES IDX 1 1 2 2 3 3 4 4
REMARK H PARENT
REMARK Flexibility Score: inf
ROOT
ATOM      1  C   UNL     1     125.815 117.361 104.677  1.00  0.00     0.063 C 
ATOM      2  C   UNL     1     125.248 117.367 106.055  1.00  0.00     0.038 C 
ATOM      3  O   UNL     1     125.210 118.436 106.719  1.00  0.00    -0.550 OA
ATOM      4  O   UNL     1     124.708 116.204 106.591  1.00  0.00    -0.550 OA
ENDROOT
TORSDOF 0
ENDMDL
MODEL 3
REMARK VINA RESULT:    -3.129      1.186      2.182
REMARK INTER + INTRA:          -3.129
REMARK INTER:                  -3.129
REMARK INTRA:                   0.000
REMARK UNBOUND:                 0.000
REMARK SMILES CC(=O)[O-]
REMARK SMILES IDX 1 1 2 2 3 3 4 4
REMARK H PARENT
REMARK Flexibility Score: inf
ROOT
ATOM      1  C   UNL     1     123.307 117.745 105.363  1.00  0.00     0.063 C 
ATOM      2  C   UNL     1     124.453 117.499 106.285  1.00  0.00     0.038 C 
ATOM      3  O   UNL     1     125.062 118.469 106.808  1.00  0.00    -0.550 OA
ATOM      4  O   UNL     1     124.816 116.200 106.613  1.00  0.00    -0.550 OA
ENDROOT
TORSDOF 0
ENDMDL
MODEL 4
REMARK VINA RESULT:    -2.693      3.535      3.713
REMARK INTER + INTRA:          -2.693
REMARK INTER:                  -2.693
REMARK INTRA:                   0.000
REMARK UNBOUND:                 0.000
REMARK SMILES CC(=O)[O-]
REMARK SMILES IDX 1 1 2 2 3 3 4 4
REMARK H PARENT
REMARK Flexibility Score: inf
ROOT
ATOM      1  C   UNL     1     127.297 116.838 102.740  1.00  0.00     0.063 C 
ATOM      2  C   UNL     1     126.949 118.200 103.239  1.00  0.00     0.038 C 
ATOM      3  O   UNL     1     127.803 118.881 103.863  1.00  0.00    -0.550 OA
ATOM      4  O   UNL     1     125.699 118.742 102.969  1.00  0.00    -0.550 OA
ENDROOT
TORSDOF 0
ENDMDL
MODEL 5
REMARK VINA RESULT:    -2.629      3.577      3.630
REMARK INTER + INTRA:          -2.629
REMARK INTER:                  -2.629
REMARK INTRA:                   0.000
REMARK UNBOUND:                 0.000
REMARK SMILES CC(=O)[O-]
REMARK SMILES IDX 1 1 2 2 3 3 4 4
REMARK H PARENT
REMARK Flexibility Score: inf
ROOT
ATOM      1  C   UNL     1     126.928 116.811 102.611  1.00  0.00     0.063 C 
ATOM      2  C   UNL     1     126.726 118.204 103.102  1.00  0.00     0.038 C 
ATOM      3  O   UNL     1     125.631 118.792 102.906  1.00  0.00    -0.550 OA
ATOM      4  O   UNL     1     127.728 118.839 103.826  1.00  0.00    -0.550 OA
ENDROOT
TORSDOF 0
ENDMDL
MODEL 6
REMARK VINA RESULT:    -2.584      3.373      3.965
REMARK INTER + INTRA:          -2.584
REMARK INTER:                  -2.584
REMARK INTRA:                   0.000
REMARK UNBOUND:                 0.000
REMARK SMILES CC(=O)[O-]
REMARK SMILES IDX 1 1 2 2 3 3 4 4
REMARK H PARENT
REMARK Flexibility Score: inf
ROOT
ATOM      1  C   UNL     1     120.906 116.939 107.827  1.00  0.00     0.063 C 
ATOM      2  C   UNL     1     122.377 116.830 107.608  1.00  0.00     0.038 C 
ATOM      3  O   UNL     1     123.166 116.865 108.588  1.00  0.00    -0.550 OA
ATOM      4  O   UNL     1     122.878 116.634 106.327  1.00  0.00    -0.550 OA
ENDROOT
TORSDOF 0
ENDMDL
MODEL 7
REMARK VINA RESULT:    -2.579      1.379      1.858
REMARK INTER + INTRA:          -2.579
REMARK INTER:                  -2.579
REMARK INTRA:                   0.000
REMARK UNBOUND:                 0.000
REMARK SMILES CC(=O)[O-]
REMARK SMILES IDX 1 1 2 2 3 3 4 4
REMARK H PARENT
REMARK Flexibility Score: inf
ROOT
ATOM      1  C   UNL     1     125.570 117.266 104.544  1.00  0.00     0.063 C 
ATOM      2  C   UNL     1     126.146 118.058 105.668  1.00  0.00     0.038 C 
ATOM      3  O   UNL     1     127.342 118.448 105.619  1.00  0.00    -0.550 OA
ATOM      4  O   UNL     1     125.349 118.414 106.748  1.00  0.00    -0.550 OA
ENDROOT
TORSDOF 0
ENDMDL
MODEL 8
REMARK VINA RESULT:    -2.254     13.507     13.929
REMARK INTER + INTRA:          -2.254
REMARK INTER:                  -2.254
REMARK INTRA:                   0.000
REMARK UNBOUND:                 0.000
REMARK SMILES CC(=O)[O-]
REMARK SMILES IDX 1 1 2 2 3 3 4 4
REMARK H PARENT
REMARK Flexibility Score: inf
ROOT
ATOM      1  C   UNL     1     127.638 117.142  93.759  1.00  0.00     0.063 C 
ATOM      2  C   UNL     1     128.584 116.882  92.637  1.00  0.00     0.038 C 
ATOM      3  O   UNL     1     129.826 116.929  92.833  1.00  0.00    -0.550 OA
ATOM      4  O   UNL     1     128.097 116.534  91.383  1.00  0.00    -0.550 OA
ENDROOT
TORSDOF 0
ENDMDL
MODEL 9
REMARK VINA RESULT:    -2.194     10.396     11.065
REMARK INTER + INTRA:          -2.194
REMARK INTER:                  -2.194
REMARK INTRA:                   0.000
REMARK UNBOUND:                 0.000
REMARK SMILES CC(=O)[O-]
REMARK SMILES IDX 1 1 2 2 3 3 4 4
REMARK H PARENT
REMARK Flexibility Score: inf
ROOT
ATOM      1  C   UNL     1     119.370 108.898 105.138  1.00  0.00     0.063 C 
ATOM      2  C   UNL     1     120.242 107.870 104.502  1.00  0.00     0.038 C 
ATOM      3  O   UNL     1     121.308 108.213 103.929  1.00  0.00    -0.550 OA
ATOM      4  O   UNL     1     119.908 106.524 104.588  1.00  0.00    -0.550 OA
ENDROOT
TORSDOF 0
ENDMDL
