MODEL 1
REMARK VINA RESULT:    -3.384      0.000      0.000
REMARK INTER + INTRA:          -3.648
REMARK INTER:                  -4.077
REMARK INTRA:                   0.429
REMARK UNBOUND:                 0.429
REMARK SMILES O=c1c(O)c(-c2ccc(O)c(O)c2)oc2cc(O)cc(O)c12
REMARK SMILES IDX 5 1 3 2 2 3 1 4 22 5 20 6 19 7 17 8 16 9 15 10 14 11 6 12
REMARK SMILES IDX 7 13 8 14 9 15 13 16 11 17 10 18 12 20 4 22 21 24 18 26
REMARK H PARENT 10 19 12 21 4 23 21 25 18 27
REMARK Flexibility Score: inf
ROOT
ATOM      1  C   UNL     1      52.305  26.136  57.967  1.00  0.00     0.180 A 
ATOM      2  C   UNL     1      51.254  26.851  57.362  1.00  0.00     0.208 A 
ATOM      3  C   UNL     1      50.969  28.150  57.814  1.00  0.00     0.238 A 
ATOM      4  O   UNL     1      50.023  28.796  57.288  1.00  0.00    -0.285 OA
ATOM      5  C   UNL     1      51.749  28.716  58.843  1.00  0.00     0.111 A 
ATOM      6  C   UNL     1      51.529  30.019  59.353  1.00  0.00     0.134 A 
ATOM      7  C   UNL     1      52.356  30.515  60.373  1.00  0.00     0.093 A 
ATOM      8  C   UNL     1      53.393  29.737  60.891  1.00  0.00     0.123 A 
ATOM      9  C   UNL     1      53.614  28.449  60.392  1.00  0.00     0.094 A 
ATOM     10  C   UNL     1      52.801  27.936  59.377  1.00  0.00     0.146 A 
ATOM     11  O   UNL     1      53.029  26.708  58.925  1.00  0.00    -0.452 OA
ENDROOT
BRANCH   1  12
ATOM     12  C   UNL     1      52.654  24.756  57.559  1.00  0.00     0.025 A 
ATOM     13  C   UNL     1      52.277  24.295  56.288  1.00  0.00     0.016 A 
ATOM     14  C   UNL     1      52.613  23.003  55.875  1.00  0.00     0.051 A 
ATOM     15  C   UNL     1      53.344  22.159  56.716  1.00  0.00     0.157 A 
ATOM     16  C   UNL     1      53.408  23.913  58.396  1.00  0.00     0.062 A 
ATOM     17  C   UNL     1      53.748  22.617  57.982  1.00  0.00     0.158 A 
BRANCH  15  18
ATOM     18  O   UNL     1      53.663  20.875  56.278  1.00  0.00    -0.504 OA
ATOM     19  H   UNL     1      54.507  20.679  55.755  1.00  0.00     0.293 HD
ENDBRANCH  15  18
BRANCH  17  20
ATOM     20  O   UNL     1      54.489  21.786  58.821  1.00  0.00    -0.504 OA
ATOM     21  H   UNL     1      55.317  22.119  59.303  1.00  0.00     0.293 HD
ENDBRANCH  17  20
ENDBRANCH   1  12
BRANCH   2  22
ATOM     22  O   UNL     1      50.528  26.286  56.311  1.00  0.00    -0.502 OA
ATOM     23  H   UNL     1      49.977  25.444  56.423  1.00  0.00     0.293 HD
ENDBRANCH   2  22
BRANCH   6  24
ATOM     24  O   UNL     1      50.502  30.821  58.856  1.00  0.00    -0.507 OA
ATOM     25  H   UNL     1      50.691  31.700  58.386  1.00  0.00     0.293 HD
ENDBRANCH   6  24
BRANCH   8  26
ATOM     26  O   UNL     1      54.199  30.254  61.903  1.00  0.00    -0.508 OA
ATOM     27  H   UNL     1      53.838  30.417  62.836  1.00  0.00     0.293 HD
ENDBRANCH   8  26
TORSDOF 6
ENDMDL
MODEL 2
REMARK VINA RESULT:    -3.358      1.593      3.410
REMARK INTER + INTRA:          -3.616
REMARK INTER:                  -3.868
REMARK INTRA:                   0.252
REMARK UNBOUND:                 0.429
REMARK SMILES O=c1c(O)c(-c2ccc(O)c(O)c2)oc2cc(O)cc(O)c12
REMARK SMILES IDX 5 1 3 2 2 3 1 4 22 5 20 6 19 7 17 8 16 9 15 10 14 11 6 12
REMARK SMILES IDX 7 13 8 14 9 15 13 16 11 17 10 18 12 20 4 22 21 24 18 26
REMARK H PARENT 10 19 12 21 4 23 21 25 18 27
REMARK Flexibility Score: inf
ROOT
ATOM      1  C   UNL     1      51.944  25.998  57.515  1.00  0.00     0.180 A 
ATOM      2  C   UNL     1      52.624  27.014  58.214  1.00  0.00     0.208 A 
ATOM      3  C   UNL     1      52.007  28.266  58.361  1.00  0.00     0.238 A 
ATOM      4  O   UNL     1      52.611  29.187  58.976  1.00  0.00    -0.285 OA
ATOM      5  C   UNL     1      50.719  28.475  57.827  1.00  0.00     0.111 A 
ATOM      6  C   UNL     1      50.027  29.706  57.935  1.00  0.00     0.134 A 
ATOM      7  C   UNL     1      48.742  29.832  57.385  1.00  0.00     0.093 A 
ATOM      8  C   UNL     1      48.139  28.756  56.731  1.00  0.00     0.123 A 
ATOM      9  C   UNL     1      48.817  27.538  56.621  1.00  0.00     0.094 A 
ATOM     10  C   UNL     1      50.099  27.392  57.161  1.00  0.00     0.146 A 
ATOM     11  O   UNL     1      50.724  26.227  57.038  1.00  0.00    -0.452 OA
ENDROOT
BRANCH   1  12
ATOM     12  C   UNL     1      52.536  24.658  57.301  1.00  0.00     0.025 A 
ATOM     13  C   UNL     1      52.273  23.970  56.107  1.00  0.00     0.016 A 
ATOM     14  C   UNL     1      52.836  22.712  55.875  1.00  0.00     0.051 A 
ATOM     15  C   UNL     1      53.684  22.131  56.823  1.00  0.00     0.157 A 
ATOM     16  C   UNL     1      53.405  24.082  58.244  1.00  0.00     0.062 A 
ATOM     17  C   UNL     1      53.974  22.821  58.013  1.00  0.00     0.158 A 
BRANCH  15  18
ATOM     18  O   UNL     1      54.230  20.875  56.566  1.00  0.00    -0.504 OA
ATOM     19  H   UNL     1      53.853  20.260  55.856  1.00  0.00     0.293 HD
ENDBRANCH  15  18
BRANCH  17  20
ATOM     20  O   UNL     1      54.829  22.254  58.957  1.00  0.00    -0.504 OA
ATOM     21  H   UNL     1      55.012  21.257  58.978  1.00  0.00     0.293 HD
ENDBRANCH  17  20
ENDBRANCH   1  12
BRANCH   2  22
ATOM     22  O   UNL     1      53.879  26.766  58.776  1.00  0.00    -0.502 OA
ATOM     23  H   UNL     1      54.522  27.509  59.017  1.00  0.00     0.293 HD
ENDBRANCH   2  22
BRANCH   6  24
ATOM     24  O   UNL     1      50.602  30.799  58.583  1.00  0.00    -0.507 OA
ATOM     25  H   UNL     1      50.179  31.216  59.405  1.00  0.00     0.293 HD
ENDBRANCH   6  24
BRANCH   8  26
ATOM     26  O   UNL     1      46.862  28.908  56.194  1.00  0.00    -0.508 OA
ATOM     27  H   UNL     1      46.112  28.265  56.422  1.00  0.00     0.293 HD
ENDBRANCH   8  26
TORSDOF 6
ENDMDL
MODEL 3
REMARK VINA RESULT:    -2.644      2.791      5.658
REMARK INTER + INTRA:          -2.756
REMARK INTER:                  -3.239
REMARK INTRA:                   0.482
REMARK UNBOUND:                 0.429
REMARK SMILES O=c1c(O)c(-c2ccc(O)c(O)c2)oc2cc(O)cc(O)c12
REMARK SMILES IDX 5 1 3 2 2 3 1 4 22 5 20 6 19 7 17 8 16 9 15 10 14 11 6 12
REMARK SMILES IDX 7 13 8 14 9 15 13 16 11 17 10 18 12 20 4 22 21 24 18 26
REMARK H PARENT 10 19 12 21 4 23 21 25 18 27
REMARK Flexibility Score: inf
ROOT
ATOM      1  C   UNL     1      50.990  28.309  58.250  1.00  0.00     0.180 A 
ATOM      2  C   UNL     1      51.819  27.243  57.853  1.00  0.00     0.208 A 
ATOM      3  C   UNL     1      53.076  27.098  58.462  1.00  0.00     0.238 A 
ATOM      4  O   UNL     1      53.832  26.153  58.108  1.00  0.00    -0.285 OA
ATOM      5  C   UNL     1      53.473  28.006  59.465  1.00  0.00     0.111 A 
ATOM      6  C   UNL     1      54.721  27.929  60.130  1.00  0.00     0.134 A 
ATOM      7  C   UNL     1      55.039  28.865  61.125  1.00  0.00     0.093 A 
ATOM      8  C   UNL     1      54.136  29.875  61.467  1.00  0.00     0.123 A 
ATOM      9  C   UNL     1      52.902  29.956  60.814  1.00  0.00     0.094 A 
ATOM     10  C   UNL     1      52.567  29.033  59.819  1.00  0.00     0.146 A 
ATOM     11  O   UNL     1      51.391  29.137  59.210  1.00  0.00    -0.452 OA
ENDROOT
BRANCH   1  12
ATOM     12  C   UNL     1      49.659  28.539  57.642  1.00  0.00     0.025 A 
ATOM     13  C   UNL     1      49.318  27.872  56.456  1.00  0.00     0.016 A 
ATOM     14  C   UNL     1      48.061  28.059  55.875  1.00  0.00     0.051 A 
ATOM     15  C   UNL     1      47.120  28.899  56.479  1.00  0.00     0.157 A 
ATOM     16  C   UNL     1      48.705  29.368  58.259  1.00  0.00     0.062 A 
ATOM     17  C   UNL     1      47.442  29.555  57.679  1.00  0.00     0.158 A 
BRANCH  15  18
ATOM     18  O   UNL     1      45.875  29.068  55.876  1.00  0.00    -0.504 OA
ATOM     19  H   UNL     1      45.028  29.191  56.416  1.00  0.00     0.293 HD
ENDBRANCH  15  18
BRANCH  17  20
ATOM     20  O   UNL     1      46.504  30.383  58.294  1.00  0.00    -0.504 OA
ATOM     21  H   UNL     1      45.981  30.081  59.108  1.00  0.00     0.293 HD
ENDBRANCH  17  20
ENDBRANCH   1  12
BRANCH   2  22
ATOM     22  O   UNL     1      51.382  26.328  56.892  1.00  0.00    -0.502 OA
ATOM     23  H   UNL     1      50.653  26.548  56.226  1.00  0.00     0.293 HD
ENDBRANCH   2  22
BRANCH   6  24
ATOM     24  O   UNL     1      55.644  26.932  59.811  1.00  0.00    -0.507 OA
ATOM     25  H   UNL     1      55.733  26.570  58.868  1.00  0.00     0.293 HD
ENDBRANCH   6  24
BRANCH   8  26
ATOM     26  O   UNL     1      54.476  30.792  62.460  1.00  0.00    -0.508 OA
ATOM     27  H   UNL     1      54.327  30.588  63.441  1.00  0.00     0.293 HD
ENDBRANCH   8  26
TORSDOF 6
ENDMDL
MODEL 4
REMARK VINA RESULT:    -1.772      1.742      7.077
REMARK INTER + INTRA:          -1.706
REMARK INTER:                  -1.583
REMARK INTRA:                  -0.124
REMARK UNBOUND:                 0.429
REMARK SMILES O=c1c(O)c(-c2ccc(O)c(O)c2)oc2cc(O)cc(O)c12
REMARK SMILES IDX 5 1 3 2 2 3 1 4 22 5 20 6 19 7 17 8 16 9 15 10 14 11 6 12
REMARK SMILES IDX 7 13 8 14 9 15 13 16 11 17 10 18 12 20 4 22 21 24 18 26
REMARK H PARENT 10 19 12 21 4 23 21 25 18 27
REMARK Flexibility Score: inf
ROOT
ATOM      1  C   UNL     1      52.720  26.547  57.815  1.00  0.00     0.180 A 
ATOM      2  C   UNL     1      53.677  26.334  58.826  1.00  0.00     0.208 A 
ATOM      3  C   UNL     1      54.120  25.026  59.076  1.00  0.00     0.238 A 
ATOM      4  O   UNL     1      54.968  24.821  59.986  1.00  0.00    -0.285 OA
ATOM      5  C   UNL     1      53.616  23.960  58.302  1.00  0.00     0.111 A 
ATOM      6  C   UNL     1      54.012  22.613  58.488  1.00  0.00     0.134 A 
ATOM      7  C   UNL     1      53.472  21.610  57.670  1.00  0.00     0.093 A 
ATOM      8  C   UNL     1      52.545  21.925  56.674  1.00  0.00     0.123 A 
ATOM      9  C   UNL     1      52.149  23.253  56.486  1.00  0.00     0.094 A 
ATOM     10  C   UNL     1      52.676  24.267  57.291  1.00  0.00     0.146 A 
ATOM     11  O   UNL     1      52.278  25.520  57.095  1.00  0.00    -0.452 OA
ENDROOT
BRANCH   1  12
ATOM     12  C   UNL     1      52.190  27.895  57.505  1.00  0.00     0.025 A 
ATOM     13  C   UNL     1      52.285  28.389  56.195  1.00  0.00     0.016 A 
ATOM     14  C   UNL     1      51.774  29.650  55.875  1.00  0.00     0.051 A 
ATOM     15  C   UNL     1      51.146  30.427  56.852  1.00  0.00     0.157 A 
ATOM     16  C   UNL     1      51.540  28.669  58.482  1.00  0.00     0.062 A 
ATOM     17  C   UNL     1      51.024  29.934  58.163  1.00  0.00     0.158 A 
BRANCH  15  18
ATOM     18  O   UNL     1      50.648  31.682  56.505  1.00  0.00    -0.504 OA
ATOM     19  H   UNL     1      50.944  32.165  55.665  1.00  0.00     0.293 HD
ENDBRANCH  15  18
BRANCH  17  20
ATOM     20  O   UNL     1      50.387  30.698  59.139  1.00  0.00    -0.504 OA
ATOM     21  H   UNL     1      49.920  30.268  59.929  1.00  0.00     0.293 HD
ENDBRANCH  17  20
ENDBRANCH   1  12
BRANCH   2  22
ATOM     22  O   UNL     1      54.197  27.413  59.545  1.00  0.00    -0.502 OA
ATOM     23  H   UNL     1      53.737  28.314  59.580  1.00  0.00     0.293 HD
ENDBRANCH   2  22
BRANCH   6  24
ATOM     24  O   UNL     1      54.936  22.266  59.474  1.00  0.00    -0.507 OA
ATOM     25  H   UNL     1      55.882  22.633  59.472  1.00  0.00     0.293 HD
ENDBRANCH   6  24
BRANCH   8  26
ATOM     26  O   UNL     1      52.024  20.909  55.875  1.00  0.00    -0.508 OA
ATOM     27  H   UNL     1      52.219  19.933  56.066  1.00  0.00     0.293 HD
ENDBRANCH   8  26
TORSDOF 6
ENDMDL
MODEL 5
REMARK VINA RESULT:    -1.004      2.467      6.353
REMARK INTER + INTRA:          -0.781
REMARK INTER:                  -0.887
REMARK INTRA:                   0.106
REMARK UNBOUND:                 0.429
REMARK SMILES O=c1c(O)c(-c2ccc(O)c(O)c2)oc2cc(O)cc(O)c12
REMARK SMILES IDX 5 1 3 2 2 3 1 4 22 5 20 6 19 7 17 8 16 9 15 10 14 11 6 12
REMARK SMILES IDX 7 13 8 14 9 15 13 16 11 17 10 18 12 20 4 22 21 24 18 26
REMARK H PARENT 10 19 12 21 4 23 21 25 18 27
REMARK Flexibility Score: inf
ROOT
ATOM      1  C   UNL     1      50.864  28.440  58.382  1.00  0.00     0.180 A 
ATOM      2  C   UNL     1      51.576  29.334  59.204  1.00  0.00     0.208 A 
ATOM      3  C   UNL     1      52.792  28.915  59.767  1.00  0.00     0.238 A 
ATOM      4  O   UNL     1      53.435  29.703  60.513  1.00  0.00    -0.285 OA
ATOM      5  C   UNL     1      53.282  27.623  59.486  1.00  0.00     0.111 A 
ATOM      6  C   UNL     1      54.500  27.126  60.011  1.00  0.00     0.134 A 
ATOM      7  C   UNL     1      54.924  25.831  59.676  1.00  0.00     0.093 A 
ATOM      8  C   UNL     1      54.158  25.027  58.829  1.00  0.00     0.123 A 
ATOM      9  C   UNL     1      52.954  25.513  58.307  1.00  0.00     0.094 A 
ATOM     10  C   UNL     1      52.514  26.800  58.631  1.00  0.00     0.146 A 
ATOM     11  O   UNL     1      51.364  27.234  58.126  1.00  0.00    -0.452 OA
ENDROOT
BRANCH   1  12
ATOM     12  C   UNL     1      49.566  28.801  57.767  1.00  0.00     0.025 A 
ATOM     13  C   UNL     1      49.271  28.358  56.469  1.00  0.00     0.016 A 
ATOM     14  C   UNL     1      48.044  28.669  55.876  1.00  0.00     0.051 A 
ATOM     15  C   UNL     1      47.089  29.412  56.576  1.00  0.00     0.157 A 
ATOM     16  C   UNL     1      48.596  29.530  58.477  1.00  0.00     0.062 A 
ATOM     17  C   UNL     1      47.363  29.842  57.885  1.00  0.00     0.158 A 
BRANCH  15  18
ATOM     18  O   UNL     1      45.875  29.710  55.958  1.00  0.00    -0.504 OA
ATOM     19  H   UNL     1      45.045  29.944  56.488  1.00  0.00     0.293 HD
ENDBRANCH  15  18
BRANCH  17  20
ATOM     20  O   UNL     1      46.410  30.571  58.594  1.00  0.00    -0.504 OA
ATOM     21  H   UNL     1      46.464  30.679  59.601  1.00  0.00     0.293 HD
ENDBRANCH  17  20
ENDBRANCH   1  12
BRANCH   2  22
ATOM     22  O   UNL     1      51.094  30.626  59.427  1.00  0.00    -0.502 OA
ATOM     23  H   UNL     1      50.385  30.828  60.121  1.00  0.00     0.293 HD
ENDBRANCH   2  22
BRANCH   6  24
ATOM     24  O   UNL     1      55.288  27.905  60.858  1.00  0.00    -0.507 OA
ATOM     25  H   UNL     1      56.092  27.520  61.342  1.00  0.00     0.293 HD
ENDBRANCH   6  24
BRANCH   8  26
ATOM     26  O   UNL     1      54.603  23.745  58.512  1.00  0.00    -0.508 OA
ATOM     27  H   UNL     1      54.991  23.130  59.218  1.00  0.00     0.293 HD
ENDBRANCH   8  26
TORSDOF 6
ENDMDL
MODEL 6
REMARK VINA RESULT:    -0.933      3.227      5.614
REMARK INTER + INTRA:          -0.695
REMARK INTER:                  -1.215
REMARK INTRA:                   0.521
REMARK UNBOUND:                 0.429
REMARK SMILES O=c1c(O)c(-c2ccc(O)c(O)c2)oc2cc(O)cc(O)c12
REMARK SMILES IDX 5 1 3 2 2 3 1 4 22 5 20 6 19 7 17 8 16 9 15 10 14 11 6 12
REMARK SMILES IDX 7 13 8 14 9 15 13 16 11 17 10 18 12 20 4 22 21 24 18 26
REMARK H PARENT 10 19 12 21 4 23 21 25 18 27
REMARK Flexibility Score: inf
ROOT
ATOM      1  C   UNL     1      50.934  28.548  58.585  1.00  0.00     0.180 A 
ATOM      2  C   UNL     1      50.581  27.801  57.445  1.00  0.00     0.208 A 
ATOM      3  C   UNL     1      49.299  27.966  56.897  1.00  0.00     0.238 A 
ATOM      4  O   UNL     1      48.967  27.295  55.882  1.00  0.00    -0.285 OA
ATOM      5  C   UNL     1      48.403  28.884  57.482  1.00  0.00     0.111 A 
ATOM      6  C   UNL     1      47.095  29.112  56.989  1.00  0.00     0.134 A 
ATOM      7  C   UNL     1      46.267  30.050  57.623  1.00  0.00     0.093 A 
ATOM      8  C   UNL     1      46.718  30.763  58.736  1.00  0.00     0.123 A 
ATOM      9  C   UNL     1      48.009  30.542  59.227  1.00  0.00     0.094 A 
ATOM     10  C   UNL     1      48.850  29.611  58.611  1.00  0.00     0.146 A 
ATOM     11  O   UNL     1      50.069  29.416  59.102  1.00  0.00    -0.452 OA
ENDROOT
BRANCH   1  12
ATOM     12  C   UNL     1      52.260  28.416  59.233  1.00  0.00     0.025 A 
ATOM     13  C   UNL     1      53.145  27.420  58.795  1.00  0.00     0.016 A 
ATOM     14  C   UNL     1      54.408  27.289  59.378  1.00  0.00     0.051 A 
ATOM     15  C   UNL     1      54.812  28.162  60.393  1.00  0.00     0.157 A 
ATOM     16  C   UNL     1      52.675  29.306  60.239  1.00  0.00     0.062 A 
ATOM     17  C   UNL     1      53.943  29.178  60.824  1.00  0.00     0.158 A 
BRANCH  15  18
ATOM     18  O   UNL     1      56.077  28.007  60.958  1.00  0.00    -0.504 OA
ATOM     19  H   UNL     1      56.842  28.635  60.746  1.00  0.00     0.293 HD
ENDBRANCH  15  18
BRANCH  17  20
ATOM     20  O   UNL     1      54.344  30.061  61.826  1.00  0.00    -0.504 OA
ATOM     21  H   UNL     1      54.049  31.030  61.831  1.00  0.00     0.293 HD
ENDBRANCH  17  20
ENDBRANCH   1  12
BRANCH   2  22
ATOM     22  O   UNL     1      51.504  26.935  56.855  1.00  0.00    -0.502 OA
ATOM     23  H   UNL     1      52.275  27.267  56.289  1.00  0.00     0.293 HD
ENDBRANCH   2  22
BRANCH   6  24
ATOM     24  O   UNL     1      46.615  28.416  55.879  1.00  0.00    -0.507 OA
ATOM     25  H   UNL     1      46.967  28.594  54.945  1.00  0.00     0.293 HD
ENDBRANCH   6  24
BRANCH   8  26
ATOM     26  O   UNL     1      45.875  31.690  59.345  1.00  0.00    -0.508 OA
ATOM     27  H   UNL     1      46.142  32.662  59.445  1.00  0.00     0.293 HD
ENDBRANCH   8  26
TORSDOF 6
ENDMDL
