MODEL 1
REMARK VINA RESULT:    -5.502      0.000      0.000
REMARK INTER + INTRA:          -5.502
REMARK INTER:                  -5.502
REMARK INTRA:                   0.000
REMARK UNBOUND:                 0.000
REMARK SMILES C[NH+]1CCN(C2=[NH+]c3ccccc3Oc3ccc(Cl)cc32)CC1
REMARK SMILES IDX 7 1 6 2 21 3 5 4 8 5 9 6 13 7 10 8 12 9 14 10 11 11 15 12
REMARK SMILES IDX 16 13 17 14 18 15 20 16 19 17 4 18 22 19 3 20 23 21 2 22
REMARK SMILES IDX 1 23
REMARK H PARENT 7 24 2 25
REMARK Flexibility Score: inf
ROOT
ATOM      1  N   UNL     1      21.184   8.566  36.476  1.00  0.00    -0.237 N 
ATOM      2  C   UNL     1      21.442   7.613  37.332  1.00  0.00     0.286 C 
ATOM      3  C   UNL     1      21.024   7.656  38.760  1.00  0.00     0.108 A 
ATOM      4  N   UNL     1      22.195   6.473  36.878  1.00  0.00    -0.250 N 
ATOM      5  C   UNL     1      20.467   9.789  36.713  1.00  0.00     0.168 A 
ATOM      6  C   UNL     1      20.835  10.928  35.976  1.00  0.00     0.056 A 
ATOM      7  C   UNL     1      19.299   9.836  37.501  1.00  0.00     0.173 A 
ATOM      8  C   UNL     1      20.067  12.093  36.028  1.00  0.00     0.005 A 
ATOM      9  C   UNL     1      18.516  10.998  37.520  1.00  0.00     0.052 A 
ATOM     10  O   UNL     1      18.887   8.760  38.282  1.00  0.00    -0.452 OA
ATOM     11  C   UNL     1      18.902  12.125  36.794  1.00  0.00     0.004 A 
ATOM     12  C   UNL     1      19.749   8.109  39.158  1.00  0.00     0.143 A 
ATOM     13  C   UNL     1      19.323   7.925  40.480  1.00  0.00     0.049 A 
ATOM     14  C   UNL     1      20.172   7.349  41.425  1.00  0.00     0.024 A 
ATOM     15  C   UNL     1      21.454   6.945  41.055  1.00  0.00     0.042 A 
ATOM     16  C   UNL     1      21.875   7.091  39.729  1.00  0.00     0.041 A 
ATOM     17  Cl  UNL     1      22.527   6.229  42.243  1.00  0.00    -0.084 Cl
ATOM     18  C   UNL     1      21.708   5.114  37.131  1.00  0.00     0.298 C 
ATOM     19  C   UNL     1      23.572   6.637  36.407  1.00  0.00     0.298 C 
ATOM     20  C   UNL     1      22.022   4.222  35.926  1.00  0.00     0.308 C 
ATOM     21  C   UNL     1      23.827   5.699  35.222  1.00  0.00     0.308 C 
ATOM     22  N   UNL     1      23.453   4.307  35.560  1.00  0.00    -0.331 N 
ATOM     23  C   UNL     1      23.737   3.418  34.421  1.00  0.00     0.332 C 
ATOM     24  H   UNL     1      21.565   8.451  35.508  1.00  0.00     0.312 HD
ATOM     25  H   UNL     1      24.034   3.984  36.371  1.00  0.00     0.348 HD
ENDROOT
TORSDOF 0
ENDMDL
MODEL 2
REMARK VINA RESULT:    -5.281      2.602      4.547
REMARK INTER + INTRA:          -5.281
REMARK INTER:                  -5.281
REMARK INTRA:                   0.000
REMARK UNBOUND:                 0.000
REMARK SMILES C[NH+]1CCN(C2=[NH+]c3ccccc3Oc3ccc(Cl)cc32)CC1
REMARK SMILES IDX 7 1 6 2 21 3 5 4 8 5 9 6 13 7 10 8 12 9 14 10 11 11 15 12
REMARK SMILES IDX 16 13 17 14 18 15 20 16 19 17 4 18 22 19 3 20 23 21 2 22
REMARK SMILES IDX 1 23
REMARK H PARENT 7 24 2 25
REMARK Flexibility Score: inf
ROOT
ATOM      1  N   UNL     1      21.040   7.539  38.747  1.00  0.00    -0.237 N 
ATOM      2  C   UNL     1      21.183   7.841  37.484  1.00  0.00     0.286 C 
ATOM      3  C   UNL     1      20.728   9.127  36.889  1.00  0.00     0.108 A 
ATOM      4  N   UNL     1      21.789   6.866  36.613  1.00  0.00    -0.250 N 
ATOM      5  C   UNL     1      20.455   8.347  39.782  1.00  0.00     0.168 A 
ATOM      6  C   UNL     1      19.787   7.697  40.834  1.00  0.00     0.056 A 
ATOM      7  C   UNL     1      20.693   9.733  39.880  1.00  0.00     0.173 A 
ATOM      8  C   UNL     1      19.356   8.408  41.955  1.00  0.00     0.005 A 
ATOM      9  C   UNL     1      20.287  10.432  41.024  1.00  0.00     0.052 A 
ATOM     10  O   UNL     1      21.321  10.451  38.866  1.00  0.00    -0.452 OA
ATOM     11  C   UNL     1      19.613   9.775  42.054  1.00  0.00     0.004 A 
ATOM     12  C   UNL     1      20.915  10.365  37.538  1.00  0.00     0.143 A 
ATOM     13  C   UNL     1      20.673  11.559  36.848  1.00  0.00     0.049 A 
ATOM     14  C   UNL     1      20.190  11.538  35.541  1.00  0.00     0.024 A 
ATOM     15  C   UNL     1      19.951  10.319  34.906  1.00  0.00     0.042 A 
ATOM     16  C   UNL     1      20.224   9.122  35.574  1.00  0.00     0.041 A 
ATOM     17  Cl  UNL     1      19.335  10.289  33.265  1.00  0.00    -0.084 Cl
ATOM     18  C   UNL     1      22.897   7.246  35.733  1.00  0.00     0.298 C 
ATOM     19  C   UNL     1      21.144   5.570  36.392  1.00  0.00     0.298 C 
ATOM     20  C   UNL     1      23.908   6.097  35.652  1.00  0.00     0.308 C 
ATOM     21  C   UNL     1      22.209   4.474  36.294  1.00  0.00     0.308 C 
ATOM     22  N   UNL     1      23.241   4.827  35.293  1.00  0.00    -0.331 N 
ATOM     23  C   UNL     1      24.235   3.746  35.191  1.00  0.00     0.332 C 
ATOM     24  H   UNL     1      21.357   6.587  39.047  1.00  0.00     0.312 HD
ATOM     25  H   UNL     1      22.785   4.933  34.355  1.00  0.00     0.348 HD
ENDROOT
TORSDOF 0
ENDMDL
MODEL 3
REMARK VINA RESULT:    -5.041      5.907      7.333
REMARK INTER + INTRA:          -5.041
REMARK INTER:                  -5.041
REMARK INTRA:                   0.000
REMARK UNBOUND:                 0.000
REMARK SMILES C[NH+]1CCN(C2=[NH+]c3ccccc3Oc3ccc(Cl)cc32)CC1
REMARK SMILES IDX 7 1 6 2 21 3 5 4 8 5 9 6 13 7 10 8 12 9 14 10 11 11 15 12
REMARK SMILES IDX 16 13 17 14 18 15 20 16 19 17 4 18 22 19 3 20 23 21 2 22
REMARK SMILES IDX 1 23
REMARK H PARENT 7 24 2 25
REMARK Flexibility Score: inf
ROOT
ATOM      1  N   UNL     1      23.033  10.554  29.856  1.00  0.00    -0.237 N 
ATOM      2  C   UNL     1      23.115  10.046  31.057  1.00  0.00     0.286 C 
ATOM      3  C   UNL     1      22.127  10.319  32.136  1.00  0.00     0.108 A 
ATOM      4  N   UNL     1      24.238   9.197  31.363  1.00  0.00    -0.250 N 
ATOM      5  C   UNL     1      22.015  11.430  29.342  1.00  0.00     0.168 A 
ATOM      6  C   UNL     1      22.381  12.372  28.365  1.00  0.00     0.056 A 
ATOM      7  C   UNL     1      20.647  11.247  29.633  1.00  0.00     0.173 A 
ATOM      8  C   UNL     1      21.412  13.125  27.699  1.00  0.00     0.005 A 
ATOM      9  C   UNL     1      19.680  11.983  28.935  1.00  0.00     0.052 A 
ATOM     10  O   UNL     1      20.209  10.356  30.608  1.00  0.00    -0.452 OA
ATOM     11  C   UNL     1      20.060  12.924  27.978  1.00  0.00     0.004 A 
ATOM     12  C   UNL     1      20.738  10.348  31.895  1.00  0.00     0.143 A 
ATOM     13  C   UNL     1      19.843  10.389  32.971  1.00  0.00     0.049 A 
ATOM     14  C   UNL     1      20.312  10.461  34.282  1.00  0.00     0.024 A 
ATOM     15  C   UNL     1      21.684  10.487  34.530  1.00  0.00     0.042 A 
ATOM     16  C   UNL     1      22.586  10.410  33.465  1.00  0.00     0.041 A 
ATOM     17  Cl  UNL     1      22.278  10.588  36.177  1.00  0.00    -0.084 Cl
ATOM     18  C   UNL     1      24.029   7.883  31.975  1.00  0.00     0.298 C 
ATOM     19  C   UNL     1      25.601   9.733  31.325  1.00  0.00     0.298 C 
ATOM     20  C   UNL     1      25.034   6.880  31.397  1.00  0.00     0.308 C 
ATOM     21  C   UNL     1      26.556   8.674  30.765  1.00  0.00     0.308 C 
ATOM     22  N   UNL     1      26.416   7.396  31.499  1.00  0.00    -0.331 N 
ATOM     23  C   UNL     1      27.366   6.403  30.967  1.00  0.00     0.332 C 
ATOM     24  H   UNL     1      23.808  10.330  29.190  1.00  0.00     0.312 HD
ATOM     25  H   UNL     1      26.650   7.554  32.509  1.00  0.00     0.348 HD
ENDROOT
TORSDOF 0
ENDMDL
MODEL 4
REMARK VINA RESULT:    -4.909      4.325      8.382
REMARK INTER + INTRA:          -4.909
REMARK INTER:                  -4.909
REMARK INTRA:                   0.000
REMARK UNBOUND:                 0.000
REMARK SMILES C[NH+]1CCN(C2=[NH+]c3ccccc3Oc3ccc(Cl)cc32)CC1
REMARK SMILES IDX 7 1 6 2 21 3 5 4 8 5 9 6 13 7 10 8 12 9 14 10 11 11 15 12
REMARK SMILES IDX 16 13 17 14 18 15 20 16 19 17 4 18 22 19 3 20 23 21 2 22
REMARK SMILES IDX 1 23
REMARK H PARENT 7 24 2 25
REMARK Flexibility Score: inf
ROOT
ATOM      1  N   UNL     1      23.511   3.383  38.172  1.00  0.00    -0.237 N 
ATOM      2  C   UNL     1      23.374   3.745  36.924  1.00  0.00     0.286 C 
ATOM      3  C   UNL     1      24.076   3.080  35.793  1.00  0.00     0.108 A 
ATOM      4  N   UNL     1      22.521   4.867  36.630  1.00  0.00    -0.250 N 
ATOM      5  C   UNL     1      24.315   2.310  38.692  1.00  0.00     0.168 A 
ATOM      6  C   UNL     1      24.872   2.458  39.973  1.00  0.00     0.056 A 
ATOM      7  C   UNL     1      24.400   1.056  38.053  1.00  0.00     0.173 A 
ATOM      8  C   UNL     1      25.509   1.389  40.605  1.00  0.00     0.005 A 
ATOM      9  C   UNL     1      25.011  -0.022  38.709  1.00  0.00     0.052 A 
ATOM     10  O   UNL     1      23.899   0.839  36.773  1.00  0.00    -0.452 OA
ATOM     11  C   UNL     1      25.571   0.145  39.975  1.00  0.00     0.004 A 
ATOM     12  C   UNL     1      24.206   1.679  35.707  1.00  0.00     0.143 A 
ATOM     13  C   UNL     1      24.676   1.092  34.525  1.00  0.00     0.049 A 
ATOM     14  C   UNL     1      25.074   1.884  33.449  1.00  0.00     0.024 A 
ATOM     15  C   UNL     1      25.000   3.274  33.542  1.00  0.00     0.042 A 
ATOM     16  C   UNL     1      24.498   3.868  34.704  1.00  0.00     0.041 A 
ATOM     17  Cl  UNL     1      25.508   4.274  32.194  1.00  0.00    -0.084 Cl
ATOM     18  C   UNL     1      21.483   4.759  35.601  1.00  0.00     0.298 C 
ATOM     19  C   UNL     1      22.846   6.199  37.146  1.00  0.00     0.298 C 
ATOM     20  C   UNL     1      20.237   5.534  36.043  1.00  0.00     0.308 C 
ATOM     21  C   UNL     1      21.557   6.927  37.542  1.00  0.00     0.308 C 
ATOM     22  N   UNL     1      20.582   6.919  36.429  1.00  0.00    -0.331 N 
ATOM     23  C   UNL     1      19.366   7.652  36.819  1.00  0.00     0.332 C 
ATOM     24  H   UNL     1      23.003   3.950  38.891  1.00  0.00     0.312 HD
ATOM     25  H   UNL     1      21.001   7.411  35.603  1.00  0.00     0.348 HD
ENDROOT
TORSDOF 0
ENDMDL
MODEL 5
REMARK VINA RESULT:    -4.821      9.342     10.580
REMARK INTER + INTRA:          -4.821
REMARK INTER:                  -4.821
REMARK INTRA:                   0.000
REMARK UNBOUND:                 0.000
REMARK SMILES C[NH+]1CCN(C2=[NH+]c3ccccc3Oc3ccc(Cl)cc32)CC1
REMARK SMILES IDX 7 1 6 2 21 3 5 4 8 5 9 6 13 7 10 8 12 9 14 10 11 11 15 12
REMARK SMILES IDX 16 13 17 14 18 15 20 16 19 17 4 18 22 19 3 20 23 21 2 22
REMARK SMILES IDX 1 23
REMARK H PARENT 7 24 2 25
REMARK Flexibility Score: inf
ROOT
ATOM      1  N   UNL     1      23.110  10.636  27.196  1.00  0.00    -0.237 N 
ATOM      2  C   UNL     1      24.219  10.595  27.886  1.00  0.00     0.286 C 
ATOM      3  C   UNL     1      24.474  11.439  29.084  1.00  0.00     0.108 A 
ATOM      4  N   UNL     1      25.263   9.705  27.446  1.00  0.00    -0.250 N 
ATOM      5  C   UNL     1      21.952  11.452  27.443  1.00  0.00     0.168 A 
ATOM      6  C   UNL     1      21.192  11.877  26.341  1.00  0.00     0.056 A 
ATOM      7  C   UNL     1      21.451  11.673  28.742  1.00  0.00     0.173 A 
ATOM      8  C   UNL     1      19.965  12.517  26.522  1.00  0.00     0.005 A 
ATOM      9  C   UNL     1      20.202  12.285  28.914  1.00  0.00     0.052 A 
ATOM     10  O   UNL     1      22.159  11.308  29.883  1.00  0.00    -0.452 OA
ATOM     11  C   UNL     1      19.465  12.714  27.809  1.00  0.00     0.004 A 
ATOM     12  C   UNL     1      23.492  11.662  30.071  1.00  0.00     0.143 A 
ATOM     13  C   UNL     1      23.843  12.275  31.280  1.00  0.00     0.049 A 
ATOM     14  C   UNL     1      25.145  12.723  31.497  1.00  0.00     0.024 A 
ATOM     15  C   UNL     1      26.113  12.555  30.507  1.00  0.00     0.042 A 
ATOM     16  C   UNL     1      25.782  11.911  29.311  1.00  0.00     0.041 A 
ATOM     17  Cl  UNL     1      27.751  13.125  30.773  1.00  0.00    -0.084 Cl
ATOM     18  C   UNL     1      25.892   8.777  28.389  1.00  0.00     0.298 C 
ATOM     19  C   UNL     1      25.896   9.898  26.139  1.00  0.00     0.298 C 
ATOM     20  C   UNL     1      26.190   7.449  27.684  1.00  0.00     0.308 C 
ATOM     21  C   UNL     1      26.192   8.536  25.503  1.00  0.00     0.308 C 
ATOM     22  N   UNL     1      26.951   7.671  26.434  1.00  0.00    -0.331 N 
ATOM     23  C   UNL     1      27.253   6.381  25.792  1.00  0.00     0.332 C 
ATOM     24  H   UNL     1      23.056  10.030  26.344  1.00  0.00     0.312 HD
ATOM     25  H   UNL     1      27.862   8.135  26.666  1.00  0.00     0.348 HD
ENDROOT
TORSDOF 0
ENDMDL
MODEL 6
REMARK VINA RESULT:    -4.769      9.440     11.354
REMARK INTER + INTRA:          -4.769
REMARK INTER:                  -4.769
REMARK INTRA:                   0.000
REMARK UNBOUND:                 0.000
REMARK SMILES C[NH+]1CCN(C2=[NH+]c3ccccc3Oc3ccc(Cl)cc32)CC1
REMARK SMILES IDX 7 1 6 2 21 3 5 4 8 5 9 6 13 7 10 8 12 9 14 10 11 11 15 12
REMARK SMILES IDX 16 13 17 14 18 15 20 16 19 17 4 18 22 19 3 20 23 21 2 22
REMARK SMILES IDX 1 23
REMARK H PARENT 7 24 2 25
REMARK Flexibility Score: inf
ROOT
ATOM      1  N   UNL     1      23.081  11.646  28.972  1.00  0.00    -0.237 N 
ATOM      2  C   UNL     1      24.096  10.858  28.737  1.00  0.00     0.286 C 
ATOM      3  C   UNL     1      24.145   9.897  27.602  1.00  0.00     0.108 A 
ATOM      4  N   UNL     1      25.218  10.901  29.640  1.00  0.00    -0.250 N 
ATOM      5  C   UNL     1      21.863  11.759  28.217  1.00  0.00     0.168 A 
ATOM      6  C   UNL     1      20.683  12.091  28.905  1.00  0.00     0.056 A 
ATOM      7  C   UNL     1      21.847  11.741  26.807  1.00  0.00     0.173 A 
ATOM      8  C   UNL     1      19.510  12.389  28.211  1.00  0.00     0.005 A 
ATOM      9  C   UNL     1      20.674  12.076  26.118  1.00  0.00     0.052 A 
ATOM     10  O   UNL     1      22.966  11.393  26.057  1.00  0.00    -0.452 OA
ATOM     11  C   UNL     1      19.507  12.390  26.816  1.00  0.00     0.004 A 
ATOM     12  C   UNL     1      23.695  10.235  26.309  1.00  0.00     0.143 A 
ATOM     13  C   UNL     1      23.962   9.382  25.231  1.00  0.00     0.049 A 
ATOM     14  C   UNL     1      24.618   8.168  25.432  1.00  0.00     0.024 A 
ATOM     15  C   UNL     1      25.022   7.799  26.715  1.00  0.00     0.042 A 
ATOM     16  C   UNL     1      24.793   8.661  27.792  1.00  0.00     0.041 A 
ATOM     17  Cl  UNL     1      25.841   6.270  26.973  1.00  0.00    -0.084 Cl
ATOM     18  C   UNL     1      26.580  11.052  29.123  1.00  0.00     0.298 C 
ATOM     19  C   UNL     1      25.049  10.525  31.045  1.00  0.00     0.298 C 
ATOM     20  C   UNL     1      27.393  11.944  30.067  1.00  0.00     0.308 C 
ATOM     21  C   UNL     1      25.908  11.435  31.929  1.00  0.00     0.308 C 
ATOM     22  N   UNL     1      27.311  11.456  31.461  1.00  0.00    -0.331 N 
ATOM     23  C   UNL     1      28.125  12.309  32.343  1.00  0.00     0.332 C 
ATOM     24  H   UNL     1      23.136  12.251  29.825  1.00  0.00     0.312 HD
ATOM     25  H   UNL     1      27.702  10.484  31.507  1.00  0.00     0.348 HD
ENDROOT
TORSDOF 0
ENDMDL
MODEL 7
REMARK VINA RESULT:    -4.684      8.425     10.534
REMARK INTER + INTRA:          -4.684
REMARK INTER:                  -4.684
REMARK INTRA:                   0.000
REMARK UNBOUND:                 0.000
REMARK SMILES C[NH+]1CCN(C2=[NH+]c3ccccc3Oc3ccc(Cl)cc32)CC1
REMARK SMILES IDX 7 1 6 2 21 3 5 4 8 5 9 6 13 7 10 8 12 9 14 10 11 11 15 12
REMARK SMILES IDX 16 13 17 14 18 15 20 16 19 17 4 18 22 19 3 20 23 21 2 22
REMARK SMILES IDX 1 23
REMARK H PARENT 7 24 2 25
REMARK Flexibility Score: inf
ROOT
ATOM      1  N   UNL     1      22.666  10.937  29.759  1.00  0.00    -0.237 N 
ATOM      2  C   UNL     1      23.691  10.159  29.536  1.00  0.00     0.286 C 
ATOM      3  C   UNL     1      24.041   9.627  28.191  1.00  0.00     0.108 A 
ATOM      4  N   UNL     1      24.510   9.771  30.655  1.00  0.00    -0.250 N 
ATOM      5  C   UNL     1      21.715  11.434  28.802  1.00  0.00     0.168 A 
ATOM      6  C   UNL     1      20.395  11.655  29.230  1.00  0.00     0.056 A 
ATOM      7  C   UNL     1      22.100  11.884  27.523  1.00  0.00     0.173 A 
ATOM      8  C   UNL     1      19.473  12.301  28.405  1.00  0.00     0.005 A 
ATOM      9  C   UNL     1      21.178  12.562  26.714  1.00  0.00     0.052 A 
ATOM     10  O   UNL     1      23.380  11.676  27.016  1.00  0.00    -0.452 OA
ATOM     11  C   UNL     1      19.867  12.762  27.148  1.00  0.00     0.004 A 
ATOM     12  C   UNL     1      23.984  10.422  27.028  1.00  0.00     0.143 A 
ATOM     13  C   UNL     1      24.530   9.948  25.829  1.00  0.00     0.049 A 
ATOM     14  C   UNL     1      25.080   8.668  25.757  1.00  0.00     0.024 A 
ATOM     15  C   UNL     1      25.095   7.852  26.887  1.00  0.00     0.042 A 
ATOM     16  C   UNL     1      24.585   8.330  28.098  1.00  0.00     0.041 A 
ATOM     17  Cl  UNL     1      25.777   6.239  26.798  1.00  0.00    -0.084 Cl
ATOM     18  C   UNL     1      25.966   9.924  30.597  1.00  0.00     0.298 C 
ATOM     19  C   UNL     1      23.942   8.974  31.745  1.00  0.00     0.298 C 
ATOM     20  C   UNL     1      26.494  10.354  31.970  1.00  0.00     0.308 C 
ATOM     21  C   UNL     1      24.531   9.435  33.082  1.00  0.00     0.308 C 
ATOM     22  N   UNL     1      26.010   9.445  33.033  1.00  0.00    -0.331 N 
ATOM     23  C   UNL     1      26.555   9.859  34.337  1.00  0.00     0.332 C 
ATOM     24  H   UNL     1      22.488  11.216  30.753  1.00  0.00     0.312 HD
ATOM     25  H   UNL     1      26.353   8.474  32.836  1.00  0.00     0.348 HD
ENDROOT
TORSDOF 0
ENDMDL
MODEL 8
REMARK VINA RESULT:    -4.642      2.298      5.816
REMARK INTER + INTRA:          -4.642
REMARK INTER:                  -4.642
REMARK INTRA:                   0.000
REMARK UNBOUND:                 0.000
REMARK SMILES C[NH+]1CCN(C2=[NH+]c3ccccc3Oc3ccc(Cl)cc32)CC1
REMARK SMILES IDX 7 1 6 2 21 3 5 4 8 5 9 6 13 7 10 8 12 9 14 10 11 11 15 12
REMARK SMILES IDX 16 13 17 14 18 15 20 16 19 17 4 18 22 19 3 20 23 21 2 22
REMARK SMILES IDX 1 23
REMARK H PARENT 7 24 2 25
REMARK Flexibility Score: inf
ROOT
ATOM      1  N   UNL     1      21.967   6.088  37.505  1.00  0.00    -0.237 N 
ATOM      2  C   UNL     1      21.525   7.056  38.264  1.00  0.00     0.286 C 
ATOM      3  C   UNL     1      21.636   7.054  39.748  1.00  0.00     0.108 A 
ATOM      4  N   UNL     1      20.871   8.173  37.632  1.00  0.00    -0.250 N 
ATOM      5  C   UNL     1      22.633   4.883  37.919  1.00  0.00     0.168 A 
ATOM      6  C   UNL     1      22.441   3.722  37.152  1.00  0.00     0.056 A 
ATOM      7  C   UNL     1      23.610   4.874  38.935  1.00  0.00     0.173 A 
ATOM      8  C   UNL     1      23.194   2.572  37.393  1.00  0.00     0.005 A 
ATOM      9  C   UNL     1      24.386   3.726  39.148  1.00  0.00     0.052 A 
ATOM     10  O   UNL     1      23.838   5.975  39.756  1.00  0.00    -0.452 OA
ATOM     11  C   UNL     1      24.173   2.576  38.387  1.00  0.00     0.004 A 
ATOM     12  C   UNL     1      22.803   6.632  40.415  1.00  0.00     0.143 A 
ATOM     13  C   UNL     1      22.941   6.853  41.792  1.00  0.00     0.049 A 
ATOM     14  C   UNL     1      21.907   7.436  42.523  1.00  0.00     0.024 A 
ATOM     15  C   UNL     1      20.726   7.810  41.883  1.00  0.00     0.042 A 
ATOM     16  C   UNL     1      20.593   7.627  40.503  1.00  0.00     0.041 A 
ATOM     17  Cl  UNL     1      19.419   8.536  42.801  1.00  0.00    -0.084 Cl
ATOM     18  C   UNL     1      21.278   9.545  37.946  1.00  0.00     0.298 C 
ATOM     19  C   UNL     1      19.625   7.975  36.888  1.00  0.00     0.298 C 
ATOM     20  C   UNL     1      21.213  10.405  36.679  1.00  0.00     0.308 C 
ATOM     21  C   UNL     1      19.613   8.882  35.652  1.00  0.00     0.308 C 
ATOM     22  N   UNL     1      19.892  10.287  36.025  1.00  0.00    -0.331 N 
ATOM     23  C   UNL     1      19.842  11.145  34.829  1.00  0.00     0.332 C 
ATOM     24  H   UNL     1      21.796   6.175  36.476  1.00  0.00     0.312 HD
ATOM     25  H   UNL     1      19.150  10.619  36.688  1.00  0.00     0.348 HD
ENDROOT
TORSDOF 0
ENDMDL
MODEL 9
REMARK VINA RESULT:    -4.562      7.799     10.135
REMARK INTER + INTRA:          -4.562
REMARK INTER:                  -4.562
REMARK INTRA:                   0.000
REMARK UNBOUND:                 0.000
REMARK SMILES C[NH+]1CCN(C2=[NH+]c3ccccc3Oc3ccc(Cl)cc32)CC1
REMARK SMILES IDX 7 1 6 2 21 3 5 4 8 5 9 6 13 7 10 8 12 9 14 10 11 11 15 12
REMARK SMILES IDX 16 13 17 14 18 15 20 16 19 17 4 18 22 19 3 20 23 21 2 22
REMARK SMILES IDX 1 23
REMARK H PARENT 7 24 2 25
REMARK Flexibility Score: inf
ROOT
ATOM      1  N   UNL     1      22.105  11.794  30.261  1.00  0.00    -0.237 N 
ATOM      2  C   UNL     1      23.277  11.272  30.508  1.00  0.00     0.286 C 
ATOM      3  C   UNL     1      24.238  10.869  29.446  1.00  0.00     0.108 A 
ATOM      4  N   UNL     1      23.648  11.048  31.882  1.00  0.00    -0.250 N 
ATOM      5  C   UNL     1      21.529  12.090  28.978  1.00  0.00     0.168 A 
ATOM      6  C   UNL     1      20.133  11.998  28.840  1.00  0.00     0.056 A 
ATOM      7  C   UNL     1      22.282  12.650  27.926  1.00  0.00     0.173 A 
ATOM      8  C   UNL     1      19.498  12.442  27.679  1.00  0.00     0.005 A 
ATOM      9  C   UNL     1      21.632  13.125  26.778  1.00  0.00     0.052 A 
ATOM     10  O   UNL     1      23.669  12.747  27.976  1.00  0.00    -0.452 OA
ATOM     11  C   UNL     1      20.248  13.013  26.650  1.00  0.00     0.004 A 
ATOM     12  C   UNL     1      24.475  11.662  28.305  1.00  0.00     0.143 A 
ATOM     13  C   UNL     1      25.541  11.354  27.449  1.00  0.00     0.049 A 
ATOM     14  C   UNL     1      26.337  10.234  27.681  1.00  0.00     0.024 A 
ATOM     15  C   UNL     1      26.079   9.412  28.778  1.00  0.00     0.042 A 
ATOM     16  C   UNL     1      25.041   9.731  29.659  1.00  0.00     0.041 A 
ATOM     17  Cl  UNL     1      27.072   7.996  29.068  1.00  0.00    -0.084 Cl
ATOM     18  C   UNL     1      24.937  11.525  32.389  1.00  0.00     0.298 C 
ATOM     19  C   UNL     1      22.882  10.115  32.711  1.00  0.00     0.298 C 
ATOM     20  C   UNL     1      24.771  12.026  33.828  1.00  0.00     0.308 C 
ATOM     21  C   UNL     1      22.778  10.660  34.140  1.00  0.00     0.308 C 
ATOM     22  N   UNL     1      24.115  11.004  34.673  1.00  0.00    -0.331 N 
ATOM     23  C   UNL     1      23.995  11.494  36.056  1.00  0.00     0.332 C 
ATOM     24  H   UNL     1      21.493  11.999  31.085  1.00  0.00     0.312 HD
ATOM     25  H   UNL     1      24.709  10.140  34.690  1.00  0.00     0.348 HD
ENDROOT
TORSDOF 0
ENDMDL
