MODEL 1
REMARK VINA RESULT:     1.165      0.000      0.000
REMARK INTER + INTRA:           1.377
REMARK INTER:                   1.437
REMARK INTRA:                  -0.060
REMARK UNBOUND:                -0.060
REMARK SMILES CCCCCC(=O)[O-]
REMARK SMILES IDX 4 1 5 2 6 3 7 4 8 5 3 6 2 7 1 8
REMARK H PARENT
REMARK Flexibility Score: inf
ROOT
ATOM      1  C   UNL     1      11.341  12.668  16.459  1.00  0.00     0.006 C 
ENDROOT
BRANCH   1   2
ATOM      2  C   UNL     1      10.126  11.737  16.460  1.00  0.00     0.053 C 
BRANCH   2   3
ATOM      3  C   UNL     1       9.003  12.338  15.676  1.00  0.00     0.041 C 
ATOM      4  O   UNL     1       8.916  12.134  14.436  1.00  0.00    -0.550 OA
ATOM      5  O   UNL     1       8.023  13.082  16.321  1.00  0.00    -0.550 OA
ENDBRANCH   2   3
ENDBRANCH   1   2
BRANCH   1   6
ATOM      6  C   UNL     1      12.392  12.203  17.478  1.00  0.00     0.000 C 
BRANCH   6   7
ATOM      7  C   UNL     1      13.819  12.615  17.085  1.00  0.00    -0.003 C 
ATOM      8  C   UNL     1      13.969  14.124  16.900  1.00  0.00     0.004 C 
ENDBRANCH   6   7
ENDBRANCH   1   6
TORSDOF 4
ENDMDL
MODEL 2
REMARK VINA RESULT:     1.714      3.031      4.649
REMARK INTER + INTRA:           2.054
REMARK INTER:                   2.113
REMARK INTRA:                  -0.059
REMARK UNBOUND:                -0.060
REMARK SMILES CCCCCC(=O)[O-]
REMARK SMILES IDX 4 1 5 2 6 3 7 4 8 5 3 6 2 7 1 8
REMARK H PARENT
REMARK Flexibility Score: inf
ROOT
ATOM      1  C   UNL     1      11.219  12.604  16.357  1.00  0.00     0.006 C 
ENDROOT
BRANCH   1   2
ATOM      2  C   UNL     1      12.238  12.301  17.459  1.00  0.00     0.053 C 
BRANCH   2   3
ATOM      3  C   UNL     1      13.611  12.714  17.033  1.00  0.00     0.041 C 
ATOM      4  O   UNL     1      14.485  11.844  16.782  1.00  0.00    -0.550 OA
ATOM      5  O   UNL     1      13.910  14.060  16.863  1.00  0.00    -0.550 OA
ENDBRANCH   2   3
ENDBRANCH   1   2
BRANCH   1   6
ATOM      6  C   UNL     1       9.845  12.007  16.699  1.00  0.00     0.000 C 
BRANCH   6   7
ATOM      7  C   UNL     1       8.736  12.503  15.760  1.00  0.00    -0.003 C 
ATOM      8  C   UNL     1       8.914  12.015  14.324  1.00  0.00     0.004 C 
ENDBRANCH   6   7
ENDBRANCH   1   6
TORSDOF 4
ENDMDL
MODEL 3
REMARK VINA RESULT:     1.720      3.041      4.739
REMARK INTER + INTRA:           2.061
REMARK INTER:                   2.118
REMARK INTRA:                  -0.057
REMARK UNBOUND:                -0.060
REMARK SMILES CCCCCC(=O)[O-]
REMARK SMILES IDX 4 1 5 2 6 3 7 4 8 5 3 6 2 7 1 8
REMARK H PARENT
REMARK Flexibility Score: inf
ROOT
ATOM      1  C   UNL     1      11.179  12.702  16.395  1.00  0.00     0.006 C 
ENDROOT
BRANCH   1   2
ATOM      2  C   UNL     1      12.211  12.341  17.466  1.00  0.00     0.053 C 
BRANCH   2   3
ATOM      3  C   UNL     1      13.586  12.725  17.020  1.00  0.00     0.041 C 
ATOM      4  O   UNL     1      13.916  13.939  16.958  1.00  0.00    -0.550 OA
ATOM      5  O   UNL     1      14.520  11.741  16.722  1.00  0.00    -0.550 OA
ENDBRANCH   2   3
ENDBRANCH   1   2
BRANCH   1   6
ATOM      6  C   UNL     1       9.883  11.899  16.587  1.00  0.00     0.000 C 
BRANCH   6   7
ATOM      7  C   UNL     1       8.747  12.384  15.674  1.00  0.00    -0.003 C 
ATOM      8  C   UNL     1       8.933  11.957  14.220  1.00  0.00     0.004 C 
ENDBRANCH   6   7
ENDBRANCH   1   6
TORSDOF 4
ENDMDL
MODEL 4
REMARK VINA RESULT:     4.098      3.406      4.741
REMARK INTER + INTRA:           4.996
REMARK INTER:                   5.133
REMARK INTRA:                  -0.137
REMARK UNBOUND:                -0.060
REMARK SMILES CCCCCC(=O)[O-]
REMARK SMILES IDX 4 1 5 2 6 3 7 4 8 5 3 6 2 7 1 8
REMARK H PARENT
REMARK Flexibility Score: inf
ROOT
ATOM      1  C   UNL     1      12.805  12.572  17.794  1.00  0.00     0.006 C 
ENDROOT
BRANCH   1   2
ATOM      2  C   UNL     1      13.830  13.053  16.764  1.00  0.00     0.053 C 
BRANCH   2   3
ATOM      3  C   UNL     1      14.113  14.510  16.945  1.00  0.00     0.041 C 
ATOM      4  O   UNL     1      13.330  15.372  16.466  1.00  0.00    -0.550 OA
ATOM      5  O   UNL     1      15.215  14.918  17.687  1.00  0.00    -0.550 OA
ENDBRANCH   2   3
ENDBRANCH   1   2
BRANCH   1   6
ATOM      6  C   UNL     1      11.656  11.813  17.113  1.00  0.00     0.000 C 
BRANCH   6   7
ATOM      7  C   UNL     1      10.731  12.739  16.309  1.00  0.00    -0.003 C 
ATOM      8  C   UNL     1       9.430  12.056  15.891  1.00  0.00     0.004 C 
ENDBRANCH   6   7
ENDBRANCH   1   6
TORSDOF 4
ENDMDL
