MODEL 1
REMARK VINA RESULT:    -7.926      0.000      0.000
REMARK INTER + INTRA:         -12.428
REMARK INTER:                 -10.937
REMARK INTRA:                  -1.491
REMARK UNBOUND:                -1.491
REMARK SMILES O=C([O-])[C@H]1O[C@@H](Oc2cc3oc(-c4ccccc4)cc(=O)c3c(O)c2O)[C@@H](O)[C@H](O)[C@H]1O
REMARK SMILES IDX 7 1 6 2 4 3 31 4 5 5 29 6 27 7 2 8 1 9 3 10 32 11 30 13
REMARK SMILES IDX 28 15 8 17 25 18 9 19 23 20 10 21 22 22 11 23 20 24 12 25
REMARK SMILES IDX 19 26 21 27 26 28 24 30 13 32 14 33 18 34 15 35 17 36 16 37
REMARK H PARENT 32 12 30 14 28 16 26 29 24 31
REMARK Flexibility Score: inf
ROOT
ATOM      1  O   UNL     1       3.608 -12.052 -32.815  1.00  0.00    -0.458 OA
ENDROOT
BRANCH   1   2
ATOM      2  C   UNL     1       4.917 -11.598 -33.186  1.00  0.00     0.339 C 
ATOM      3  C   UNL     1       4.568 -11.878 -35.520  1.00  0.00     0.199 C 
ATOM      4  C   UNL     1       5.524 -13.102 -35.570  1.00  0.00     0.180 C 
ATOM      5  O   UNL     1       4.881 -10.976 -34.463  1.00  0.00    -0.328 OA
ATOM      6  C   UNL     1       5.648 -13.787 -34.203  1.00  0.00     0.181 C 
ATOM      7  C   UNL     1       5.966 -12.727 -33.140  1.00  0.00     0.214 C 
BRANCH   3   8
ATOM      8  C   UNL     1       3.092 -12.205 -35.556  1.00  0.00     0.073 C 
ATOM      9  O   UNL     1       2.683 -13.395 -35.497  1.00  0.00    -0.547 OA
ATOM     10  O   UNL     1       2.167 -11.170 -35.626  1.00  0.00    -0.547 OA
ENDBRANCH   3   8
BRANCH   4  11
ATOM     11  O   UNL     1       5.095 -14.035 -36.529  1.00  0.00    -0.387 OA
ATOM     12  H   UNL     1       5.154 -14.930 -36.106  1.00  0.00     0.211 HD
ENDBRANCH   4  11
BRANCH   6  13
ATOM     13  O   UNL     1       6.688 -14.731 -34.263  1.00  0.00    -0.387 OA
ATOM     14  H   UNL     1       7.522 -14.267 -33.987  1.00  0.00     0.211 HD
ENDBRANCH   6  13
BRANCH   7  15
ATOM     15  O   UNL     1       5.996 -13.303 -31.859  1.00  0.00    -0.384 OA
ATOM     16  H   UNL     1       6.517 -14.146 -31.931  1.00  0.00     0.211 HD
ENDBRANCH   7  15
ENDBRANCH   1   2
BRANCH   1  17
ATOM     17  C   UNL     1       2.846 -11.466 -31.800  1.00  0.00     0.172 A 
ATOM     18  C   UNL     1       1.468 -11.220 -31.960  1.00  0.00     0.201 A 
ATOM     19  C   UNL     1       3.479 -11.132 -30.602  1.00  0.00     0.098 A 
ATOM     20  C   UNL     1       0.754 -10.546 -30.950  1.00  0.00     0.176 A 
ATOM     21  C   UNL     1       2.778 -10.482 -29.587  1.00  0.00     0.146 A 
ATOM     22  C   UNL     1       1.412 -10.162 -29.756  1.00  0.00     0.111 A 
ATOM     23  O   UNL     1       3.415 -10.165 -28.463  1.00  0.00    -0.456 OA
ATOM     24  C   UNL     1       0.769  -9.475 -28.705  1.00  0.00     0.197 A 
ATOM     25  C   UNL     1       2.834  -9.535 -27.444  1.00  0.00     0.138 A 
ATOM     26  C   UNL     1       1.483  -9.157 -27.550  1.00  0.00     0.100 A 
ATOM     27  O   UNL     1      -0.443  -9.138 -28.786  1.00  0.00    -0.289 OA
BRANCH  18  28
ATOM     28  O   UNL     1       0.787 -11.666 -33.094  1.00  0.00    -0.502 OA
ATOM     29  H   UNL     1       1.264 -12.054 -33.898  1.00  0.00     0.293 HD
ENDBRANCH  18  28
BRANCH  20  30
ATOM     30  O   UNL     1      -0.602 -10.270 -31.125  1.00  0.00    -0.504 OA
ATOM     31  H   UNL     1      -1.114  -9.649 -30.510  1.00  0.00     0.293 HD
ENDBRANCH  20  30
BRANCH  25  32
ATOM     32  C   UNL     1       3.645  -9.245 -26.233  1.00  0.00     0.017 A 
ATOM     33  C   UNL     1       5.029  -9.514 -26.174  1.00  0.00     0.012 A 
ATOM     34  C   UNL     1       3.027  -8.650 -25.113  1.00  0.00     0.012 A 
ATOM     35  C   UNL     1       5.763  -9.211 -25.023  1.00  0.00     0.001 A 
ATOM     36  C   UNL     1       3.768  -8.343 -23.968  1.00  0.00     0.001 A 
ATOM     37  C   UNL     1       5.133  -8.627 -23.923  1.00  0.00     0.000 A 
ENDBRANCH  25  32
ENDBRANCH   1  17
TORSDOF 9
ENDMDL
MODEL 2
REMARK VINA RESULT:    -7.888      3.137      5.493
REMARK INTER + INTRA:         -12.376
REMARK INTER:                 -10.968
REMARK INTRA:                  -1.408
REMARK UNBOUND:                -1.491
REMARK SMILES O=C([O-])[C@H]1O[C@@H](Oc2cc3oc(-c4ccccc4)cc(=O)c3c(O)c2O)[C@@H](O)[C@H](O)[C@H]1O
REMARK SMILES IDX 7 1 6 2 4 3 31 4 5 5 29 6 27 7 2 8 1 9 3 10 32 11 30 13
REMARK SMILES IDX 28 15 8 17 25 18 9 19 23 20 10 21 22 22 11 23 20 24 12 25
REMARK SMILES IDX 19 26 21 27 26 28 24 30 13 32 14 33 18 34 15 35 17 36 16 37
REMARK H PARENT 32 12 30 14 28 16 26 29 24 31
REMARK Flexibility Score: inf
ROOT
ATOM      1  O   UNL     1       2.027 -10.450 -32.643  1.00  0.00    -0.458 OA
ENDROOT
BRANCH   1   2
ATOM      2  C   UNL     1       1.139 -11.280 -33.405  1.00  0.00     0.339 C 
ATOM      3  C   UNL     1       0.800  -9.674 -35.125  1.00  0.00     0.199 C 
ATOM      4  C   UNL     1      -0.658  -9.404 -34.657  1.00  0.00     0.180 C 
ATOM      5  O   UNL     1       1.253 -10.982 -34.791  1.00  0.00    -0.328 OA
ATOM      6  C   UNL     1      -0.859  -9.757 -33.179  1.00  0.00     0.181 C 
ATOM      7  C   UNL     1      -0.322 -11.173 -32.925  1.00  0.00     0.214 C 
BRANCH   3   8
ATOM      8  C   UNL     1       1.811  -8.618 -34.740  1.00  0.00     0.073 C 
ATOM      9  O   UNL     1       1.506  -7.668 -33.972  1.00  0.00    -0.547 OA
ATOM     10  O   UNL     1       3.112  -8.715 -35.221  1.00  0.00    -0.547 OA
ENDBRANCH   3   8
BRANCH   4  11
ATOM     11  O   UNL     1      -1.014  -8.063 -34.876  1.00  0.00    -0.387 OA
ATOM     12  H   UNL     1      -1.871  -8.070 -35.374  1.00  0.00     0.211 HD
ENDBRANCH   4  11
BRANCH   6  13
ATOM     13  O   UNL     1      -2.233  -9.708 -32.884  1.00  0.00    -0.387 OA
ATOM     14  H   UNL     1      -2.720  -9.951 -33.715  1.00  0.00     0.211 HD
ENDBRANCH   6  13
BRANCH   7  15
ATOM     15  O   UNL     1      -0.404 -11.498 -31.561  1.00  0.00    -0.384 OA
ATOM     16  H   UNL     1      -1.156 -10.969 -31.181  1.00  0.00     0.211 HD
ENDBRANCH   7  15
ENDBRANCH   1   2
BRANCH   1  17
ATOM     17  C   UNL     1       3.104 -10.948 -31.903  1.00  0.00     0.172 A 
ATOM     18  C   UNL     1       4.409 -10.985 -32.433  1.00  0.00     0.201 A 
ATOM     19  C   UNL     1       2.865 -11.406 -30.606  1.00  0.00     0.098 A 
ATOM     20  C   UNL     1       5.450 -11.577 -31.691  1.00  0.00     0.176 A 
ATOM     21  C   UNL     1       3.891 -11.976 -29.855  1.00  0.00     0.146 A 
ATOM     22  C   UNL     1       5.192 -12.087 -30.395  1.00  0.00     0.111 A 
ATOM     23  O   UNL     1       3.626 -12.415 -28.628  1.00  0.00    -0.456 OA
ATOM     24  C   UNL     1       6.179 -12.703 -29.596  1.00  0.00     0.197 A 
ATOM     25  C   UNL     1       4.537 -12.983 -27.840  1.00  0.00     0.138 A 
ATOM     26  C   UNL     1       5.848 -13.156 -28.319  1.00  0.00     0.100 A 
ATOM     27  O   UNL     1       7.359 -12.858 -30.013  1.00  0.00    -0.289 OA
BRANCH  18  28
ATOM     28  O   UNL     1       4.696 -10.412 -33.672  1.00  0.00    -0.502 OA
ATOM     29  H   UNL     1       3.986  -9.981 -34.250  1.00  0.00     0.293 HD
ENDBRANCH  18  28
BRANCH  20  30
ATOM     30  O   UNL     1       6.734 -11.646 -32.231  1.00  0.00    -0.504 OA
ATOM     31  H   UNL     1       7.359 -12.423 -32.050  1.00  0.00     0.293 HD
ENDBRANCH  20  30
BRANCH  25  32
ATOM     32  C   UNL     1       4.125 -13.423 -26.481  1.00  0.00     0.017 A 
ATOM     33  C   UNL     1       3.993 -12.519 -25.407  1.00  0.00     0.012 A 
ATOM     34  C   UNL     1       3.820 -14.782 -26.258  1.00  0.00     0.012 A 
ATOM     35  C   UNL     1       3.585 -12.967 -24.146  1.00  0.00     0.001 A 
ATOM     36  C   UNL     1       3.406 -15.224 -24.997  1.00  0.00     0.001 A 
ATOM     37  C   UNL     1       3.293 -14.317 -23.943  1.00  0.00     0.000 A 
ENDBRANCH  25  32
ENDBRANCH   1  17
TORSDOF 9
ENDMDL
MODEL 3
REMARK VINA RESULT:    -7.869      2.603      7.958
REMARK INTER + INTRA:         -12.350
REMARK INTER:                 -10.882
REMARK INTRA:                  -1.469
REMARK UNBOUND:                -1.491
REMARK SMILES O=C([O-])[C@H]1O[C@@H](Oc2cc3oc(-c4ccccc4)cc(=O)c3c(O)c2O)[C@@H](O)[C@H](O)[C@H]1O
REMARK SMILES IDX 7 1 6 2 4 3 31 4 5 5 29 6 27 7 2 8 1 9 3 10 32 11 30 13
REMARK SMILES IDX 28 15 8 17 25 18 9 19 23 20 10 21 22 22 11 23 20 24 12 25
REMARK SMILES IDX 19 26 21 27 26 28 24 30 13 32 14 33 18 34 15 35 17 36 16 37
REMARK H PARENT 32 12 30 14 28 16 26 29 24 31
REMARK Flexibility Score: inf
ROOT
ATOM      1  O   UNL     1       2.467 -10.431 -28.861  1.00  0.00    -0.458 OA
ENDROOT
BRANCH   1   2
ATOM      2  C   UNL     1       3.353  -9.475 -28.263  1.00  0.00     0.339 C 
ATOM      3  C   UNL     1       5.090 -11.045 -27.855  1.00  0.00     0.199 C 
ATOM      4  C   UNL     1       4.829 -11.015 -26.323  1.00  0.00     0.180 C 
ATOM      5  O   UNL     1       4.706  -9.837 -28.504  1.00  0.00    -0.328 OA
ATOM      6  C   UNL     1       3.397 -10.578 -25.996  1.00  0.00     0.181 C 
ATOM      7  C   UNL     1       3.082  -9.283 -26.757  1.00  0.00     0.214 C 
BRANCH   3   8
ATOM      8  C   UNL     1       4.558 -12.261 -28.580  1.00  0.00     0.073 C 
ATOM      9  O   UNL     1       4.883 -12.507 -29.772  1.00  0.00    -0.547 OA
ATOM     10  O   UNL     1       3.718 -13.141 -27.907  1.00  0.00    -0.547 OA
ENDBRANCH   3   8
BRANCH   4  11
ATOM     11  O   UNL     1       5.085 -12.270 -25.747  1.00  0.00    -0.387 OA
ATOM     12  H   UNL     1       5.988 -12.548 -26.049  1.00  0.00     0.211 HD
ENDBRANCH   4  11
BRANCH   6  13
ATOM     13  O   UNL     1       3.298 -10.353 -24.611  1.00  0.00    -0.387 OA
ATOM     14  H   UNL     1       2.445 -10.762 -24.307  1.00  0.00     0.211 HD
ENDBRANCH   6  13
BRANCH   7  15
ATOM     15  O   UNL     1       1.746  -8.900 -26.555  1.00  0.00    -0.384 OA
ATOM     16  H   UNL     1       1.197  -9.398 -27.218  1.00  0.00     0.211 HD
ENDBRANCH   7  15
ENDBRANCH   1   2
BRANCH   1  17
ATOM     17  C   UNL     1       1.775 -10.202 -30.053  1.00  0.00     0.172 A 
ATOM     18  C   UNL     1       0.433  -9.773 -30.057  1.00  0.00     0.201 A 
ATOM     19  C   UNL     1       2.446 -10.399 -31.261  1.00  0.00     0.098 A 
ATOM     20  C   UNL     1      -0.258  -9.641 -31.277  1.00  0.00     0.176 A 
ATOM     21  C   UNL     1       1.779 -10.252 -32.476  1.00  0.00     0.146 A 
ATOM     22  C   UNL     1       0.413  -9.891 -32.499  1.00  0.00     0.111 A 
ATOM     23  O   UNL     1       2.445 -10.461 -33.608  1.00  0.00    -0.456 OA
ATOM     24  C   UNL     1      -0.213  -9.790 -33.760  1.00  0.00     0.197 A 
ATOM     25  C   UNL     1       1.891 -10.355 -34.815  1.00  0.00     0.138 A 
ATOM     26  C   UNL     1       0.527 -10.028 -34.918  1.00  0.00     0.100 A 
ATOM     27  O   UNL     1      -1.433  -9.491 -33.865  1.00  0.00    -0.289 OA
BRANCH  18  28
ATOM     28  O   UNL     1      -0.218  -9.442 -28.867  1.00  0.00    -0.502 OA
ATOM     29  H   UNL     1       0.220  -9.547 -27.960  1.00  0.00     0.293 HD
ENDBRANCH  18  28
BRANCH  20  30
ATOM     30  O   UNL     1      -1.597  -9.250 -31.278  1.00  0.00    -0.504 OA
ATOM     31  H   UNL     1      -2.324  -9.800 -31.722  1.00  0.00     0.293 HD
ENDBRANCH  20  30
BRANCH  25  32
ATOM     32  C   UNL     1       2.741 -10.599 -36.010  1.00  0.00     0.017 A 
ATOM     33  C   UNL     1       4.000  -9.984 -36.174  1.00  0.00     0.012 A 
ATOM     34  C   UNL     1       2.298 -11.501 -36.999  1.00  0.00     0.012 A 
ATOM     35  C   UNL     1       4.780 -10.253 -37.304  1.00  0.00     0.001 A 
ATOM     36  C   UNL     1       3.085 -11.771 -38.123  1.00  0.00     0.001 A 
ATOM     37  C   UNL     1       4.322 -11.144 -38.275  1.00  0.00     0.000 A 
ENDBRANCH  25  32
ENDBRANCH   1  17
TORSDOF 9
ENDMDL
MODEL 4
REMARK VINA RESULT:    -7.868      3.508      8.962
REMARK INTER + INTRA:         -12.348
REMARK INTER:                 -10.978
REMARK INTRA:                  -1.370
REMARK UNBOUND:                -1.491
REMARK SMILES O=C([O-])[C@H]1O[C@@H](Oc2cc3oc(-c4ccccc4)cc(=O)c3c(O)c2O)[C@@H](O)[C@H](O)[C@H]1O
REMARK SMILES IDX 7 1 6 2 4 3 31 4 5 5 29 6 27 7 2 8 1 9 3 10 32 11 30 13
REMARK SMILES IDX 28 15 8 17 25 18 9 19 23 20 10 21 22 22 11 23 20 24 12 25
REMARK SMILES IDX 19 26 21 27 26 28 24 30 13 32 14 33 18 34 15 35 17 36 16 37
REMARK H PARENT 32 12 30 14 28 16 26 29 24 31
REMARK Flexibility Score: inf
ROOT
ATOM      1  O   UNL     1       1.909 -10.342 -32.243  1.00  0.00    -0.458 OA
ENDROOT
BRANCH   1   2
ATOM      2  C   UNL     1       0.701 -11.014 -31.858  1.00  0.00     0.339 C 
ATOM      3  C   UNL     1      -0.740  -9.449 -32.916  1.00  0.00     0.199 C 
ATOM      4  C   UNL     1      -1.212  -8.879 -31.549  1.00  0.00     0.180 C 
ATOM      5  O   UNL     1      -0.313 -10.805 -32.831  1.00  0.00    -0.328 OA
ATOM      6  C   UNL     1      -0.180  -9.123 -30.441  1.00  0.00     0.181 C 
ATOM      7  C   UNL     1       0.224 -10.603 -30.450  1.00  0.00     0.214 C 
BRANCH   3   8
ATOM      8  C   UNL     1       0.258  -8.595 -33.665  1.00  0.00     0.073 C 
ATOM      9  O   UNL     1       0.785  -7.583 -33.132  1.00  0.00    -0.547 OA
ATOM     10  O   UNL     1       0.624  -8.952 -34.958  1.00  0.00    -0.547 OA
ENDBRANCH   3   8
BRANCH   4  11
ATOM     11  O   UNL     1      -1.486  -7.505 -31.646  1.00  0.00    -0.387 OA
ATOM     12  H   UNL     1      -0.796  -7.035 -31.111  1.00  0.00     0.211 HD
ENDBRANCH   4  11
BRANCH   6  13
ATOM     13  O   UNL     1      -0.759  -8.793 -29.203  1.00  0.00    -0.387 OA
ATOM     14  H   UNL     1      -0.839  -9.635 -28.683  1.00  0.00     0.211 HD
ENDBRANCH   6  13
BRANCH   7  15
ATOM     15  O   UNL     1       1.238 -10.847 -29.509  1.00  0.00    -0.384 OA
ATOM     16  H   UNL     1       1.930 -11.397 -29.963  1.00  0.00     0.211 HD
ENDBRANCH   7  15
ENDBRANCH   1   2
BRANCH   1  17
ATOM     17  C   UNL     1       3.042 -11.006 -32.722  1.00  0.00     0.172 A 
ATOM     18  C   UNL     1       3.902 -11.715 -31.859  1.00  0.00     0.201 A 
ATOM     19  C   UNL     1       3.310 -10.963 -34.091  1.00  0.00     0.098 A 
ATOM     20  C   UNL     1       5.082 -12.293 -32.366  1.00  0.00     0.176 A 
ATOM     21  C   UNL     1       4.464 -11.549 -34.607  1.00  0.00     0.146 A 
ATOM     22  C   UNL     1       5.376 -12.204 -33.748  1.00  0.00     0.111 A 
ATOM     23  O   UNL     1       4.696 -11.477 -35.915  1.00  0.00    -0.456 OA
ATOM     24  C   UNL     1       6.541 -12.748 -34.328  1.00  0.00     0.197 A 
ATOM     25  C   UNL     1       5.775 -11.996 -36.498  1.00  0.00     0.138 A 
ATOM     26  C   UNL     1       6.743 -12.638 -35.704  1.00  0.00     0.100 A 
ATOM     27  O   UNL     1       7.413 -13.331 -33.628  1.00  0.00    -0.289 OA
BRANCH  18  28
ATOM     28  O   UNL     1       3.584 -11.884 -30.510  1.00  0.00    -0.502 OA
ATOM     29  H   UNL     1       3.005 -12.645 -30.179  1.00  0.00     0.293 HD
ENDBRANCH  18  28
BRANCH  20  30
ATOM     30  O   UNL     1       5.951 -12.964 -31.505  1.00  0.00    -0.504 OA
ATOM     31  H   UNL     1       6.629 -12.479 -30.929  1.00  0.00     0.293 HD
ENDBRANCH  20  30
BRANCH  25  32
ATOM     32  C   UNL     1       5.918 -11.865 -37.971  1.00  0.00     0.017 A 
ATOM     33  C   UNL     1       5.901 -10.612 -38.618  1.00  0.00     0.012 A 
ATOM     34  C   UNL     1       6.114 -13.023 -38.752  1.00  0.00     0.012 A 
ATOM     35  C   UNL     1       6.057 -10.526 -40.006  1.00  0.00     0.001 A 
ATOM     36  C   UNL     1       6.276 -12.931 -40.138  1.00  0.00     0.001 A 
ATOM     37  C   UNL     1       6.244 -11.683 -40.763  1.00  0.00     0.000 A 
ENDBRANCH  25  32
ENDBRANCH   1  17
TORSDOF 9
ENDMDL
MODEL 5
REMARK VINA RESULT:    -7.863      2.479      5.419
REMARK INTER + INTRA:         -12.341
REMARK INTER:                 -10.954
REMARK INTRA:                  -1.387
REMARK UNBOUND:                -1.491
REMARK SMILES O=C([O-])[C@H]1O[C@@H](Oc2cc3oc(-c4ccccc4)cc(=O)c3c(O)c2O)[C@@H](O)[C@H](O)[C@H]1O
REMARK SMILES IDX 7 1 6 2 4 3 31 4 5 5 29 6 27 7 2 8 1 9 3 10 32 11 30 13
REMARK SMILES IDX 28 15 8 17 25 18 9 19 23 20 10 21 22 22 11 23 20 24 12 25
REMARK SMILES IDX 19 26 21 27 26 28 24 30 13 32 14 33 18 34 15 35 17 36 16 37
REMARK H PARENT 32 12 30 14 28 16 26 29 24 31
REMARK Flexibility Score: inf
ROOT
ATOM      1  O   UNL     1       2.568 -10.390 -32.344  1.00  0.00    -0.458 OA
ENDROOT
BRANCH   1   2
ATOM      2  C   UNL     1       1.240 -10.763 -31.951  1.00  0.00     0.339 C 
ATOM      3  C   UNL     1       0.294 -10.409 -34.103  1.00  0.00     0.199 C 
ATOM      4  C   UNL     1      -0.458  -9.137 -33.621  1.00  0.00     0.180 C 
ATOM      5  O   UNL     1       0.543 -11.335 -33.049  1.00  0.00    -0.328 OA
ATOM      6  C   UNL     1       0.218  -8.502 -32.400  1.00  0.00     0.181 C 
ATOM      7  C   UNL     1       0.456  -9.584 -31.339  1.00  0.00     0.214 C 
BRANCH   3   8
ATOM      8  C   UNL     1       1.535 -10.156 -34.928  1.00  0.00     0.073 C 
ATOM      9  O   UNL     1       1.987  -8.992 -35.092  1.00  0.00    -0.547 OA
ATOM     10  O   UNL     1       2.207 -11.234 -35.493  1.00  0.00    -0.547 OA
ENDBRANCH   3   8
BRANCH   4  11
ATOM     11  O   UNL     1      -0.555  -8.191 -34.655  1.00  0.00    -0.387 OA
ATOM     12  H   UNL     1      -0.047  -8.554 -35.426  1.00  0.00     0.211 HD
ENDBRANCH   4  11
BRANCH   6  13
ATOM     13  O   UNL     1      -0.628  -7.504 -31.883  1.00  0.00    -0.387 OA
ATOM     14  H   UNL     1      -0.288  -6.631 -32.213  1.00  0.00     0.211 HD
ENDBRANCH   6  13
BRANCH   7  15
ATOM     15  O   UNL     1       1.158  -9.059 -30.242  1.00  0.00    -0.384 OA
ATOM     16  H   UNL     1       1.056  -9.707 -29.495  1.00  0.00     0.211 HD
ENDBRANCH   7  15
ENDBRANCH   1   2
BRANCH   1  17
ATOM     17  C   UNL     1       3.723 -10.967 -31.806  1.00  0.00     0.172 A 
ATOM     18  C   UNL     1       4.722 -11.522 -32.630  1.00  0.00     0.201 A 
ATOM     19  C   UNL     1       3.878 -10.978 -30.419  1.00  0.00     0.098 A 
ATOM     20  C   UNL     1       5.827 -12.175 -32.049  1.00  0.00     0.176 A 
ATOM     21  C   UNL     1       4.977 -11.603 -29.833  1.00  0.00     0.146 A 
ATOM     22  C   UNL     1       5.955 -12.228 -30.639  1.00  0.00     0.111 A 
ATOM     23  O   UNL     1       5.087 -11.608 -28.508  1.00  0.00    -0.456 OA
ATOM     24  C   UNL     1       7.026 -12.872 -29.984  1.00  0.00     0.197 A 
ATOM     25  C   UNL     1       6.094 -12.188 -27.857  1.00  0.00     0.138 A 
ATOM     26  C   UNL     1       7.091 -12.856 -28.590  1.00  0.00     0.100 A 
ATOM     27  O   UNL     1       7.929 -13.468 -30.631  1.00  0.00    -0.289 OA
BRANCH  18  28
ATOM     28  O   UNL     1       4.654 -11.405 -34.019  1.00  0.00    -0.502 OA
ATOM     29  H   UNL     1       4.841 -10.536 -34.502  1.00  0.00     0.293 HD
ENDBRANCH  18  28
BRANCH  20  30
ATOM     30  O   UNL     1       6.798 -12.756 -32.865  1.00  0.00    -0.504 OA
ATOM     31  H   UNL     1       7.786 -12.551 -32.765  1.00  0.00     0.293 HD
ENDBRANCH  20  30
BRANCH  25  32
ATOM     32  C   UNL     1       6.116 -12.115 -26.373  1.00  0.00     0.017 A 
ATOM     33  C   UNL     1       5.812 -10.927 -25.675  1.00  0.00     0.012 A 
ATOM     34  C   UNL     1       6.414 -13.276 -25.629  1.00  0.00     0.012 A 
ATOM     35  C   UNL     1       5.825 -10.901 -24.277  1.00  0.00     0.001 A 
ATOM     36  C   UNL     1       6.419 -13.245 -24.231  1.00  0.00     0.001 A 
ATOM     37  C   UNL     1       6.128 -12.058 -23.557  1.00  0.00     0.000 A 
ENDBRANCH  25  32
ENDBRANCH   1  17
TORSDOF 9
ENDMDL
MODEL 6
REMARK VINA RESULT:    -7.839      4.260      7.827
REMARK INTER + INTRA:         -12.309
REMARK INTER:                 -10.847
REMARK INTRA:                  -1.462
REMARK UNBOUND:                -1.491
REMARK SMILES O=C([O-])[C@H]1O[C@@H](Oc2cc3oc(-c4ccccc4)cc(=O)c3c(O)c2O)[C@@H](O)[C@H](O)[C@H]1O
REMARK SMILES IDX 7 1 6 2 4 3 31 4 5 5 29 6 27 7 2 8 1 9 3 10 32 11 30 13
REMARK SMILES IDX 28 15 8 17 25 18 9 19 23 20 10 21 22 22 11 23 20 24 12 25
REMARK SMILES IDX 19 26 21 27 26 28 24 30 13 32 14 33 18 34 15 35 17 36 16 37
REMARK H PARENT 32 12 30 14 28 16 26 29 24 31
REMARK Flexibility Score: inf
ROOT
ATOM      1  O   UNL     1       3.357 -10.861 -34.257  1.00  0.00    -0.458 OA
ENDROOT
BRANCH   1   2
ATOM      2  C   UNL     1       3.449 -12.112 -34.953  1.00  0.00     0.339 C 
ATOM      3  C   UNL     1       5.193 -12.970 -33.587  1.00  0.00     0.199 C 
ATOM      4  C   UNL     1       6.234 -12.825 -34.732  1.00  0.00     0.180 C 
ATOM      5  O   UNL     1       3.864 -13.142 -34.067  1.00  0.00    -0.328 OA
ATOM      6  C   UNL     1       5.814 -11.762 -35.754  1.00  0.00     0.181 C 
ATOM      7  C   UNL     1       4.367 -12.029 -36.190  1.00  0.00     0.214 C 
BRANCH   3   8
ATOM      8  C   UNL     1       5.265 -11.912 -32.508  1.00  0.00     0.073 C 
ATOM      9  O   UNL     1       6.056 -10.937 -32.598  1.00  0.00    -0.547 OA
ATOM     10  O   UNL     1       4.418 -12.003 -31.409  1.00  0.00    -0.547 OA
ENDBRANCH   3   8
BRANCH   4  11
ATOM     11  O   UNL     1       7.504 -12.514 -34.220  1.00  0.00    -0.387 OA
ATOM     12  H   UNL     1       8.167 -12.818 -34.891  1.00  0.00     0.211 HD
ENDBRANCH   4  11
BRANCH   6  13
ATOM     13  O   UNL     1       6.670 -11.842 -36.868  1.00  0.00    -0.387 OA
ATOM     14  H   UNL     1       6.752 -12.803 -37.106  1.00  0.00     0.211 HD
ENDBRANCH   6  13
BRANCH   7  15
ATOM     15  O   UNL     1       3.915 -11.021 -37.057  1.00  0.00    -0.384 OA
ATOM     16  H   UNL     1       2.922 -11.028 -37.018  1.00  0.00     0.211 HD
ENDBRANCH   7  15
ENDBRANCH   1   2
BRANCH   1  17
ATOM     17  C   UNL     1       2.146 -10.226 -33.967  1.00  0.00     0.172 A 
ATOM     18  C   UNL     1       1.912  -9.615 -32.719  1.00  0.00     0.201 A 
ATOM     19  C   UNL     1       1.158 -10.196 -34.953  1.00  0.00     0.098 A 
ATOM     20  C   UNL     1       0.647  -9.065 -32.433  1.00  0.00     0.176 A 
ATOM     21  C   UNL     1      -0.091  -9.636 -34.689  1.00  0.00     0.146 A 
ATOM     22  C   UNL     1      -0.369  -9.082 -33.419  1.00  0.00     0.111 A 
ATOM     23  O   UNL     1      -1.015  -9.638 -35.646  1.00  0.00    -0.456 OA
ATOM     24  C   UNL     1      -1.663  -8.561 -33.205  1.00  0.00     0.197 A 
ATOM     25  C   UNL     1      -2.238  -9.137 -35.484  1.00  0.00     0.138 A 
ATOM     26  C   UNL     1      -2.600  -8.594 -34.238  1.00  0.00     0.100 A 
ATOM     27  O   UNL     1      -1.996  -8.066 -32.094  1.00  0.00    -0.289 OA
BRANCH  18  28
ATOM     28  O   UNL     1       2.929  -9.515 -31.768  1.00  0.00    -0.502 OA
ATOM     29  H   UNL     1       3.519  -8.697 -31.686  1.00  0.00     0.293 HD
ENDBRANCH  18  28
BRANCH  20  30
ATOM     30  O   UNL     1       0.406  -8.493 -31.185  1.00  0.00    -0.504 OA
ATOM     31  H   UNL     1       0.897  -8.785 -30.348  1.00  0.00     0.293 HD
ENDBRANCH  20  30
BRANCH  25  32
ATOM     32  C   UNL     1      -3.181  -9.182 -36.632  1.00  0.00     0.017 A 
ATOM     33  C   UNL     1      -3.329 -10.332 -37.437  1.00  0.00     0.012 A 
ATOM     34  C   UNL     1      -3.984  -8.056 -36.912  1.00  0.00     0.012 A 
ATOM     35  C   UNL     1      -4.241 -10.343 -38.498  1.00  0.00     0.001 A 
ATOM     36  C   UNL     1      -4.898  -8.077 -37.970  1.00  0.00     0.001 A 
ATOM     37  C   UNL     1      -5.022  -9.218 -38.763  1.00  0.00     0.000 A 
ENDBRANCH  25  32
ENDBRANCH   1  17
TORSDOF 9
ENDMDL
MODEL 7
REMARK VINA RESULT:    -7.817      2.750      8.039
REMARK INTER + INTRA:         -12.279
REMARK INTER:                 -10.787
REMARK INTRA:                  -1.491
REMARK UNBOUND:                -1.491
REMARK SMILES O=C([O-])[C@H]1O[C@@H](Oc2cc3oc(-c4ccccc4)cc(=O)c3c(O)c2O)[C@@H](O)[C@H](O)[C@H]1O
REMARK SMILES IDX 7 1 6 2 4 3 31 4 5 5 29 6 27 7 2 8 1 9 3 10 32 11 30 13
REMARK SMILES IDX 28 15 8 17 25 18 9 19 23 20 10 21 22 22 11 23 20 24 12 25
REMARK SMILES IDX 19 26 21 27 26 28 24 30 13 32 14 33 18 34 15 35 17 36 16 37
REMARK H PARENT 32 12 30 14 28 16 26 29 24 31
REMARK Flexibility Score: inf
ROOT
ATOM      1  O   UNL     1       2.797 -10.404 -27.568  1.00  0.00    -0.458 OA
ENDROOT
BRANCH   1   2
ATOM      2  C   UNL     1       3.937  -9.616 -27.200  1.00  0.00     0.339 C 
ATOM      3  C   UNL     1       5.330 -11.487 -26.744  1.00  0.00     0.199 C 
ATOM      4  C   UNL     1       5.278 -11.219 -25.214  1.00  0.00     0.180 C 
ATOM      5  O   UNL     1       5.138 -10.306 -27.518  1.00  0.00    -0.328 OA
ATOM      6  C   UNL     1       4.027 -10.428 -24.815  1.00  0.00     0.181 C 
ATOM      7  C   UNL     1       3.906  -9.193 -25.717  1.00  0.00     0.214 C 
BRANCH   3   8
ATOM      8  C   UNL     1       4.461 -12.622 -27.235  1.00  0.00     0.073 C 
ATOM      9  O   UNL     1       3.685 -13.237 -26.456  1.00  0.00    -0.547 OA
ATOM     10  O   UNL     1       4.498 -12.976 -28.578  1.00  0.00    -0.547 OA
ENDBRANCH   3   8
BRANCH   4  11
ATOM     11  O   UNL     1       5.327 -12.424 -24.493  1.00  0.00    -0.387 OA
ATOM     12  H   UNL     1       4.438 -12.852 -24.589  1.00  0.00     0.211 HD
ENDBRANCH   4  11
BRANCH   6  13
ATOM     13  O   UNL     1       4.155 -10.027 -23.473  1.00  0.00    -0.387 OA
ATOM     14  H   UNL     1       4.922  -9.398 -23.426  1.00  0.00     0.211 HD
ENDBRANCH   6  13
BRANCH   7  15
ATOM     15  O   UNL     1       2.721  -8.491 -25.443  1.00  0.00    -0.384 OA
ATOM     16  H   UNL     1       2.960  -7.528 -25.386  1.00  0.00     0.211 HD
ENDBRANCH   7  15
ENDBRANCH   1   2
BRANCH   1  17
ATOM     17  C   UNL     1       1.922 -10.062 -28.603  1.00  0.00     0.172 A 
ATOM     18  C   UNL     1       0.743  -9.330 -28.361  1.00  0.00     0.201 A 
ATOM     19  C   UNL     1       2.245 -10.453 -29.904  1.00  0.00     0.098 A 
ATOM     20  C   UNL     1      -0.158  -9.082 -29.415  1.00  0.00     0.176 A 
ATOM     21  C   UNL     1       1.371 -10.196 -30.959  1.00  0.00     0.146 A 
ATOM     22  C   UNL     1       0.149  -9.526 -30.725  1.00  0.00     0.111 A 
ATOM     23  O   UNL     1       1.702 -10.595 -32.183  1.00  0.00    -0.456 OA
ATOM     24  C   UNL     1      -0.706  -9.325 -31.829  1.00  0.00     0.197 A 
ATOM     25  C   UNL     1       0.928 -10.405 -33.251  1.00  0.00     0.138 A 
ATOM     26  C   UNL     1      -0.317  -9.771 -33.093  1.00  0.00     0.100 A 
ATOM     27  O   UNL     1      -1.822  -8.752 -31.700  1.00  0.00    -0.289 OA
BRANCH  18  28
ATOM     28  O   UNL     1       0.467  -8.813 -27.093  1.00  0.00    -0.502 OA
ATOM     29  H   UNL     1       0.925  -9.151 -26.257  1.00  0.00     0.293 HD
ENDBRANCH  18  28
BRANCH  20  30
ATOM     30  O   UNL     1      -1.343  -8.389 -29.167  1.00  0.00    -0.504 OA
ATOM     31  H   UNL     1      -2.244  -8.716 -29.496  1.00  0.00     0.293 HD
ENDBRANCH  20  30
BRANCH  25  32
ATOM     32  C   UNL     1       1.412 -10.884 -34.572  1.00  0.00     0.017 A 
ATOM     33  C   UNL     1       2.244 -12.015 -34.702  1.00  0.00     0.012 A 
ATOM     34  C   UNL     1       1.001 -10.212 -35.743  1.00  0.00     0.012 A 
ATOM     35  C   UNL     1       2.665 -12.447 -35.964  1.00  0.00     0.001 A 
ATOM     36  C   UNL     1       1.419 -10.653 -37.002  1.00  0.00     0.001 A 
ATOM     37  C   UNL     1       2.252 -11.767 -37.111  1.00  0.00     0.000 A 
ENDBRANCH  25  32
ENDBRANCH   1  17
TORSDOF 9
ENDMDL
MODEL 8
REMARK VINA RESULT:    -7.778      2.505      5.607
REMARK INTER + INTRA:         -12.225
REMARK INTER:                 -10.693
REMARK INTRA:                  -1.532
REMARK UNBOUND:                -1.491
REMARK SMILES O=C([O-])[C@H]1O[C@@H](Oc2cc3oc(-c4ccccc4)cc(=O)c3c(O)c2O)[C@@H](O)[C@H](O)[C@H]1O
REMARK SMILES IDX 7 1 6 2 4 3 31 4 5 5 29 6 27 7 2 8 1 9 3 10 32 11 30 13
REMARK SMILES IDX 28 15 8 17 25 18 9 19 23 20 10 21 22 22 11 23 20 24 12 25
REMARK SMILES IDX 19 26 21 27 26 28 24 30 13 32 14 33 18 34 15 35 17 36 16 37
REMARK H PARENT 32 12 30 14 28 16 26 29 24 31
REMARK Flexibility Score: inf
ROOT
ATOM      1  O   UNL     1       1.219 -10.027 -32.516  1.00  0.00    -0.458 OA
ENDROOT
BRANCH   1   2
ATOM      2  C   UNL     1       1.040  -8.620 -32.730  1.00  0.00     0.339 C 
ATOM      3  C   UNL     1      -1.165  -8.566 -31.845  1.00  0.00     0.199 C 
ATOM      4  C   UNL     1      -1.782  -8.351 -33.255  1.00  0.00     0.180 C 
ATOM      5  O   UNL     1       0.169  -8.077 -31.746  1.00  0.00    -0.328 OA
ATOM      6  C   UNL     1      -0.862  -8.869 -34.367  1.00  0.00     0.181 C 
ATOM      7  C   UNL     1       0.548  -8.300 -34.156  1.00  0.00     0.214 C 
BRANCH   3   8
ATOM      8  C   UNL     1      -1.289  -9.966 -31.288  1.00  0.00     0.073 C 
ATOM      9  O   UNL     1      -1.731 -10.914 -31.990  1.00  0.00    -0.547 OA
ATOM     10  O   UNL     1      -0.879 -10.218 -29.984  1.00  0.00    -0.547 OA
ENDBRANCH   3   8
BRANCH   4  11
ATOM     11  O   UNL     1      -3.038  -8.973 -33.352  1.00  0.00    -0.387 OA
ATOM     12  H   UNL     1      -2.903  -9.930 -33.129  1.00  0.00     0.211 HD
ENDBRANCH   4  11
BRANCH   6  13
ATOM     13  O   UNL     1      -1.368  -8.444 -35.608  1.00  0.00    -0.387 OA
ATOM     14  H   UNL     1      -0.849  -8.914 -36.313  1.00  0.00     0.211 HD
ENDBRANCH   6  13
BRANCH   7  15
ATOM     15  O   UNL     1       1.443  -8.826 -35.102  1.00  0.00    -0.384 OA
ATOM     16  H   UNL     1       1.834  -8.054 -35.592  1.00  0.00     0.211 HD
ENDBRANCH   7  15
ENDBRANCH   1   2
BRANCH   1  17
ATOM     17  C   UNL     1       2.402 -10.589 -32.027  1.00  0.00     0.172 A 
ATOM     18  C   UNL     1       3.382 -11.115 -32.892  1.00  0.00     0.201 A 
ATOM     19  C   UNL     1       2.606 -10.614 -30.646  1.00  0.00     0.098 A 
ATOM     20  C   UNL     1       4.518 -11.755 -32.359  1.00  0.00     0.176 A 
ATOM     21  C   UNL     1       3.736 -11.227 -30.107  1.00  0.00     0.146 A 
ATOM     22  C   UNL     1       4.696 -11.823 -30.956  1.00  0.00     0.111 A 
ATOM     23  O   UNL     1       3.893 -11.245 -28.787  1.00  0.00    -0.456 OA
ATOM     24  C   UNL     1       5.801 -12.456 -30.346  1.00  0.00     0.197 A 
ATOM     25  C   UNL     1       4.932 -11.815 -28.180  1.00  0.00     0.138 A 
ATOM     26  C   UNL     1       5.915 -12.455 -28.956  1.00  0.00     0.100 A 
ATOM     27  O   UNL     1       6.691 -13.027 -31.032  1.00  0.00    -0.289 OA
BRANCH  18  28
ATOM     28  O   UNL     1       3.262 -10.982 -34.277  1.00  0.00    -0.502 OA
ATOM     29  H   UNL     1       2.406 -11.197 -34.772  1.00  0.00     0.293 HD
ENDBRANCH  18  28
BRANCH  20  30
ATOM     30  O   UNL     1       5.469 -12.307 -33.216  1.00  0.00    -0.504 OA
ATOM     31  H   UNL     1       5.366 -12.295 -34.224  1.00  0.00     0.293 HD
ENDBRANCH  20  30
BRANCH  25  32
ATOM     32  C   UNL     1       5.005 -11.760 -26.696  1.00  0.00     0.017 A 
ATOM     33  C   UNL     1       6.165 -12.138 -25.987  1.00  0.00     0.012 A 
ATOM     34  C   UNL     1       3.896 -11.283 -25.967  1.00  0.00     0.012 A 
ATOM     35  C   UNL     1       6.203 -12.055 -24.591  1.00  0.00     0.001 A 
ATOM     36  C   UNL     1       3.942 -11.196 -24.572  1.00  0.00     0.001 A 
ATOM     37  C   UNL     1       5.094 -11.585 -23.887  1.00  0.00     0.000 A 
ENDBRANCH  25  32
ENDBRANCH   1  17
TORSDOF 9
ENDMDL
MODEL 9
REMARK VINA RESULT:    -7.773      3.694      7.091
REMARK INTER + INTRA:         -12.218
REMARK INTER:                 -10.770
REMARK INTRA:                  -1.447
REMARK UNBOUND:                -1.491
REMARK SMILES O=C([O-])[C@H]1O[C@@H](Oc2cc3oc(-c4ccccc4)cc(=O)c3c(O)c2O)[C@@H](O)[C@H](O)[C@H]1O
REMARK SMILES IDX 7 1 6 2 4 3 31 4 5 5 29 6 27 7 2 8 1 9 3 10 32 11 30 13
REMARK SMILES IDX 28 15 8 17 25 18 9 19 23 20 10 21 22 22 11 23 20 24 12 25
REMARK SMILES IDX 19 26 21 27 26 28 24 30 13 32 14 33 18 34 15 35 17 36 16 37
REMARK H PARENT 32 12 30 14 28 16 26 29 24 31
REMARK Flexibility Score: inf
ROOT
ATOM      1  O   UNL     1       3.432 -11.591 -33.183  1.00  0.00    -0.458 OA
ENDROOT
BRANCH   1   2
ATOM      2  C   UNL     1       4.687 -11.043 -33.609  1.00  0.00     0.339 C 
ATOM      3  C   UNL     1       5.153 -12.793 -35.148  1.00  0.00     0.199 C 
ATOM      4  C   UNL     1       6.278 -13.363 -34.240  1.00  0.00     0.180 C 
ATOM      5  O   UNL     1       4.947 -11.396 -34.961  1.00  0.00    -0.328 OA
ATOM      6  C   UNL     1       6.083 -12.969 -32.771  1.00  0.00     0.181 C 
ATOM      7  C   UNL     1       5.852 -11.454 -32.686  1.00  0.00     0.214 C 
BRANCH   3   8
ATOM      8  C   UNL     1       3.849 -13.558 -35.122  1.00  0.00     0.073 C 
ATOM      9  O   UNL     1       3.699 -14.573 -34.392  1.00  0.00    -0.547 OA
ATOM     10  O   UNL     1       2.784 -13.113 -35.898  1.00  0.00    -0.547 OA
ENDBRANCH   3   8
BRANCH   4  11
ATOM     11  O   UNL     1       6.351 -14.762 -34.350  1.00  0.00    -0.387 OA
ATOM     12  H   UNL     1       5.914 -15.006 -35.206  1.00  0.00     0.211 HD
ENDBRANCH   4  11
BRANCH   6  13
ATOM     13  O   UNL     1       7.239 -13.317 -32.051  1.00  0.00    -0.387 OA
ATOM     14  H   UNL     1       7.812 -13.855 -32.659  1.00  0.00     0.211 HD
ENDBRANCH   6  13
BRANCH   7  15
ATOM     15  O   UNL     1       5.576 -11.068 -31.364  1.00  0.00    -0.384 OA
ATOM     16  H   UNL     1       5.012 -10.251 -31.412  1.00  0.00     0.211 HD
ENDBRANCH   7  15
ENDBRANCH   1   2
BRANCH   1  17
ATOM     17  C   UNL     1       2.288 -10.819 -32.960  1.00  0.00     0.172 A 
ATOM     18  C   UNL     1       2.037 -10.216 -31.712  1.00  0.00     0.201 A 
ATOM     19  C   UNL     1       1.389 -10.642 -34.013  1.00  0.00     0.098 A 
ATOM     20  C   UNL     1       0.830  -9.521 -31.499  1.00  0.00     0.176 A 
ATOM     21  C   UNL     1       0.200  -9.940 -33.820  1.00  0.00     0.146 A 
ATOM     22  C   UNL     1      -0.104  -9.388 -32.555  1.00  0.00     0.111 A 
ATOM     23  O   UNL     1      -0.642  -9.803 -34.840  1.00  0.00    -0.456 OA
ATOM     24  C   UNL     1      -1.338  -8.717 -32.417  1.00  0.00     0.197 A 
ATOM     25  C   UNL     1      -1.804  -9.159 -34.750  1.00  0.00     0.138 A 
ATOM     26  C   UNL     1      -2.190  -8.608 -33.515  1.00  0.00     0.100 A 
ATOM     27  O   UNL     1      -1.691  -8.213 -31.316  1.00  0.00    -0.289 OA
BRANCH  18  28
ATOM     28  O   UNL     1       2.984 -10.266 -30.687  1.00  0.00    -0.502 OA
ATOM     29  H   UNL     1       3.969 -10.410 -30.864  1.00  0.00     0.293 HD
ENDBRANCH  18  28
BRANCH  20  30
ATOM     30  O   UNL     1       0.566  -8.956 -30.252  1.00  0.00    -0.504 OA
ATOM     31  H   UNL     1       1.080  -9.213 -29.417  1.00  0.00     0.293 HD
ENDBRANCH  20  30
BRANCH  25  32
ATOM     32  C   UNL     1      -2.656  -9.059 -35.964  1.00  0.00     0.017 A 
ATOM     33  C   UNL     1      -3.650  -8.068 -36.104  1.00  0.00     0.012 A 
ATOM     34  C   UNL     1      -2.446  -9.958 -37.031  1.00  0.00     0.012 A 
ATOM     35  C   UNL     1      -4.421  -7.994 -37.269  1.00  0.00     0.001 A 
ATOM     36  C   UNL     1      -3.215  -9.874 -38.196  1.00  0.00     0.001 A 
ATOM     37  C   UNL     1      -4.203  -8.895 -38.312  1.00  0.00     0.000 A 
ENDBRANCH  25  32
ENDBRANCH   1  17
TORSDOF 9
ENDMDL
