MODEL 1
REMARK VINA RESULT:    -3.950      0.000      0.000
REMARK INTER + INTRA:          -9.203
REMARK INTER:                  -6.951
REMARK INTRA:                  -2.252
REMARK UNBOUND:                -2.252
REMARK SMILES CCCCCCCCCCCCCCC(=O)[O-]
REMARK SMILES IDX 9 1 10 2 11 3 12 4 13 5 14 6 15 7 16 8 17 9 8 10 7 11 6 12
REMARK SMILES IDX 5 13 4 14 3 15 2 16 1 17
REMARK H PARENT
REMARK Flexibility Score: inf
ROOT
ATOM      1  C   UNL     1      10.530  38.360  -0.908  1.00  0.00     0.000 C 
ENDROOT
BRANCH   1   2
ATOM      2  C   UNL     1      11.196  37.010  -0.590  1.00  0.00     0.000 C 
BRANCH   2   3
ATOM      3  C   UNL     1      10.426  35.817  -1.179  1.00  0.00     0.000 C 
BRANCH   3   4
ATOM      4  C   UNL     1      10.298  34.651  -0.187  1.00  0.00     0.000 C 
BRANCH   4   5
ATOM      5  C   UNL     1       8.938  33.936  -0.281  1.00  0.00     0.006 C 
BRANCH   5   6
ATOM      6  C   UNL     1       8.933  32.842  -1.356  1.00  0.00     0.053 C 
BRANCH   6   7
ATOM      7  C   UNL     1       9.976  31.800  -1.092  1.00  0.00     0.041 C 
ATOM      8  O   UNL     1       9.894  31.064  -0.073  1.00  0.00    -0.550 OA
ATOM      9  O   UNL     1      11.020  31.619  -1.990  1.00  0.00    -0.550 OA
ENDBRANCH   6   7
ENDBRANCH   5   6
ENDBRANCH   4   5
ENDBRANCH   3   4
ENDBRANCH   2   3
ENDBRANCH   1   2
BRANCH   1  10
ATOM     10  C   UNL     1      10.309  39.220   0.349  1.00  0.00     0.000 C 
BRANCH  10  11
ATOM     11  C   UNL     1      10.361  38.395   1.645  1.00  0.00    -0.000 C 
BRANCH  11  12
ATOM     12  C   UNL     1       8.982  38.227   2.300  1.00  0.00    -0.000 C 
BRANCH  12  13
ATOM     13  C   UNL     1       8.189  37.098   1.630  1.00  0.00    -0.000 C 
BRANCH  13  14
ATOM     14  C   UNL     1       7.064  37.662   0.751  1.00  0.00    -0.000 C 
BRANCH  14  15
ATOM     15  C   UNL     1       6.575  36.656  -0.303  1.00  0.00    -0.000 C 
BRANCH  15  16
ATOM     16  C   UNL     1       7.045  37.011  -1.722  1.00  0.00    -0.003 C 
ATOM     17  C   UNL     1       6.811  35.849  -2.684  1.00  0.00     0.004 C 
ENDBRANCH  15  16
ENDBRANCH  14  15
ENDBRANCH  13  14
ENDBRANCH  12  13
ENDBRANCH  11  12
ENDBRANCH  10  11
ENDBRANCH   1  10
TORSDOF 13
ENDMDL
MODEL 2
REMARK VINA RESULT:    -3.851      1.295      3.710
REMARK INTER + INTRA:          -9.030
REMARK INTER:                  -6.966
REMARK INTRA:                  -2.065
REMARK UNBOUND:                -2.252
REMARK SMILES CCCCCCCCCCCCCCC(=O)[O-]
REMARK SMILES IDX 9 1 10 2 11 3 12 4 13 5 14 6 15 7 16 8 17 9 8 10 7 11 6 12
REMARK SMILES IDX 5 13 4 14 3 15 2 16 1 17
REMARK H PARENT
REMARK Flexibility Score: inf
ROOT
ATOM      1  C   UNL     1       5.790  36.332  -2.161  1.00  0.00     0.000 C 
ENDROOT
BRANCH   1   2
ATOM      2  C   UNL     1       6.834  35.449  -2.866  1.00  0.00     0.000 C 
BRANCH   2   3
ATOM      3  C   UNL     1       6.673  33.958  -2.527  1.00  0.00     0.000 C 
BRANCH   3   4
ATOM      4  C   UNL     1       8.018  33.268  -2.253  1.00  0.00     0.000 C 
BRANCH   4   5
ATOM      5  C   UNL     1       8.577  33.588  -0.855  1.00  0.00     0.006 C 
BRANCH   5   6
ATOM      6  C   UNL     1      10.025  33.110  -0.687  1.00  0.00     0.053 C 
BRANCH   6   7
ATOM      7  C   UNL     1      10.124  31.615  -0.737  1.00  0.00     0.041 C 
ATOM      8  O   UNL     1      10.592  31.045  -1.757  1.00  0.00    -0.550 OA
ATOM      9  O   UNL     1       9.731  30.856   0.357  1.00  0.00    -0.550 OA
ENDBRANCH   6   7
ENDBRANCH   5   6
ENDBRANCH   4   5
ENDBRANCH   3   4
ENDBRANCH   2   3
ENDBRANCH   1   2
BRANCH   1  10
ATOM     10  C   UNL     1       5.026  35.577  -1.059  1.00  0.00     0.000 C 
BRANCH  10  11
ATOM     11  C   UNL     1       5.252  36.182   0.336  1.00  0.00    -0.000 C 
BRANCH  11  12
ATOM     12  C   UNL     1       6.630  35.834   0.919  1.00  0.00    -0.000 C 
BRANCH  12  13
ATOM     13  C   UNL     1       7.311  37.080   1.500  1.00  0.00    -0.000 C 
BRANCH  13  14
ATOM     14  C   UNL     1       8.762  37.192   1.010  1.00  0.00    -0.000 C 
BRANCH  14  15
ATOM     15  C   UNL     1       8.857  37.506  -0.491  1.00  0.00    -0.000 C 
BRANCH  15  16
ATOM     16  C   UNL     1      10.098  36.882  -1.148  1.00  0.00    -0.003 C 
ATOM     17  C   UNL     1      11.181  36.596  -0.112  1.00  0.00     0.004 C 
ENDBRANCH  15  16
ENDBRANCH  14  15
ENDBRANCH  13  14
ENDBRANCH  12  13
ENDBRANCH  11  12
ENDBRANCH  10  11
ENDBRANCH   1  10
TORSDOF 13
ENDMDL
MODEL 3
REMARK VINA RESULT:    -3.767      3.099      4.892
REMARK INTER + INTRA:          -8.882
REMARK INTER:                  -6.750
REMARK INTRA:                  -2.132
REMARK UNBOUND:                -2.252
REMARK SMILES CCCCCCCCCCCCCCC(=O)[O-]
REMARK SMILES IDX 9 1 10 2 11 3 12 4 13 5 14 6 15 7 16 8 17 9 8 10 7 11 6 12
REMARK SMILES IDX 5 13 4 14 3 15 2 16 1 17
REMARK H PARENT
REMARK Flexibility Score: inf
ROOT
ATOM      1  C   UNL     1       9.146  33.748   0.136  1.00  0.00     0.000 C 
ENDROOT
BRANCH   1   2
ATOM      2  C   UNL     1       8.909  34.149  -1.331  1.00  0.00     0.000 C 
BRANCH   2   3
ATOM      3  C   UNL     1       8.461  32.964  -2.203  1.00  0.00     0.000 C 
BRANCH   3   4
ATOM      4  C   UNL     1       7.241  33.302  -3.074  1.00  0.00     0.000 C 
BRANCH   4   5
ATOM      5  C   UNL     1       6.588  34.641  -2.688  1.00  0.00     0.006 C 
BRANCH   5   6
ATOM      6  C   UNL     1       5.224  34.447  -2.013  1.00  0.00     0.053 C 
BRANCH   6   7
ATOM      7  C   UNL     1       4.518  35.752  -1.805  1.00  0.00     0.041 C 
ATOM      8  O   UNL     1       3.800  35.929  -0.787  1.00  0.00    -0.550 OA
ATOM      9  O   UNL     1       4.683  36.784  -2.720  1.00  0.00    -0.550 OA
ENDBRANCH   6   7
ENDBRANCH   5   6
ENDBRANCH   4   5
ENDBRANCH   3   4
ENDBRANCH   2   3
ENDBRANCH   1   2
BRANCH   1  10
ATOM     10  C   UNL     1       8.757  34.864   1.122  1.00  0.00     0.000 C 
BRANCH  10  11
ATOM     11  C   UNL     1       7.308  35.340   0.933  1.00  0.00    -0.000 C 
BRANCH  11  12
ATOM     12  C   UNL     1       7.187  36.871   0.872  1.00  0.00    -0.000 C 
BRANCH  12  13
ATOM     13  C   UNL     1       7.671  37.406  -0.482  1.00  0.00    -0.000 C 
BRANCH  13  14
ATOM     14  C   UNL     1       8.710  38.521  -0.292  1.00  0.00    -0.000 C 
BRANCH  14  15
ATOM     15  C   UNL     1      10.110  38.115  -0.779  1.00  0.00    -0.000 C 
BRANCH  15  16
ATOM     16  C   UNL     1      11.005  37.600   0.358  1.00  0.00    -0.003 C 
ATOM     17  C   UNL     1      10.683  38.307   1.672  1.00  0.00     0.004 C 
ENDBRANCH  15  16
ENDBRANCH  14  15
ENDBRANCH  13  14
ENDBRANCH  12  13
ENDBRANCH  11  12
ENDBRANCH  10  11
ENDBRANCH   1  10
TORSDOF 13
ENDMDL
MODEL 4
REMARK VINA RESULT:    -3.762      3.233      5.032
REMARK INTER + INTRA:          -8.873
REMARK INTER:                  -6.672
REMARK INTRA:                  -2.202
REMARK UNBOUND:                -2.252
REMARK SMILES CCCCCCCCCCCCCCC(=O)[O-]
REMARK SMILES IDX 9 1 10 2 11 3 12 4 13 5 14 6 15 7 16 8 17 9 8 10 7 11 6 12
REMARK SMILES IDX 5 13 4 14 3 15 2 16 1 17
REMARK H PARENT
REMARK Flexibility Score: inf
ROOT
ATOM      1  C   UNL     1      10.363  37.040  -0.700  1.00  0.00     0.000 C 
ENDROOT
BRANCH   1   2
ATOM      2  C   UNL     1       9.140  37.884  -0.301  1.00  0.00     0.000 C 
BRANCH   2   3
ATOM      3  C   UNL     1       7.860  37.455  -1.037  1.00  0.00     0.000 C 
BRANCH   3   4
ATOM      4  C   UNL     1       6.627  37.452  -0.121  1.00  0.00     0.000 C 
BRANCH   4   5
ATOM      5  C   UNL     1       6.856  36.665   1.182  1.00  0.00     0.006 C 
BRANCH   5   6
ATOM      6  C   UNL     1       5.947  35.433   1.281  1.00  0.00     0.053 C 
BRANCH   6   7
ATOM      7  C   UNL     1       4.590  35.787   1.808  1.00  0.00     0.041 C 
ATOM      8  O   UNL     1       3.602  35.845   1.030  1.00  0.00    -0.550 OA
ATOM      9  O   UNL     1       4.411  36.020   3.166  1.00  0.00    -0.550 OA
ENDBRANCH   6   7
ENDBRANCH   5   6
ENDBRANCH   4   5
ENDBRANCH   3   4
ENDBRANCH   2   3
ENDBRANCH   1   2
BRANCH   1  10
ATOM     10  C   UNL     1       9.969  35.704  -1.354  1.00  0.00     0.000 C 
BRANCH  10  11
ATOM     11  C   UNL     1       9.779  34.577  -0.326  1.00  0.00    -0.000 C 
BRANCH  11  12
ATOM     12  C   UNL     1       8.528  33.728  -0.599  1.00  0.00    -0.000 C 
BRANCH  12  13
ATOM     13  C   UNL     1       8.525  33.199  -2.039  1.00  0.00    -0.000 C 
BRANCH  13  14
ATOM     14  C   UNL     1       7.106  33.211  -2.626  1.00  0.00    -0.000 C 
BRANCH  14  15
ATOM     15  C   UNL     1       6.444  34.596  -2.546  1.00  0.00    -0.000 C 
BRANCH  15  16
ATOM     16  C   UNL     1       4.962  34.520  -2.150  1.00  0.00    -0.003 C 
ATOM     17  C   UNL     1       4.229  35.807  -2.518  1.00  0.00     0.004 C 
ENDBRANCH  15  16
ENDBRANCH  14  15
ENDBRANCH  13  14
ENDBRANCH  12  13
ENDBRANCH  11  12
ENDBRANCH  10  11
ENDBRANCH   1  10
TORSDOF 13
ENDMDL
MODEL 5
REMARK VINA RESULT:    -3.762      3.227      4.923
REMARK INTER + INTRA:          -8.873
REMARK INTER:                  -7.151
REMARK INTRA:                  -1.722
REMARK UNBOUND:                -2.252
REMARK SMILES CCCCCCCCCCCCCCC(=O)[O-]
REMARK SMILES IDX 9 1 10 2 11 3 12 4 13 5 14 6 15 7 16 8 17 9 8 10 7 11 6 12
REMARK SMILES IDX 5 13 4 14 3 15 2 16 1 17
REMARK H PARENT
REMARK Flexibility Score: inf
ROOT
ATOM      1  C   UNL     1       8.268  33.362  -1.793  1.00  0.00     0.000 C 
ENDROOT
BRANCH   1   2
ATOM      2  C   UNL     1       9.212  33.436  -0.581  1.00  0.00     0.000 C 
BRANCH   2   3
ATOM      3  C   UNL     1      10.558  34.098  -0.919  1.00  0.00     0.000 C 
BRANCH   3   4
ATOM      4  C   UNL     1      10.434  35.617  -1.114  1.00  0.00     0.000 C 
BRANCH   4   5
ATOM      5  C   UNL     1      11.060  36.418   0.042  1.00  0.00     0.006 C 
BRANCH   5   6
ATOM      6  C   UNL     1      10.243  36.303   1.335  1.00  0.00     0.053 C 
BRANCH   6   7
ATOM      7  C   UNL     1       9.945  37.649   1.923  1.00  0.00     0.041 C 
ATOM      8  O   UNL     1      10.844  38.528   1.983  1.00  0.00    -0.550 OA
ATOM      9  O   UNL     1       8.665  37.942   2.374  1.00  0.00    -0.550 OA
ENDBRANCH   6   7
ENDBRANCH   5   6
ENDBRANCH   4   5
ENDBRANCH   3   4
ENDBRANCH   2   3
ENDBRANCH   1   2
BRANCH   1  10
ATOM     10  C   UNL     1       6.970  34.162  -1.580  1.00  0.00     0.000 C 
BRANCH  10  11
ATOM     11  C   UNL     1       6.933  34.874  -0.219  1.00  0.00    -0.000 C 
BRANCH  11  12
ATOM     12  C   UNL     1       6.773  36.397  -0.348  1.00  0.00    -0.000 C 
BRANCH  12  13
ATOM     13  C   UNL     1       6.344  36.786  -1.768  1.00  0.00    -0.000 C 
BRANCH  13  14
ATOM     14  C   UNL     1       4.848  37.126  -1.817  1.00  0.00    -0.000 C 
BRANCH  14  15
ATOM     15  C   UNL     1       4.066  36.221  -2.784  1.00  0.00    -0.000 C 
BRANCH  15  16
ATOM     16  C   UNL     1       2.912  35.478  -2.095  1.00  0.00    -0.003 C 
ATOM     17  C   UNL     1       3.245  34.001  -1.905  1.00  0.00     0.004 C 
ENDBRANCH  15  16
ENDBRANCH  14  15
ENDBRANCH  13  14
ENDBRANCH  12  13
ENDBRANCH  11  12
ENDBRANCH  10  11
ENDBRANCH   1  10
TORSDOF 13
ENDMDL
MODEL 6
REMARK VINA RESULT:    -3.758      1.321      3.420
REMARK INTER + INTRA:          -8.866
REMARK INTER:                  -6.923
REMARK INTRA:                  -1.943
REMARK UNBOUND:                -2.252
REMARK SMILES CCCCCCCCCCCCCCC(=O)[O-]
REMARK SMILES IDX 9 1 10 2 11 3 12 4 13 5 14 6 15 7 16 8 17 9 8 10 7 11 6 12
REMARK SMILES IDX 5 13 4 14 3 15 2 16 1 17
REMARK H PARENT
REMARK Flexibility Score: inf
ROOT
ATOM      1  C   UNL     1       5.588  35.859   0.757  1.00  0.00     0.000 C 
ENDROOT
BRANCH   1   2
ATOM      2  C   UNL     1       6.754  35.162   0.034  1.00  0.00     0.000 C 
BRANCH   2   3
ATOM      3  C   UNL     1       6.362  34.649  -1.362  1.00  0.00     0.000 C 
BRANCH   3   4
ATOM      4  C   UNL     1       7.366  33.627  -1.917  1.00  0.00     0.000 C 
BRANCH   4   5
ATOM      5  C   UNL     1       8.492  33.297  -0.920  1.00  0.00     0.006 C 
BRANCH   5   6
ATOM      6  C   UNL     1       9.718  32.688  -1.612  1.00  0.00     0.053 C 
BRANCH   6   7
ATOM      7  C   UNL     1      10.306  31.567  -0.811  1.00  0.00     0.041 C 
ATOM      8  O   UNL     1      11.412  31.064  -1.140  1.00  0.00    -0.550 OA
ATOM      9  O   UNL     1       9.648  31.102   0.320  1.00  0.00    -0.550 OA
ENDBRANCH   6   7
ENDBRANCH   5   6
ENDBRANCH   4   5
ENDBRANCH   3   4
ENDBRANCH   2   3
ENDBRANCH   1   2
BRANCH   1  10
ATOM     10  C   UNL     1       5.931  37.299   1.176  1.00  0.00     0.000 C 
BRANCH  10  11
ATOM     11  C   UNL     1       7.001  37.937   0.277  1.00  0.00    -0.000 C 
BRANCH  11  12
ATOM     12  C   UNL     1       8.001  38.800   1.062  1.00  0.00    -0.000 C 
BRANCH  12  13
ATOM     13  C   UNL     1       8.605  38.015   2.232  1.00  0.00    -0.000 C 
BRANCH  13  14
ATOM     14  C   UNL     1      10.038  37.566   1.912  1.00  0.00    -0.000 C 
BRANCH  14  15
ATOM     15  C   UNL     1      10.093  36.164   1.284  1.00  0.00    -0.000 C 
BRANCH  15  16
ATOM     16  C   UNL     1      10.916  36.129  -0.012  1.00  0.00    -0.003 C 
ATOM     17  C   UNL     1      10.071  36.551  -1.210  1.00  0.00     0.004 C 
ENDBRANCH  15  16
ENDBRANCH  14  15
ENDBRANCH  13  14
ENDBRANCH  12  13
ENDBRANCH  11  12
ENDBRANCH  10  11
ENDBRANCH   1  10
TORSDOF 13
ENDMDL
MODEL 7
REMARK VINA RESULT:    -3.753      1.188      2.017
REMARK INTER + INTRA:          -8.858
REMARK INTER:                  -6.811
REMARK INTRA:                  -2.047
REMARK UNBOUND:                -2.252
REMARK SMILES CCCCCCCCCCCCCCC(=O)[O-]
REMARK SMILES IDX 9 1 10 2 11 3 12 4 13 5 14 6 15 7 16 8 17 9 8 10 7 11 6 12
REMARK SMILES IDX 5 13 4 14 3 15 2 16 1 17
REMARK H PARENT
REMARK Flexibility Score: inf
ROOT
ATOM      1  C   UNL     1       9.003  37.935  -0.611  1.00  0.00     0.000 C 
ENDROOT
BRANCH   1   2
ATOM      2  C   UNL     1      10.295  37.104  -0.687  1.00  0.00     0.000 C 
BRANCH   2   3
ATOM      3  C   UNL     1      10.072  35.718  -1.314  1.00  0.00     0.000 C 
BRANCH   3   4
ATOM      4  C   UNL     1      10.136  34.585  -0.278  1.00  0.00     0.000 C 
BRANCH   4   5
ATOM      5  C   UNL     1       9.104  33.475  -0.546  1.00  0.00     0.006 C 
BRANCH   5   6
ATOM      6  C   UNL     1       9.584  32.486  -1.617  1.00  0.00     0.053 C 
BRANCH   6   7
ATOM      7  C   UNL     1      10.424  31.395  -1.027  1.00  0.00     0.041 C 
ATOM      8  O   UNL     1      11.462  31.002  -1.621  1.00  0.00    -0.550 OA
ATOM      9  O   UNL     1      10.078  30.837   0.197  1.00  0.00    -0.550 OA
ENDBRANCH   6   7
ENDBRANCH   5   6
ENDBRANCH   4   5
ENDBRANCH   3   4
ENDBRANCH   2   3
ENDBRANCH   1   2
BRANCH   1  10
ATOM     10  C   UNL     1       8.539  38.174   0.837  1.00  0.00     0.000 C 
BRANCH  10  11
ATOM     11  C   UNL     1       7.143  37.594   1.113  1.00  0.00    -0.000 C 
BRANCH  11  12
ATOM     12  C   UNL     1       7.134  36.058   1.148  1.00  0.00    -0.000 C 
BRANCH  12  13
ATOM     13  C   UNL     1       5.699  35.517   1.124  1.00  0.00    -0.000 C 
BRANCH  13  14
ATOM     14  C   UNL     1       5.102  35.605  -0.288  1.00  0.00    -0.000 C 
BRANCH  14  15
ATOM     15  C   UNL     1       5.991  34.937  -1.350  1.00  0.00    -0.000 C 
BRANCH  15  16
ATOM     16  C   UNL     1       6.451  35.919  -2.438  1.00  0.00    -0.003 C 
ATOM     17  C   UNL     1       5.543  37.145  -2.490  1.00  0.00     0.004 C 
ENDBRANCH  15  16
ENDBRANCH  14  15
ENDBRANCH  13  14
ENDBRANCH  12  13
ENDBRANCH  11  12
ENDBRANCH  10  11
ENDBRANCH   1  10
TORSDOF 13
ENDMDL
MODEL 8
REMARK VINA RESULT:    -3.706      2.413      4.671
REMARK INTER + INTRA:          -8.775
REMARK INTER:                  -6.587
REMARK INTRA:                  -2.188
REMARK UNBOUND:                -2.252
REMARK SMILES CCCCCCCCCCCCCCC(=O)[O-]
REMARK SMILES IDX 9 1 10 2 11 3 12 4 13 5 14 6 15 7 16 8 17 9 8 10 7 11 6 12
REMARK SMILES IDX 5 13 4 14 3 15 2 16 1 17
REMARK H PARENT
REMARK Flexibility Score: inf
ROOT
ATOM      1  C   UNL     1       4.180  35.669  -2.502  1.00  0.00     0.000 C 
ENDROOT
BRANCH   1   2
ATOM      2  C   UNL     1       4.528  34.269  -1.968  1.00  0.00     0.000 C 
BRANCH   2   3
ATOM      3  C   UNL     1       5.885  33.759  -2.484  1.00  0.00     0.000 C 
BRANCH   3   4
ATOM      4  C   UNL     1       7.070  34.340  -1.698  1.00  0.00     0.000 C 
BRANCH   4   5
ATOM      5  C   UNL     1       8.246  33.355  -1.580  1.00  0.00     0.006 C 
BRANCH   5   6
ATOM      6  C   UNL     1       8.994  33.503  -0.249  1.00  0.00     0.053 C 
BRANCH   6   7
ATOM      7  C   UNL     1      10.156  34.441  -0.368  1.00  0.00     0.041 C 
ATOM      8  O   UNL     1      10.938  34.361  -1.351  1.00  0.00    -0.550 OA
ATOM      9  O   UNL     1      10.353  35.427   0.591  1.00  0.00    -0.550 OA
ENDBRANCH   6   7
ENDBRANCH   5   6
ENDBRANCH   4   5
ENDBRANCH   3   4
ENDBRANCH   2   3
ENDBRANCH   1   2
BRANCH   1  10
ATOM     10  C   UNL     1       3.595  36.586  -1.414  1.00  0.00     0.000 C 
BRANCH  10  11
ATOM     11  C   UNL     1       4.411  37.875  -1.228  1.00  0.00    -0.000 C 
BRANCH  11  12
ATOM     12  C   UNL     1       5.795  37.805  -1.892  1.00  0.00    -0.000 C 
BRANCH  12  13
ATOM     13  C   UNL     1       6.912  37.952  -0.851  1.00  0.00    -0.000 C 
BRANCH  13  14
ATOM     14  C   UNL     1       6.380  37.691   0.566  1.00  0.00    -0.000 C 
BRANCH  14  15
ATOM     15  C   UNL     1       6.969  36.418   1.194  1.00  0.00    -0.000 C 
BRANCH  15  16
ATOM     16  C   UNL     1       5.896  35.369   1.520  1.00  0.00    -0.003 C 
ATOM     17  C   UNL     1       4.647  36.024   2.104  1.00  0.00     0.004 C 
ENDBRANCH  15  16
ENDBRANCH  14  15
ENDBRANCH  13  14
ENDBRANCH  12  13
ENDBRANCH  11  12
ENDBRANCH  10  11
ENDBRANCH   1  10
TORSDOF 13
ENDMDL
MODEL 9
REMARK VINA RESULT:    -3.693      1.323      3.763
REMARK INTER + INTRA:          -8.751
REMARK INTER:                  -6.950
REMARK INTRA:                  -1.800
REMARK UNBOUND:                -2.252
REMARK SMILES CCCCCCCCCCCCCCC(=O)[O-]
REMARK SMILES IDX 9 1 10 2 11 3 12 4 13 5 14 6 15 7 16 8 17 9 8 10 7 11 6 12
REMARK SMILES IDX 5 13 4 14 3 15 2 16 1 17
REMARK H PARENT
REMARK Flexibility Score: inf
ROOT
ATOM      1  C   UNL     1       6.165  35.433  -0.141  1.00  0.00     0.000 C 
ENDROOT
BRANCH   1   2
ATOM      2  C   UNL     1       6.684  36.329  -1.278  1.00  0.00     0.000 C 
BRANCH   2   3
ATOM      3  C   UNL     1       7.303  35.522  -2.432  1.00  0.00     0.000 C 
BRANCH   3   4
ATOM      4  C   UNL     1       6.878  34.046  -2.413  1.00  0.00     0.000 C 
BRANCH   4   5
ATOM      5  C   UNL     1       8.077  33.082  -2.383  1.00  0.00     0.006 C 
BRANCH   5   6
ATOM      6  C   UNL     1       8.810  33.111  -1.036  1.00  0.00     0.053 C 
BRANCH   6   7
ATOM      7  C   UNL     1      10.195  32.552  -1.147  1.00  0.00     0.041 C 
ATOM      8  O   UNL     1      11.171  33.314  -1.375  1.00  0.00    -0.550 OA
ATOM      9  O   UNL     1      10.412  31.192  -0.964  1.00  0.00    -0.550 OA
ENDBRANCH   6   7
ENDBRANCH   5   6
ENDBRANCH   4   5
ENDBRANCH   3   4
ENDBRANCH   2   3
ENDBRANCH   1   2
BRANCH   1  10
ATOM     10  C   UNL     1       6.947  35.630   1.170  1.00  0.00     0.000 C 
BRANCH  10  11
ATOM     11  C   UNL     1       8.170  36.545   0.995  1.00  0.00    -0.000 C 
BRANCH  11  12
ATOM     12  C   UNL     1       9.499  35.818   1.253  1.00  0.00    -0.000 C 
BRANCH  12  13
ATOM     13  C   UNL     1      10.578  36.277   0.265  1.00  0.00    -0.000 C 
BRANCH  13  14
ATOM     14  C   UNL     1      10.100  37.491  -0.545  1.00  0.00    -0.000 C 
BRANCH  14  15
ATOM     15  C   UNL     1      11.226  38.503  -0.813  1.00  0.00    -0.000 C 
BRANCH  15  16
ATOM     16  C   UNL     1      10.710  39.946  -0.917  1.00  0.00    -0.003 C 
ATOM     17  C   UNL     1       9.870  40.318   0.301  1.00  0.00     0.004 C 
ENDBRANCH  15  16
ENDBRANCH  14  15
ENDBRANCH  13  14
ENDBRANCH  12  13
ENDBRANCH  11  12
ENDBRANCH  10  11
ENDBRANCH   1  10
TORSDOF 13
ENDMDL
