MODEL 1
REMARK VINA RESULT:    -6.124      0.000      0.000
REMARK INTER + INTRA:          -7.068
REMARK INTER:                  -7.018
REMARK INTRA:                  -0.049
REMARK UNBOUND:                -0.049
REMARK SMILES O=C([O-])c1cc(O)c(O)c(O)c1
REMARK SMILES IDX 4 1 5 2 12 3 6 4 10 5 8 6 2 7 1 8 3 9 7 10 11 12 9 14
REMARK H PARENT 7 11 11 13 9 15
REMARK Flexibility Score: inf
ROOT
ATOM      1  C   UNL     1       9.180  69.427   0.209  1.00  0.00     0.005 A 
ATOM      2  C   UNL     1       9.494  70.425  -0.730  1.00  0.00     0.060 A 
ATOM      3  C   UNL     1       9.406  69.677   1.572  1.00  0.00     0.060 A 
ATOM      4  C   UNL     1      10.025  71.651  -0.317  1.00  0.00     0.162 A 
ATOM      5  C   UNL     1       9.937  70.903   1.995  1.00  0.00     0.162 A 
ATOM      6  C   UNL     1      10.249  71.895   1.050  1.00  0.00     0.200 A 
ENDROOT
BRANCH   1   7
ATOM      7  C   UNL     1       8.619  68.129  -0.230  1.00  0.00     0.072 C 
ATOM      8  O   UNL     1       8.966  67.058   0.335  1.00  0.00    -0.545 OA
ATOM      9  O   UNL     1       7.699  68.075  -1.271  1.00  0.00    -0.545 OA
ENDBRANCH   1   7
BRANCH   4  10
ATOM     10  O   UNL     1      10.325  72.616  -1.278  1.00  0.00    -0.504 OA
ATOM     11  H   UNL     1      10.299  72.414  -2.271  1.00  0.00     0.293 HD
ENDBRANCH   4  10
BRANCH   5  12
ATOM     12  O   UNL     1      10.156  71.138   3.351  1.00  0.00    -0.504 OA
ATOM     13  H   UNL     1      10.922  70.701   3.850  1.00  0.00     0.293 HD
ENDBRANCH   5  12
BRANCH   6  14
ATOM     14  O   UNL     1      10.778  73.122   1.453  1.00  0.00    -0.502 OA
ATOM     15  H   UNL     1      11.034  73.844   0.790  1.00  0.00     0.293 HD
ENDBRANCH   6  14
TORSDOF 4
ENDMDL
MODEL 2
REMARK VINA RESULT:    -6.081      1.155      2.647
REMARK INTER + INTRA:          -7.020
REMARK INTER:                  -6.969
REMARK INTRA:                  -0.051
REMARK UNBOUND:                -0.049
REMARK SMILES O=C([O-])c1cc(O)c(O)c(O)c1
REMARK SMILES IDX 4 1 5 2 12 3 6 4 10 5 8 6 2 7 1 8 3 9 7 10 11 12 9 14
REMARK H PARENT 7 11 11 13 9 15
REMARK Flexibility Score: inf
ROOT
ATOM      1  C   UNL     1       9.628  68.858   0.240  1.00  0.00     0.005 A 
ATOM      2  C   UNL     1       9.861  69.544   1.444  1.00  0.00     0.060 A 
ATOM      3  C   UNL     1       9.586  69.584  -0.962  1.00  0.00     0.060 A 
ATOM      4  C   UNL     1      10.049  70.930   1.451  1.00  0.00     0.162 A 
ATOM      5  C   UNL     1       9.773  70.973  -0.964  1.00  0.00     0.162 A 
ATOM      6  C   UNL     1      10.006  71.651   0.245  1.00  0.00     0.200 A 
ENDROOT
BRANCH   1   7
ATOM      7  C   UNL     1       9.429  67.391   0.233  1.00  0.00     0.072 C 
ATOM      8  O   UNL     1       8.916  66.810   1.227  1.00  0.00    -0.545 OA
ATOM      9  O   UNL     1       9.807  66.634  -0.869  1.00  0.00    -0.545 OA
ENDBRANCH   1   7
BRANCH   4  10
ATOM     10  O   UNL     1      10.277  71.574   2.667  1.00  0.00    -0.504 OA
ATOM     11  H   UNL     1       9.710  71.394   3.487  1.00  0.00     0.293 HD
ENDBRANCH   4  10
BRANCH   5  12
ATOM     12  O   UNL     1       9.729  71.682  -2.164  1.00  0.00    -0.504 OA
ATOM     13  H   UNL     1       9.409  71.252  -3.024  1.00  0.00     0.293 HD
ENDBRANCH   5  12
BRANCH   6  14
ATOM     14  O   UNL     1      10.194  73.033   0.262  1.00  0.00    -0.502 OA
ATOM     15  H   UNL     1      10.913  73.487  -0.290  1.00  0.00     0.293 HD
ENDBRANCH   6  14
TORSDOF 4
ENDMDL
MODEL 3
REMARK VINA RESULT:    -6.056      1.321      1.903
REMARK INTER + INTRA:          -6.991
REMARK INTER:                  -6.939
REMARK INTRA:                  -0.052
REMARK UNBOUND:                -0.049
REMARK SMILES O=C([O-])c1cc(O)c(O)c(O)c1
REMARK SMILES IDX 4 1 5 2 12 3 6 4 10 5 8 6 2 7 1 8 3 9 7 10 11 12 9 14
REMARK H PARENT 7 11 11 13 9 15
REMARK Flexibility Score: inf
ROOT
ATOM      1  C   UNL     1       9.769  69.226   0.283  1.00  0.00     0.005 A 
ATOM      2  C   UNL     1       9.694  69.460  -1.101  1.00  0.00     0.060 A 
ATOM      3  C   UNL     1       9.980  70.312   1.148  1.00  0.00     0.060 A 
ATOM      4  C   UNL     1       9.828  70.754  -1.614  1.00  0.00     0.162 A 
ATOM      5  C   UNL     1      10.115  71.612   0.642  1.00  0.00     0.162 A 
ATOM      6  C   UNL     1      10.039  71.837  -0.743  1.00  0.00     0.200 A 
ENDROOT
BRANCH   1   7
ATOM      7  C   UNL     1       9.627  67.856   0.825  1.00  0.00     0.072 C 
ATOM      8  O   UNL     1       9.389  67.673   2.049  1.00  0.00    -0.545 OA
ATOM      9  O   UNL     1       9.755  66.751  -0.008  1.00  0.00    -0.545 OA
ENDBRANCH   1   7
BRANCH   4  10
ATOM     10  O   UNL     1       9.749  70.945  -2.994  1.00  0.00    -0.504 OA
ATOM     11  H   UNL     1      10.501  70.680  -3.618  1.00  0.00     0.293 HD
ENDBRANCH   4  10
BRANCH   5  12
ATOM     12  O   UNL     1      10.324  72.682   1.512  1.00  0.00    -0.504 OA
ATOM     13  H   UNL     1      10.080  72.624   2.494  1.00  0.00     0.293 HD
ENDBRANCH   5  12
BRANCH   6  14
ATOM     14  O   UNL     1      10.171  73.125  -1.264  1.00  0.00    -0.502 OA
ATOM     15  H   UNL     1       9.988  73.953  -0.709  1.00  0.00     0.293 HD
ENDBRANCH   6  14
TORSDOF 4
ENDMDL
MODEL 4
REMARK VINA RESULT:    -6.052      1.240      2.904
REMARK INTER + INTRA:          -6.986
REMARK INTER:                  -6.933
REMARK INTRA:                  -0.053
REMARK UNBOUND:                -0.049
REMARK SMILES O=C([O-])c1cc(O)c(O)c(O)c1
REMARK SMILES IDX 4 1 5 2 12 3 6 4 10 5 8 6 2 7 1 8 3 9 7 10 11 12 9 14
REMARK H PARENT 7 11 11 13 9 15
REMARK Flexibility Score: inf
ROOT
ATOM      1  C   UNL     1       9.677  69.282   0.385  1.00  0.00     0.005 A 
ATOM      2  C   UNL     1       9.931  70.382   1.223  1.00  0.00     0.060 A 
ATOM      3  C   UNL     1       9.624  69.479  -1.004  1.00  0.00     0.060 A 
ATOM      4  C   UNL     1      10.128  71.658   0.684  1.00  0.00     0.162 A 
ATOM      5  C   UNL     1       9.821  70.754  -1.552  1.00  0.00     0.162 A 
ATOM      6  C   UNL     1      10.074  71.848  -0.708  1.00  0.00     0.200 A 
ENDROOT
BRANCH   1   7
ATOM      7  C   UNL     1       9.469  67.932   0.956  1.00  0.00     0.072 C 
ATOM      8  O   UNL     1       9.378  66.925   0.203  1.00  0.00    -0.545 OA
ATOM      9  O   UNL     1       9.371  67.755   2.331  1.00  0.00    -0.545 OA
ENDBRANCH   1   7
BRANCH   4  10
ATOM     10  O   UNL     1      10.377  72.724   1.548  1.00  0.00    -0.504 OA
ATOM     11  H   UNL     1       9.935  72.797   2.456  1.00  0.00     0.293 HD
ENDBRANCH   4  10
BRANCH   5  12
ATOM     12  O   UNL     1       9.765  70.937  -2.933  1.00  0.00    -0.504 OA
ATOM     13  H   UNL     1      10.605  70.986  -3.497  1.00  0.00     0.293 HD
ENDBRANCH   5  12
BRANCH   6  14
ATOM     14  O   UNL     1      10.272  73.125  -1.236  1.00  0.00    -0.502 OA
ATOM     15  H   UNL     1      10.939  73.305  -1.977  1.00  0.00     0.293 HD
ENDBRANCH   6  14
TORSDOF 4
ENDMDL
MODEL 5
REMARK VINA RESULT:    -6.005      1.486      4.752
REMARK INTER + INTRA:          -6.932
REMARK INTER:                  -6.881
REMARK INTRA:                  -0.051
REMARK UNBOUND:                -0.049
REMARK SMILES O=C([O-])c1cc(O)c(O)c(O)c1
REMARK SMILES IDX 4 1 5 2 12 3 6 4 10 5 8 6 2 7 1 8 3 9 7 10 11 12 9 14
REMARK H PARENT 7 11 11 13 9 15
REMARK Flexibility Score: inf
ROOT
ATOM      1  C   UNL     1       9.934  70.060   0.557  1.00  0.00     0.005 A 
ATOM      2  C   UNL     1       9.922  68.666   0.739  1.00  0.00     0.060 A 
ATOM      3  C   UNL     1       9.747  70.581  -0.733  1.00  0.00     0.060 A 
ATOM      4  C   UNL     1       9.728  67.806  -0.348  1.00  0.00     0.162 A 
ATOM      5  C   UNL     1       9.552  69.728  -1.827  1.00  0.00     0.162 A 
ATOM      6  C   UNL     1       9.542  68.335  -1.637  1.00  0.00     0.200 A 
ENDROOT
BRANCH   1   7
ATOM      7  C   UNL     1      10.138  70.968   1.708  1.00  0.00     0.072 C 
ATOM      8  O   UNL     1      10.686  72.092   1.547  1.00  0.00    -0.545 OA
ATOM      9  O   UNL     1       9.729  70.594   2.983  1.00  0.00    -0.545 OA
ENDBRANCH   1   7
BRANCH   4  10
ATOM     10  O   UNL     1       9.724  66.429  -0.128  1.00  0.00    -0.504 OA
ATOM     11  H   UNL     1       9.418  66.025   0.749  1.00  0.00     0.293 HD
ENDBRANCH   4  10
BRANCH   5  12
ATOM     12  O   UNL     1       9.368  70.259  -3.103  1.00  0.00    -0.504 OA
ATOM     13  H   UNL     1       9.987  70.027  -3.870  1.00  0.00     0.293 HD
ENDBRANCH   5  12
BRANCH   6  14
ATOM     14  O   UNL     1       9.349  67.471  -2.715  1.00  0.00    -0.502 OA
ATOM     15  H   UNL     1      10.123  67.037  -3.205  1.00  0.00     0.293 HD
ENDBRANCH   6  14
TORSDOF 4
ENDMDL
MODEL 6
REMARK VINA RESULT:    -6.000      1.483      4.214
REMARK INTER + INTRA:          -6.926
REMARK INTER:                  -6.875
REMARK INTRA:                  -0.051
REMARK UNBOUND:                -0.049
REMARK SMILES O=C([O-])c1cc(O)c(O)c(O)c1
REMARK SMILES IDX 4 1 5 2 12 3 6 4 10 5 8 6 2 7 1 8 3 9 7 10 11 12 9 14
REMARK H PARENT 7 11 11 13 9 15
REMARK Flexibility Score: inf
ROOT
ATOM      1  C   UNL     1       9.930  70.048   0.555  1.00  0.00     0.005 A 
ATOM      2  C   UNL     1       9.754  70.567  -0.740  1.00  0.00     0.060 A 
ATOM      3  C   UNL     1       9.906  68.657   0.741  1.00  0.00     0.060 A 
ATOM      4  C   UNL     1       9.557  69.713  -1.830  1.00  0.00     0.162 A 
ATOM      5  C   UNL     1       9.709  67.794  -0.345  1.00  0.00     0.162 A 
ATOM      6  C   UNL     1       9.534  68.321  -1.636  1.00  0.00     0.200 A 
ENDROOT
BRANCH   1   7
ATOM      7  C   UNL     1      10.139  70.953   1.708  1.00  0.00     0.072 C 
ATOM      8  O   UNL     1      10.698  72.071   1.551  1.00  0.00    -0.545 OA
ATOM      9  O   UNL     1       9.721  70.582   2.980  1.00  0.00    -0.545 OA
ENDBRANCH   1   7
BRANCH   4  10
ATOM     10  O   UNL     1       9.386  70.265  -3.099  1.00  0.00    -0.504 OA
ATOM     11  H   UNL     1       9.984  71.004  -3.450  1.00  0.00     0.293 HD
ENDBRANCH   4  10
BRANCH   5  12
ATOM     12  O   UNL     1       9.688  66.414  -0.146  1.00  0.00    -0.504 OA
ATOM     13  H   UNL     1       9.040  65.815  -0.644  1.00  0.00     0.293 HD
ENDBRANCH   5  12
BRANCH   6  14
ATOM     14  O   UNL     1       9.338  67.476  -2.730  1.00  0.00    -0.502 OA
ATOM     15  H   UNL     1      10.110  67.055  -3.232  1.00  0.00     0.293 HD
ENDBRANCH   6  14
TORSDOF 4
ENDMDL
MODEL 7
REMARK VINA RESULT:    -5.922      1.844      3.851
REMARK INTER + INTRA:          -6.837
REMARK INTER:                  -6.790
REMARK INTRA:                  -0.047
REMARK UNBOUND:                -0.049
REMARK SMILES O=C([O-])c1cc(O)c(O)c(O)c1
REMARK SMILES IDX 4 1 5 2 12 3 6 4 10 5 8 6 2 7 1 8 3 9 7 10 11 12 9 14
REMARK H PARENT 7 11 11 13 9 15
REMARK Flexibility Score: inf
ROOT
ATOM      1  C   UNL     1       9.950  69.271   0.640  1.00  0.00     0.005 A 
ATOM      2  C   UNL     1       9.777  68.260  -0.321  1.00  0.00     0.060 A 
ATOM      3  C   UNL     1       9.945  70.613   0.226  1.00  0.00     0.060 A 
ATOM      4  C   UNL     1       9.602  68.581  -1.671  1.00  0.00     0.162 A 
ATOM      5  C   UNL     1       9.771  70.944  -1.124  1.00  0.00     0.162 A 
ATOM      6  C   UNL     1       9.598  69.926  -2.078  1.00  0.00     0.200 A 
ENDROOT
BRANCH   1   7
ATOM      7  C   UNL     1      10.135  68.931   2.069  1.00  0.00     0.072 C 
ATOM      8  O   UNL     1       9.397  69.447   2.950  1.00  0.00    -0.545 OA
ATOM      9  O   UNL     1      11.125  68.036   2.458  1.00  0.00    -0.545 OA
ENDBRANCH   1   7
BRANCH   4  10
ATOM     10  O   UNL     1       9.434  67.549  -2.594  1.00  0.00    -0.504 OA
ATOM     11  H   UNL     1      10.156  66.861  -2.770  1.00  0.00     0.293 HD
ENDBRANCH   4  10
BRANCH   5  12
ATOM     12  O   UNL     1       9.768  72.280  -1.522  1.00  0.00    -0.504 OA
ATOM     13  H   UNL     1       9.541  73.027  -0.875  1.00  0.00     0.293 HD
ENDBRANCH   5  12
BRANCH   6  14
ATOM     14  O   UNL     1       9.423  70.237  -3.428  1.00  0.00    -0.502 OA
ATOM     15  H   UNL     1       8.525  70.153  -3.889  1.00  0.00     0.293 HD
ENDBRANCH   6  14
TORSDOF 4
ENDMDL
MODEL 8
REMARK VINA RESULT:    -5.919      1.474      2.986
REMARK INTER + INTRA:          -6.834
REMARK INTER:                  -6.785
REMARK INTRA:                  -0.048
REMARK UNBOUND:                -0.049
REMARK SMILES O=C([O-])c1cc(O)c(O)c(O)c1
REMARK SMILES IDX 4 1 5 2 12 3 6 4 10 5 8 6 2 7 1 8 3 9 7 10 11 12 9 14
REMARK H PARENT 7 11 11 13 9 15
REMARK Flexibility Score: inf
ROOT
ATOM      1  C   UNL     1       9.703  69.783  -0.308  1.00  0.00     0.005 A 
ATOM      2  C   UNL     1       9.525  68.853   0.730  1.00  0.00     0.060 A 
ATOM      3  C   UNL     1       9.986  71.120   0.015  1.00  0.00     0.060 A 
ATOM      4  C   UNL     1       9.625  69.249   2.068  1.00  0.00     0.162 A 
ATOM      5  C   UNL     1      10.088  71.525   1.352  1.00  0.00     0.162 A 
ATOM      6  C   UNL     1       9.908  70.589   2.384  1.00  0.00     0.200 A 
ENDROOT
BRANCH   1   7
ATOM      7  C   UNL     1       9.597  69.363  -1.724  1.00  0.00     0.072 C 
ATOM      8  O   UNL     1       8.630  68.654  -2.111  1.00  0.00    -0.545 OA
ATOM      9  O   UNL     1      10.564  69.745  -2.647  1.00  0.00    -0.545 OA
ENDBRANCH   1   7
BRANCH   4  10
ATOM     10  O   UNL     1       9.440  68.296   3.070  1.00  0.00    -0.504 OA
ATOM     11  H   UNL     1       8.690  68.365   3.747  1.00  0.00     0.293 HD
ENDBRANCH   4  10
BRANCH   5  12
ATOM     12  O   UNL     1      10.369  72.856   1.659  1.00  0.00    -0.504 OA
ATOM     13  H   UNL     1      10.554  73.155   2.609  1.00  0.00     0.293 HD
ENDBRANCH   5  12
BRANCH   6  14
ATOM     14  O   UNL     1      10.006  70.975   3.722  1.00  0.00    -0.502 OA
ATOM     15  H   UNL     1      10.670  70.551   4.359  1.00  0.00     0.293 HD
ENDBRANCH   6  14
TORSDOF 4
ENDMDL
MODEL 9
REMARK VINA RESULT:    -5.914      1.825      3.780
REMARK INTER + INTRA:          -6.828
REMARK INTER:                  -6.780
REMARK INTRA:                  -0.047
REMARK UNBOUND:                -0.049
REMARK SMILES O=C([O-])c1cc(O)c(O)c(O)c1
REMARK SMILES IDX 4 1 5 2 12 3 6 4 10 5 8 6 2 7 1 8 3 9 7 10 11 12 9 14
REMARK H PARENT 7 11 11 13 9 15
REMARK Flexibility Score: inf
ROOT
ATOM      1  C   UNL     1       9.895  69.268   0.684  1.00  0.00     0.005 A 
ATOM      2  C   UNL     1       9.891  70.605   0.249  1.00  0.00     0.060 A 
ATOM      3  C   UNL     1       9.730  68.243  -0.261  1.00  0.00     0.060 A 
ATOM      4  C   UNL     1       9.724  70.914  -1.104  1.00  0.00     0.162 A 
ATOM      5  C   UNL     1       9.563  68.544  -1.620  1.00  0.00     0.162 A 
ATOM      6  C   UNL     1       9.560  69.883  -2.045  1.00  0.00     0.200 A 
ENDROOT
BRANCH   1   7
ATOM      7  C   UNL     1      10.071  68.941   2.117  1.00  0.00     0.072 C 
ATOM      8  O   UNL     1       9.346  69.486   2.992  1.00  0.00    -0.545 OA
ATOM      9  O   UNL     1      11.040  68.029   2.518  1.00  0.00    -0.545 OA
ENDBRANCH   1   7
BRANCH   4  10
ATOM     10  O   UNL     1       9.725  72.253  -1.496  1.00  0.00    -0.504 OA
ATOM     11  H   UNL     1      10.575  72.802  -1.538  1.00  0.00     0.293 HD
ENDBRANCH   4  10
BRANCH   5  12
ATOM     12  O   UNL     1       9.400  67.516  -2.548  1.00  0.00    -0.504 OA
ATOM     13  H   UNL     1       9.790  66.594  -2.394  1.00  0.00     0.293 HD
ENDBRANCH   5  12
BRANCH   6  14
ATOM     14  O   UNL     1       9.395  70.201  -3.394  1.00  0.00    -0.502 OA
ATOM     15  H   UNL     1       8.834  70.988  -3.699  1.00  0.00     0.293 HD
ENDBRANCH   6  14
TORSDOF 4
ENDMDL
