MODEL 1
REMARK VINA RESULT:    -5.193      0.000      0.000
REMARK INTER + INTRA:          -5.948
REMARK INTER:                  -5.800
REMARK INTRA:                  -0.147
REMARK UNBOUND:                -0.147
REMARK SMILES O=C([O-])c1ccccc1C(=O)[O-]
REMARK SMILES IDX 4 1 9 2 5 3 8 4 6 5 7 6 2 7 1 8 3 9 10 10 11 11 12 12
REMARK H PARENT
REMARK Flexibility Score: inf
ROOT
ATOM      1  C   UNL     1      -5.300  37.227  22.892  1.00  0.00     0.006 A 
ATOM      2  C   UNL     1      -5.328  35.935  22.295  1.00  0.00     0.006 A 
ATOM      3  C   UNL     1      -5.645  37.361  24.249  1.00  0.00     0.010 A 
ATOM      4  C   UNL     1      -5.765  34.837  23.060  1.00  0.00     0.010 A 
ATOM      5  C   UNL     1      -6.053  36.255  24.995  1.00  0.00     0.001 A 
ATOM      6  C   UNL     1      -6.124  34.999  24.399  1.00  0.00     0.001 A 
ENDROOT
BRANCH   1   7
ATOM      7  C   UNL     1      -4.986  38.460  22.133  1.00  0.00     0.072 C 
ATOM      8  O   UNL     1      -3.950  39.128  22.388  1.00  0.00    -0.545 OA
ATOM      9  O   UNL     1      -5.803  38.857  21.081  1.00  0.00    -0.545 OA
ENDBRANCH   1   7
BRANCH   2  10
ATOM     10  C   UNL     1      -4.853  35.671  20.917  1.00  0.00     0.072 C 
ATOM     11  O   UNL     1      -3.657  35.348  20.698  1.00  0.00    -0.545 OA
ATOM     12  O   UNL     1      -5.747  35.713  19.852  1.00  0.00    -0.545 OA
ENDBRANCH   2  10
TORSDOF 2
ENDMDL
MODEL 2
REMARK VINA RESULT:    -5.153      0.097      2.877
REMARK INTER + INTRA:          -5.902
REMARK INTER:                  -5.755
REMARK INTRA:                  -0.147
REMARK UNBOUND:                -0.147
REMARK SMILES O=C([O-])c1ccccc1C(=O)[O-]
REMARK SMILES IDX 4 1 9 2 5 3 8 4 6 5 7 6 2 7 1 8 3 9 10 10 11 11 12 12
REMARK H PARENT
REMARK Flexibility Score: inf
ROOT
ATOM      1  C   UNL     1      -5.318  35.966  22.286  1.00  0.00     0.006 A 
ATOM      2  C   UNL     1      -5.265  37.233  22.934  1.00  0.00     0.006 A 
ATOM      3  C   UNL     1      -5.773  34.848  23.008  1.00  0.00     0.010 A 
ATOM      4  C   UNL     1      -5.602  37.319  24.297  1.00  0.00     0.010 A 
ATOM      5  C   UNL     1      -6.125  34.961  24.354  1.00  0.00     0.001 A 
ATOM      6  C   UNL     1      -6.028  36.191  24.999  1.00  0.00     0.001 A 
ENDROOT
BRANCH   1   7
ATOM      7  C   UNL     1      -4.854  35.750  20.896  1.00  0.00     0.072 C 
ATOM      8  O   UNL     1      -3.673  35.382  20.661  1.00  0.00    -0.545 OA
ATOM      9  O   UNL     1      -5.743  35.885  19.836  1.00  0.00    -0.545 OA
ENDBRANCH   1   7
BRANCH   2  10
ATOM     10  C   UNL     1      -4.932  38.490  22.223  1.00  0.00     0.072 C 
ATOM     11  O   UNL     1      -3.880  39.125  22.495  1.00  0.00    -0.545 OA
ATOM     12  O   UNL     1      -5.750  38.947  21.196  1.00  0.00    -0.545 OA
ENDBRANCH   2  10
TORSDOF 2
ENDMDL
MODEL 3
REMARK VINA RESULT:    -4.590      1.838      3.275
REMARK INTER + INTRA:          -5.274
REMARK INTER:                  -5.447
REMARK INTRA:                   0.173
REMARK UNBOUND:                -0.147
REMARK SMILES O=C([O-])c1ccccc1C(=O)[O-]
REMARK SMILES IDX 4 1 9 2 5 3 8 4 6 5 7 6 2 7 1 8 3 9 10 10 11 11 12 12
REMARK H PARENT
REMARK Flexibility Score: inf
ROOT
ATOM      1  C   UNL     1      -5.166  36.482  22.996  1.00  0.00     0.006 A 
ATOM      2  C   UNL     1      -4.933  36.868  21.645  1.00  0.00     0.006 A 
ATOM      3  C   UNL     1      -5.202  37.473  23.993  1.00  0.00     0.010 A 
ATOM      4  C   UNL     1      -4.678  38.221  21.354  1.00  0.00     0.010 A 
ATOM      5  C   UNL     1      -4.969  38.813  23.679  1.00  0.00     0.001 A 
ATOM      6  C   UNL     1      -4.696  39.184  22.364  1.00  0.00     0.001 A 
ENDROOT
BRANCH   1   7
ATOM      7  C   UNL     1      -5.309  35.070  23.419  1.00  0.00     0.072 C 
ATOM      8  O   UNL     1      -4.651  34.158  22.852  1.00  0.00    -0.545 OA
ATOM      9  O   UNL     1      -6.124  34.745  24.497  1.00  0.00    -0.545 OA
ENDBRANCH   1   7
BRANCH   2  10
ATOM     10  C   UNL     1      -5.012  35.920  20.509  1.00  0.00     0.072 C 
ATOM     11  O   UNL     1      -6.125  35.513  20.085  1.00  0.00    -0.545 OA
ATOM     12  O   UNL     1      -3.853  35.521  19.853  1.00  0.00    -0.545 OA
ENDBRANCH   2  10
TORSDOF 2
ENDMDL
MODEL 4
REMARK VINA RESULT:    -4.551      1.873      3.256
REMARK INTER + INTRA:          -5.230
REMARK INTER:                  -5.310
REMARK INTRA:                   0.080
REMARK UNBOUND:                -0.147
REMARK SMILES O=C([O-])c1ccccc1C(=O)[O-]
REMARK SMILES IDX 4 1 9 2 5 3 8 4 6 5 7 6 2 7 1 8 3 9 10 10 11 11 12 12
REMARK H PARENT
REMARK Flexibility Score: inf
ROOT
ATOM      1  C   UNL     1      -4.862  36.894  21.558  1.00  0.00     0.006 A 
ATOM      2  C   UNL     1      -5.070  36.438  22.891  1.00  0.00     0.006 A 
ATOM      3  C   UNL     1      -4.648  38.265  21.330  1.00  0.00     0.010 A 
ATOM      4  C   UNL     1      -5.122  37.379  23.935  1.00  0.00     0.010 A 
ATOM      5  C   UNL     1      -4.681  39.179  22.384  1.00  0.00     0.001 A 
ATOM      6  C   UNL     1      -4.930  38.738  23.682  1.00  0.00     0.001 A 
ENDROOT
BRANCH   1   7
ATOM      7  C   UNL     1      -4.927  35.999  20.380  1.00  0.00     0.072 C 
ATOM      8  O   UNL     1      -3.892  35.737  19.712  1.00  0.00    -0.545 OA
ATOM      9  O   UNL     1      -6.125  35.381  20.038  1.00  0.00    -0.545 OA
ENDBRANCH   1   7
BRANCH   2  10
ATOM     10  C   UNL     1      -5.168  35.004  23.248  1.00  0.00     0.072 C 
ATOM     11  O   UNL     1      -4.356  34.165  22.778  1.00  0.00    -0.545 OA
ATOM     12  O   UNL     1      -6.123  34.578  24.164  1.00  0.00    -0.545 OA
ENDBRANCH   2  10
TORSDOF 2
ENDMDL
MODEL 5
REMARK VINA RESULT:    -4.380      2.071      4.019
REMARK INTER + INTRA:          -5.039
REMARK INTER:                  -5.388
REMARK INTRA:                   0.348
REMARK UNBOUND:                -0.147
REMARK SMILES O=C([O-])c1ccccc1C(=O)[O-]
REMARK SMILES IDX 4 1 9 2 5 3 8 4 6 5 7 6 2 7 1 8 3 9 10 10 11 11 12 12
REMARK H PARENT
REMARK Flexibility Score: inf
ROOT
ATOM      1  C   UNL     1      -4.771  36.559  22.348  1.00  0.00     0.006 A 
ATOM      2  C   UNL     1      -4.772  37.779  21.613  1.00  0.00     0.006 A 
ATOM      3  C   UNL     1      -4.377  35.373  21.702  1.00  0.00     0.010 A 
ATOM      4  C   UNL     1      -4.446  37.754  20.245  1.00  0.00     0.010 A 
ATOM      5  C   UNL     1      -4.035  35.375  20.349  1.00  0.00     0.001 A 
ATOM      6  C   UNL     1      -4.081  36.561  19.620  1.00  0.00     0.001 A 
ENDROOT
BRANCH   1   7
ATOM      7  C   UNL     1      -5.229  36.463  23.752  1.00  0.00     0.072 C 
ATOM      8  O   UNL     1      -6.124  35.640  24.083  1.00  0.00    -0.545 OA
ATOM      9  O   UNL     1      -4.625  37.236  24.737  1.00  0.00    -0.545 OA
ENDBRANCH   1   7
BRANCH   2  10
ATOM     10  C   UNL     1      -5.038  39.097  22.236  1.00  0.00     0.072 C 
ATOM     11  O   UNL     1      -4.262  39.565  23.110  1.00  0.00    -0.545 OA
ATOM     12  O   UNL     1      -6.116  39.864  21.810  1.00  0.00    -0.545 OA
ENDBRANCH   2  10
TORSDOF 2
ENDMDL
MODEL 6
REMARK VINA RESULT:    -4.357      2.101      3.355
REMARK INTER + INTRA:          -5.014
REMARK INTER:                  -5.549
REMARK INTRA:                   0.534
REMARK UNBOUND:                -0.147
REMARK SMILES O=C([O-])c1ccccc1C(=O)[O-]
REMARK SMILES IDX 4 1 9 2 5 3 8 4 6 5 7 6 2 7 1 8 3 9 10 10 11 11 12 12
REMARK H PARENT
REMARK Flexibility Score: inf
ROOT
ATOM      1  C   UNL     1      -4.750  37.759  21.748  1.00  0.00     0.006 A 
ATOM      2  C   UNL     1      -4.728  36.533  22.473  1.00  0.00     0.006 A 
ATOM      3  C   UNL     1      -4.394  37.754  20.388  1.00  0.00     0.010 A 
ATOM      4  C   UNL     1      -4.286  35.364  21.826  1.00  0.00     0.010 A 
ATOM      5  C   UNL     1      -3.981  36.579  19.760  1.00  0.00     0.001 A 
ATOM      6  C   UNL     1      -3.916  35.389  20.481  1.00  0.00     0.001 A 
ENDROOT
BRANCH   1   7
ATOM      7  C   UNL     1      -5.067  39.062  22.376  1.00  0.00     0.072 C 
ATOM      8  O   UNL     1      -4.439  39.458  23.393  1.00  0.00    -0.545 OA
ATOM      9  O   UNL     1      -6.022  39.896  21.805  1.00  0.00    -0.545 OA
ENDBRANCH   1   7
BRANCH   2  10
ATOM     10  C   UNL     1      -5.214  36.410  23.867  1.00  0.00     0.072 C 
ATOM     11  O   UNL     1      -6.125  35.594  24.163  1.00  0.00    -0.545 OA
ATOM     12  O   UNL     1      -4.618  37.153  24.880  1.00  0.00    -0.545 OA
ENDBRANCH   2  10
TORSDOF 2
ENDMDL
MODEL 7
REMARK VINA RESULT:    -4.273      3.000      4.186
REMARK INTER + INTRA:          -4.920
REMARK INTER:                  -4.827
REMARK INTRA:                  -0.093
REMARK UNBOUND:                -0.147
REMARK SMILES O=C([O-])c1ccccc1C(=O)[O-]
REMARK SMILES IDX 4 1 9 2 5 3 8 4 6 5 7 6 2 7 1 8 3 9 10 10 11 11 12 12
REMARK H PARENT
REMARK Flexibility Score: inf
ROOT
ATOM      1  C   UNL     1      -5.016  36.601  19.665  1.00  0.00     0.006 A 
ATOM      2  C   UNL     1      -4.162  36.324  18.560  1.00  0.00     0.006 A 
ATOM      3  C   UNL     1      -5.965  35.638  20.052  1.00  0.00     0.010 A 
ATOM      4  C   UNL     1      -4.335  35.126  17.844  1.00  0.00     0.010 A 
ATOM      5  C   UNL     1      -6.105  34.445  19.342  1.00  0.00     0.001 A 
ATOM      6  C   UNL     1      -5.299  34.195  18.233  1.00  0.00     0.001 A 
ENDROOT
BRANCH   1   7
ATOM      7  C   UNL     1      -5.002  37.890  20.394  1.00  0.00     0.072 C 
ATOM      8  O   UNL     1      -5.794  38.817  20.079  1.00  0.00    -0.545 OA
ATOM      9  O   UNL     1      -4.155  38.065  21.482  1.00  0.00    -0.545 OA
ENDBRANCH   1   7
BRANCH   2  10
ATOM     10  C   UNL     1      -3.045  37.212  18.161  1.00  0.00     0.072 C 
ATOM     11  O   UNL     1      -2.100  37.456  18.956  1.00  0.00    -0.545 OA
ATOM     12  O   UNL     1      -2.994  37.733  16.873  1.00  0.00    -0.545 OA
ENDBRANCH   2  10
TORSDOF 2
ENDMDL
MODEL 8
REMARK VINA RESULT:    -4.256      2.926      4.582
REMARK INTER + INTRA:          -4.901
REMARK INTER:                  -4.871
REMARK INTRA:                  -0.030
REMARK UNBOUND:                -0.147
REMARK SMILES O=C([O-])c1ccccc1C(=O)[O-]
REMARK SMILES IDX 4 1 9 2 5 3 8 4 6 5 7 6 2 7 1 8 3 9 10 10 11 11 12 12
REMARK H PARENT
REMARK Flexibility Score: inf
ROOT
ATOM      1  C   UNL     1      -4.162  36.377  18.682  1.00  0.00     0.006 A 
ATOM      2  C   UNL     1      -5.036  36.616  19.781  1.00  0.00     0.006 A 
ATOM      3  C   UNL     1      -4.315  35.197  17.932  1.00  0.00     0.010 A 
ATOM      4  C   UNL     1      -5.984  35.636  20.127  1.00  0.00     0.010 A 
ATOM      5  C   UNL     1      -5.278  34.249  18.279  1.00  0.00     0.001 A 
ATOM      6  C   UNL     1      -6.102  34.463  19.381  1.00  0.00     0.001 A 
ENDROOT
BRANCH   1   7
ATOM      7  C   UNL     1      -3.046  37.283  18.326  1.00  0.00     0.072 C 
ATOM      8  O   UNL     1      -2.185  37.613  19.183  1.00  0.00    -0.545 OA
ATOM      9  O   UNL     1      -2.899  37.725  17.016  1.00  0.00    -0.545 OA
ENDBRANCH   1   7
BRANCH   2  10
ATOM     10  C   UNL     1      -5.043  37.885  20.545  1.00  0.00     0.072 C 
ATOM     11  O   UNL     1      -5.791  38.838  20.205  1.00  0.00    -0.545 OA
ATOM     12  O   UNL     1      -4.267  38.012  21.692  1.00  0.00    -0.545 OA
ENDBRANCH   2  10
TORSDOF 2
ENDMDL
MODEL 9
REMARK VINA RESULT:    -4.238      2.241      3.386
REMARK INTER + INTRA:          -4.881
REMARK INTER:                  -4.890
REMARK INTRA:                   0.009
REMARK UNBOUND:                -0.147
REMARK SMILES O=C([O-])c1ccccc1C(=O)[O-]
REMARK SMILES IDX 4 1 9 2 5 3 8 4 6 5 7 6 2 7 1 8 3 9 10 10 11 11 12 12
REMARK H PARENT
REMARK Flexibility Score: inf
ROOT
ATOM      1  C   UNL     1      -5.147  37.588  23.717  1.00  0.00     0.006 A 
ATOM      2  C   UNL     1      -5.026  36.826  22.520  1.00  0.00     0.006 A 
ATOM      3  C   UNL     1      -5.257  38.988  23.627  1.00  0.00     0.010 A 
ATOM      4  C   UNL     1      -4.951  37.498  21.286  1.00  0.00     0.010 A 
ATOM      5  C   UNL     1      -5.203  39.632  22.391  1.00  0.00     0.001 A 
ATOM      6  C   UNL     1      -5.039  38.889  21.224  1.00  0.00     0.001 A 
ENDROOT
BRANCH   1   7
ATOM      7  C   UNL     1      -5.097  36.983  25.068  1.00  0.00     0.072 C 
ATOM      8  O   UNL     1      -4.163  37.262  25.864  1.00  0.00    -0.545 OA
ATOM      9  O   UNL     1      -6.125  36.150  25.496  1.00  0.00    -0.545 OA
ENDBRANCH   1   7
BRANCH   2  10
ATOM     10  C   UNL     1      -5.042  35.345  22.501  1.00  0.00     0.072 C 
ATOM     11  O   UNL     1      -6.103  34.709  22.733  1.00  0.00    -0.545 OA
ATOM     12  O   UNL     1      -3.894  34.640  22.158  1.00  0.00    -0.545 OA
ENDBRANCH   2  10
TORSDOF 2
ENDMDL
