MODEL 1
REMARK VINA RESULT:    -6.304      0.000      0.000
REMARK INTER + INTRA:          -6.304
REMARK INTER:                  -6.304
REMARK INTRA:                   0.000
REMARK UNBOUND:                 0.000
REMARK SMILES C=C1CCC[C@@]2(C)CC(=O)C(=C(C)C)C[C@@H]12
REMARK SMILES IDX 13 1 12 2 11 3 15 4 16 5 2 6 1 7 3 8 4 9 5 10 6 11 8 12 9 13
REMARK SMILES IDX 10 14 7 15 14 16
REMARK H PARENT
REMARK Flexibility Score: inf
ROOT
ATOM      1  C   UNL     1      31.126  29.141  -9.333  1.00  0.00     0.039 C 
ATOM      2  C   UNL     1      32.322  29.624 -10.120  1.00  0.00    -0.070 C 
ATOM      3  C   UNL     1      32.410  29.440 -11.469  1.00  0.00    -0.006 C 
ATOM      4  C   UNL     1      33.545  29.988 -12.313  1.00  0.00     0.047 C 
ATOM      5  C   UNL     1      33.043  30.931 -13.453  1.00  0.00     0.025 C 
ATOM      6  C   UNL     1      34.121  31.169 -14.533  1.00  0.00    -0.073 C 
ATOM      7  C   UNL     1      35.440  31.055 -14.275  1.00  0.00     0.008 C 
ATOM      8  C   UNL     1      33.754  31.719 -15.895  1.00  0.00     0.031 C 
ATOM      9  C   UNL     1      32.255  31.930 -16.062  1.00  0.00     0.005 C 
ATOM     10  C   UNL     1      31.509  30.693 -15.580  1.00  0.00     0.008 C 
ATOM     11  C   UNL     1      31.616  30.508 -14.036  1.00  0.00    -0.018 C 
ATOM     12  C   UNL     1      31.297  29.014 -13.731  1.00  0.00     0.088 C 
ATOM     13  C   UNL     1      31.388  28.720 -12.264  1.00  0.00     0.159 C 
ATOM     14  O   UNL     1      30.659  27.822 -11.765  1.00  0.00    -0.295 OA
ATOM     15  C   UNL     1      30.515  31.387 -13.376  1.00  0.00     0.012 C 
ATOM     16  C   UNL     1      33.398  30.361  -9.355  1.00  0.00     0.039 C 
ENDROOT
TORSDOF 0
ENDMDL
MODEL 2
REMARK VINA RESULT:    -6.262      9.314     11.114
REMARK INTER + INTRA:          -6.262
REMARK INTER:                  -6.262
REMARK INTRA:                   0.000
REMARK UNBOUND:                 0.000
REMARK SMILES C=C1CCC[C@@]2(C)CC(=O)C(=C(C)C)C[C@@H]12
REMARK SMILES IDX 13 1 12 2 11 3 15 4 16 5 2 6 1 7 3 8 4 9 5 10 6 11 8 12 9 13
REMARK SMILES IDX 10 14 7 15 14 16
REMARK H PARENT
REMARK Flexibility Score: inf
ROOT
ATOM      1  C   UNL     1      23.264  29.244  -9.214  1.00  0.00     0.039 C 
ATOM      2  C   UNL     1      22.053  28.893 -10.048  1.00  0.00    -0.070 C 
ATOM      3  C   UNL     1      21.912  29.346 -11.327  1.00  0.00    -0.006 C 
ATOM      4  C   UNL     1      20.763  28.945 -12.232  1.00  0.00     0.047 C 
ATOM      5  C   UNL     1      21.248  28.272 -13.556  1.00  0.00     0.025 C 
ATOM      6  C   UNL     1      20.138  28.225 -14.629  1.00  0.00    -0.073 C 
ATOM      7  C   UNL     1      18.827  28.240 -14.314  1.00  0.00     0.008 C 
ATOM      8  C   UNL     1      20.472  27.977 -16.085  1.00  0.00     0.031 C 
ATOM      9  C   UNL     1      21.968  27.854 -16.336  1.00  0.00     0.005 C 
ATOM     10  C   UNL     1      22.698  28.990 -15.632  1.00  0.00     0.008 C 
ATOM     11  C   UNL     1      22.641  28.851 -14.081  1.00  0.00    -0.018 C 
ATOM     12  C   UNL     1      22.932  30.261 -13.485  1.00  0.00     0.088 C 
ATOM     13  C   UNL     1      22.887  30.246 -11.988  1.00  0.00     0.159 C 
ATOM     14  O   UNL     1      23.609  31.047 -11.336  1.00  0.00    -0.295 OA
ATOM     15  C   UNL     1      23.788  27.893 -13.648  1.00  0.00     0.012 C 
ATOM     16  C   UNL     1      21.025  27.981  -9.419  1.00  0.00     0.039 C 
ENDROOT
TORSDOF 0
ENDMDL
MODEL 3
REMARK VINA RESULT:    -6.170      1.948      4.870
REMARK INTER + INTRA:          -6.170
REMARK INTER:                  -6.170
REMARK INTRA:                   0.000
REMARK UNBOUND:                 0.000
REMARK SMILES C=C1CCC[C@@]2(C)CC(=O)C(=C(C)C)C[C@@H]12
REMARK SMILES IDX 13 1 12 2 11 3 15 4 16 5 2 6 1 7 3 8 4 9 5 10 6 11 8 12 9 13
REMARK SMILES IDX 10 14 7 15 14 16
REMARK H PARENT
REMARK Flexibility Score: inf
ROOT
ATOM      1  C   UNL     1      30.053  31.605 -17.746  1.00  0.00     0.039 C 
ATOM      2  C   UNL     1      31.406  31.674 -17.077  1.00  0.00    -0.070 C 
ATOM      3  C   UNL     1      31.527  31.805 -15.724  1.00  0.00    -0.006 C 
ATOM      4  C   UNL     1      32.859  31.785 -15.001  1.00  0.00     0.047 C 
ATOM      5  C   UNL     1      32.941  30.657 -13.923  1.00  0.00     0.025 C 
ATOM      6  C   UNL     1      34.107  30.875 -12.933  1.00  0.00    -0.073 C 
ATOM      7  C   UNL     1      35.205  31.588 -13.257  1.00  0.00     0.008 C 
ATOM      8  C   UNL     1      34.152  30.145 -11.608  1.00  0.00     0.031 C 
ATOM      9  C   UNL     1      32.928  29.269 -11.373  1.00  0.00     0.005 C 
ATOM     10  C   UNL     1      31.667  30.059 -11.698  1.00  0.00     0.008 C 
ATOM     11  C   UNL     1      31.537  30.355 -13.222  1.00  0.00    -0.018 C 
ATOM     12  C   UNL     1      30.556  31.556 -13.372  1.00  0.00     0.088 C 
ATOM     13  C   UNL     1      30.369  31.939 -14.809  1.00  0.00     0.159 C 
ATOM     14  O   UNL     1      29.273  32.435 -15.182  1.00  0.00    -0.295 OA
ATOM     15  C   UNL     1      30.888  29.110 -13.894  1.00  0.00     0.012 C 
ATOM     16  C   UNL     1      32.622  31.547 -17.966  1.00  0.00     0.039 C 
ENDROOT
TORSDOF 0
ENDMDL
MODEL 4
REMARK VINA RESULT:    -6.160     10.277     12.360
REMARK INTER + INTRA:          -6.160
REMARK INTER:                  -6.160
REMARK INTRA:                   0.000
REMARK UNBOUND:                 0.000
REMARK SMILES C=C1CCC[C@@]2(C)CC(=O)C(=C(C)C)C[C@@H]12
REMARK SMILES IDX 13 1 12 2 11 3 15 4 16 5 2 6 1 7 3 8 4 9 5 10 6 11 8 12 9 13
REMARK SMILES IDX 10 14 7 15 14 16
REMARK H PARENT
REMARK Flexibility Score: inf
ROOT
ATOM      1  C   UNL     1      24.355  27.922 -18.293  1.00  0.00     0.039 C 
ATOM      2  C   UNL     1      24.031  28.260 -16.855  1.00  0.00    -0.070 C 
ATOM      3  C   UNL     1      22.801  28.726 -16.493  1.00  0.00    -0.006 C 
ATOM      4  C   UNL     1      22.400  28.989 -15.054  1.00  0.00     0.047 C 
ATOM      5  C   UNL     1      21.143  28.169 -14.621  1.00  0.00     0.025 C 
ATOM      6  C   UNL     1      20.506  28.713 -13.324  1.00  0.00    -0.073 C 
ATOM      7  C   UNL     1      21.212  29.410 -12.410  1.00  0.00     0.008 C 
ATOM      8  C   UNL     1      19.094  28.335 -12.929  1.00  0.00     0.031 C 
ATOM      9  C   UNL     1      18.410  27.450 -13.961  1.00  0.00     0.005 C 
ATOM     10  C   UNL     1      18.618  28.034 -15.353  1.00  0.00     0.008 C 
ATOM     11  C   UNL     1      20.104  27.937 -15.813  1.00  0.00    -0.018 C 
ATOM     12  C   UNL     1      20.299  28.984 -16.950  1.00  0.00     0.088 C 
ATOM     13  C   UNL     1      21.708  28.988 -17.459  1.00  0.00     0.159 C 
ATOM     14  O   UNL     1      21.933  29.289 -18.662  1.00  0.00    -0.295 OA
ATOM     15  C   UNL     1      20.323  26.519 -16.413  1.00  0.00     0.012 C 
ATOM     16  C   UNL     1      25.113  28.016 -15.829  1.00  0.00     0.039 C 
ENDROOT
TORSDOF 0
ENDMDL
MODEL 5
REMARK VINA RESULT:    -6.101      9.458     11.112
REMARK INTER + INTRA:          -6.101
REMARK INTER:                  -6.101
REMARK INTRA:                   0.000
REMARK UNBOUND:                 0.000
REMARK SMILES C=C1CCC[C@@]2(C)CC(=O)C(=C(C)C)C[C@@H]12
REMARK SMILES IDX 13 1 12 2 11 3 15 4 16 5 2 6 1 7 3 8 4 9 5 10 6 11 8 12 9 13
REMARK SMILES IDX 10 14 7 15 14 16
REMARK H PARENT
REMARK Flexibility Score: inf
ROOT
ATOM      1  C   UNL     1      24.391  30.009  -9.802  1.00  0.00     0.039 C 
ATOM      2  C   UNL     1      24.263  29.533 -11.231  1.00  0.00    -0.070 C 
ATOM      3  C   UNL     1      23.249  28.708 -11.620  1.00  0.00    -0.006 C 
ATOM      4  C   UNL     1      23.026  28.281 -13.058  1.00  0.00     0.047 C 
ATOM      5  C   UNL     1      21.609  28.671 -13.588  1.00  0.00     0.025 C 
ATOM      6  C   UNL     1      21.236  27.911 -14.879  1.00  0.00    -0.073 C 
ATOM      7  C   UNL     1      22.167  27.421 -15.723  1.00  0.00     0.008 C 
ATOM      8  C   UNL     1      19.800  27.835 -15.354  1.00  0.00     0.031 C 
ATOM      9  C   UNL     1      18.827  28.516 -14.401  1.00  0.00     0.005 C 
ATOM     10  C   UNL     1      19.119  28.076 -12.973  1.00  0.00     0.008 C 
ATOM     11  C   UNL     1      20.482  28.629 -12.456  1.00  0.00    -0.018 C 
ATOM     12  C   UNL     1      20.913  27.734 -11.256  1.00  0.00     0.088 C 
ATOM     13  C   UNL     1      22.229  28.171 -10.688  1.00  0.00     0.159 C 
ATOM     14  O   UNL     1      22.464  27.997  -9.462  1.00  0.00    -0.295 OA
ATOM     15  C   UNL     1      20.238  30.071 -11.925  1.00  0.00     0.012 C 
ATOM     16  C   UNL     1      25.281  30.048 -12.222  1.00  0.00     0.039 C 
ENDROOT
TORSDOF 0
ENDMDL
MODEL 6
REMARK VINA RESULT:    -6.098      1.635      3.236
REMARK INTER + INTRA:          -6.098
REMARK INTER:                  -6.098
REMARK INTRA:                   0.000
REMARK UNBOUND:                 0.000
REMARK SMILES C=C1CCC[C@@]2(C)CC(=O)C(=C(C)C)C[C@@H]12
REMARK SMILES IDX 13 1 12 2 11 3 15 4 16 5 2 6 1 7 3 8 4 9 5 10 6 11 8 12 9 13
REMARK SMILES IDX 10 14 7 15 14 16
REMARK H PARENT
REMARK Flexibility Score: inf
ROOT
ATOM      1  C   UNL     1      29.492  28.538 -10.469  1.00  0.00     0.039 C 
ATOM      2  C   UNL     1      29.710  29.393 -11.696  1.00  0.00    -0.070 C 
ATOM      3  C   UNL     1      30.773  30.243 -11.792  1.00  0.00    -0.006 C 
ATOM      4  C   UNL     1      31.085  31.050 -13.038  1.00  0.00     0.047 C 
ATOM      5  C   UNL     1      32.512  30.756 -13.602  1.00  0.00     0.025 C 
ATOM      6  C   UNL     1      32.978  31.832 -14.607  1.00  0.00    -0.073 C 
ATOM      7  C   UNL     1      32.110  32.587 -15.311  1.00  0.00     0.008 C 
ATOM      8  C   UNL     1      34.438  31.968 -14.983  1.00  0.00     0.031 C 
ATOM      9  C   UNL     1      35.336  30.997 -14.228  1.00  0.00     0.005 C 
ATOM     10  C   UNL     1      34.986  31.027 -12.746  1.00  0.00     0.008 C 
ATOM     11  C   UNL     1      33.580  30.419 -12.463  1.00  0.00    -0.018 C 
ATOM     12  C   UNL     1      33.121  30.957 -11.075  1.00  0.00     0.088 C 
ATOM     13  C   UNL     1      31.762  30.443 -10.707  1.00  0.00     0.159 C 
ATOM     14  O   UNL     1      31.470  30.272  -9.493  1.00  0.00    -0.295 OA
ATOM     15  C   UNL     1      33.744  28.875 -12.357  1.00  0.00     0.012 C 
ATOM     16  C   UNL     1      28.726  29.232 -12.831  1.00  0.00     0.039 C 
ENDROOT
TORSDOF 0
ENDMDL
MODEL 7
REMARK VINA RESULT:    -6.094      9.157     11.575
REMARK INTER + INTRA:          -6.094
REMARK INTER:                  -6.094
REMARK INTRA:                   0.000
REMARK UNBOUND:                 0.000
REMARK SMILES C=C1CCC[C@@]2(C)CC(=O)C(=C(C)C)C[C@@H]12
REMARK SMILES IDX 13 1 12 2 11 3 15 4 16 5 2 6 1 7 3 8 4 9 5 10 6 11 8 12 9 13
REMARK SMILES IDX 10 14 7 15 14 16
REMARK H PARENT
REMARK Flexibility Score: inf
ROOT
ATOM      1  C   UNL     1      24.224  28.397 -18.235  1.00  0.00     0.039 C 
ATOM      2  C   UNL     1      22.869  28.378 -17.565  1.00  0.00    -0.070 C 
ATOM      3  C   UNL     1      22.706  27.895 -16.300  1.00  0.00    -0.006 C 
ATOM      4  C   UNL     1      21.387  27.941 -15.554  1.00  0.00     0.047 C 
ATOM      5  C   UNL     1      21.489  28.716 -14.201  1.00  0.00     0.025 C 
ATOM      6  C   UNL     1      20.287  28.434 -13.272  1.00  0.00    -0.073 C 
ATOM      7  C   UNL     1      19.086  28.043 -13.744  1.00  0.00     0.008 C 
ATOM      8  C   UNL     1      20.351  28.758 -11.794  1.00  0.00     0.031 C 
ATOM      9  C   UNL     1      21.706  29.306 -11.367  1.00  0.00     0.005 C 
ATOM     10  C   UNL     1      22.813  28.433 -11.944  1.00  0.00     0.008 C 
ATOM     11  C   UNL     1      22.913  28.560 -13.494  1.00  0.00    -0.018 C 
ATOM     12  C   UNL     1      23.669  27.299 -14.008  1.00  0.00     0.088 C 
ATOM     13  C   UNL     1      23.808  27.310 -15.500  1.00  0.00     0.159 C 
ATOM     14  O   UNL     1      24.805  26.756 -16.034  1.00  0.00    -0.295 OA
ATOM     15  C   UNL     1      23.781  29.812 -13.813  1.00  0.00     0.012 C 
ATOM     16  C   UNL     1      21.709  28.958 -18.341  1.00  0.00     0.039 C 
ENDROOT
TORSDOF 0
ENDMDL
MODEL 8
REMARK VINA RESULT:    -6.035      1.673      4.765
REMARK INTER + INTRA:          -6.035
REMARK INTER:                  -6.035
REMARK INTRA:                   0.000
REMARK UNBOUND:                 0.000
REMARK SMILES C=C1CCC[C@@]2(C)CC(=O)C(=C(C)C)C[C@@H]12
REMARK SMILES IDX 13 1 12 2 11 3 15 4 16 5 2 6 1 7 3 8 4 9 5 10 6 11 8 12 9 13
REMARK SMILES IDX 10 14 7 15 14 16
REMARK H PARENT
REMARK Flexibility Score: inf
ROOT
ATOM      1  C   UNL     1      33.756  31.502 -16.286  1.00  0.00     0.039 C 
ATOM      2  C   UNL     1      34.033  31.235 -14.824  1.00  0.00    -0.070 C 
ATOM      3  C   UNL     1      33.037  31.259 -13.893  1.00  0.00    -0.006 C 
ATOM      4  C   UNL     1      33.251  30.907 -12.434  1.00  0.00     0.047 C 
ATOM      5  C   UNL     1      32.340  29.729 -11.960  1.00  0.00     0.025 C 
ATOM      6  C   UNL     1      32.263  29.630 -10.421  1.00  0.00    -0.073 C 
ATOM      7  C   UNL     1      33.238  30.101  -9.618  1.00  0.00     0.008 C 
ATOM      8  C   UNL     1      31.167  28.834  -9.744  1.00  0.00     0.031 C 
ATOM      9  C   UNL     1      30.175  28.236 -10.732  1.00  0.00     0.005 C 
ATOM     10  C   UNL     1      29.752  29.300 -11.737  1.00  0.00     0.008 C 
ATOM     11  C   UNL     1      30.917  29.704 -12.689  1.00  0.00    -0.018 C 
ATOM     12  C   UNL     1      30.559  31.097 -13.286  1.00  0.00     0.088 C 
ATOM     13  C   UNL     1      31.628  31.592 -14.211  1.00  0.00     0.159 C 
ATOM     14  O   UNL     1      31.316  32.337 -15.179  1.00  0.00    -0.295 OA
ATOM     15  C   UNL     1      30.959  28.671 -13.853  1.00  0.00     0.012 C 
ATOM     16  C   UNL     1      35.456  30.895 -14.445  1.00  0.00     0.039 C 
ENDROOT
TORSDOF 0
ENDMDL
MODEL 9
REMARK VINA RESULT:    -6.026      2.578      5.167
REMARK INTER + INTRA:          -6.026
REMARK INTER:                  -6.026
REMARK INTRA:                   0.000
REMARK UNBOUND:                 0.000
REMARK SMILES C=C1CCC[C@@]2(C)CC(=O)C(=C(C)C)C[C@@H]12
REMARK SMILES IDX 13 1 12 2 11 3 15 4 16 5 2 6 1 7 3 8 4 9 5 10 6 11 8 12 9 13
REMARK SMILES IDX 10 14 7 15 14 16
REMARK H PARENT
REMARK Flexibility Score: inf
ROOT
ATOM      1  C   UNL     1      29.660  32.389 -17.705  1.00  0.00     0.039 C 
ATOM      2  C   UNL     1      29.980  31.636 -16.434  1.00  0.00    -0.070 C 
ATOM      3  C   UNL     1      31.222  31.122 -16.203  1.00  0.00    -0.006 C 
ATOM      4  C   UNL     1      31.615  30.442 -14.906  1.00  0.00     0.047 C 
ATOM      5  C   UNL     1      32.834  31.130 -14.213  1.00  0.00     0.025 C 
ATOM      6  C   UNL     1      33.475  30.234 -13.130  1.00  0.00    -0.073 C 
ATOM      7  C   UNL     1      32.786  29.268 -12.491  1.00  0.00     0.008 C 
ATOM      8  C   UNL     1      34.867  30.519 -12.606  1.00  0.00     0.031 C 
ATOM      9  C   UNL     1      35.530  31.701 -13.300  1.00  0.00     0.005 C 
ATOM     10  C   UNL     1      35.361  31.567 -14.808  1.00  0.00     0.008 C 
ATOM     11  C   UNL     1      33.878  31.751 -15.251  1.00  0.00    -0.018 C 
ATOM     12  C   UNL     1      33.738  31.099 -16.658  1.00  0.00     0.088 C 
ATOM     13  C   UNL     1      32.336  31.206 -17.177  1.00  0.00     0.159 C 
ATOM     14  O   UNL     1      32.138  31.281 -18.419  1.00  0.00    -0.295 OA
ATOM     15  C   UNL     1      33.612  33.278 -15.392  1.00  0.00     0.012 C 
ATOM     16  C   UNL     1      28.876  31.517 -15.409  1.00  0.00     0.039 C 
ENDROOT
TORSDOF 0
ENDMDL
