MODEL 1
REMARK VINA RESULT:    -2.826      0.000      0.000
REMARK INTER + INTRA:          -2.826
REMARK INTER:                  -2.826
REMARK INTRA:                   0.000
REMARK UNBOUND:                 0.000
REMARK SMILES CC(=O)[O-]
REMARK SMILES IDX 1 1 2 2 3 3 4 4
REMARK H PARENT
REMARK Flexibility Score: inf
ROOT
ATOM      1  C   UNL     1       3.118 -20.827 -12.570  1.00  0.00     0.063 C 
ATOM      2  C   UNL     1       4.307 -21.438 -11.910  1.00  0.00     0.038 C 
ATOM      3  O   UNL     1       5.445 -21.333 -12.437  1.00  0.00    -0.550 OA
ATOM      4  O   UNL     1       4.155 -22.170 -10.739  1.00  0.00    -0.550 OA
ENDROOT
TORSDOF 0
ENDMDL
MODEL 2
REMARK VINA RESULT:    -2.773     15.387     15.675
REMARK INTER + INTRA:          -2.773
REMARK INTER:                  -2.773
REMARK INTRA:                   0.000
REMARK UNBOUND:                 0.000
REMARK SMILES CC(=O)[O-]
REMARK SMILES IDX 1 1 2 2 3 3 4 4
REMARK H PARENT
REMARK Flexibility Score: inf
ROOT
ATOM      1  C   UNL     1      -9.768 -18.741  -6.764  1.00  0.00     0.063 C 
ATOM      2  C   UNL     1     -10.576 -19.731  -7.532  1.00  0.00     0.038 C 
ATOM      3  O   UNL     1     -11.049 -20.744  -6.953  1.00  0.00    -0.550 OA
ATOM      4  O   UNL     1     -10.763 -19.568  -8.898  1.00  0.00    -0.550 OA
ENDROOT
TORSDOF 0
ENDMDL
MODEL 3
REMARK VINA RESULT:    -2.740      0.244      1.619
REMARK INTER + INTRA:          -2.740
REMARK INTER:                  -2.740
REMARK INTRA:                   0.000
REMARK UNBOUND:                 0.000
REMARK SMILES CC(=O)[O-]
REMARK SMILES IDX 1 1 2 2 3 3 4 4
REMARK H PARENT
REMARK Flexibility Score: inf
ROOT
ATOM      1  C   UNL     1       3.187 -20.701 -12.582  1.00  0.00     0.063 C 
ATOM      2  C   UNL     1       4.359 -21.354 -11.932  1.00  0.00     0.038 C 
ATOM      3  O   UNL     1       4.185 -22.167 -10.986  1.00  0.00    -0.550 OA
ATOM      4  O   UNL     1       5.649 -21.029 -12.331  1.00  0.00    -0.550 OA
ENDROOT
TORSDOF 0
ENDMDL
MODEL 4
REMARK VINA RESULT:    -2.676     14.035     14.390
REMARK INTER + INTRA:          -2.676
REMARK INTER:                  -2.676
REMARK INTRA:                   0.000
REMARK UNBOUND:                 0.000
REMARK SMILES CC(=O)[O-]
REMARK SMILES IDX 1 1 2 2 3 3 4 4
REMARK H PARENT
REMARK Flexibility Score: inf
ROOT
ATOM      1  C   UNL     1      -7.461 -17.400 -16.493  1.00  0.00     0.063 C 
ATOM      2  C   UNL     1      -7.897 -16.453 -17.559  1.00  0.00     0.038 C 
ATOM      3  O   UNL     1      -7.663 -16.714 -18.768  1.00  0.00    -0.550 OA
ATOM      4  O   UNL     1      -8.514 -15.257 -17.219  1.00  0.00    -0.550 OA
ENDROOT
TORSDOF 0
ENDMDL
MODEL 5
REMARK VINA RESULT:    -2.649     11.322     11.655
REMARK INTER + INTRA:          -2.649
REMARK INTER:                  -2.649
REMARK INTRA:                   0.000
REMARK UNBOUND:                 0.000
REMARK SMILES CC(=O)[O-]
REMARK SMILES IDX 1 1 2 2 3 3 4 4
REMARK H PARENT
REMARK Flexibility Score: inf
ROOT
ATOM      1  C   UNL     1       0.318 -14.765  -3.836  1.00  0.00     0.063 C 
ATOM      2  C   UNL     1       0.684 -15.472  -2.575  1.00  0.00     0.038 C 
ATOM      3  O   UNL     1       1.467 -14.930  -1.752  1.00  0.00    -0.550 OA
ATOM      4  O   UNL     1       0.206 -16.753  -2.331  1.00  0.00    -0.550 OA
ENDROOT
TORSDOF 0
ENDMDL
MODEL 6
REMARK VINA RESULT:    -2.529     14.445     15.110
REMARK INTER + INTRA:          -2.529
REMARK INTER:                  -2.529
REMARK INTRA:                   0.000
REMARK UNBOUND:                 0.000
REMARK SMILES CC(=O)[O-]
REMARK SMILES IDX 1 1 2 2 3 3 4 4
REMARK H PARENT
REMARK Flexibility Score: inf
ROOT
ATOM      1  C   UNL     1      -8.959 -20.075  -7.541  1.00  0.00     0.063 C 
ATOM      2  C   UNL     1     -10.116 -21.015  -7.550  1.00  0.00     0.038 C 
ATOM      3  O   UNL     1     -11.135 -20.768  -6.854  1.00  0.00    -0.550 OA
ATOM      4  O   UNL     1     -10.052 -22.192  -8.284  1.00  0.00    -0.550 OA
ENDROOT
TORSDOF 0
ENDMDL
MODEL 7
REMARK VINA RESULT:    -2.509     12.913     13.267
REMARK INTER + INTRA:          -2.509
REMARK INTER:                  -2.509
REMARK INTRA:                   0.000
REMARK UNBOUND:                 0.000
REMARK SMILES CC(=O)[O-]
REMARK SMILES IDX 1 1 2 2 3 3 4 4
REMARK H PARENT
REMARK Flexibility Score: inf
ROOT
ATOM      1  C   UNL     1      -6.776 -16.436 -16.403  1.00  0.00     0.063 C 
ATOM      2  C   UNL     1      -6.793 -17.165 -17.704  1.00  0.00     0.038 C 
ATOM      3  O   UNL     1      -7.518 -16.755 -18.647  1.00  0.00    -0.550 OA
ATOM      4  O   UNL     1      -6.049 -18.327 -17.861  1.00  0.00    -0.550 OA
ENDROOT
TORSDOF 0
ENDMDL
MODEL 8
REMARK VINA RESULT:    -2.306     14.085     14.412
REMARK INTER + INTRA:          -2.306
REMARK INTER:                  -2.306
REMARK INTRA:                   0.000
REMARK UNBOUND:                 0.000
REMARK SMILES CC(=O)[O-]
REMARK SMILES IDX 1 1 2 2 3 3 4 4
REMARK H PARENT
REMARK Flexibility Score: inf
ROOT
ATOM      1  C   UNL     1      -5.446 -22.087  -2.828  1.00  0.00     0.063 C 
ATOM      2  C   UNL     1      -6.342 -20.998  -2.345  1.00  0.00     0.038 C 
ATOM      3  O   UNL     1      -6.178 -20.507  -1.198  1.00  0.00    -0.550 OA
ATOM      4  O   UNL     1      -7.395 -20.559  -3.138  1.00  0.00    -0.550 OA
ENDROOT
TORSDOF 0
ENDMDL
MODEL 9
REMARK VINA RESULT:    -2.206     16.981     17.290
REMARK INTER + INTRA:          -2.206
REMARK INTER:                  -2.206
REMARK INTRA:                   0.000
REMARK UNBOUND:                 0.000
REMARK SMILES CC(=O)[O-]
REMARK SMILES IDX 1 1 2 2 3 3 4 4
REMARK H PARENT
REMARK Flexibility Score: inf
ROOT
ATOM      1  C   UNL     1      -7.166 -32.188 -16.861  1.00  0.00     0.063 C 
ATOM      2  C   UNL     1      -7.564 -32.193 -18.298  1.00  0.00     0.038 C 
ATOM      3  O   UNL     1      -6.961 -31.458 -19.122  1.00  0.00    -0.550 OA
ATOM      4  O   UNL     1      -8.636 -32.969 -18.721  1.00  0.00    -0.550 OA
ENDROOT
TORSDOF 0
ENDMDL
