MODEL 1
REMARK VINA RESULT:    -3.220      0.000      0.000
REMARK INTER + INTRA:          -4.209
REMARK INTER:                  -3.879
REMARK INTRA:                  -0.330
REMARK UNBOUND:                -0.330
REMARK SMILES NC(=O)C[C@H]([NH3+])C(=O)[O-]
REMARK SMILES IDX 4 1 5 2 6 3 7 7 8 8 9 9 2 10 3 11 1 12
REMARK H PARENT 6 4 6 5 6 6 1 13 1 14
REMARK Flexibility Score: inf
ROOT
ATOM      1  C   UNL     1     192.118 195.586 194.348  1.00  0.00     0.171 C 
ENDROOT
BRANCH   1   2
ATOM      2  C   UNL     1     192.768 195.209 193.002  1.00  0.00     0.237 C 
BRANCH   2   3
ATOM      3  N   UNL     1     192.089 194.050 192.411  1.00  0.00    -0.350 N 
ATOM      4  H   UNL     1     191.055 194.145 192.534  1.00  0.00     0.345 HD
ATOM      5  H   UNL     1     192.407 193.163 192.868  1.00  0.00     0.345 HD
ATOM      6  H   UNL     1     192.294 194.002 191.386  1.00  0.00     0.345 HD
ENDBRANCH   2   3
BRANCH   2   7
ATOM      7  C   UNL     1     194.236 194.914 193.176  1.00  0.00     0.100 C 
ATOM      8  O   UNL     1     195.060 195.858 193.304  1.00  0.00    -0.544 OA
ATOM      9  O   UNL     1     194.688 193.601 193.208  1.00  0.00    -0.544 OA
ENDBRANCH   2   7
ENDBRANCH   1   2
BRANCH   1  10
ATOM     10  C   UNL     1     191.251 194.478 194.873  1.00  0.00     0.223 C 
ATOM     11  O   UNL     1     191.756 193.351 195.125  1.00  0.00    -0.275 OA
ATOM     12  N   UNL     1     189.864 194.702 195.121  1.00  0.00    -0.369 N 
ATOM     13  H   UNL     1     189.265 193.934 195.499  1.00  0.00     0.159 HD
ATOM     14  H   UNL     1     189.434 195.635 194.933  1.00  0.00     0.159 HD
ENDBRANCH   1  10
TORSDOF 4
ENDMDL
MODEL 2
REMARK VINA RESULT:    -3.199      3.179      3.648
REMARK INTER + INTRA:          -4.183
REMARK INTER:                  -4.082
REMARK INTRA:                  -0.101
REMARK UNBOUND:                -0.330
REMARK SMILES NC(=O)C[C@H]([NH3+])C(=O)[O-]
REMARK SMILES IDX 4 1 5 2 6 3 7 7 8 8 9 9 2 10 3 11 1 12
REMARK H PARENT 6 4 6 5 6 6 1 13 1 14
REMARK Flexibility Score: inf
ROOT
ATOM      1  C   UNL     1     191.365 194.305 193.063  1.00  0.00     0.171 C 
ENDROOT
BRANCH   1   2
ATOM      2  C   UNL     1     190.059 193.996 192.304  1.00  0.00     0.237 C 
BRANCH   2   3
ATOM      3  N   UNL     1     190.000 192.574 191.943  1.00  0.00    -0.350 N 
ATOM      4  H   UNL     1     190.323 192.446 190.956  1.00  0.00     0.345 HD
ATOM      5  H   UNL     1     189.023 192.210 192.032  1.00  0.00     0.345 HD
ATOM      6  H   UNL     1     190.632 192.022 192.568  1.00  0.00     0.345 HD
ENDBRANCH   2   3
BRANCH   2   7
ATOM      7  C   UNL     1     189.942 194.848 191.066  1.00  0.00     0.100 C 
ATOM      8  O   UNL     1     188.883 194.829 190.384  1.00  0.00    -0.544 OA
ATOM      9  O   UNL     1     190.994 195.667 190.676  1.00  0.00    -0.544 OA
ENDBRANCH   2   7
ENDBRANCH   1   2
BRANCH   1  10
ATOM     10  C   UNL     1     191.093 194.744 194.473  1.00  0.00     0.223 C 
ATOM     11  O   UNL     1     191.927 195.472 195.076  1.00  0.00    -0.275 OA
ATOM     12  N   UNL     1     189.879 194.370 195.125  1.00  0.00    -0.369 N 
ATOM     13  H   UNL     1     189.686 194.688 196.101  1.00  0.00     0.159 HD
ATOM     14  H   UNL     1     189.171 193.781 194.633  1.00  0.00     0.159 HD
ENDBRANCH   1  10
TORSDOF 4
ENDMDL
MODEL 3
REMARK VINA RESULT:    -3.183      1.602      1.642
REMARK INTER + INTRA:          -4.164
REMARK INTER:                  -3.938
REMARK INTRA:                  -0.226
REMARK UNBOUND:                -0.330
REMARK SMILES NC(=O)C[C@H]([NH3+])C(=O)[O-]
REMARK SMILES IDX 4 1 5 2 6 3 7 7 8 8 9 9 2 10 3 11 1 12
REMARK H PARENT 6 4 6 5 6 6 1 13 1 14
REMARK Flexibility Score: inf
ROOT
ATOM      1  C   UNL     1     192.777 195.075 194.217  1.00  0.00     0.171 C 
ENDROOT
BRANCH   1   2
ATOM      2  C   UNL     1     193.870 194.804 193.163  1.00  0.00     0.237 C 
BRANCH   2   3
ATOM      3  N   UNL     1     194.019 193.362 192.937  1.00  0.00    -0.350 N 
ATOM      4  H   UNL     1     193.943 193.154 191.915  1.00  0.00     0.345 HD
ATOM      5  H   UNL     1     193.278 192.829 193.450  1.00  0.00     0.345 HD
ATOM      6  H   UNL     1     194.960 193.045 193.266  1.00  0.00     0.345 HD
ENDBRANCH   2   3
BRANCH   2   7
ATOM      7  C   UNL     1     195.188 195.398 193.591  1.00  0.00     0.100 C 
ATOM      8  O   UNL     1     195.497 196.568 193.243  1.00  0.00    -0.544 OA
ATOM      9  O   UNL     1     196.066 194.663 194.378  1.00  0.00    -0.544 OA
ENDBRANCH   2   7
ENDBRANCH   1   2
BRANCH   1  10
ATOM     10  C   UNL     1     191.644 194.097 194.100  1.00  0.00     0.223 C 
ATOM     11  O   UNL     1     190.906 194.109 193.079  1.00  0.00    -0.275 OA
ATOM     12  N   UNL     1     191.417 193.129 195.124  1.00  0.00    -0.369 N 
ATOM     13  H   UNL     1     190.636 192.441 195.036  1.00  0.00     0.159 HD
ATOM     14  H   UNL     1     192.030 193.095 195.969  1.00  0.00     0.159 HD
ENDBRANCH   1  10
TORSDOF 4
ENDMDL
MODEL 4
REMARK VINA RESULT:    -3.112      2.315      3.730
REMARK INTER + INTRA:          -4.078
REMARK INTER:                  -3.604
REMARK INTRA:                  -0.474
REMARK UNBOUND:                -0.330
REMARK SMILES NC(=O)C[C@H]([NH3+])C(=O)[O-]
REMARK SMILES IDX 4 1 5 2 6 3 7 7 8 8 9 9 2 10 3 11 1 12
REMARK H PARENT 6 4 6 5 6 6 1 13 1 14
REMARK Flexibility Score: inf
ROOT
ATOM      1  C   UNL     1     193.063 195.093 193.042  1.00  0.00     0.171 C 
ENDROOT
BRANCH   1   2
ATOM      2  C   UNL     1     191.624 194.673 193.402  1.00  0.00     0.237 C 
BRANCH   2   3
ATOM      3  N   UNL     1     191.638 193.500 194.284  1.00  0.00    -0.350 N 
ATOM      4  H   UNL     1     192.397 192.844 193.990  1.00  0.00     0.345 HD
ATOM      5  H   UNL     1     190.719 192.998 194.246  1.00  0.00     0.345 HD
ATOM      6  H   UNL     1     191.826 193.798 195.270  1.00  0.00     0.345 HD
ENDBRANCH   2   3
BRANCH   2   7
ATOM      7  C   UNL     1     190.823 194.376 192.160  1.00  0.00     0.100 C 
ATOM      8  O   UNL     1     189.627 193.993 192.256  1.00  0.00    -0.544 OA
ATOM      9  O   UNL     1     191.394 194.531 190.904  1.00  0.00    -0.544 OA
ENDBRANCH   2   7
ENDBRANCH   1   2
BRANCH   1  10
ATOM     10  C   UNL     1     193.985 193.909 192.979  1.00  0.00     0.223 C 
ATOM     11  O   UNL     1     194.641 193.569 194.000  1.00  0.00    -0.275 OA
ATOM     12  N   UNL     1     194.096 193.143 191.780  1.00  0.00    -0.369 N 
ATOM     13  H   UNL     1     194.727 192.312 191.742  1.00  0.00     0.159 HD
ATOM     14  H   UNL     1     193.546 193.402 190.930  1.00  0.00     0.159 HD
ENDBRANCH   1  10
TORSDOF 4
ENDMDL
MODEL 5
REMARK VINA RESULT:    -3.051      2.199      2.479
REMARK INTER + INTRA:          -4.005
REMARK INTER:                  -3.696
REMARK INTRA:                  -0.309
REMARK UNBOUND:                -0.330
REMARK SMILES NC(=O)C[C@H]([NH3+])C(=O)[O-]
REMARK SMILES IDX 4 1 5 2 6 3 7 7 8 8 9 9 2 10 3 11 1 12
REMARK H PARENT 6 4 6 5 6 6 1 13 1 14
REMARK Flexibility Score: inf
ROOT
ATOM      1  C   UNL     1     191.017 194.367 193.005  1.00  0.00     0.171 C 
ENDROOT
BRANCH   1   2
ATOM      2  C   UNL     1     192.129 194.457 191.942  1.00  0.00     0.237 C 
BRANCH   2   3
ATOM      3  N   UNL     1     193.376 193.875 192.454  1.00  0.00    -0.350 N 
ATOM      4  H   UNL     1     194.076 193.802 191.680  1.00  0.00     0.345 HD
ATOM      5  H   UNL     1     193.203 192.922 192.850  1.00  0.00     0.345 HD
ATOM      6  H   UNL     1     193.777 194.491 193.199  1.00  0.00     0.345 HD
ENDBRANCH   2   3
BRANCH   2   7
ATOM      7  C   UNL     1     192.361 195.887 191.525  1.00  0.00     0.100 C 
ATOM      8  O   UNL     1     191.396 196.596 191.135  1.00  0.00    -0.544 OA
ATOM      9  O   UNL     1     193.636 196.435 191.577  1.00  0.00    -0.544 OA
ENDBRANCH   2   7
ENDBRANCH   1   2
BRANCH   1  10
ATOM     10  C   UNL     1     191.584 194.231 194.389  1.00  0.00     0.223 C 
ATOM     11  O   UNL     1     192.176 195.206 194.924  1.00  0.00    -0.275 OA
ATOM     12  N   UNL     1     191.426 193.013 195.117  1.00  0.00    -0.369 N 
ATOM     13  H   UNL     1     191.809 192.924 196.085  1.00  0.00     0.159 HD
ATOM     14  H   UNL     1     190.923 192.202 194.694  1.00  0.00     0.159 HD
ENDBRANCH   1  10
TORSDOF 4
ENDMDL
MODEL 6
REMARK VINA RESULT:    -2.984      2.235      3.163
REMARK INTER + INTRA:          -3.925
REMARK INTER:                  -3.447
REMARK INTRA:                  -0.478
REMARK UNBOUND:                -0.330
REMARK SMILES NC(=O)C[C@H]([NH3+])C(=O)[O-]
REMARK SMILES IDX 4 1 5 2 6 3 7 7 8 8 9 9 2 10 3 11 1 12
REMARK H PARENT 6 4 6 5 6 6 1 13 1 14
REMARK Flexibility Score: inf
ROOT
ATOM      1  C   UNL     1     191.354 195.036 191.924  1.00  0.00     0.171 C 
ENDROOT
BRANCH   1   2
ATOM      2  C   UNL     1     192.507 194.909 192.939  1.00  0.00     0.237 C 
BRANCH   2   3
ATOM      3  N   UNL     1     193.367 193.770 192.599  1.00  0.00    -0.350 N 
ATOM      4  H   UNL     1     193.980 193.533 193.413  1.00  0.00     0.345 HD
ATOM      5  H   UNL     1     193.969 193.995 191.772  1.00  0.00     0.345 HD
ATOM      6  H   UNL     1     192.779 192.933 192.378  1.00  0.00     0.345 HD
ENDBRANCH   2   3
BRANCH   2   7
ATOM      7  C   UNL     1     191.976 194.754 194.341  1.00  0.00     0.100 C 
ATOM      8  O   UNL     1     191.778 195.771 195.058  1.00  0.00    -0.544 OA
ATOM      9  O   UNL     1     191.691 193.493 194.848  1.00  0.00    -0.544 OA
ENDBRANCH   2   7
ENDBRANCH   1   2
BRANCH   1  10
ATOM     10  C   UNL     1     190.964 193.700 191.361  1.00  0.00     0.223 C 
ATOM     11  O   UNL     1     191.471 193.302 190.279  1.00  0.00    -0.275 OA
ATOM     12  N   UNL     1     190.048 192.860 192.064  1.00  0.00    -0.369 N 
ATOM     13  H   UNL     1     189.787 191.925 191.678  1.00  0.00     0.159 HD
ATOM     14  H   UNL     1     189.631 193.169 192.970  1.00  0.00     0.159 HD
ENDBRANCH   1  10
TORSDOF 4
ENDMDL
MODEL 7
REMARK VINA RESULT:    -2.975      2.827      3.314
REMARK INTER + INTRA:          -3.913
REMARK INTER:                  -3.678
REMARK INTRA:                  -0.235
REMARK UNBOUND:                -0.330
REMARK SMILES NC(=O)C[C@H]([NH3+])C(=O)[O-]
REMARK SMILES IDX 4 1 5 2 6 3 7 7 8 8 9 9 2 10 3 11 1 12
REMARK H PARENT 6 4 6 5 6 6 1 13 1 14
REMARK Flexibility Score: inf
ROOT
ATOM      1  C   UNL     1     191.020 194.312 191.488  1.00  0.00     0.171 C 
ENDROOT
BRANCH   1   2
ATOM      2  C   UNL     1     191.874 194.396 192.769  1.00  0.00     0.237 C 
BRANCH   2   3
ATOM      3  N   UNL     1     191.186 193.740 193.888  1.00  0.00    -0.350 N 
ATOM      4  H   UNL     1     190.798 194.463 194.538  1.00  0.00     0.345 HD
ATOM      5  H   UNL     1     191.846 193.123 194.417  1.00  0.00     0.345 HD
ATOM      6  H   UNL     1     190.390 193.164 193.528  1.00  0.00     0.345 HD
ENDBRANCH   2   3
BRANCH   2   7
ATOM      7  C   UNL     1     192.179 195.830 193.120  1.00  0.00     0.100 C 
ATOM      8  O   UNL     1     192.451 196.145 194.309  1.00  0.00    -0.544 OA
ATOM      9  O   UNL     1     192.173 196.809 192.135  1.00  0.00    -0.544 OA
ENDBRANCH   2   7
ENDBRANCH   1   2
BRANCH   1  10
ATOM     10  C   UNL     1     189.781 193.492 191.703  1.00  0.00     0.223 C 
ATOM     11  O   UNL     1     188.735 194.039 192.144  1.00  0.00    -0.275 OA
ATOM     12  N   UNL     1     189.768 192.103 191.375  1.00  0.00    -0.369 N 
ATOM     13  H   UNL     1     188.901 191.537 191.512  1.00  0.00     0.159 HD
ATOM     14  H   UNL     1     190.622 191.639 190.993  1.00  0.00     0.159 HD
ENDBRANCH   1  10
TORSDOF 4
ENDMDL
MODEL 8
REMARK VINA RESULT:    -2.943      2.522      4.230
REMARK INTER + INTRA:          -3.874
REMARK INTER:                  -3.587
REMARK INTRA:                  -0.287
REMARK UNBOUND:                -0.330
REMARK SMILES NC(=O)C[C@H]([NH3+])C(=O)[O-]
REMARK SMILES IDX 4 1 5 2 6 3 7 7 8 8 9 9 2 10 3 11 1 12
REMARK H PARENT 6 4 6 5 6 6 1 13 1 14
REMARK Flexibility Score: inf
ROOT
ATOM      1  C   UNL     1     195.351 194.672 194.006  1.00  0.00     0.171 C 
ENDROOT
BRANCH   1   2
ATOM      2  C   UNL     1     193.972 194.009 193.824  1.00  0.00     0.237 C 
BRANCH   2   3
ATOM      3  N   UNL     1     193.885 193.358 192.511  1.00  0.00    -0.350 N 
ATOM      4  H   UNL     1     194.010 192.325 192.619  1.00  0.00     0.345 HD
ATOM      5  H   UNL     1     194.624 193.726 191.867  1.00  0.00     0.345 HD
ATOM      6  H   UNL     1     192.943 193.531 192.090  1.00  0.00     0.345 HD
ENDBRANCH   2   3
BRANCH   2   7
ATOM      7  C   UNL     1     192.864 195.021 193.972  1.00  0.00     0.100 C 
ATOM      8  O   UNL     1     192.669 195.881 193.072  1.00  0.00    -0.544 OA
ATOM      9  O   UNL     1     192.045 195.006 195.094  1.00  0.00    -0.544 OA
ENDBRANCH   2   7
ENDBRANCH   1   2
BRANCH   1  10
ATOM     10  C   UNL     1     196.433 193.897 193.312  1.00  0.00     0.223 C 
ATOM     11  O   UNL     1     196.805 194.235 192.156  1.00  0.00    -0.275 OA
ATOM     12  N   UNL     1     197.070 192.800 193.967  1.00  0.00    -0.369 N 
ATOM     13  H   UNL     1     197.832 192.270 193.488  1.00  0.00     0.159 HD
ATOM     14  H   UNL     1     196.784 192.518 194.931  1.00  0.00     0.159 HD
ENDBRANCH   1  10
TORSDOF 4
ENDMDL
MODEL 9
REMARK VINA RESULT:    -2.849      2.560      3.144
REMARK INTER + INTRA:          -3.762
REMARK INTER:                  -3.286
REMARK INTRA:                  -0.476
REMARK UNBOUND:                -0.330
REMARK SMILES NC(=O)C[C@H]([NH3+])C(=O)[O-]
REMARK SMILES IDX 4 1 5 2 6 3 7 7 8 8 9 9 2 10 3 11 1 12
REMARK H PARENT 6 4 6 5 6 6 1 13 1 14
REMARK Flexibility Score: inf
ROOT
ATOM      1  C   UNL     1     192.143 195.353 192.722  1.00  0.00     0.171 C 
ENDROOT
BRANCH   1   2
ATOM      2  C   UNL     1     191.085 194.562 191.929  1.00  0.00     0.237 C 
BRANCH   2   3
ATOM      3  N   UNL     1     190.464 193.540 192.780  1.00  0.00    -0.350 N 
ATOM      4  H   UNL     1     190.073 192.773 192.185  1.00  0.00     0.345 HD
ATOM      5  H   UNL     1     189.693 193.955 193.353  1.00  0.00     0.345 HD
ATOM      6  H   UNL     1     191.182 193.124 193.418  1.00  0.00     0.345 HD
ENDBRANCH   2   3
BRANCH   2   7
ATOM      7  C   UNL     1     191.695 193.918 190.710  1.00  0.00     0.100 C 
ATOM      8  O   UNL     1     191.016 193.787 189.657  1.00  0.00    -0.544 OA
ATOM      9  O   UNL     1     193.011 193.474 190.736  1.00  0.00    -0.544 OA
ENDBRANCH   2   7
ENDBRANCH   1   2
BRANCH   1  10
ATOM     10  C   UNL     1     192.628 194.584 193.917  1.00  0.00     0.223 C 
ATOM     11  O   UNL     1     192.066 194.740 195.034  1.00  0.00    -0.275 OA
ATOM     12  N   UNL     1     193.698 193.649 193.789  1.00  0.00    -0.369 N 
ATOM     13  H   UNL     1     194.025 193.104 194.618  1.00  0.00     0.159 HD
ATOM     14  H   UNL     1     194.163 193.496 192.866  1.00  0.00     0.159 HD
ENDBRANCH   1  10
TORSDOF 4
ENDMDL
