MODEL 1
REMARK VINA RESULT:     2.251      0.000      0.000
REMARK INTER + INTRA:           4.766
REMARK INTER:                   4.225
REMARK INTRA:                   0.541
REMARK UNBOUND:                 0.541
REMARK SMILES CCCCCCCCC=CCCCCCCCC(=O)[O-]
REMARK SMILES IDX 10 1 9 2 11 3 12 4 13 5 14 6 15 7 16 8 17 9 18 10 19 11
REMARK SMILES IDX 20 12 8 13 7 14 6 15 5 16 4 17 3 18 2 19 1 20
REMARK H PARENT
REMARK Flexibility Score: inf
ROOT
ATOM      1  C   UNL     1     -17.628   2.187   6.499  1.00  0.00    -0.031 C 
ATOM      2  C   UNL     1     -18.413   3.267   6.364  1.00  0.00    -0.031 C 
ENDROOT
BRANCH   1   3
ATOM      3  C   UNL     1     -17.727   1.285   7.699  1.00  0.00     0.027 C 
BRANCH   3   4
ATOM      4  C   UNL     1     -16.349   0.742   8.098  1.00  0.00     0.004 C 
BRANCH   4   5
ATOM      5  C   UNL     1     -16.488  -0.531   8.948  1.00  0.00     0.000 C 
BRANCH   5   6
ATOM      6  C   UNL     1     -15.910  -1.775   8.254  1.00  0.00     0.000 C 
BRANCH   6   7
ATOM      7  C   UNL     1     -16.806  -3.014   8.422  1.00  0.00     0.000 C 
BRANCH   7   8
ATOM      8  C   UNL     1     -17.734  -2.914   9.648  1.00  0.00     0.006 C 
BRANCH   8   9
ATOM      9  C   UNL     1     -17.160  -2.095  10.815  1.00  0.00     0.053 C 
BRANCH   9  10
ATOM     10  C   UNL     1     -17.752  -2.498  12.130  1.00  0.00     0.041 C 
ATOM     11  O   UNL     1     -17.172  -2.192  13.206  1.00  0.00    -0.550 OA
ATOM     12  O   UNL     1     -18.925  -3.239  12.168  1.00  0.00    -0.550 OA
ENDBRANCH   9  10
ENDBRANCH   8   9
ENDBRANCH   7   8
ENDBRANCH   6   7
ENDBRANCH   5   6
ENDBRANCH   4   5
ENDBRANCH   3   4
ENDBRANCH   1   3
BRANCH   2  13
ATOM     13  C   UNL     1     -18.313   4.167   5.164  1.00  0.00     0.027 C 
BRANCH  13  14
ATOM     14  C   UNL     1     -18.680   5.614   5.526  1.00  0.00     0.004 C 
BRANCH  14  15
ATOM     15  C   UNL     1     -17.899   6.652   4.701  1.00  0.00     0.000 C 
BRANCH  15  16
ATOM     16  C   UNL     1     -17.765   8.039   5.360  1.00  0.00     0.000 C 
BRANCH  16  17
ATOM     17  C   UNL     1     -18.276   8.125   6.811  1.00  0.00    -0.000 C 
BRANCH  17  18
ATOM     18  C   UNL     1     -17.178   8.102   7.893  1.00  0.00    -0.000 C 
BRANCH  18  19
ATOM     19  C   UNL     1     -17.699   8.115   9.341  1.00  0.00    -0.003 C 
ATOM     20  C   UNL     1     -16.578   8.043  10.378  1.00  0.00     0.004 C 
ENDBRANCH  18  19
ENDBRANCH  17  18
ENDBRANCH  16  17
ENDBRANCH  15  16
ENDBRANCH  14  15
ENDBRANCH  13  14
ENDBRANCH   2  13
TORSDOF 15
ENDMDL
MODEL 2
REMARK VINA RESULT:     3.031      0.867      1.446
REMARK INTER + INTRA:           6.230
REMARK INTER:                   6.877
REMARK INTRA:                  -0.647
REMARK UNBOUND:                 0.541
REMARK SMILES CCCCCCCCC=CCCCCCCCC(=O)[O-]
REMARK SMILES IDX 10 1 9 2 11 3 12 4 13 5 14 6 15 7 16 8 17 9 18 10 19 11
REMARK SMILES IDX 20 12 8 13 7 14 6 15 5 16 4 17 3 18 2 19 1 20
REMARK H PARENT
REMARK Flexibility Score: inf
ROOT
ATOM      1  C   UNL     1     -16.984   1.740   7.428  1.00  0.00    -0.031 C 
ATOM      2  C   UNL     1     -17.976   2.205   6.653  1.00  0.00    -0.031 C 
ENDROOT
BRANCH   1   3
ATOM      3  C   UNL     1     -17.193   0.584   8.367  1.00  0.00     0.027 C 
BRANCH   3   4
ATOM      4  C   UNL     1     -16.156  -0.521   8.125  1.00  0.00     0.004 C 
BRANCH   4   5
ATOM      5  C   UNL     1     -15.681  -1.127   9.455  1.00  0.00     0.000 C 
BRANCH   5   6
ATOM      6  C   UNL     1     -15.881  -2.650   9.519  1.00  0.00     0.000 C 
BRANCH   6   7
ATOM      7  C   UNL     1     -17.198  -3.100   8.865  1.00  0.00     0.000 C 
BRANCH   7   8
ATOM      8  C   UNL     1     -18.378  -3.115   9.855  1.00  0.00     0.006 C 
BRANCH   8   9
ATOM      9  C   UNL     1     -18.276  -2.074  10.982  1.00  0.00     0.053 C 
BRANCH   9  10
ATOM     10  C   UNL     1     -17.931  -2.701  12.298  1.00  0.00     0.041 C 
ATOM     11  O   UNL     1     -18.574  -3.702  12.710  1.00  0.00    -0.550 OA
ATOM     12  O   UNL     1     -16.921  -2.159  13.083  1.00  0.00    -0.550 OA
ENDBRANCH   9  10
ENDBRANCH   8   9
ENDBRANCH   7   8
ENDBRANCH   6   7
ENDBRANCH   5   6
ENDBRANCH   4   5
ENDBRANCH   3   4
ENDBRANCH   1   3
BRANCH   2  13
ATOM     13  C   UNL     1     -17.765   3.360   5.714  1.00  0.00     0.027 C 
BRANCH  13  14
ATOM     14  C   UNL     1     -18.757   4.497   6.005  1.00  0.00     0.004 C 
BRANCH  14  15
ATOM     15  C   UNL     1     -19.045   5.368   4.769  1.00  0.00     0.000 C 
BRANCH  15  16
ATOM     16  C   UNL     1     -17.991   6.455   4.480  1.00  0.00     0.000 C 
BRANCH  16  17
ATOM     17  C   UNL     1     -18.263   7.820   5.141  1.00  0.00    -0.000 C 
BRANCH  17  18
ATOM     18  C   UNL     1     -17.425   8.116   6.400  1.00  0.00    -0.000 C 
BRANCH  18  19
ATOM     19  C   UNL     1     -18.219   8.120   7.718  1.00  0.00    -0.003 C 
ATOM     20  C   UNL     1     -17.322   8.088   8.955  1.00  0.00     0.004 C 
ENDBRANCH  18  19
ENDBRANCH  17  18
ENDBRANCH  16  17
ENDBRANCH  15  16
ENDBRANCH  14  15
ENDBRANCH  13  14
ENDBRANCH   2  13
TORSDOF 15
ENDMDL
MODEL 3
REMARK VINA RESULT:     3.603      2.288      3.745
REMARK INTER + INTRA:           7.304
REMARK INTER:                   7.155
REMARK INTRA:                   0.149
REMARK UNBOUND:                 0.541
REMARK SMILES CCCCCCCCC=CCCCCCCCC(=O)[O-]
REMARK SMILES IDX 10 1 9 2 11 3 12 4 13 5 14 6 15 7 16 8 17 9 18 10 19 11
REMARK SMILES IDX 20 12 8 13 7 14 6 15 5 16 4 17 3 18 2 19 1 20
REMARK H PARENT
REMARK Flexibility Score: inf
ROOT
ATOM      1  C   UNL     1     -17.294   0.537   8.446  1.00  0.00    -0.031 C 
ATOM      2  C   UNL     1     -17.204   1.395   7.418  1.00  0.00    -0.031 C 
ENDROOT
BRANCH   1   3
ATOM      3  C   UNL     1     -16.232  -0.496   8.706  1.00  0.00     0.027 C 
BRANCH   3   4
ATOM      4  C   UNL     1     -16.649  -1.867   8.159  1.00  0.00     0.004 C 
BRANCH   4   5
ATOM      5  C   UNL     1     -17.568  -2.596   9.152  1.00  0.00     0.000 C 
BRANCH   5   6
ATOM      6  C   UNL     1     -17.834  -1.778  10.426  1.00  0.00     0.000 C 
BRANCH   6   7
ATOM      7  C   UNL     1     -18.685  -2.546  11.452  1.00  0.00     0.000 C 
BRANCH   7   8
ATOM      8  C   UNL     1     -17.840  -3.157  12.586  1.00  0.00     0.006 C 
BRANCH   8   9
ATOM      9  C   UNL     1     -16.454  -2.518  12.762  1.00  0.00     0.053 C 
BRANCH   9  10
ATOM     10  C   UNL     1     -15.370  -3.344  12.141  1.00  0.00     0.041 C 
ATOM     11  O   UNL     1     -15.174  -3.301  10.898  1.00  0.00    -0.550 OA
ATOM     12  O   UNL     1     -14.599  -4.187  12.931  1.00  0.00    -0.550 OA
ENDBRANCH   9  10
ENDBRANCH   8   9
ENDBRANCH   7   8
ENDBRANCH   6   7
ENDBRANCH   5   6
ENDBRANCH   4   5
ENDBRANCH   3   4
ENDBRANCH   1   3
BRANCH   2  13
ATOM     13  C   UNL     1     -18.267   2.428   7.161  1.00  0.00     0.027 C 
BRANCH  13  14
ATOM     14  C   UNL     1     -17.896   3.315   5.963  1.00  0.00     0.004 C 
BRANCH  14  15
ATOM     15  C   UNL     1     -18.857   4.504   5.781  1.00  0.00     0.000 C 
BRANCH  15  16
ATOM     16  C   UNL     1     -18.517   5.440   4.605  1.00  0.00     0.000 C 
BRANCH  16  17
ATOM     17  C   UNL     1     -17.889   6.789   5.005  1.00  0.00    -0.000 C 
BRANCH  17  18
ATOM     18  C   UNL     1     -17.511   7.709   3.827  1.00  0.00    -0.000 C 
BRANCH  18  19
ATOM     19  C   UNL     1     -18.611   7.882   2.765  1.00  0.00    -0.003 C 
ATOM     20  C   UNL     1     -18.053   8.075   1.355  1.00  0.00     0.004 C 
ENDBRANCH  18  19
ENDBRANCH  17  18
ENDBRANCH  16  17
ENDBRANCH  15  16
ENDBRANCH  14  15
ENDBRANCH  13  14
ENDBRANCH   2  13
TORSDOF 15
ENDMDL
MODEL 4
REMARK VINA RESULT:     3.805      2.856      4.982
REMARK INTER + INTRA:           7.682
REMARK INTER:                   8.256
REMARK INTRA:                  -0.573
REMARK UNBOUND:                 0.541
REMARK SMILES CCCCCCCCC=CCCCCCCCC(=O)[O-]
REMARK SMILES IDX 10 1 9 2 11 3 12 4 13 5 14 6 15 7 16 8 17 9 18 10 19 11
REMARK SMILES IDX 20 12 8 13 7 14 6 15 5 16 4 17 3 18 2 19 1 20
REMARK H PARENT
REMARK Flexibility Score: inf
ROOT
ATOM      1  C   UNL     1     -16.336  -0.784   8.959  1.00  0.00    -0.031 C 
ATOM      2  C   UNL     1     -17.276   0.097   8.586  1.00  0.00    -0.031 C 
ENDROOT
BRANCH   1   3
ATOM      3  C   UNL     1     -16.681  -2.022   9.742  1.00  0.00     0.027 C 
BRANCH   3   4
ATOM      4  C   UNL     1     -17.908  -1.788  10.633  1.00  0.00     0.004 C 
BRANCH   4   5
ATOM      5  C   UNL     1     -17.784  -2.571  11.950  1.00  0.00     0.000 C 
BRANCH   5   6
ATOM      6  C   UNL     1     -16.387  -2.453  12.582  1.00  0.00     0.000 C 
BRANCH   6   7
ATOM      7  C   UNL     1     -16.445  -2.121  14.083  1.00  0.00     0.000 C 
BRANCH   7   8
ATOM      8  C   UNL     1     -15.047  -1.932  14.704  1.00  0.00     0.006 C 
BRANCH   8   9
ATOM      9  C   UNL     1     -14.356  -3.240  15.123  1.00  0.00     0.053 C 
BRANCH   9  10
ATOM     10  C   UNL     1     -13.113  -2.989  15.918  1.00  0.00     0.041 C 
ATOM     11  O   UNL     1     -12.677  -1.816  16.060  1.00  0.00    -0.550 OA
ATOM     12  O   UNL     1     -12.417  -4.054  16.475  1.00  0.00    -0.550 OA
ENDBRANCH   9  10
ENDBRANCH   8   9
ENDBRANCH   7   8
ENDBRANCH   6   7
ENDBRANCH   5   6
ENDBRANCH   4   5
ENDBRANCH   3   4
ENDBRANCH   1   3
BRANCH   2  13
ATOM     13  C   UNL     1     -16.928   1.333   7.804  1.00  0.00     0.027 C 
BRANCH  13  14
ATOM     14  C   UNL     1     -18.113   1.791   6.939  1.00  0.00     0.004 C 
BRANCH  14  15
ATOM     15  C   UNL     1     -17.758   2.972   6.018  1.00  0.00     0.000 C 
BRANCH  15  16
ATOM     16  C   UNL     1     -18.665   4.209   6.169  1.00  0.00     0.000 C 
BRANCH  16  17
ATOM     17  C   UNL     1     -18.661   5.172   4.966  1.00  0.00    -0.000 C 
BRANCH  17  18
ATOM     18  C   UNL     1     -18.199   6.609   5.280  1.00  0.00    -0.000 C 
BRANCH  18  19
ATOM     19  C   UNL     1     -17.617   7.377   4.080  1.00  0.00    -0.003 C 
ATOM     20  C   UNL     1     -18.481   7.265   2.825  1.00  0.00     0.004 C 
ENDBRANCH  18  19
ENDBRANCH  17  18
ENDBRANCH  16  17
ENDBRANCH  15  16
ENDBRANCH  14  15
ENDBRANCH  13  14
ENDBRANCH   2  13
TORSDOF 15
ENDMDL
MODEL 5
REMARK VINA RESULT:     3.901     12.439     14.533
REMARK INTER + INTRA:           7.862
REMARK INTER:                   8.660
REMARK INTRA:                  -0.798
REMARK UNBOUND:                 0.541
REMARK SMILES CCCCCCCCC=CCCCCCCCC(=O)[O-]
REMARK SMILES IDX 10 1 9 2 11 3 12 4 13 5 14 6 15 7 16 8 17 9 18 10 19 11
REMARK SMILES IDX 20 12 8 13 7 14 6 15 5 16 4 17 3 18 2 19 1 20
REMARK H PARENT
REMARK Flexibility Score: inf
ROOT
ATOM      1  C   UNL     1      -7.058   4.618  16.314  1.00  0.00    -0.031 C 
ATOM      2  C   UNL     1      -8.046   3.712  16.387  1.00  0.00    -0.031 C 
ENDROOT
BRANCH   1   3
ATOM      3  C   UNL     1      -5.777   4.330  15.580  1.00  0.00     0.027 C 
BRANCH   3   4
ATOM      4  C   UNL     1      -6.031   3.452  14.348  1.00  0.00     0.004 C 
BRANCH   4   5
ATOM      5  C   UNL     1      -4.824   3.484  13.396  1.00  0.00     0.000 C 
BRANCH   5   6
ATOM      6  C   UNL     1      -5.226   3.736  11.934  1.00  0.00     0.000 C 
BRANCH   6   7
ATOM      7  C   UNL     1      -5.006   5.196  11.505  1.00  0.00     0.000 C 
BRANCH   7   8
ATOM      8  C   UNL     1      -4.022   5.944  12.426  1.00  0.00     0.006 C 
BRANCH   8   9
ATOM      9  C   UNL     1      -2.656   6.243  11.789  1.00  0.00     0.053 C 
BRANCH   9  10
ATOM     10  C   UNL     1      -1.534   6.099  12.769  1.00  0.00     0.041 C 
ATOM     11  O   UNL     1      -1.129   4.955  13.104  1.00  0.00    -0.550 OA
ATOM     12  O   UNL     1      -0.957   7.227  13.337  1.00  0.00    -0.550 OA
ENDBRANCH   9  10
ENDBRANCH   8   9
ENDBRANCH   7   8
ENDBRANCH   6   7
ENDBRANCH   5   6
ENDBRANCH   4   5
ENDBRANCH   3   4
ENDBRANCH   1   3
BRANCH   2  13
ATOM     13  C   UNL     1      -9.326   4.002  17.121  1.00  0.00     0.027 C 
BRANCH  13  14
ATOM     14  C   UNL     1     -10.227   4.946  16.309  1.00  0.00     0.004 C 
BRANCH  14  15
ATOM     15  C   UNL     1     -11.724   4.738  16.600  1.00  0.00     0.000 C 
BRANCH  15  16
ATOM     16  C   UNL     1     -12.406   5.897  17.354  1.00  0.00     0.000 C 
BRANCH  16  17
ATOM     17  C   UNL     1     -13.888   5.664  17.706  1.00  0.00    -0.000 C 
BRANCH  17  18
ATOM     18  C   UNL     1     -14.303   6.114  19.121  1.00  0.00    -0.000 C 
BRANCH  18  19
ATOM     19  C   UNL     1     -14.367   7.638  19.321  1.00  0.00    -0.003 C 
ATOM     20  C   UNL     1     -15.751   8.125  19.748  1.00  0.00     0.004 C 
ENDBRANCH  18  19
ENDBRANCH  17  18
ENDBRANCH  16  17
ENDBRANCH  15  16
ENDBRANCH  14  15
ENDBRANCH  13  14
ENDBRANCH   2  13
TORSDOF 15
ENDMDL
MODEL 6
REMARK VINA RESULT:     4.072      1.747      2.865
REMARK INTER + INTRA:           8.183
REMARK INTER:                   8.986
REMARK INTRA:                  -0.803
REMARK UNBOUND:                 0.541
REMARK SMILES CCCCCCCCC=CCCCCCCCC(=O)[O-]
REMARK SMILES IDX 10 1 9 2 11 3 12 4 13 5 14 6 15 7 16 8 17 9 18 10 19 11
REMARK SMILES IDX 20 12 8 13 7 14 6 15 5 16 4 17 3 18 2 19 1 20
REMARK H PARENT
REMARK Flexibility Score: inf
ROOT
ATOM      1  C   UNL     1     -18.206   1.561   7.338  1.00  0.00    -0.031 C 
ATOM      2  C   UNL     1     -17.457   2.497   6.736  1.00  0.00    -0.031 C 
ENDROOT
BRANCH   1   3
ATOM      3  C   UNL     1     -17.687   0.768   8.506  1.00  0.00     0.027 C 
BRANCH   3   4
ATOM      4  C   UNL     1     -16.159   0.641   8.455  1.00  0.00     0.004 C 
BRANCH   4   5
ATOM      5  C   UNL     1     -15.742  -0.712   7.856  1.00  0.00     0.000 C 
BRANCH   5   6
ATOM      6  C   UNL     1     -15.611  -1.816   8.917  1.00  0.00     0.000 C 
BRANCH   6   7
ATOM      7  C   UNL     1     -16.616  -2.961   8.704  1.00  0.00     0.000 C 
BRANCH   7   8
ATOM      8  C   UNL     1     -17.890  -2.800   9.555  1.00  0.00     0.006 C 
BRANCH   8   9
ATOM      9  C   UNL     1     -17.702  -1.959  10.828  1.00  0.00     0.053 C 
BRANCH   9  10
ATOM     10  C   UNL     1     -17.894  -2.770  12.072  1.00  0.00     0.041 C 
ATOM     11  O   UNL     1     -16.933  -2.948  12.867  1.00  0.00    -0.550 OA
ATOM     12  O   UNL     1     -19.125  -3.356  12.338  1.00  0.00    -0.550 OA
ENDBRANCH   9  10
ENDBRANCH   8   9
ENDBRANCH   7   8
ENDBRANCH   6   7
ENDBRANCH   5   6
ENDBRANCH   4   5
ENDBRANCH   3   4
ENDBRANCH   1   3
BRANCH   2  13
ATOM     13  C   UNL     1     -17.978   3.289   5.568  1.00  0.00     0.027 C 
BRANCH  13  14
ATOM     14  C   UNL     1     -18.630   4.599   6.036  1.00  0.00     0.004 C 
BRANCH  14  15
ATOM     15  C   UNL     1     -18.534   5.721   4.987  1.00  0.00     0.000 C 
BRANCH  15  16
ATOM     16  C   UNL     1     -18.081   7.088   5.537  1.00  0.00     0.000 C 
BRANCH  16  17
ATOM     17  C   UNL     1     -16.918   7.747   4.770  1.00  0.00    -0.000 C 
BRANCH  17  18
ATOM     18  C   UNL     1     -17.153   7.933   3.258  1.00  0.00    -0.000 C 
BRANCH  18  19
ATOM     19  C   UNL     1     -18.626   8.123   2.853  1.00  0.00    -0.003 C 
ATOM     20  C   UNL     1     -19.082   7.132   1.783  1.00  0.00     0.004 C 
ENDBRANCH  18  19
ENDBRANCH  17  18
ENDBRANCH  16  17
ENDBRANCH  15  16
ENDBRANCH  14  15
ENDBRANCH  13  14
ENDBRANCH   2  13
TORSDOF 15
ENDMDL
MODEL 7
REMARK VINA RESULT:     4.178     12.010     14.112
REMARK INTER + INTRA:           8.382
REMARK INTER:                   8.730
REMARK INTRA:                  -0.348
REMARK UNBOUND:                 0.541
REMARK SMILES CCCCCCCCC=CCCCCCCCC(=O)[O-]
REMARK SMILES IDX 10 1 9 2 11 3 12 4 13 5 14 6 15 7 16 8 17 9 18 10 19 11
REMARK SMILES IDX 20 12 8 13 7 14 6 15 5 16 4 17 3 18 2 19 1 20
REMARK H PARENT
REMARK Flexibility Score: inf
ROOT
ATOM      1  C   UNL     1      -6.509   3.779  15.292  1.00  0.00    -0.031 C 
ATOM      2  C   UNL     1      -5.648   4.215  14.361  1.00  0.00    -0.031 C 
ENDROOT
BRANCH   1   3
ATOM      3  C   UNL     1      -7.155   4.721  16.271  1.00  0.00     0.027 C 
BRANCH   3   4
ATOM      4  C   UNL     1      -8.109   3.973  17.213  1.00  0.00     0.004 C 
BRANCH   4   5
ATOM      5  C   UNL     1      -9.482   3.772  16.553  1.00  0.00     0.000 C 
BRANCH   5   6
ATOM      6  C   UNL     1     -10.261   5.087  16.391  1.00  0.00     0.000 C 
BRANCH   6   7
ATOM      7  C   UNL     1     -11.783   4.886  16.484  1.00  0.00     0.000 C 
BRANCH   7   8
ATOM      8  C   UNL     1     -12.451   5.852  17.482  1.00  0.00     0.006 C 
BRANCH   8   9
ATOM      9  C   UNL     1     -13.886   5.468  17.876  1.00  0.00     0.053 C 
BRANCH   9  10
ATOM     10  C   UNL     1     -14.502   6.469  18.804  1.00  0.00     0.041 C 
ATOM     11  O   UNL     1     -14.651   6.194  20.024  1.00  0.00    -0.550 OA
ATOM     12  O   UNL     1     -14.942   7.692  18.315  1.00  0.00    -0.550 OA
ENDBRANCH   9  10
ENDBRANCH   8   9
ENDBRANCH   7   8
ENDBRANCH   6   7
ENDBRANCH   5   6
ENDBRANCH   4   5
ENDBRANCH   3   4
ENDBRANCH   1   3
BRANCH   2  13
ATOM     13  C   UNL     1      -5.004   3.271  13.383  1.00  0.00     0.027 C 
BRANCH  13  14
ATOM     14  C   UNL     1      -5.225   3.739  11.936  1.00  0.00     0.004 C 
BRANCH  14  15
ATOM     15  C   UNL     1      -5.175   5.270  11.790  1.00  0.00     0.000 C 
BRANCH  15  16
ATOM     16  C   UNL     1      -3.794   5.903  12.051  1.00  0.00     0.000 C 
BRANCH  16  17
ATOM     17  C   UNL     1      -2.647   4.898  12.278  1.00  0.00    -0.000 C 
BRANCH  17  18
ATOM     18  C   UNL     1      -1.489   5.415  13.154  1.00  0.00    -0.000 C 
BRANCH  18  19
ATOM     19  C   UNL     1      -0.841   6.721  12.663  1.00  0.00    -0.003 C 
ATOM     20  C   UNL     1      -0.753   7.789  13.753  1.00  0.00     0.004 C 
ENDBRANCH  18  19
ENDBRANCH  17  18
ENDBRANCH  16  17
ENDBRANCH  15  16
ENDBRANCH  14  15
ENDBRANCH  13  14
ENDBRANCH   2  13
TORSDOF 15
ENDMDL
MODEL 8
REMARK VINA RESULT:     4.325      4.369      7.588
REMARK INTER + INTRA:           8.658
REMARK INTER:                   9.604
REMARK INTRA:                  -0.945
REMARK UNBOUND:                 0.541
REMARK SMILES CCCCCCCCC=CCCCCCCCC(=O)[O-]
REMARK SMILES IDX 10 1 9 2 11 3 12 4 13 5 14 6 15 7 16 8 17 9 18 10 19 11
REMARK SMILES IDX 20 12 8 13 7 14 6 15 5 16 4 17 3 18 2 19 1 20
REMARK H PARENT
REMARK Flexibility Score: inf
ROOT
ATOM      1  C   UNL     1     -18.609  -2.586  10.575  1.00  0.00    -0.031 C 
ATOM      2  C   UNL     1     -17.877  -3.400   9.798  1.00  0.00    -0.031 C 
ENDROOT
BRANCH   1   3
ATOM      3  C   UNL     1     -18.644  -2.745  12.070  1.00  0.00     0.027 C 
BRANCH   3   4
ATOM      4  C   UNL     1     -17.269  -3.152  12.616  1.00  0.00     0.004 C 
BRANCH   4   5
ATOM      5  C   UNL     1     -16.488  -1.922  13.105  1.00  0.00     0.000 C 
BRANCH   5   6
ATOM      6  C   UNL     1     -16.425  -1.829  14.638  1.00  0.00     0.000 C 
BRANCH   6   7
ATOM      7  C   UNL     1     -15.006  -1.530  15.152  1.00  0.00     0.000 C 
BRANCH   7   8
ATOM      8  C   UNL     1     -14.126  -2.792  15.233  1.00  0.00     0.006 C 
BRANCH   8   9
ATOM      9  C   UNL     1     -12.814  -2.603  16.011  1.00  0.00     0.053 C 
BRANCH   9  10
ATOM     10  C   UNL     1     -12.438  -3.827  16.788  1.00  0.00     0.041 C 
ATOM     11  O   UNL     1     -12.426  -4.954  16.226  1.00  0.00    -0.550 OA
ATOM     12  O   UNL     1     -12.132  -3.728  18.139  1.00  0.00    -0.550 OA
ENDBRANCH   9  10
ENDBRANCH   8   9
ENDBRANCH   7   8
ENDBRANCH   6   7
ENDBRANCH   5   6
ENDBRANCH   4   5
ENDBRANCH   3   4
ENDBRANCH   1   3
BRANCH   2  13
ATOM     13  C   UNL     1     -17.843  -3.239   8.303  1.00  0.00     0.027 C 
BRANCH  13  14
ATOM     14  C   UNL     1     -16.400  -3.101   7.795  1.00  0.00     0.004 C 
BRANCH  14  15
ATOM     15  C   UNL     1     -15.407  -2.734   8.911  1.00  0.00     0.000 C 
BRANCH  15  16
ATOM     16  C   UNL     1     -15.568  -1.311   9.482  1.00  0.00     0.000 C 
BRANCH  16  17
ATOM     17  C   UNL     1     -16.162  -0.278   8.504  1.00  0.00    -0.000 C 
BRANCH  17  18
ATOM     18  C   UNL     1     -17.524   0.310   8.924  1.00  0.00    -0.000 C 
BRANCH  18  19
ATOM     19  C   UNL     1     -17.863   1.670   8.288  1.00  0.00    -0.003 C 
ATOM     20  C   UNL     1     -17.441   1.765   6.823  1.00  0.00     0.004 C 
ENDBRANCH  18  19
ENDBRANCH  17  18
ENDBRANCH  16  17
ENDBRANCH  15  16
ENDBRANCH  14  15
ENDBRANCH  13  14
ENDBRANCH   2  13
TORSDOF 15
ENDMDL
MODEL 9
REMARK VINA RESULT:     4.351     11.774     13.942
REMARK INTER + INTRA:           8.708
REMARK INTER:                   9.539
REMARK INTRA:                  -0.831
REMARK UNBOUND:                 0.541
REMARK SMILES CCCCCCCCC=CCCCCCCCC(=O)[O-]
REMARK SMILES IDX 10 1 9 2 11 3 12 4 13 5 14 6 15 7 16 8 17 9 18 10 19 11
REMARK SMILES IDX 20 12 8 13 7 14 6 15 5 16 4 17 3 18 2 19 1 20
REMARK H PARENT
REMARK Flexibility Score: inf
ROOT
ATOM      1  C   UNL     1      -6.378   4.003  15.830  1.00  0.00    -0.031 C 
ATOM      2  C   UNL     1      -5.987   4.127  14.553  1.00  0.00    -0.031 C 
ENDROOT
BRANCH   1   3
ATOM      3  C   UNL     1      -7.538   4.788  16.379  1.00  0.00     0.027 C 
BRANCH   3   4
ATOM      4  C   UNL     1      -8.588   3.861  17.005  1.00  0.00     0.004 C 
BRANCH   4   5
ATOM      5  C   UNL     1      -9.933   3.986  16.274  1.00  0.00     0.000 C 
BRANCH   5   6
ATOM      6  C   UNL     1     -10.714   5.248  16.676  1.00  0.00     0.000 C 
BRANCH   6   7
ATOM      7  C   UNL     1     -12.228   4.998  16.773  1.00  0.00     0.000 C 
BRANCH   7   8
ATOM      8  C   UNL     1     -12.977   6.151  17.470  1.00  0.00     0.006 C 
BRANCH   8   9
ATOM      9  C   UNL     1     -14.218   5.714  18.265  1.00  0.00     0.053 C 
BRANCH   9  10
ATOM     10  C   UNL     1     -14.612   6.728  19.294  1.00  0.00     0.041 C 
ATOM     11  O   UNL     1     -13.943   7.787  19.429  1.00  0.00    -0.550 OA
ATOM     12  O   UNL     1     -15.699   6.490  20.125  1.00  0.00    -0.550 OA
ENDBRANCH   9  10
ENDBRANCH   8   9
ENDBRANCH   7   8
ENDBRANCH   6   7
ENDBRANCH   5   6
ENDBRANCH   4   5
ENDBRANCH   3   4
ENDBRANCH   1   3
BRANCH   2  13
ATOM     13  C   UNL     1      -4.828   3.340  14.006  1.00  0.00     0.027 C 
BRANCH  13  14
ATOM     14  C   UNL     1      -4.945   3.169  12.484  1.00  0.00     0.004 C 
BRANCH  14  15
ATOM     15  C   UNL     1      -5.758   4.293  11.818  1.00  0.00     0.000 C 
BRANCH  15  16
ATOM     16  C   UNL     1      -4.951   5.558  11.463  1.00  0.00     0.000 C 
BRANCH  16  17
ATOM     17  C   UNL     1      -3.432   5.449  11.700  1.00  0.00    -0.000 C 
BRANCH  17  18
ATOM     18  C   UNL     1      -2.778   6.696  12.327  1.00  0.00    -0.000 C 
BRANCH  18  19
ATOM     19  C   UNL     1      -1.382   6.459  12.930  1.00  0.00    -0.003 C 
ATOM     20  C   UNL     1      -1.128   4.996  13.289  1.00  0.00     0.004 C 
ENDBRANCH  18  19
ENDBRANCH  17  18
ENDBRANCH  16  17
ENDBRANCH  15  16
ENDBRANCH  14  15
ENDBRANCH  13  14
ENDBRANCH   2  13
TORSDOF 15
ENDMDL
