MODEL 1
REMARK VINA RESULT:    -7.461      0.000      0.000
REMARK INTER + INTRA:         -14.302
REMARK INTER:                 -13.131
REMARK INTRA:                  -1.171
REMARK UNBOUND:                -1.171
REMARK SMILES CCCCCCC=CCCCCCCCC(=O)[O-]
REMARK SMILES IDX 10 1 11 2 12 3 13 4 14 5 15 6 16 7 17 8 18 9 9 10 8 11 7 12
REMARK SMILES IDX 6 13 5 14 4 15 3 16 2 17 1 18
REMARK H PARENT
REMARK Flexibility Score: inf
ROOT
ATOM      1  C   UNL     1       3.255   0.246  -4.307  1.00  0.00     0.004 C 
ENDROOT
BRANCH   1   2
ATOM      2  C   UNL     1       3.599  -0.634  -3.095  1.00  0.00     0.000 C 
BRANCH   2   3
ATOM      3  C   UNL     1       5.097  -0.974  -3.006  1.00  0.00     0.000 C 
BRANCH   3   4
ATOM      4  C   UNL     1       5.417  -2.471  -2.804  1.00  0.00     0.000 C 
BRANCH   4   5
ATOM      5  C   UNL     1       4.191  -3.391  -2.658  1.00  0.00     0.006 C 
BRANCH   5   6
ATOM      6  C   UNL     1       4.516  -4.867  -2.915  1.00  0.00     0.053 C 
BRANCH   6   7
ATOM      7  C   UNL     1       3.273  -5.620  -3.271  1.00  0.00     0.041 C 
ATOM      8  O   UNL     1       3.144  -6.124  -4.418  1.00  0.00    -0.550 OA
ATOM      9  O   UNL     1       2.278  -5.811  -2.319  1.00  0.00    -0.550 OA
ENDBRANCH   6   7
ENDBRANCH   5   6
ENDBRANCH   4   5
ENDBRANCH   3   4
ENDBRANCH   2   3
ENDBRANCH   1   2
BRANCH   1  10
ATOM     10  C   UNL     1       4.504   0.623  -5.116  1.00  0.00     0.027 C 
BRANCH  10  11
ATOM     11  C   UNL     1       4.309   0.365  -6.593  1.00  0.00    -0.031 C 
ATOM     12  C   UNL     1       4.456   1.285  -7.565  1.00  0.00    -0.031 C 
BRANCH  12  13
ATOM     13  C   UNL     1       4.898   2.709  -7.345  1.00  0.00     0.027 C 
BRANCH  13  14
ATOM     14  C   UNL     1       3.693   3.632  -7.124  1.00  0.00     0.004 C 
BRANCH  14  15
ATOM     15  C   UNL     1       3.661   4.171  -5.688  1.00  0.00     0.000 C 
BRANCH  15  16
ATOM     16  C   UNL     1       5.050   4.177  -5.022  1.00  0.00    -0.000 C 
BRANCH  16  17
ATOM     17  C   UNL     1       5.087   4.791  -3.612  1.00  0.00    -0.003 C 
ATOM     18  C   UNL     1       6.265   5.743  -3.407  1.00  0.00     0.004 C 
ENDBRANCH  16  17
ENDBRANCH  15  16
ENDBRANCH  14  15
ENDBRANCH  13  14
ENDBRANCH  12  13
ENDBRANCH  10  11
ENDBRANCH   1  10
TORSDOF 13
ENDMDL
MODEL 2
REMARK VINA RESULT:    -7.442      2.880      7.230
REMARK INTER + INTRA:         -14.268
REMARK INTER:                 -13.141
REMARK INTRA:                  -1.127
REMARK UNBOUND:                -1.171
REMARK SMILES CCCCCCC=CCCCCCCCC(=O)[O-]
REMARK SMILES IDX 10 1 11 2 12 3 13 4 14 5 15 6 16 7 17 8 18 9 9 10 8 11 7 12
REMARK SMILES IDX 6 13 5 14 4 15 3 16 2 17 1 18
REMARK H PARENT
REMARK Flexibility Score: inf
ROOT
ATOM      1  C   UNL     1       4.138   1.855  -5.085  1.00  0.00     0.004 C 
ENDROOT
BRANCH   1   2
ATOM      2  C   UNL     1       4.304   2.262  -6.558  1.00  0.00     0.000 C 
BRANCH   2   3
ATOM      3  C   UNL     1       3.083   1.897  -7.422  1.00  0.00     0.000 C 
BRANCH   3   4
ATOM      4  C   UNL     1       1.759   2.569  -6.999  1.00  0.00     0.000 C 
BRANCH   4   5
ATOM      5  C   UNL     1       0.539   1.632  -6.936  1.00  0.00     0.006 C 
BRANCH   5   6
ATOM      6  C   UNL     1       0.781   0.391  -6.068  1.00  0.00     0.053 C 
BRANCH   6   7
ATOM      7  C   UNL     1      -0.406  -0.518  -6.114  1.00  0.00     0.041 C 
ATOM      8  O   UNL     1      -1.002  -0.837  -5.052  1.00  0.00    -0.550 OA
ATOM      9  O   UNL     1      -0.887  -0.972  -7.337  1.00  0.00    -0.550 OA
ENDBRANCH   6   7
ENDBRANCH   5   6
ENDBRANCH   4   5
ENDBRANCH   3   4
ENDBRANCH   2   3
ENDBRANCH   1   2
BRANCH   1  10
ATOM     10  C   UNL     1       4.312   0.344  -4.882  1.00  0.00     0.027 C 
BRANCH  10  11
ATOM     11  C   UNL     1       3.692  -0.119  -3.583  1.00  0.00    -0.031 C 
ATOM     12  C   UNL     1       4.307  -0.886  -2.663  1.00  0.00    -0.031 C 
BRANCH  12  13
ATOM     13  C   UNL     1       5.735  -1.360  -2.749  1.00  0.00     0.027 C 
BRANCH  13  14
ATOM     14  C   UNL     1       5.836  -2.862  -2.451  1.00  0.00     0.004 C 
BRANCH  14  15
ATOM     15  C   UNL     1       4.468  -3.546  -2.573  1.00  0.00     0.000 C 
BRANCH  15  16
ATOM     16  C   UNL     1       4.575  -5.023  -2.993  1.00  0.00    -0.000 C 
BRANCH  16  17
ATOM     17  C   UNL     1       3.269  -5.640  -3.523  1.00  0.00    -0.003 C 
ATOM     18  C   UNL     1       2.212  -5.825  -2.435  1.00  0.00     0.004 C 
ENDBRANCH  16  17
ENDBRANCH  15  16
ENDBRANCH  14  15
ENDBRANCH  13  14
ENDBRANCH  12  13
ENDBRANCH  10  11
ENDBRANCH   1  10
TORSDOF 13
ENDMDL
MODEL 3
REMARK VINA RESULT:    -7.440      4.234      8.441
REMARK INTER + INTRA:         -14.266
REMARK INTER:                 -13.485
REMARK INTRA:                  -0.780
REMARK UNBOUND:                -1.171
REMARK SMILES CCCCCCC=CCCCCCCCC(=O)[O-]
REMARK SMILES IDX 10 1 11 2 12 3 13 4 14 5 15 6 16 7 17 8 18 9 9 10 8 11 7 12
REMARK SMILES IDX 6 13 5 14 4 15 3 16 2 17 1 18
REMARK H PARENT
REMARK Flexibility Score: inf
ROOT
ATOM      1  C   UNL     1       3.576   0.671  -5.922  1.00  0.00     0.004 C 
ENDROOT
BRANCH   1   2
ATOM      2  C   UNL     1       4.445   1.062  -7.128  1.00  0.00     0.000 C 
BRANCH   2   3
ATOM      3  C   UNL     1       5.168   2.407  -6.935  1.00  0.00     0.000 C 
BRANCH   3   4
ATOM      4  C   UNL     1       4.455   3.404  -5.997  1.00  0.00     0.000 C 
BRANCH   4   5
ATOM      5  C   UNL     1       5.379   4.401  -5.274  1.00  0.00     0.006 C 
BRANCH   5   6
ATOM      6  C   UNL     1       4.962   4.659  -3.821  1.00  0.00     0.053 C 
BRANCH   6   7
ATOM      7  C   UNL     1       5.933   5.582  -3.156  1.00  0.00     0.041 C 
ATOM      8  O   UNL     1       6.117   5.519  -1.911  1.00  0.00    -0.550 OA
ATOM      9  O   UNL     1       6.674   6.479  -3.916  1.00  0.00    -0.550 OA
ENDBRANCH   6   7
ENDBRANCH   5   6
ENDBRANCH   4   5
ENDBRANCH   3   4
ENDBRANCH   2   3
ENDBRANCH   1   2
BRANCH   1  10
ATOM     10  C   UNL     1       4.422   0.193  -4.734  1.00  0.00     0.027 C 
BRANCH  10  11
ATOM     11  C   UNL     1       3.558  -0.202  -3.559  1.00  0.00    -0.031 C 
ATOM     12  C   UNL     1       3.986  -0.880  -2.477  1.00  0.00    -0.031 C 
BRANCH  12  13
ATOM     13  C   UNL     1       5.412  -1.305  -2.234  1.00  0.00     0.027 C 
BRANCH  13  14
ATOM     14  C   UNL     1       5.652  -2.737  -2.731  1.00  0.00     0.004 C 
BRANCH  14  15
ATOM     15  C   UNL     1       4.423  -3.623  -2.488  1.00  0.00     0.000 C 
BRANCH  15  16
ATOM     16  C   UNL     1       4.597  -5.049  -3.043  1.00  0.00    -0.000 C 
BRANCH  16  17
ATOM     17  C   UNL     1       3.293  -5.732  -3.490  1.00  0.00    -0.003 C 
ATOM     18  C   UNL     1       2.199  -5.683  -2.424  1.00  0.00     0.004 C 
ENDBRANCH  16  17
ENDBRANCH  15  16
ENDBRANCH  14  15
ENDBRANCH  13  14
ENDBRANCH  12  13
ENDBRANCH  10  11
ENDBRANCH   1  10
TORSDOF 13
ENDMDL
MODEL 4
REMARK VINA RESULT:    -7.248      1.934      3.380
REMARK INTER + INTRA:         -13.927
REMARK INTER:                 -12.560
REMARK INTRA:                  -1.367
REMARK UNBOUND:                -1.171
REMARK SMILES CCCCCCC=CCCCCCCCC(=O)[O-]
REMARK SMILES IDX 10 1 11 2 12 3 13 4 14 5 15 6 16 7 17 8 18 9 9 10 8 11 7 12
REMARK SMILES IDX 6 13 5 14 4 15 3 16 2 17 1 18
REMARK H PARENT
REMARK Flexibility Score: inf
ROOT
ATOM      1  C   UNL     1       3.543  -0.147  -3.443  1.00  0.00     0.004 C 
ENDROOT
BRANCH   1   2
ATOM      2  C   UNL     1       4.337  -0.746  -2.270  1.00  0.00     0.000 C 
BRANCH   2   3
ATOM      3  C   UNL     1       5.647  -1.419  -2.716  1.00  0.00     0.000 C 
BRANCH   3   4
ATOM      4  C   UNL     1       5.716  -2.941  -2.472  1.00  0.00     0.000 C 
BRANCH   4   5
ATOM      5  C   UNL     1       4.376  -3.689  -2.607  1.00  0.00     0.006 C 
BRANCH   5   6
ATOM      6  C   UNL     1       4.550  -5.163  -2.994  1.00  0.00     0.053 C 
BRANCH   6   7
ATOM      7  C   UNL     1       3.230  -5.764  -3.363  1.00  0.00     0.041 C 
ATOM      8  O   UNL     1       2.296  -5.810  -2.520  1.00  0.00    -0.550 OA
ATOM      9  O   UNL     1       3.015  -6.227  -4.656  1.00  0.00    -0.550 OA
ENDBRANCH   6   7
ENDBRANCH   5   6
ENDBRANCH   4   5
ENDBRANCH   3   4
ENDBRANCH   2   3
ENDBRANCH   1   2
BRANCH   1  10
ATOM     10  C   UNL     1       4.384  -0.062  -4.723  1.00  0.00     0.027 C 
BRANCH  10  11
ATOM     11  C   UNL     1       4.490   1.360  -5.225  1.00  0.00    -0.031 C 
ATOM     12  C   UNL     1       4.436   1.729  -6.519  1.00  0.00    -0.031 C 
BRANCH  12  13
ATOM     13  C   UNL     1       4.202   0.790  -7.676  1.00  0.00     0.027 C 
BRANCH  13  14
ATOM     14  C   UNL     1       2.790   0.967  -8.251  1.00  0.00     0.004 C 
BRANCH  14  15
ATOM     15  C   UNL     1       2.091   2.191  -7.644  1.00  0.00     0.000 C 
BRANCH  15  16
ATOM     16  C   UNL     1       0.781   1.832  -6.920  1.00  0.00    -0.000 C 
BRANCH  16  17
ATOM     17  C   UNL     1       0.799   0.480  -6.186  1.00  0.00    -0.003 C 
ATOM     18  C   UNL     1      -0.363  -0.430  -6.584  1.00  0.00     0.004 C 
ENDBRANCH  16  17
ENDBRANCH  15  16
ENDBRANCH  14  15
ENDBRANCH  13  14
ENDBRANCH  12  13
ENDBRANCH  10  11
ENDBRANCH   1  10
TORSDOF 13
ENDMDL
MODEL 5
REMARK VINA RESULT:    -7.211      3.739      7.871
REMARK INTER + INTRA:         -13.863
REMARK INTER:                 -12.625
REMARK INTRA:                  -1.238
REMARK UNBOUND:                -1.171
REMARK SMILES CCCCCCC=CCCCCCCCC(=O)[O-]
REMARK SMILES IDX 10 1 11 2 12 3 13 4 14 5 15 6 16 7 17 8 18 9 9 10 8 11 7 12
REMARK SMILES IDX 6 13 5 14 4 15 3 16 2 17 1 18
REMARK H PARENT
REMARK Flexibility Score: inf
ROOT
ATOM      1  C   UNL     1       2.139   0.757  -5.883  1.00  0.00     0.004 C 
ENDROOT
BRANCH   1   2
ATOM      2  C   UNL     1       2.431   0.293  -7.319  1.00  0.00     0.000 C 
BRANCH   2   3
ATOM      3  C   UNL     1       3.927   0.358  -7.677  1.00  0.00     0.000 C 
BRANCH   3   4
ATOM      4  C   UNL     1       4.289   1.363  -8.791  1.00  0.00     0.000 C 
BRANCH   4   5
ATOM      5  C   UNL     1       4.710   2.762  -8.303  1.00  0.00     0.006 C 
BRANCH   5   6
ATOM      6  C   UNL     1       5.295   2.749  -6.885  1.00  0.00     0.053 C 
BRANCH   6   7
ATOM      7  C   UNL     1       4.584   3.740  -6.019  1.00  0.00     0.041 C 
ATOM      8  O   UNL     1       5.199   4.326  -5.089  1.00  0.00    -0.550 OA
ATOM      9  O   UNL     1       3.254   4.057  -6.271  1.00  0.00    -0.550 OA
ENDBRANCH   6   7
ENDBRANCH   5   6
ENDBRANCH   4   5
ENDBRANCH   3   4
ENDBRANCH   2   3
ENDBRANCH   1   2
BRANCH   1  10
ATOM     10  C   UNL     1       3.318   0.486  -4.939  1.00  0.00     0.027 C 
BRANCH  10  11
ATOM     11  C   UNL     1       2.878  -0.252  -3.696  1.00  0.00    -0.031 C 
ATOM     12  C   UNL     1       3.690  -0.962  -2.890  1.00  0.00    -0.031 C 
BRANCH  12  13
ATOM     13  C   UNL     1       5.183  -1.088  -3.063  1.00  0.00     0.027 C 
BRANCH  13  14
ATOM     14  C   UNL     1       5.654  -2.516  -2.758  1.00  0.00     0.004 C 
BRANCH  14  15
ATOM     15  C   UNL     1       4.465  -3.451  -2.499  1.00  0.00     0.000 C 
BRANCH  15  16
ATOM     16  C   UNL     1       4.721  -4.891  -2.982  1.00  0.00    -0.000 C 
BRANCH  16  17
ATOM     17  C   UNL     1       3.460  -5.661  -3.411  1.00  0.00    -0.003 C 
ATOM     18  C   UNL     1       2.331  -5.576  -2.385  1.00  0.00     0.004 C 
ENDBRANCH  16  17
ENDBRANCH  15  16
ENDBRANCH  14  15
ENDBRANCH  13  14
ENDBRANCH  12  13
ENDBRANCH  10  11
ENDBRANCH   1  10
TORSDOF 13
ENDMDL
MODEL 6
REMARK VINA RESULT:    -7.167      1.173      2.068
REMARK INTER + INTRA:         -13.784
REMARK INTER:                 -12.473
REMARK INTRA:                  -1.312
REMARK UNBOUND:                -1.171
REMARK SMILES CCCCCCC=CCCCCCCCC(=O)[O-]
REMARK SMILES IDX 10 1 11 2 12 3 13 4 14 5 15 6 16 7 17 8 18 9 9 10 8 11 7 12
REMARK SMILES IDX 6 13 5 14 4 15 3 16 2 17 1 18
REMARK H PARENT
REMARK Flexibility Score: inf
ROOT
ATOM      1  C   UNL     1       2.914  -0.291  -3.680  1.00  0.00     0.004 C 
ENDROOT
BRANCH   1   2
ATOM      2  C   UNL     1       4.118  -0.422  -2.734  1.00  0.00     0.000 C 
BRANCH   2   3
ATOM      3  C   UNL     1       5.233  -1.318  -3.302  1.00  0.00     0.000 C 
BRANCH   3   4
ATOM      4  C   UNL     1       5.427  -2.663  -2.569  1.00  0.00     0.000 C 
BRANCH   4   5
ATOM      5  C   UNL     1       4.190  -3.580  -2.541  1.00  0.00     0.006 C 
BRANCH   5   6
ATOM      6  C   UNL     1       4.509  -5.028  -2.935  1.00  0.00     0.053 C 
BRANCH   6   7
ATOM      7  C   UNL     1       3.274  -5.720  -3.419  1.00  0.00     0.041 C 
ATOM      8  O   UNL     1       3.211  -6.148  -4.602  1.00  0.00    -0.550 OA
ATOM      9  O   UNL     1       2.213  -5.940  -2.549  1.00  0.00    -0.550 OA
ENDBRANCH   6   7
ENDBRANCH   5   6
ENDBRANCH   4   5
ENDBRANCH   3   4
ENDBRANCH   2   3
ENDBRANCH   1   2
BRANCH   1  10
ATOM     10  C   UNL     1       3.300   0.361  -5.015  1.00  0.00     0.027 C 
BRANCH  10  11
ATOM     11  C   UNL     1       2.084   0.644  -5.868  1.00  0.00    -0.031 C 
ATOM     12  C   UNL     1       2.043   0.547  -7.210  1.00  0.00    -0.031 C 
BRANCH  12  13
ATOM     13  C   UNL     1       3.185   0.085  -8.079  1.00  0.00     0.027 C 
BRANCH  13  14
ATOM     14  C   UNL     1       3.657   1.207  -9.012  1.00  0.00     0.004 C 
BRANCH  14  15
ATOM     15  C   UNL     1       4.894   1.919  -8.445  1.00  0.00     0.000 C 
BRANCH  15  16
ATOM     16  C   UNL     1       4.539   3.192  -7.654  1.00  0.00    -0.000 C 
BRANCH  16  17
ATOM     17  C   UNL     1       5.270   3.341  -6.309  1.00  0.00    -0.003 C 
ATOM     18  C   UNL     1       4.385   3.930  -5.211  1.00  0.00     0.004 C 
ENDBRANCH  16  17
ENDBRANCH  15  16
ENDBRANCH  14  15
ENDBRANCH  13  14
ENDBRANCH  12  13
ENDBRANCH  10  11
ENDBRANCH   1  10
TORSDOF 13
ENDMDL
MODEL 7
REMARK VINA RESULT:    -7.111      2.099      3.304
REMARK INTER + INTRA:         -13.686
REMARK INTER:                 -12.231
REMARK INTRA:                  -1.456
REMARK UNBOUND:                -1.171
REMARK SMILES CCCCCCC=CCCCCCCCC(=O)[O-]
REMARK SMILES IDX 10 1 11 2 12 3 13 4 14 5 15 6 16 7 17 8 18 9 9 10 8 11 7 12
REMARK SMILES IDX 6 13 5 14 4 15 3 16 2 17 1 18
REMARK H PARENT
REMARK Flexibility Score: inf
ROOT
ATOM      1  C   UNL     1       4.484   0.178  -4.573  1.00  0.00     0.004 C 
ENDROOT
BRANCH   1   2
ATOM      2  C   UNL     1       3.850  -0.455  -3.324  1.00  0.00     0.000 C 
BRANCH   2   3
ATOM      3  C   UNL     1       4.890  -1.061  -2.365  1.00  0.00     0.000 C 
BRANCH   3   4
ATOM      4  C   UNL     1       5.290  -2.520  -2.672  1.00  0.00     0.000 C 
BRANCH   4   5
ATOM      5  C   UNL     1       4.182  -3.566  -2.448  1.00  0.00     0.006 C 
BRANCH   5   6
ATOM      6  C   UNL     1       4.499  -4.921  -3.092  1.00  0.00     0.053 C 
BRANCH   6   7
ATOM      7  C   UNL     1       3.240  -5.695  -3.324  1.00  0.00     0.041 C 
ATOM      8  O   UNL     1       2.351  -5.742  -2.433  1.00  0.00    -0.550 OA
ATOM      9  O   UNL     1       3.024  -6.323  -4.545  1.00  0.00    -0.550 OA
ENDBRANCH   6   7
ENDBRANCH   5   6
ENDBRANCH   4   5
ENDBRANCH   3   4
ENDBRANCH   2   3
ENDBRANCH   1   2
BRANCH   1  10
ATOM     10  C   UNL     1       3.570   1.235  -5.209  1.00  0.00     0.027 C 
BRANCH  10  11
ATOM     11  C   UNL     1       2.363   0.604  -5.865  1.00  0.00    -0.031 C 
ATOM     12  C   UNL     1       1.458   1.262  -6.615  1.00  0.00    -0.031 C 
BRANCH  12  13
ATOM     13  C   UNL     1       1.533   2.724  -6.972  1.00  0.00     0.027 C 
BRANCH  13  14
ATOM     14  C   UNL     1       2.115   2.919  -8.378  1.00  0.00     0.004 C 
BRANCH  14  15
ATOM     15  C   UNL     1       3.609   3.266  -8.318  1.00  0.00     0.000 C 
BRANCH  15  16
ATOM     16  C   UNL     1       4.511   2.097  -8.758  1.00  0.00    -0.000 C 
BRANCH  16  17
ATOM     17  C   UNL     1       3.795   0.995  -9.557  1.00  0.00    -0.003 C 
ATOM     18  C   UNL     1       4.113  -0.412  -9.051  1.00  0.00     0.004 C 
ENDBRANCH  16  17
ENDBRANCH  15  16
ENDBRANCH  14  15
ENDBRANCH  13  14
ENDBRANCH  12  13
ENDBRANCH  10  11
ENDBRANCH   1  10
TORSDOF 13
ENDMDL
MODEL 8
REMARK VINA RESULT:    -7.080      4.149      8.176
REMARK INTER + INTRA:         -13.631
REMARK INTER:                 -12.641
REMARK INTRA:                  -0.990
REMARK UNBOUND:                -1.171
REMARK SMILES CCCCCCC=CCCCCCCCC(=O)[O-]
REMARK SMILES IDX 10 1 11 2 12 3 13 4 14 5 15 6 16 7 17 8 18 9 9 10 8 11 7 12
REMARK SMILES IDX 6 13 5 14 4 15 3 16 2 17 1 18
REMARK H PARENT
REMARK Flexibility Score: inf
ROOT
ATOM      1  C   UNL     1       3.305   0.774  -5.307  1.00  0.00     0.004 C 
ENDROOT
BRANCH   1   2
ATOM      2  C   UNL     1       1.887   0.761  -5.900  1.00  0.00     0.000 C 
BRANCH   2   3
ATOM      3  C   UNL     1       1.862   0.359  -7.386  1.00  0.00     0.000 C 
BRANCH   3   4
ATOM      4  C   UNL     1       3.197  -0.183  -7.939  1.00  0.00     0.000 C 
BRANCH   4   5
ATOM      5  C   UNL     1       3.771   0.589  -9.142  1.00  0.00     0.006 C 
BRANCH   5   6
ATOM      6  C   UNL     1       3.584   2.107  -9.022  1.00  0.00     0.053 C 
BRANCH   6   7
ATOM      7  C   UNL     1       4.885   2.767  -8.691  1.00  0.00     0.041 C 
ATOM      8  O   UNL     1       5.611   3.234  -9.609  1.00  0.00    -0.550 OA
ATOM      9  O   UNL     1       5.273   2.915  -7.365  1.00  0.00    -0.550 OA
ENDBRANCH   6   7
ENDBRANCH   5   6
ENDBRANCH   4   5
ENDBRANCH   3   4
ENDBRANCH   2   3
ENDBRANCH   1   2
BRANCH   1  10
ATOM     10  C   UNL     1       3.406  -0.085  -4.040  1.00  0.00     0.027 C 
BRANCH  10  11
ATOM     11  C   UNL     1       4.837  -0.214  -3.568  1.00  0.00    -0.031 C 
ATOM     12  C   UNL     1       5.333  -1.261  -2.882  1.00  0.00    -0.031 C 
BRANCH  12  13
ATOM     13  C   UNL     1       4.558  -2.503  -2.522  1.00  0.00     0.027 C 
BRANCH  13  14
ATOM     14  C   UNL     1       5.472  -3.736  -2.505  1.00  0.00     0.004 C 
BRANCH  14  15
ATOM     15  C   UNL     1       4.711  -4.998  -2.932  1.00  0.00     0.000 C 
BRANCH  15  16
ATOM     16  C   UNL     1       3.216  -4.946  -2.565  1.00  0.00    -0.000 C 
BRANCH  16  17
ATOM     17  C   UNL     1       2.344  -6.007  -3.257  1.00  0.00    -0.003 C 
ATOM     18  C   UNL     1       2.929  -6.487  -4.585  1.00  0.00     0.004 C 
ENDBRANCH  16  17
ENDBRANCH  15  16
ENDBRANCH  14  15
ENDBRANCH  13  14
ENDBRANCH  12  13
ENDBRANCH  10  11
ENDBRANCH   1  10
TORSDOF 13
ENDMDL
MODEL 9
REMARK VINA RESULT:    -6.918      2.365      3.646
REMARK INTER + INTRA:         -13.347
REMARK INTER:                 -11.766
REMARK INTRA:                  -1.581
REMARK UNBOUND:                -1.171
REMARK SMILES CCCCCCC=CCCCCCCCC(=O)[O-]
REMARK SMILES IDX 10 1 11 2 12 3 13 4 14 5 15 6 16 7 17 8 18 9 9 10 8 11 7 12
REMARK SMILES IDX 6 13 5 14 4 15 3 16 2 17 1 18
REMARK H PARENT
REMARK Flexibility Score: inf
ROOT
ATOM      1  C   UNL     1       0.780   0.917  -6.746  1.00  0.00     0.004 C 
ENDROOT
BRANCH   1   2
ATOM      2  C   UNL     1       2.043   0.319  -7.386  1.00  0.00     0.000 C 
BRANCH   2   3
ATOM      3  C   UNL     1       3.257   0.329  -6.439  1.00  0.00     0.000 C 
BRANCH   3   4
ATOM      4  C   UNL     1       2.914   0.295  -4.935  1.00  0.00     0.000 C 
BRANCH   4   5
ATOM      5  C   UNL     1       4.121   0.398  -3.984  1.00  0.00     0.006 C 
BRANCH   5   6
ATOM      6  C   UNL     1       3.979  -0.487  -2.739  1.00  0.00     0.053 C 
BRANCH   6   7
ATOM      7  C   UNL     1       5.033  -1.548  -2.730  1.00  0.00     0.041 C 
ATOM      8  O   UNL     1       4.735  -2.740  -3.007  1.00  0.00    -0.550 OA
ATOM      9  O   UNL     1       6.356  -1.213  -2.467  1.00  0.00    -0.550 OA
ENDBRANCH   6   7
ENDBRANCH   5   6
ENDBRANCH   4   5
ENDBRANCH   3   4
ENDBRANCH   2   3
ENDBRANCH   1   2
BRANCH   1  10
ATOM     10  C   UNL     1       0.737   2.446  -6.879  1.00  0.00     0.027 C 
BRANCH  10  11
ATOM     11  C   UNL     1       1.313   2.905  -8.199  1.00  0.00    -0.031 C 
ATOM     12  C   UNL     1       2.445   3.620  -8.341  1.00  0.00    -0.031 C 
BRANCH  12  13
ATOM     13  C   UNL     1       3.356   4.027  -7.212  1.00  0.00     0.027 C 
BRANCH  13  14
ATOM     14  C   UNL     1       4.740   3.381  -7.359  1.00  0.00     0.004 C 
BRANCH  14  15
ATOM     15  C   UNL     1       5.448   3.266  -6.002  1.00  0.00     0.000 C 
BRANCH  15  16
ATOM     16  C   UNL     1       4.882   4.239  -4.951  1.00  0.00    -0.000 C 
BRANCH  16  17
ATOM     17  C   UNL     1       5.931   5.133  -4.268  1.00  0.00    -0.003 C 
ATOM     18  C   UNL     1       5.590   5.447  -2.811  1.00  0.00     0.004 C 
ENDBRANCH  16  17
ENDBRANCH  15  16
ENDBRANCH  14  15
ENDBRANCH  13  14
ENDBRANCH  12  13
ENDBRANCH  10  11
ENDBRANCH   1  10
TORSDOF 13
ENDMDL
