MODEL 1
REMARK VINA RESULT:    -2.998      0.000      0.000
REMARK INTER + INTRA:          -7.447
REMARK INTER:                  -5.277
REMARK INTRA:                  -2.170
REMARK UNBOUND:                -2.170
REMARK SMILES CCCCCCCCCCCCCCC(=O)[O-]
REMARK SMILES IDX 9 1 10 2 11 3 12 4 13 5 14 6 15 7 16 8 17 9 8 10 7 11 6 12
REMARK SMILES IDX 5 13 4 14 3 15 2 16 1 17
REMARK H PARENT
REMARK Flexibility Score: inf
ROOT
ATOM      1  C   UNL     1      28.675  59.956  87.118  1.00  0.00     0.000 C 
ENDROOT
BRANCH   1   2
ATOM      2  C   UNL     1      28.941  58.507  86.669  1.00  0.00     0.000 C 
BRANCH   2   3
ATOM      3  C   UNL     1      30.035  58.414  85.595  1.00  0.00     0.000 C 
BRANCH   3   4
ATOM      4  C   UNL     1      30.051  57.052  84.884  1.00  0.00     0.000 C 
BRANCH   4   5
ATOM      5  C   UNL     1      29.831  57.217  83.376  1.00  0.00     0.006 C 
BRANCH   5   6
ATOM      6  C   UNL     1      30.273  58.607  82.905  1.00  0.00     0.053 C 
BRANCH   6   7
ATOM      7  C   UNL     1      31.148  58.497  81.697  1.00  0.00     0.041 C 
ATOM      8  O   UNL     1      32.352  58.147  81.816  1.00  0.00    -0.550 OA
ATOM      9  O   UNL     1      30.649  58.827  80.444  1.00  0.00    -0.550 OA
ENDBRANCH   6   7
ENDBRANCH   5   6
ENDBRANCH   4   5
ENDBRANCH   3   4
ENDBRANCH   2   3
ENDBRANCH   1   2
BRANCH   1  10
ATOM     10  C   UNL     1      27.337  60.104  87.862  1.00  0.00     0.000 C 
BRANCH  10  11
ATOM     11  C   UNL     1      26.680  58.748  88.172  1.00  0.00    -0.000 C 
BRANCH  11  12
ATOM     12  C   UNL     1      25.279  58.617  87.537  1.00  0.00    -0.000 C 
BRANCH  12  13
ATOM     13  C   UNL     1      25.292  57.971  86.136  1.00  0.00    -0.000 C 
BRANCH  13  14
ATOM     14  C   UNL     1      25.216  58.966  84.965  1.00  0.00    -0.000 C 
BRANCH  14  15
ATOM     15  C   UNL     1      26.434  58.950  84.021  1.00  0.00    -0.000 C 
BRANCH  15  16
ATOM     16  C   UNL     1      27.087  60.335  83.827  1.00  0.00    -0.003 C 
ATOM     17  C   UNL     1      26.331  61.446  84.555  1.00  0.00     0.004 C 
ENDBRANCH  15  16
ENDBRANCH  14  15
ENDBRANCH  13  14
ENDBRANCH  12  13
ENDBRANCH  11  12
ENDBRANCH  10  11
ENDBRANCH   1  10
TORSDOF 13
ENDMDL
MODEL 2
REMARK VINA RESULT:    -2.995      1.799      3.806
REMARK INTER + INTRA:          -7.441
REMARK INTER:                  -5.492
REMARK INTRA:                  -1.949
REMARK UNBOUND:                -2.170
REMARK SMILES CCCCCCCCCCCCCCC(=O)[O-]
REMARK SMILES IDX 9 1 10 2 11 3 12 4 13 5 14 6 15 7 16 8 17 9 8 10 7 11 6 12
REMARK SMILES IDX 5 13 4 14 3 15 2 16 1 17
REMARK H PARENT
REMARK Flexibility Score: inf
ROOT
ATOM      1  C   UNL     1      27.293  61.213  83.826  1.00  0.00     0.000 C 
ENDROOT
BRANCH   1   2
ATOM      2  C   UNL     1      27.597  61.833  82.449  1.00  0.00     0.000 C 
BRANCH   2   3
ATOM      3  C   UNL     1      26.532  61.486  81.398  1.00  0.00     0.000 C 
BRANCH   3   4
ATOM      4  C   UNL     1      26.656  60.043  80.885  1.00  0.00     0.000 C 
BRANCH   4   5
ATOM      5  C   UNL     1      28.115  59.696  80.570  1.00  0.00     0.006 C 
BRANCH   5   6
ATOM      6  C   UNL     1      28.599  58.522  81.427  1.00  0.00     0.053 C 
BRANCH   6   7
ATOM      7  C   UNL     1      29.988  58.773  81.922  1.00  0.00     0.041 C 
ATOM      8  O   UNL     1      30.962  58.737  81.124  1.00  0.00    -0.550 OA
ATOM      9  O   UNL     1      30.215  58.999  83.274  1.00  0.00    -0.550 OA
ENDBRANCH   6   7
ENDBRANCH   5   6
ENDBRANCH   4   5
ENDBRANCH   3   4
ENDBRANCH   2   3
ENDBRANCH   1   2
BRANCH   1  10
ATOM     10  C   UNL     1      25.833  61.424  84.256  1.00  0.00     0.000 C 
BRANCH  10  11
ATOM     11  C   UNL     1      25.123  60.104  84.605  1.00  0.00    -0.000 C 
BRANCH  11  12
ATOM     12  C   UNL     1      26.068  58.887  84.506  1.00  0.00    -0.000 C 
BRANCH  12  13
ATOM     13  C   UNL     1      26.253  58.136  85.841  1.00  0.00    -0.000 C 
BRANCH  13  14
ATOM     14  C   UNL     1      25.996  58.982  87.100  1.00  0.00    -0.000 C 
BRANCH  14  15
ATOM     15  C   UNL     1      27.250  59.289  87.941  1.00  0.00    -0.000 C 
BRANCH  15  16
ATOM     16  C   UNL     1      28.273  60.196  87.223  1.00  0.00    -0.003 C 
ATOM     17  C   UNL     1      28.053  61.679  87.525  1.00  0.00     0.004 C 
ENDBRANCH  15  16
ENDBRANCH  14  15
ENDBRANCH  13  14
ENDBRANCH  12  13
ENDBRANCH  11  12
ENDBRANCH  10  11
ENDBRANCH   1  10
TORSDOF 13
ENDMDL
MODEL 3
REMARK VINA RESULT:    -2.945      2.620      5.002
REMARK INTER + INTRA:          -7.353
REMARK INTER:                  -5.587
REMARK INTRA:                  -1.766
REMARK UNBOUND:                -2.170
REMARK SMILES CCCCCCCCCCCCCCC(=O)[O-]
REMARK SMILES IDX 9 1 10 2 11 3 12 4 13 5 14 6 15 7 16 8 17 9 8 10 7 11 6 12
REMARK SMILES IDX 5 13 4 14 3 15 2 16 1 17
REMARK H PARENT
REMARK Flexibility Score: inf
ROOT
ATOM      1  C   UNL     1      31.809  57.815  82.282  1.00  0.00     0.000 C 
ENDROOT
BRANCH   1   2
ATOM      2  C   UNL     1      30.660  58.261  81.360  1.00  0.00     0.000 C 
BRANCH   2   3
ATOM      3  C   UNL     1      29.302  58.288  82.079  1.00  0.00     0.000 C 
BRANCH   3   4
ATOM      4  C   UNL     1      29.039  59.621  82.795  1.00  0.00     0.000 C 
BRANCH   4   5
ATOM      5  C   UNL     1      27.570  59.737  83.218  1.00  0.00     0.006 C 
BRANCH   5   6
ATOM      6  C   UNL     1      27.112  61.199  83.222  1.00  0.00     0.053 C 
BRANCH   6   7
ATOM      7  C   UNL     1      26.685  61.618  81.852  1.00  0.00     0.041 C 
ATOM      8  O   UNL     1      25.619  61.168  81.355  1.00  0.00    -0.550 OA
ATOM      9  O   UNL     1      27.488  62.468  81.102  1.00  0.00    -0.550 OA
ENDBRANCH   6   7
ENDBRANCH   5   6
ENDBRANCH   4   5
ENDBRANCH   3   4
ENDBRANCH   2   3
ENDBRANCH   1   2
BRANCH   1  10
ATOM     10  C   UNL     1      31.324  56.925  83.438  1.00  0.00     0.000 C 
BRANCH  10  11
ATOM     11  C   UNL     1      32.032  57.244  84.766  1.00  0.00    -0.000 C 
BRANCH  11  12
ATOM     12  C   UNL     1      31.068  57.838  85.817  1.00  0.00    -0.000 C 
BRANCH  12  13
ATOM     13  C   UNL     1      29.646  57.243  85.760  1.00  0.00    -0.000 C 
BRANCH  13  14
ATOM     14  C   UNL     1      28.565  58.082  86.461  1.00  0.00    -0.000 C 
BRANCH  14  15
ATOM     15  C   UNL     1      28.922  59.568  86.656  1.00  0.00    -0.000 C 
BRANCH  15  16
ATOM     16  C   UNL     1      27.696  60.476  86.890  1.00  0.00    -0.003 C 
ATOM     17  C   UNL     1      28.042  61.733  87.688  1.00  0.00     0.004 C 
ENDBRANCH  15  16
ENDBRANCH  14  15
ENDBRANCH  13  14
ENDBRANCH  12  13
ENDBRANCH  11  12
ENDBRANCH  10  11
ENDBRANCH   1  10
TORSDOF 13
ENDMDL
MODEL 4
REMARK VINA RESULT:    -2.921      3.338      5.141
REMARK INTER + INTRA:          -7.312
REMARK INTER:                  -5.178
REMARK INTRA:                  -2.134
REMARK UNBOUND:                -2.170
REMARK SMILES CCCCCCCCCCCCCCC(=O)[O-]
REMARK SMILES IDX 9 1 10 2 11 3 12 4 13 5 14 6 15 7 16 8 17 9 8 10 7 11 6 12
REMARK SMILES IDX 5 13 4 14 3 15 2 16 1 17
REMARK H PARENT
REMARK Flexibility Score: inf
ROOT
ATOM      1  C   UNL     1      29.894  59.044  82.909  1.00  0.00     0.000 C 
ENDROOT
BRANCH   1   2
ATOM      2  C   UNL     1      30.850  57.959  83.440  1.00  0.00     0.000 C 
BRANCH   2   3
ATOM      3  C   UNL     1      30.370  57.347  84.765  1.00  0.00     0.000 C 
BRANCH   3   4
ATOM      4  C   UNL     1      30.336  58.370  85.911  1.00  0.00     0.000 C 
BRANCH   4   5
ATOM      5  C   UNL     1      29.031  58.259  86.707  1.00  0.00     0.006 C 
BRANCH   5   6
ATOM      6  C   UNL     1      28.394  59.637  86.913  1.00  0.00     0.053 C 
BRANCH   6   7
ATOM      7  C   UNL     1      27.039  59.500  87.532  1.00  0.00     0.041 C 
ATOM      8  O   UNL     1      26.005  59.569  86.816  1.00  0.00    -0.550 OA
ATOM      9  O   UNL     1      26.914  59.346  88.907  1.00  0.00    -0.550 OA
ENDBRANCH   6   7
ENDBRANCH   5   6
ENDBRANCH   4   5
ENDBRANCH   3   4
ENDBRANCH   2   3
ENDBRANCH   1   2
BRANCH   1  10
ATOM     10  C   UNL     1      29.078  58.566  81.697  1.00  0.00     0.000 C 
BRANCH  10  11
ATOM     11  C   UNL     1      27.637  58.176  82.071  1.00  0.00    -0.000 C 
BRANCH  11  12
ATOM     12  C   UNL     1      27.220  58.732  83.451  1.00  0.00    -0.000 C 
BRANCH  12  13
ATOM     13  C   UNL     1      26.347  60.001  83.369  1.00  0.00    -0.000 C 
BRANCH  13  14
ATOM     14  C   UNL     1      27.084  61.314  83.684  1.00  0.00    -0.000 C 
BRANCH  14  15
ATOM     15  C   UNL     1      27.685  62.030  82.459  1.00  0.00    -0.000 C 
BRANCH  15  16
ATOM     16  C   UNL     1      26.781  61.984  81.208  1.00  0.00    -0.003 C 
ATOM     17  C   UNL     1      27.525  61.487  79.968  1.00  0.00     0.004 C 
ENDBRANCH  15  16
ENDBRANCH  14  15
ENDBRANCH  13  14
ENDBRANCH  12  13
ENDBRANCH  11  12
ENDBRANCH  10  11
ENDBRANCH   1  10
TORSDOF 13
ENDMDL
MODEL 5
REMARK VINA RESULT:    -2.910      7.019      8.916
REMARK INTER + INTRA:          -7.291
REMARK INTER:                  -5.977
REMARK INTRA:                  -1.315
REMARK UNBOUND:                -2.170
REMARK SMILES CCCCCCCCCCCCCCC(=O)[O-]
REMARK SMILES IDX 9 1 10 2 11 3 12 4 13 5 14 6 15 7 16 8 17 9 8 10 7 11 6 12
REMARK SMILES IDX 5 13 4 14 3 15 2 16 1 17
REMARK H PARENT
REMARK Flexibility Score: inf
ROOT
ATOM      1  C   UNL     1      24.993  62.337  80.500  1.00  0.00     0.000 C 
ENDROOT
BRANCH   1   2
ATOM      2  C   UNL     1      26.519  62.463  80.666  1.00  0.00     0.000 C 
BRANCH   2   3
ATOM      3  C   UNL     1      27.181  61.134  81.060  1.00  0.00     0.000 C 
BRANCH   3   4
ATOM      4  C   UNL     1      27.684  60.341  79.844  1.00  0.00     0.000 C 
BRANCH   4   5
ATOM      5  C   UNL     1      28.236  61.281  78.766  1.00  0.00     0.006 C 
BRANCH   5   6
ATOM      6  C   UNL     1      27.820  60.817  77.367  1.00  0.00     0.053 C 
BRANCH   6   7
ATOM      7  C   UNL     1      28.499  59.530  77.018  1.00  0.00     0.041 C 
ATOM      8  O   UNL     1      29.750  59.489  76.886  1.00  0.00    -0.550 OA
ATOM      9  O   UNL     1      27.745  58.386  76.791  1.00  0.00    -0.550 OA
ENDBRANCH   6   7
ENDBRANCH   5   6
ENDBRANCH   4   5
ENDBRANCH   3   4
ENDBRANCH   2   3
ENDBRANCH   1   2
BRANCH   1  10
ATOM     10  C   UNL     1      24.443  63.259  79.399  1.00  0.00     0.000 C 
BRANCH  10  11
ATOM     11  C   UNL     1      24.739  62.731  77.985  1.00  0.00    -0.000 C 
BRANCH  11  12
ATOM     12  C   UNL     1      24.816  63.866  76.940  1.00  0.00    -0.000 C 
BRANCH  12  13
ATOM     13  C   UNL     1      26.073  63.803  76.049  1.00  0.00    -0.000 C 
BRANCH  13  14
ATOM     14  C   UNL     1      26.136  64.870  74.943  1.00  0.00    -0.000 C 
BRANCH  14  15
ATOM     15  C   UNL     1      26.477  66.291  75.430  1.00  0.00    -0.000 C 
BRANCH  15  16
ATOM     16  C   UNL     1      25.306  67.289  75.301  1.00  0.00    -0.003 C 
ATOM     17  C   UNL     1      25.032  68.041  76.604  1.00  0.00     0.004 C 
ENDBRANCH  15  16
ENDBRANCH  14  15
ENDBRANCH  13  14
ENDBRANCH  12  13
ENDBRANCH  11  12
ENDBRANCH  10  11
ENDBRANCH   1  10
TORSDOF 13
ENDMDL
MODEL 6
REMARK VINA RESULT:    -2.905      1.864      2.770
REMARK INTER + INTRA:          -7.283
REMARK INTER:                  -5.742
REMARK INTRA:                  -1.542
REMARK UNBOUND:                -2.170
REMARK SMILES CCCCCCCCCCCCCCC(=O)[O-]
REMARK SMILES IDX 9 1 10 2 11 3 12 4 13 5 14 6 15 7 16 8 17 9 8 10 7 11 6 12
REMARK SMILES IDX 5 13 4 14 3 15 2 16 1 17
REMARK H PARENT
REMARK Flexibility Score: inf
ROOT
ATOM      1  C   UNL     1      28.400  60.373  87.089  1.00  0.00     0.000 C 
ENDROOT
BRANCH   1   2
ATOM      2  C   UNL     1      28.015  58.922  87.430  1.00  0.00     0.000 C 
BRANCH   2   3
ATOM      3  C   UNL     1      28.939  57.893  86.759  1.00  0.00     0.000 C 
BRANCH   3   4
ATOM      4  C   UNL     1      30.019  58.550  85.886  1.00  0.00     0.000 C 
BRANCH   4   5
ATOM      5  C   UNL     1      30.174  57.807  84.554  1.00  0.00     0.006 C 
BRANCH   5   6
ATOM      6  C   UNL     1      30.156  58.783  83.373  1.00  0.00     0.053 C 
BRANCH   6   7
ATOM      7  C   UNL     1      30.970  58.248  82.239  1.00  0.00     0.041 C 
ATOM      8  O   UNL     1      32.058  57.656  82.463  1.00  0.00    -0.550 OA
ATOM      9  O   UNL     1      30.553  58.446  80.929  1.00  0.00    -0.550 OA
ENDBRANCH   6   7
ENDBRANCH   5   6
ENDBRANCH   4   5
ENDBRANCH   3   4
ENDBRANCH   2   3
ENDBRANCH   1   2
BRANCH   1  10
ATOM     10  C   UNL     1      27.276  61.123  86.355  1.00  0.00     0.000 C 
BRANCH  10  11
ATOM     11  C   UNL     1      26.296  60.171  85.648  1.00  0.00    -0.000 C 
BRANCH  11  12
ATOM     12  C   UNL     1      26.644  59.972  84.157  1.00  0.00    -0.000 C 
BRANCH  12  13
ATOM     13  C   UNL     1      27.298  61.206  83.503  1.00  0.00    -0.000 C 
BRANCH  13  14
ATOM     14  C   UNL     1      27.549  61.081  81.991  1.00  0.00    -0.000 C 
BRANCH  14  15
ATOM     15  C   UNL     1      27.180  62.329  81.167  1.00  0.00    -0.000 C 
BRANCH  15  16
ATOM     16  C   UNL     1      25.847  62.195  80.401  1.00  0.00    -0.003 C 
ATOM     17  C   UNL     1      24.636  62.529  81.272  1.00  0.00     0.004 C 
ENDBRANCH  15  16
ENDBRANCH  14  15
ENDBRANCH  13  14
ENDBRANCH  12  13
ENDBRANCH  11  12
ENDBRANCH  10  11
ENDBRANCH   1  10
TORSDOF 13
ENDMDL
MODEL 7
REMARK VINA RESULT:    -2.873      2.497      4.274
REMARK INTER + INTRA:          -7.226
REMARK INTER:                  -5.122
REMARK INTRA:                  -2.104
REMARK UNBOUND:                -2.170
REMARK SMILES CCCCCCCCCCCCCCC(=O)[O-]
REMARK SMILES IDX 9 1 10 2 11 3 12 4 13 5 14 6 15 7 16 8 17 9 8 10 7 11 6 12
REMARK SMILES IDX 5 13 4 14 3 15 2 16 1 17
REMARK H PARENT
REMARK Flexibility Score: inf
ROOT
ATOM      1  C   UNL     1      25.064  60.291  84.159  1.00  0.00     0.000 C 
ENDROOT
BRANCH   1   2
ATOM      2  C   UNL     1      26.033  61.443  84.484  1.00  0.00     0.000 C 
BRANCH   2   3
ATOM      3  C   UNL     1      27.243  61.481  83.538  1.00  0.00     0.000 C 
BRANCH   3   4
ATOM      4  C   UNL     1      27.582  60.100  82.956  1.00  0.00     0.000 C 
BRANCH   4   5
ATOM      5  C   UNL     1      27.722  60.167  81.431  1.00  0.00     0.006 C 
BRANCH   5   6
ATOM      6  C   UNL     1      27.187  61.496  80.887  1.00  0.00     0.053 C 
BRANCH   6   7
ATOM      7  C   UNL     1      27.349  61.557  79.401  1.00  0.00     0.041 C 
ATOM      8  O   UNL     1      28.471  61.327  78.877  1.00  0.00    -0.550 OA
ATOM      9  O   UNL     1      26.275  61.915  78.598  1.00  0.00    -0.550 OA
ENDBRANCH   6   7
ENDBRANCH   5   6
ENDBRANCH   4   5
ENDBRANCH   3   4
ENDBRANCH   2   3
ENDBRANCH   1   2
BRANCH   1  10
ATOM     10  C   UNL     1      24.892  59.317  85.336  1.00  0.00     0.000 C 
BRANCH  10  11
ATOM     11  C   UNL     1      24.937  57.844  84.895  1.00  0.00    -0.000 C 
BRANCH  11  12
ATOM     12  C   UNL     1      26.348  57.232  85.039  1.00  0.00    -0.000 C 
BRANCH  12  13
ATOM     13  C   UNL     1      27.108  57.717  86.290  1.00  0.00    -0.000 C 
BRANCH  13  14
ATOM     14  C   UNL     1      28.567  58.136  86.039  1.00  0.00    -0.000 C 
BRANCH  14  15
ATOM     15  C   UNL     1      28.945  59.527  86.582  1.00  0.00    -0.000 C 
BRANCH  15  16
ATOM     16  C   UNL     1      27.831  60.191  87.419  1.00  0.00    -0.003 C 
ATOM     17  C   UNL     1      28.056  61.691  87.608  1.00  0.00     0.004 C 
ENDBRANCH  15  16
ENDBRANCH  14  15
ENDBRANCH  13  14
ENDBRANCH  12  13
ENDBRANCH  11  12
ENDBRANCH  10  11
ENDBRANCH   1  10
TORSDOF 13
ENDMDL
MODEL 8
REMARK VINA RESULT:    -2.847      2.443      3.546
REMARK INTER + INTRA:          -7.181
REMARK INTER:                  -5.045
REMARK INTRA:                  -2.136
REMARK UNBOUND:                -2.170
REMARK SMILES CCCCCCCCCCCCCCC(=O)[O-]
REMARK SMILES IDX 9 1 10 2 11 3 12 4 13 5 14 6 15 7 16 8 17 9 8 10 7 11 6 12
REMARK SMILES IDX 5 13 4 14 3 15 2 16 1 17
REMARK H PARENT
REMARK Flexibility Score: inf
ROOT
ATOM      1  C   UNL     1      29.990  58.318  86.005  1.00  0.00     0.000 C 
ENDROOT
BRANCH   1   2
ATOM      2  C   UNL     1      29.794  58.432  84.482  1.00  0.00     0.000 C 
BRANCH   2   3
ATOM      3  C   UNL     1      28.778  57.415  83.940  1.00  0.00     0.000 C 
BRANCH   3   4
ATOM      4  C   UNL     1      27.848  58.019  82.876  1.00  0.00     0.000 C 
BRANCH   4   5
ATOM      5  C   UNL     1      28.026  59.539  82.790  1.00  0.00     0.006 C 
BRANCH   5   6
ATOM      6  C   UNL     1      27.172  60.130  81.664  1.00  0.00     0.053 C 
BRANCH   6   7
ATOM      7  C   UNL     1      27.168  61.624  81.739  1.00  0.00     0.041 C 
ATOM      8  O   UNL     1      26.450  62.296  80.953  1.00  0.00    -0.550 OA
ATOM      9  O   UNL     1      27.994  62.277  82.645  1.00  0.00    -0.550 OA
ENDBRANCH   6   7
ENDBRANCH   5   6
ENDBRANCH   4   5
ENDBRANCH   3   4
ENDBRANCH   2   3
ENDBRANCH   1   2
BRANCH   1  10
ATOM     10  C   UNL     1      29.200  57.148  86.613  1.00  0.00     0.000 C 
BRANCH  10  11
ATOM     11  C   UNL     1      29.140  57.212  88.149  1.00  0.00    -0.000 C 
BRANCH  11  12
ATOM     12  C   UNL     1      27.732  57.584  88.665  1.00  0.00    -0.000 C 
BRANCH  12  13
ATOM     13  C   UNL     1      26.682  57.736  87.546  1.00  0.00    -0.000 C 
BRANCH  13  14
ATOM     14  C   UNL     1      26.136  59.162  87.361  1.00  0.00    -0.000 C 
BRANCH  14  15
ATOM     15  C   UNL     1      26.454  59.806  85.998  1.00  0.00    -0.000 C 
BRANCH  15  16
ATOM     16  C   UNL     1      27.263  61.116  86.104  1.00  0.00    -0.003 C 
ATOM     17  C   UNL     1      28.071  61.201  87.399  1.00  0.00     0.004 C 
ENDBRANCH  15  16
ENDBRANCH  14  15
ENDBRANCH  13  14
ENDBRANCH  12  13
ENDBRANCH  11  12
ENDBRANCH  10  11
ENDBRANCH   1  10
TORSDOF 13
ENDMDL
MODEL 9
REMARK VINA RESULT:    -2.823      2.178      3.931
REMARK INTER + INTRA:          -7.138
REMARK INTER:                  -5.058
REMARK INTRA:                  -2.080
REMARK UNBOUND:                -2.170
REMARK SMILES CCCCCCCCCCCCCCC(=O)[O-]
REMARK SMILES IDX 9 1 10 2 11 3 12 4 13 5 14 6 15 7 16 8 17 9 8 10 7 11 6 12
REMARK SMILES IDX 5 13 4 14 3 15 2 16 1 17
REMARK H PARENT
REMARK Flexibility Score: inf
ROOT
ATOM      1  C   UNL     1      27.286  61.378  85.813  1.00  0.00     0.000 C 
ENDROOT
BRANCH   1   2
ATOM      2  C   UNL     1      26.219  60.524  85.103  1.00  0.00     0.000 C 
BRANCH   2   3
ATOM      3  C   UNL     1      26.247  60.695  83.576  1.00  0.00     0.000 C 
BRANCH   3   4
ATOM      4  C   UNL     1      27.443  61.531  83.097  1.00  0.00     0.000 C 
BRANCH   4   5
ATOM      5  C   UNL     1      27.339  61.828  81.597  1.00  0.00     0.006 C 
BRANCH   5   6
ATOM      6  C   UNL     1      27.211  60.533  80.787  1.00  0.00     0.053 C 
BRANCH   6   7
ATOM      7  C   UNL     1      27.940  60.654  79.487  1.00  0.00     0.041 C 
ATOM      8  O   UNL     1      28.975  59.970  79.275  1.00  0.00    -0.550 OA
ATOM      9  O   UNL     1      27.504  61.558  78.527  1.00  0.00    -0.550 OA
ENDBRANCH   6   7
ENDBRANCH   5   6
ENDBRANCH   4   5
ENDBRANCH   3   4
ENDBRANCH   2   3
ENDBRANCH   1   2
BRANCH   1  10
ATOM     10  C   UNL     1      27.697  60.793  87.174  1.00  0.00     0.000 C 
BRANCH  10  11
ATOM     11  C   UNL     1      27.120  59.386  87.411  1.00  0.00    -0.000 C 
BRANCH  11  12
ATOM     12  C   UNL     1      28.219  58.349  87.731  1.00  0.00    -0.000 C 
BRANCH  12  13
ATOM     13  C   UNL     1      29.052  57.929  86.504  1.00  0.00    -0.000 C 
BRANCH  13  14
ATOM     14  C   UNL     1      28.266  57.182  85.412  1.00  0.00    -0.000 C 
BRANCH  14  15
ATOM     15  C   UNL     1      28.506  57.690  83.978  1.00  0.00    -0.000 C 
BRANCH  15  16
ATOM     16  C   UNL     1      29.643  58.729  83.869  1.00  0.00    -0.003 C 
ATOM     17  C   UNL     1      30.208  58.830  82.452  1.00  0.00     0.004 C 
ENDBRANCH  15  16
ENDBRANCH  14  15
ENDBRANCH  13  14
ENDBRANCH  12  13
ENDBRANCH  11  12
ENDBRANCH  10  11
ENDBRANCH   1  10
TORSDOF 13
ENDMDL
