MODEL 1
REMARK VINA RESULT:    -4.483      0.000      0.000
REMARK INTER + INTRA:          -7.584
REMARK INTER:                  -6.842
REMARK INTRA:                  -0.743
REMARK UNBOUND:                -0.743
REMARK SMILES O=C([O-])CCCCCCCCC(=O)[O-]
REMARK SMILES IDX 7 1 6 2 5 3 4 4 2 5 1 6 3 7 8 8 9 9 10 10 11 11 12 12 13 13
REMARK SMILES IDX 14 14
REMARK H PARENT
REMARK Flexibility Score: inf
ROOT
ATOM      1  C   UNL     1       8.076  13.489  40.841  1.00  0.00     0.000 C 
ENDROOT
BRANCH   1   2
ATOM      2  C   UNL     1       9.451  14.163  40.666  1.00  0.00     0.000 C 
BRANCH   2   3
ATOM      3  C   UNL     1       9.951  14.954  41.892  1.00  0.00     0.006 C 
BRANCH   3   4
ATOM      4  C   UNL     1       9.632  16.456  41.852  1.00  0.00     0.053 C 
BRANCH   4   5
ATOM      5  C   UNL     1       8.322  16.768  42.507  1.00  0.00     0.041 C 
ATOM      6  O   UNL     1       8.049  16.288  43.639  1.00  0.00    -0.550 OA
ATOM      7  O   UNL     1       7.416  17.614  41.881  1.00  0.00    -0.550 OA
ENDBRANCH   4   5
ENDBRANCH   3   4
ENDBRANCH   2   3
ENDBRANCH   1   2
BRANCH   1   8
ATOM      8  C   UNL     1       7.830  12.853  42.225  1.00  0.00     0.000 C 
BRANCH   8   9
ATOM      9  C   UNL     1       8.531  11.501  42.455  1.00  0.00     0.000 C 
BRANCH   9  10
ATOM     10  C   UNL     1       7.793  10.272  41.889  1.00  0.00     0.006 C 
BRANCH  10  11
ATOM     11  C   UNL     1       8.639   9.426  40.919  1.00  0.00     0.053 C 
BRANCH  11  12
ATOM     12  C   UNL     1       8.728  10.032  39.551  1.00  0.00     0.041 C 
ATOM     13  O   UNL     1       7.844   9.789  38.689  1.00  0.00    -0.550 OA
ATOM     14  O   UNL     1       9.810  10.836  39.215  1.00  0.00    -0.550 OA
ENDBRANCH  11  12
ENDBRANCH  10  11
ENDBRANCH   9  10
ENDBRANCH   8   9
ENDBRANCH   1   8
TORSDOF 9
ENDMDL
MODEL 2
REMARK VINA RESULT:    -4.481     11.949     13.760
REMARK INTER + INTRA:          -7.581
REMARK INTER:                  -6.857
REMARK INTRA:                  -0.725
REMARK UNBOUND:                -0.743
REMARK SMILES O=C([O-])CCCCCCCCC(=O)[O-]
REMARK SMILES IDX 7 1 6 2 5 3 4 4 2 5 1 6 3 7 8 8 9 9 10 10 11 11 12 12 13 13
REMARK SMILES IDX 14 14
REMARK H PARENT
REMARK Flexibility Score: inf
ROOT
ATOM      1  C   UNL     1      21.378  13.516  43.518  1.00  0.00     0.000 C 
ENDROOT
BRANCH   1   2
ATOM      2  C   UNL     1      21.286  12.423  42.434  1.00  0.00     0.000 C 
BRANCH   2   3
ATOM      3  C   UNL     1      20.894  11.024  42.950  1.00  0.00     0.006 C 
BRANCH   3   4
ATOM      4  C   UNL     1      21.319  10.739  44.399  1.00  0.00     0.053 C 
BRANCH   4   5
ATOM      5  C   UNL     1      20.145  10.424  45.273  1.00  0.00     0.041 C 
ATOM      6  O   UNL     1      19.504  11.352  45.833  1.00  0.00    -0.550 OA
ATOM      7  O   UNL     1      19.739   9.107  45.444  1.00  0.00    -0.550 OA
ENDBRANCH   4   5
ENDBRANCH   3   4
ENDBRANCH   2   3
ENDBRANCH   1   2
BRANCH   1   8
ATOM      8  C   UNL     1      20.046  14.214  43.857  1.00  0.00     0.000 C 
BRANCH   8   9
ATOM      9  C   UNL     1      19.443  15.060  42.720  1.00  0.00     0.000 C 
BRANCH   9  10
ATOM     10  C   UNL     1      20.158  16.398  42.445  1.00  0.00     0.006 C 
BRANCH  10  11
ATOM     11  C   UNL     1      21.040  16.388  41.182  1.00  0.00     0.053 C 
BRANCH  11  12
ATOM     12  C   UNL     1      22.498  16.525  41.494  1.00  0.00     0.041 C 
ATOM     13  O   UNL     1      22.957  17.616  41.921  1.00  0.00    -0.550 OA
ATOM     14  O   UNL     1      23.360  15.457  41.277  1.00  0.00    -0.550 OA
ENDBRANCH  11  12
ENDBRANCH  10  11
ENDBRANCH   9  10
ENDBRANCH   8   9
ENDBRANCH   1   8
TORSDOF 9
ENDMDL
MODEL 3
REMARK VINA RESULT:    -4.471      1.672      6.317
REMARK INTER + INTRA:          -7.566
REMARK INTER:                  -7.085
REMARK INTRA:                  -0.480
REMARK UNBOUND:                -0.743
REMARK SMILES O=C([O-])CCCCCCCCC(=O)[O-]
REMARK SMILES IDX 7 1 6 2 5 3 4 4 2 5 1 6 3 7 8 8 9 9 10 10 11 11 12 12 13 13
REMARK SMILES IDX 14 14
REMARK H PARENT
REMARK Flexibility Score: inf
ROOT
ATOM      1  C   UNL     1       9.844  12.727  39.081  1.00  0.00     0.000 C 
ENDROOT
BRANCH   1   2
ATOM      2  C   UNL     1       9.821  11.321  38.449  1.00  0.00     0.000 C 
BRANCH   2   3
ATOM      3  C   UNL     1       9.334  10.194  39.382  1.00  0.00     0.006 C 
BRANCH   3   4
ATOM      4  C   UNL     1       8.004   9.551  38.960  1.00  0.00     0.053 C 
BRANCH   4   5
ATOM      5  C   UNL     1       6.887   9.915  39.888  1.00  0.00     0.041 C 
ATOM      6  O   UNL     1       5.754  10.220  39.429  1.00  0.00    -0.550 OA
ATOM      7  O   UNL     1       7.088   9.888  41.262  1.00  0.00    -0.550 OA
ENDBRANCH   4   5
ENDBRANCH   3   4
ENDBRANCH   2   3
ENDBRANCH   1   2
BRANCH   1   8
ATOM      8  C   UNL     1       9.122  12.845  40.439  1.00  0.00     0.000 C 
BRANCH   8   9
ATOM      9  C   UNL     1       8.811  14.286  40.889  1.00  0.00     0.000 C 
BRANCH   9  10
ATOM     10  C   UNL     1       9.901  14.955  41.750  1.00  0.00     0.006 C 
BRANCH  10  11
ATOM     11  C   UNL     1       9.697  16.469  41.950  1.00  0.00     0.053 C 
BRANCH  11  12
ATOM     12  C   UNL     1       8.379  16.796  42.582  1.00  0.00     0.041 C 
ATOM     13  O   UNL     1       8.079  16.322  43.709  1.00  0.00    -0.550 OA
ATOM     14  O   UNL     1       7.463  17.595  41.909  1.00  0.00    -0.550 OA
ENDBRANCH  11  12
ENDBRANCH  10  11
ENDBRANCH   9  10
ENDBRANCH   8   9
ENDBRANCH   1   8
TORSDOF 9
ENDMDL
MODEL 4
REMARK VINA RESULT:    -4.457      3.175      3.759
REMARK INTER + INTRA:          -7.545
REMARK INTER:                  -7.146
REMARK INTRA:                  -0.400
REMARK UNBOUND:                -0.743
REMARK SMILES O=C([O-])CCCCCCCCC(=O)[O-]
REMARK SMILES IDX 7 1 6 2 5 3 4 4 2 5 1 6 3 7 8 8 9 9 10 10 11 11 12 12 13 13
REMARK SMILES IDX 14 14
REMARK H PARENT
REMARK Flexibility Score: inf
ROOT
ATOM      1  C   UNL     1       8.125  12.352  42.251  1.00  0.00     0.000 C 
ENDROOT
BRANCH   1   2
ATOM      2  C   UNL     1       8.145  13.029  40.866  1.00  0.00     0.000 C 
BRANCH   2   3
ATOM      3  C   UNL     1       9.282  14.049  40.654  1.00  0.00     0.006 C 
BRANCH   3   4
ATOM      4  C   UNL     1       9.843  14.652  41.951  1.00  0.00     0.053 C 
BRANCH   4   5
ATOM      5  C   UNL     1       9.084  15.872  42.374  1.00  0.00     0.041 C 
ATOM      6  O   UNL     1       8.102  15.768  43.156  1.00  0.00    -0.550 OA
ATOM      7  O   UNL     1       9.481  17.127  41.930  1.00  0.00    -0.550 OA
ENDBRANCH   4   5
ENDBRANCH   3   4
ENDBRANCH   2   3
ENDBRANCH   1   2
BRANCH   1   8
ATOM      8  C   UNL     1       8.410  10.837  42.242  1.00  0.00     0.000 C 
BRANCH   8   9
ATOM      9  C   UNL     1       7.924  10.074  43.489  1.00  0.00     0.000 C 
BRANCH   9  10
ATOM     10  C   UNL     1       8.715   8.795  43.829  1.00  0.00     0.006 C 
BRANCH  10  11
ATOM     11  C   UNL     1       9.196   8.726  45.290  1.00  0.00     0.053 C 
BRANCH  11  12
ATOM     12  C   UNL     1      10.585   9.259  45.468  1.00  0.00     0.041 C 
ATOM     13  O   UNL     1      10.804  10.496  45.403  1.00  0.00    -0.550 OA
ATOM     14  O   UNL     1      11.646   8.384  45.666  1.00  0.00    -0.550 OA
ENDBRANCH  11  12
ENDBRANCH  10  11
ENDBRANCH   9  10
ENDBRANCH   8   9
ENDBRANCH   1   8
TORSDOF 9
ENDMDL
MODEL 5
REMARK VINA RESULT:    -4.446     11.068     11.853
REMARK INTER + INTRA:          -7.528
REMARK INTER:                  -7.151
REMARK INTRA:                  -0.377
REMARK UNBOUND:                -0.743
REMARK SMILES O=C([O-])CCCCCCCCC(=O)[O-]
REMARK SMILES IDX 7 1 6 2 5 3 4 4 2 5 1 6 3 7 8 8 9 9 10 10 11 11 12 12 13 13
REMARK SMILES IDX 14 14
REMARK H PARENT
REMARK Flexibility Score: inf
ROOT
ATOM      1  C   UNL     1      21.321  13.118  43.045  1.00  0.00     0.000 C 
ENDROOT
BRANCH   1   2
ATOM      2  C   UNL     1      20.388  14.150  43.707  1.00  0.00     0.000 C 
BRANCH   2   3
ATOM      3  C   UNL     1      19.375  14.819  42.756  1.00  0.00     0.006 C 
BRANCH   3   4
ATOM      4  C   UNL     1      19.571  16.333  42.583  1.00  0.00     0.053 C 
BRANCH   4   5
ATOM      5  C   UNL     1      20.919  16.662  42.019  1.00  0.00     0.041 C 
ATOM      6  O   UNL     1      21.768  17.271  42.722  1.00  0.00    -0.550 OA
ATOM      7  O   UNL     1      21.249  16.266  40.730  1.00  0.00    -0.550 OA
ENDBRANCH   4   5
ENDBRANCH   3   4
ENDBRANCH   2   3
ENDBRANCH   1   2
BRANCH   1   8
ATOM      8  C   UNL     1      20.832  11.657  43.112  1.00  0.00     0.000 C 
BRANCH   8   9
ATOM      9  C   UNL     1      21.091  10.823  41.843  1.00  0.00     0.000 C 
BRANCH   9  10
ATOM     10  C   UNL     1      20.480   9.407  41.850  1.00  0.00     0.006 C 
BRANCH  10  11
ATOM     11  C   UNL     1      20.300   8.797  40.447  1.00  0.00     0.053 C 
BRANCH  11  12
ATOM     12  C   UNL     1      18.928   9.022  39.890  1.00  0.00     0.041 C 
ATOM     13  O   UNL     1      18.617  10.137  39.396  1.00  0.00    -0.550 OA
ATOM     14  O   UNL     1      17.977   8.011  39.951  1.00  0.00    -0.550 OA
ENDBRANCH  11  12
ENDBRANCH  10  11
ENDBRANCH   9  10
ENDBRANCH   8   9
ENDBRANCH   1   8
TORSDOF 9
ENDMDL
MODEL 6
REMARK VINA RESULT:    -4.407      3.168      6.532
REMARK INTER + INTRA:          -7.468
REMARK INTER:                  -7.113
REMARK INTRA:                  -0.355
REMARK UNBOUND:                -0.743
REMARK SMILES O=C([O-])CCCCCCCCC(=O)[O-]
REMARK SMILES IDX 7 1 6 2 5 3 4 4 2 5 1 6 3 7 8 8 9 9 10 10 11 11 12 12 13 13
REMARK SMILES IDX 14 14
REMARK H PARENT
REMARK Flexibility Score: inf
ROOT
ATOM      1  C   UNL     1       8.199  11.304  42.160  1.00  0.00     0.000 C 
ENDROOT
BRANCH   1   2
ATOM      2  C   UNL     1       8.569   9.916  42.718  1.00  0.00     0.000 C 
BRANCH   2   3
ATOM      3  C   UNL     1       8.418   9.764  44.245  1.00  0.00     0.006 C 
BRANCH   3   4
ATOM      4  C   UNL     1       9.291   8.662  44.863  1.00  0.00     0.053 C 
BRANCH   4   5
ATOM      5  C   UNL     1      10.605   9.195  45.346  1.00  0.00     0.041 C 
ATOM      6  O   UNL     1      10.782  10.437  45.458  1.00  0.00    -0.550 OA
ATOM      7  O   UNL     1      11.622   8.319  45.702  1.00  0.00    -0.550 OA
ENDBRANCH   4   5
ENDBRANCH   3   4
ENDBRANCH   2   3
ENDBRANCH   1   2
BRANCH   1   8
ATOM      8  C   UNL     1       8.650  11.567  40.709  1.00  0.00     0.000 C 
BRANCH   8   9
ATOM      9  C   UNL     1       8.997  13.033  40.388  1.00  0.00     0.000 C 
BRANCH   9  10
ATOM     10  C   UNL     1       8.398  14.078  41.351  1.00  0.00     0.006 C 
BRANCH  10  11
ATOM     11  C   UNL     1       9.450  14.951  42.061  1.00  0.00     0.053 C 
BRANCH  11  12
ATOM     12  C   UNL     1       8.890  16.255  42.541  1.00  0.00     0.041 C 
ATOM     13  O   UNL     1       9.212  17.331  41.975  1.00  0.00    -0.550 OA
ATOM     14  O   UNL     1       8.040  16.285  43.640  1.00  0.00    -0.550 OA
ENDBRANCH  11  12
ENDBRANCH  10  11
ENDBRANCH   9  10
ENDBRANCH   8   9
ENDBRANCH   1   8
TORSDOF 9
ENDMDL
MODEL 7
REMARK VINA RESULT:    -4.401     11.510     12.276
REMARK INTER + INTRA:          -7.460
REMARK INTER:                  -6.698
REMARK INTRA:                  -0.762
REMARK UNBOUND:                -0.743
REMARK SMILES O=C([O-])CCCCCCCCC(=O)[O-]
REMARK SMILES IDX 7 1 6 2 5 3 4 4 2 5 1 6 3 7 8 8 9 9 10 10 11 11 12 12 13 13
REMARK SMILES IDX 14 14
REMARK H PARENT
REMARK Flexibility Score: inf
ROOT
ATOM      1  C   UNL     1      19.539  13.100  45.351  1.00  0.00     0.000 C 
ENDROOT
BRANCH   1   2
ATOM      2  C   UNL     1      20.699  12.959  44.346  1.00  0.00     0.000 C 
BRANCH   2   3
ATOM      3  C   UNL     1      20.320  13.212  42.873  1.00  0.00     0.006 C 
BRANCH   3   4
ATOM      4  C   UNL     1      20.836  14.542  42.303  1.00  0.00     0.053 C 
BRANCH   4   5
ATOM      5  C   UNL     1      19.805  15.625  42.391  1.00  0.00     0.041 C 
ATOM      6  O   UNL     1      18.603  15.337  42.631  1.00  0.00    -0.550 OA
ATOM      7  O   UNL     1      20.178  16.954  42.241  1.00  0.00    -0.550 OA
ENDBRANCH   4   5
ENDBRANCH   3   4
ENDBRANCH   2   3
ENDBRANCH   1   2
BRANCH   1   8
ATOM      8  C   UNL     1      19.241  11.838  46.186  1.00  0.00     0.000 C 
BRANCH   8   9
ATOM      9  C   UNL     1      20.325  10.744  46.125  1.00  0.00     0.000 C 
BRANCH   9  10
ATOM     10  C   UNL     1      19.891   9.424  45.458  1.00  0.00     0.006 C 
BRANCH  10  11
ATOM     11  C   UNL     1      21.007   8.735  44.650  1.00  0.00     0.053 C 
BRANCH  11  12
ATOM     12  C   UNL     1      21.392   9.505  43.424  1.00  0.00     0.041 C 
ATOM     13  O   UNL     1      22.529  10.039  43.340  1.00  0.00    -0.550 OA
ATOM     14  O   UNL     1      20.481   9.667  42.388  1.00  0.00    -0.550 OA
ENDBRANCH  11  12
ENDBRANCH  10  11
ENDBRANCH   9  10
ENDBRANCH   8   9
ENDBRANCH   1   8
TORSDOF 9
ENDMDL
MODEL 8
REMARK VINA RESULT:    -4.369     11.943     12.767
REMARK INTER + INTRA:          -7.411
REMARK INTER:                  -6.865
REMARK INTRA:                  -0.547
REMARK UNBOUND:                -0.743
REMARK SMILES O=C([O-])CCCCCCCCC(=O)[O-]
REMARK SMILES IDX 7 1 6 2 5 3 4 4 2 5 1 6 3 7 8 8 9 9 10 10 11 11 12 12 13 13
REMARK SMILES IDX 14 14
REMARK H PARENT
REMARK Flexibility Score: inf
ROOT
ATOM      1  C   UNL     1      20.020  13.734  42.989  1.00  0.00     0.000 C 
ENDROOT
BRANCH   1   2
ATOM      2  C   UNL     1      19.243  15.041  42.731  1.00  0.00     0.000 C 
BRANCH   2   3
ATOM      3  C   UNL     1      20.120  16.295  42.542  1.00  0.00     0.006 C 
BRANCH   3   4
ATOM      4  C   UNL     1      21.002  16.269  41.284  1.00  0.00     0.053 C 
BRANCH   4   5
ATOM      5  C   UNL     1      22.460  16.301  41.624  1.00  0.00     0.041 C 
ATOM      6  O   UNL     1      22.987  17.359  42.061  1.00  0.00    -0.550 OA
ATOM      7  O   UNL     1      23.231  15.154  41.489  1.00  0.00    -0.550 OA
ENDBRANCH   4   5
ENDBRANCH   3   4
ENDBRANCH   2   3
ENDBRANCH   1   2
BRANCH   1   8
ATOM      8  C   UNL     1      20.554  13.565  44.425  1.00  0.00     0.000 C 
BRANCH   8   9
ATOM      9  C   UNL     1      19.513  13.089  45.457  1.00  0.00     0.000 C 
BRANCH   9  10
ATOM     10  C   UNL     1      19.501  11.571  45.727  1.00  0.00     0.006 C 
BRANCH  10  11
ATOM     11  C   UNL     1      20.797  10.850  45.310  1.00  0.00     0.053 C 
BRANCH  11  12
ATOM     12  C   UNL     1      20.544   9.688  44.398  1.00  0.00     0.041 C 
ATOM     13  O   UNL     1      20.621   9.831  43.150  1.00  0.00    -0.550 OA
ATOM     14  O   UNL     1      20.185   8.455  44.927  1.00  0.00    -0.550 OA
ENDBRANCH  11  12
ENDBRANCH  10  11
ENDBRANCH   9  10
ENDBRANCH   8   9
ENDBRANCH   1   8
TORSDOF 9
ENDMDL
MODEL 9
REMARK VINA RESULT:    -4.351     11.083     13.255
REMARK INTER + INTRA:          -7.384
REMARK INTER:                  -7.062
REMARK INTRA:                  -0.322
REMARK UNBOUND:                -0.743
REMARK SMILES O=C([O-])CCCCCCCCC(=O)[O-]
REMARK SMILES IDX 7 1 6 2 5 3 4 4 2 5 1 6 3 7 8 8 9 9 10 10 11 11 12 12 13 13
REMARK SMILES IDX 14 14
REMARK H PARENT
REMARK Flexibility Score: inf
ROOT
ATOM      1  C   UNL     1      21.061  11.309  42.366  1.00  0.00     0.000 C 
ENDROOT
BRANCH   1   2
ATOM      2  C   UNL     1      20.720   9.811  42.243  1.00  0.00     0.000 C 
BRANCH   2   3
ATOM      3  C   UNL     1      20.723   9.256  40.805  1.00  0.00     0.006 C 
BRANCH   3   4
ATOM      4  C   UNL     1      19.581   8.275  40.500  1.00  0.00     0.053 C 
BRANCH   4   5
ATOM      5  C   UNL     1      18.464   8.934  39.751  1.00  0.00     0.041 C 
ATOM      6  O   UNL     1      18.563  10.137  39.393  1.00  0.00    -0.550 OA
ATOM      7  O   UNL     1      17.326   8.209  39.421  1.00  0.00    -0.550 OA
ENDBRANCH   4   5
ENDBRANCH   3   4
ENDBRANCH   2   3
ENDBRANCH   1   2
BRANCH   1   8
ATOM      8  C   UNL     1      21.063  11.864  43.805  1.00  0.00     0.000 C 
BRANCH   8   9
ATOM      9  C   UNL     1      20.217  13.133  44.017  1.00  0.00     0.000 C 
BRANCH   9  10
ATOM     10  C   UNL     1      20.101  14.060  42.790  1.00  0.00     0.006 C 
BRANCH  10  11
ATOM     11  C   UNL     1      20.165  15.560  43.131  1.00  0.00     0.053 C 
BRANCH  11  12
ATOM     12  C   UNL     1      21.101  16.316  42.237  1.00  0.00     0.041 C 
ATOM     13  O   UNL     1      21.775  17.277  42.691  1.00  0.00    -0.550 OA
ATOM     14  O   UNL     1      21.199  15.984  40.892  1.00  0.00    -0.550 OA
ENDBRANCH  11  12
ENDBRANCH  10  11
ENDBRANCH   9  10
ENDBRANCH   8   9
ENDBRANCH   1   8
TORSDOF 9
ENDMDL
