MODEL 1
REMARK VINA RESULT:    13.494      0.000      0.000
REMARK INTER + INTRA:          24.706
REMARK INTER:                  25.326
REMARK INTRA:                  -0.620
REMARK UNBOUND:                -0.620
REMARK SMILES CCCCCCCCC=CCCCCCCCC(=O)[O-]
REMARK SMILES IDX 10 1 9 2 11 3 12 4 13 5 14 6 15 7 16 8 17 9 18 10 19 11
REMARK SMILES IDX 20 12 8 13 7 14 6 15 5 16 4 17 3 18 2 19 1 20
REMARK H PARENT
REMARK Flexibility Score: inf
ROOT
ATOM      1  C   UNL     1       9.980  76.440   4.428  1.00  0.00    -0.031 C 
ATOM      2  C   UNL     1      11.228  76.631   4.879  1.00  0.00    -0.031 C 
ENDROOT
BRANCH   1   3
ATOM      3  C   UNL     1       8.953  75.700   5.240  1.00  0.00     0.027 C 
BRANCH   3   4
ATOM      4  C   UNL     1       9.583  74.519   5.988  1.00  0.00     0.004 C 
BRANCH   4   5
ATOM      5  C   UNL     1       9.725  73.299   5.070  1.00  0.00     0.000 C 
BRANCH   5   6
ATOM      6  C   UNL     1       9.306  72.013   5.797  1.00  0.00     0.000 C 
BRANCH   6   7
ATOM      7  C   UNL     1      10.448  70.988   5.907  1.00  0.00     0.000 C 
BRANCH   7   8
ATOM      8  C   UNL     1      10.652  70.096   4.666  1.00  0.00     0.006 C 
BRANCH   8   9
ATOM      9  C   UNL     1       9.419  70.004   3.749  1.00  0.00     0.053 C 
BRANCH   9  10
ATOM     10  C   UNL     1       9.755  69.473   2.388  1.00  0.00     0.041 C 
ATOM     11  O   UNL     1       9.387  70.094   1.356  1.00  0.00    -0.550 OA
ATOM     12  O   UNL     1      10.511  68.314   2.257  1.00  0.00    -0.550 OA
ENDBRANCH   9  10
ENDBRANCH   8   9
ENDBRANCH   7   8
ENDBRANCH   6   7
ENDBRANCH   5   6
ENDBRANCH   4   5
ENDBRANCH   3   4
ENDBRANCH   1   3
BRANCH   2  13
ATOM     13  C   UNL     1      12.255  77.373   4.069  1.00  0.00     0.027 C 
BRANCH  13  14
ATOM     14  C   UNL     1      11.889  77.376   2.579  1.00  0.00     0.004 C 
BRANCH  14  15
ATOM     15  C   UNL     1      11.910  75.951   2.006  1.00  0.00     0.000 C 
BRANCH  15  16
ATOM     16  C   UNL     1      12.307  75.916   0.522  1.00  0.00     0.000 C 
BRANCH  16  17
ATOM     17  C   UNL     1      12.231  74.501  -0.080  1.00  0.00    -0.000 C 
BRANCH  17  18
ATOM     18  C   UNL     1      10.881  74.238  -0.779  1.00  0.00    -0.000 C 
BRANCH  18  19
ATOM     19  C   UNL     1       9.668  74.368   0.158  1.00  0.00    -0.003 C 
ATOM     20  C   UNL     1       8.489  75.092  -0.488  1.00  0.00     0.004 C 
ENDBRANCH  18  19
ENDBRANCH  17  18
ENDBRANCH  16  17
ENDBRANCH  15  16
ENDBRANCH  14  15
ENDBRANCH  13  14
ENDBRANCH   2  13
TORSDOF 15
ENDMDL
MODEL 2
REMARK VINA RESULT:    13.580      0.775      1.596
REMARK INTER + INTRA:          24.868
REMARK INTER:                  25.521
REMARK INTRA:                  -0.653
REMARK UNBOUND:                -0.620
REMARK SMILES CCCCCCCCC=CCCCCCCCC(=O)[O-]
REMARK SMILES IDX 10 1 9 2 11 3 12 4 13 5 14 6 15 7 16 8 17 9 18 10 19 11
REMARK SMILES IDX 20 12 8 13 7 14 6 15 5 16 4 17 3 18 2 19 1 20
REMARK H PARENT
REMARK Flexibility Score: inf
ROOT
ATOM      1  C   UNL     1       9.876  74.955   5.253  1.00  0.00    -0.031 C 
ATOM      2  C   UNL     1       9.159  75.993   4.801  1.00  0.00    -0.031 C 
ENDROOT
BRANCH   1   3
ATOM      3  C   UNL     1       9.242  73.841   6.039  1.00  0.00     0.027 C 
BRANCH   3   4
ATOM      4  C   UNL     1       9.276  72.521   5.258  1.00  0.00     0.004 C 
BRANCH   4   5
ATOM      5  C   UNL     1       9.826  71.383   6.125  1.00  0.00     0.000 C 
BRANCH   5   6
ATOM      6  C   UNL     1      11.300  71.104   5.795  1.00  0.00     0.000 C 
BRANCH   6   7
ATOM      7  C   UNL     1      11.491  69.857   4.915  1.00  0.00     0.000 C 
BRANCH   7   8
ATOM      8  C   UNL     1      10.191  69.158   4.472  1.00  0.00     0.006 C 
BRANCH   8   9
ATOM      9  C   UNL     1       9.403  69.925   3.394  1.00  0.00     0.053 C 
BRANCH   9  10
ATOM     10  C   UNL     1       9.652  69.393   2.015  1.00  0.00     0.041 C 
ATOM     11  O   UNL     1       9.533  70.146   1.012  1.00  0.00    -0.550 OA
ATOM     12  O   UNL     1      10.056  68.075   1.836  1.00  0.00    -0.550 OA
ENDBRANCH   9  10
ENDBRANCH   8   9
ENDBRANCH   7   8
ENDBRANCH   6   7
ENDBRANCH   5   6
ENDBRANCH   4   5
ENDBRANCH   3   4
ENDBRANCH   1   3
BRANCH   2  13
ATOM     13  C   UNL     1       9.793  77.106   4.013  1.00  0.00     0.027 C 
BRANCH  13  14
ATOM     14  C   UNL     1      11.269  77.282   4.390  1.00  0.00     0.004 C 
BRANCH  14  15
ATOM     15  C   UNL     1      12.186  76.755   3.276  1.00  0.00     0.000 C 
BRANCH  15  16
ATOM     16  C   UNL     1      11.452  76.581   1.937  1.00  0.00     0.000 C 
BRANCH  16  17
ATOM     17  C   UNL     1      12.167  75.599   0.991  1.00  0.00    -0.000 C 
BRANCH  17  18
ATOM     18  C   UNL     1      11.172  74.806   0.117  1.00  0.00    -0.000 C 
BRANCH  18  19
ATOM     19  C   UNL     1       9.719  74.884   0.614  1.00  0.00    -0.003 C 
ATOM     20  C   UNL     1       8.695  74.641  -0.493  1.00  0.00     0.004 C 
ENDBRANCH  18  19
ENDBRANCH  17  18
ENDBRANCH  16  17
ENDBRANCH  15  16
ENDBRANCH  14  15
ENDBRANCH  13  14
ENDBRANCH   2  13
TORSDOF 15
ENDMDL
MODEL 3
REMARK VINA RESULT:    13.906      4.512      8.885
REMARK INTER + INTRA:          25.481
REMARK INTER:                  25.839
REMARK INTRA:                  -0.359
REMARK UNBOUND:                -0.620
REMARK SMILES CCCCCCCCC=CCCCCCCCC(=O)[O-]
REMARK SMILES IDX 10 1 9 2 11 3 12 4 13 5 14 6 15 7 16 8 17 9 18 10 19 11
REMARK SMILES IDX 20 12 8 13 7 14 6 15 5 16 4 17 3 18 2 19 1 20
REMARK H PARENT
REMARK Flexibility Score: inf
ROOT
ATOM      1  C   UNL     1       9.358  71.626   5.078  1.00  0.00    -0.031 C 
ATOM      2  C   UNL     1      10.320  70.711   4.889  1.00  0.00    -0.031 C 
ENDROOT
BRANCH   1   3
ATOM      3  C   UNL     1       9.631  72.920   5.792  1.00  0.00     0.027 C 
BRANCH   3   4
ATOM      4  C   UNL     1       9.305  74.125   4.900  1.00  0.00     0.004 C 
BRANCH   4   5
ATOM      5  C   UNL     1       9.483  75.441   5.667  1.00  0.00     0.000 C 
BRANCH   5   6
ATOM      6  C   UNL     1       9.283  76.648   4.738  1.00  0.00     0.000 C 
BRANCH   6   7
ATOM      7  C   UNL     1      10.194  76.609   3.500  1.00  0.00     0.000 C 
BRANCH   7   8
ATOM      8  C   UNL     1      11.672  76.962   3.759  1.00  0.00     0.006 C 
BRANCH   8   9
ATOM      9  C   UNL     1      12.049  77.030   5.251  1.00  0.00     0.053 C 
BRANCH   9  10
ATOM     10  C   UNL     1      12.886  78.230   5.576  1.00  0.00     0.041 C 
ATOM     11  O   UNL     1      13.749  78.643   4.758  1.00  0.00    -0.550 OA
ATOM     12  O   UNL     1      12.686  78.919   6.766  1.00  0.00    -0.550 OA
ENDBRANCH   9  10
ENDBRANCH   8   9
ENDBRANCH   7   8
ENDBRANCH   6   7
ENDBRANCH   5   6
ENDBRANCH   4   5
ENDBRANCH   3   4
ENDBRANCH   1   3
BRANCH   2  13
ATOM     13  C   UNL     1      10.048  69.416   4.174  1.00  0.00     0.027 C 
BRANCH  13  14
ATOM     14  C   UNL     1       8.572  69.015   4.296  1.00  0.00     0.004 C 
BRANCH  14  15
ATOM     15  C   UNL     1       8.417  67.750   5.154  1.00  0.00     0.000 C 
BRANCH  15  16
ATOM     16  C   UNL     1       9.284  67.785   6.422  1.00  0.00     0.000 C 
BRANCH  16  17
ATOM     17  C   UNL     1       8.927  66.665   7.417  1.00  0.00    -0.000 C 
BRANCH  17  18
ATOM     18  C   UNL     1      10.162  65.832   7.821  1.00  0.00    -0.000 C 
BRANCH  18  19
ATOM     19  C   UNL     1       9.827  64.639   8.733  1.00  0.00    -0.003 C 
ATOM     20  C   UNL     1       8.922  63.609   8.060  1.00  0.00     0.004 C 
ENDBRANCH  18  19
ENDBRANCH  17  18
ENDBRANCH  16  17
ENDBRANCH  15  16
ENDBRANCH  14  15
ENDBRANCH  13  14
ENDBRANCH   2  13
TORSDOF 15
ENDMDL
MODEL 4
REMARK VINA RESULT:    14.076      2.110      5.649
REMARK INTER + INTRA:          25.799
REMARK INTER:                  26.734
REMARK INTRA:                  -0.936
REMARK UNBOUND:                -0.620
REMARK SMILES CCCCCCCCC=CCCCCCCCC(=O)[O-]
REMARK SMILES IDX 10 1 9 2 11 3 12 4 13 5 14 6 15 7 16 8 17 9 18 10 19 11
REMARK SMILES IDX 20 12 8 13 7 14 6 15 5 16 4 17 3 18 2 19 1 20
REMARK H PARENT
REMARK Flexibility Score: inf
ROOT
ATOM      1  C   UNL     1       9.343  75.769   4.812  1.00  0.00    -0.031 C 
ATOM      2  C   UNL     1       9.852  74.767   5.544  1.00  0.00    -0.031 C 
ENDROOT
BRANCH   1   3
ATOM      3  C   UNL     1      10.097  77.053   4.601  1.00  0.00     0.027 C 
BRANCH   3   4
ATOM      4  C   UNL     1      11.612  76.817   4.629  1.00  0.00     0.004 C 
BRANCH   4   5
ATOM      5  C   UNL     1      12.276  77.352   3.355  1.00  0.00     0.000 C 
BRANCH   5   6
ATOM      6  C   UNL     1      11.566  76.820   2.102  1.00  0.00     0.000 C 
BRANCH   6   7
ATOM      7  C   UNL     1      12.196  75.526   1.559  1.00  0.00     0.000 C 
BRANCH   7   8
ATOM      8  C   UNL     1      11.947  75.249   0.063  1.00  0.00     0.006 C 
BRANCH   8   9
ATOM      9  C   UNL     1      10.855  74.198  -0.207  1.00  0.00     0.053 C 
BRANCH   9  10
ATOM     10  C   UNL     1       9.473  74.747  -0.021  1.00  0.00     0.041 C 
ATOM     11  O   UNL     1       8.654  74.744  -0.977  1.00  0.00    -0.550 OA
ATOM     12  O   UNL     1       9.073  75.226   1.221  1.00  0.00    -0.550 OA
ENDBRANCH   9  10
ENDBRANCH   8   9
ENDBRANCH   7   8
ENDBRANCH   6   7
ENDBRANCH   5   6
ENDBRANCH   4   5
ENDBRANCH   3   4
ENDBRANCH   1   3
BRANCH   2  13
ATOM     13  C   UNL     1       9.099  73.483   5.754  1.00  0.00     0.027 C 
BRANCH  13  14
ATOM     14  C   UNL     1       9.833  72.298   5.113  1.00  0.00     0.004 C 
BRANCH  14  15
ATOM     15  C   UNL     1       9.527  70.993   5.862  1.00  0.00     0.000 C 
BRANCH  15  16
ATOM     16  C   UNL     1       9.146  69.843   4.916  1.00  0.00     0.000 C 
BRANCH  16  17
ATOM     17  C   UNL     1      10.364  69.246   4.186  1.00  0.00    -0.000 C 
BRANCH  17  18
ATOM     18  C   UNL     1      10.120  69.103   2.670  1.00  0.00    -0.000 C 
BRANCH  18  19
ATOM     19  C   UNL     1       9.274  70.240   2.072  1.00  0.00    -0.003 C 
ATOM     20  C   UNL     1       9.356  70.309   0.549  1.00  0.00     0.004 C 
ENDBRANCH  18  19
ENDBRANCH  17  18
ENDBRANCH  16  17
ENDBRANCH  15  16
ENDBRANCH  14  15
ENDBRANCH  13  14
ENDBRANCH   2  13
TORSDOF 15
ENDMDL
MODEL 5
REMARK VINA RESULT:    14.166      3.426      5.487
REMARK INTER + INTRA:          25.967
REMARK INTER:                  26.741
REMARK INTRA:                  -0.774
REMARK UNBOUND:                -0.620
REMARK SMILES CCCCCCCCC=CCCCCCCCC(=O)[O-]
REMARK SMILES IDX 10 1 9 2 11 3 12 4 13 5 14 6 15 7 16 8 17 9 18 10 19 11
REMARK SMILES IDX 20 12 8 13 7 14 6 15 5 16 4 17 3 18 2 19 1 20
REMARK H PARENT
REMARK Flexibility Score: inf
ROOT
ATOM      1  C   UNL     1       9.399  72.537   6.054  1.00  0.00    -0.031 C 
ATOM      2  C   UNL     1       9.764  73.552   5.258  1.00  0.00    -0.031 C 
ENDROOT
BRANCH   1   3
ATOM      3  C   UNL     1       9.714  71.109   5.705  1.00  0.00     0.027 C 
BRANCH   3   4
ATOM      4  C   UNL     1       9.515  70.846   4.207  1.00  0.00     0.004 C 
BRANCH   4   5
ATOM      5  C   UNL     1       9.220  69.365   3.942  1.00  0.00     0.000 C 
BRANCH   5   6
ATOM      6  C   UNL     1       9.797  68.483   5.059  1.00  0.00     0.000 C 
BRANCH   6   7
ATOM      7  C   UNL     1       8.711  67.753   5.867  1.00  0.00     0.000 C 
BRANCH   7   8
ATOM      8  C   UNL     1       9.156  67.233   7.248  1.00  0.00     0.006 C 
BRANCH   8   9
ATOM      9  C   UNL     1       8.634  65.825   7.587  1.00  0.00     0.053 C 
BRANCH   9  10
ATOM     10  C   UNL     1       9.655  64.993   8.304  1.00  0.00     0.041 C 
ATOM     11  O   UNL     1       9.453  63.764   8.493  1.00  0.00    -0.550 OA
ATOM     12  O   UNL     1      10.848  65.564   8.729  1.00  0.00    -0.550 OA
ENDBRANCH   9  10
ENDBRANCH   8   9
ENDBRANCH   7   8
ENDBRANCH   6   7
ENDBRANCH   5   6
ENDBRANCH   4   5
ENDBRANCH   3   4
ENDBRANCH   1   3
BRANCH   2  13
ATOM     13  C   UNL     1       9.450  74.981   5.608  1.00  0.00     0.027 C 
BRANCH  13  14
ATOM     14  C   UNL     1       8.845  75.724   4.410  1.00  0.00     0.004 C 
BRANCH  14  15
ATOM     15  C   UNL     1       9.235  77.210   4.434  1.00  0.00     0.000 C 
BRANCH  15  16
ATOM     16  C   UNL     1      10.102  77.614   3.231  1.00  0.00     0.000 C 
BRANCH  16  17
ATOM     17  C   UNL     1      11.510  76.991   3.277  1.00  0.00    -0.000 C 
BRANCH  17  18
ATOM     18  C   UNL     1      12.058  76.899   4.716  1.00  0.00    -0.000 C 
BRANCH  18  19
ATOM     19  C   UNL     1      12.961  78.081   5.108  1.00  0.00    -0.003 C 
ATOM     20  C   UNL     1      12.542  78.745   6.417  1.00  0.00     0.004 C 
ENDBRANCH  18  19
ENDBRANCH  17  18
ENDBRANCH  16  17
ENDBRANCH  15  16
ENDBRANCH  14  15
ENDBRANCH  13  14
ENDBRANCH   2  13
TORSDOF 15
ENDMDL
MODEL 6
REMARK VINA RESULT:    14.320      3.150      4.588
REMARK INTER + INTRA:          26.258
REMARK INTER:                  27.209
REMARK INTRA:                  -0.951
REMARK UNBOUND:                -0.620
REMARK SMILES CCCCCCCCC=CCCCCCCCC(=O)[O-]
REMARK SMILES IDX 10 1 9 2 11 3 12 4 13 5 14 6 15 7 16 8 17 9 18 10 19 11
REMARK SMILES IDX 20 12 8 13 7 14 6 15 5 16 4 17 3 18 2 19 1 20
REMARK H PARENT
REMARK Flexibility Score: inf
ROOT
ATOM      1  C   UNL     1       9.914  72.716   5.447  1.00  0.00    -0.031 C 
ATOM      2  C   UNL     1       9.271  73.875   5.648  1.00  0.00    -0.031 C 
ENDROOT
BRANCH   1   3
ATOM      3  C   UNL     1       9.264  71.392   5.740  1.00  0.00     0.027 C 
BRANCH   3   4
ATOM      4  C   UNL     1       8.863  70.672   4.446  1.00  0.00     0.004 C 
BRANCH   4   5
ATOM      5  C   UNL     1       9.981  69.737   3.969  1.00  0.00     0.000 C 
BRANCH   5   6
ATOM      6  C   UNL     1      10.504  68.873   5.125  1.00  0.00     0.000 C 
BRANCH   6   7
ATOM      7  C   UNL     1       9.454  67.881   5.655  1.00  0.00     0.000 C 
BRANCH   7   8
ATOM      8  C   UNL     1       9.562  67.548   7.156  1.00  0.00     0.006 C 
BRANCH   8   9
ATOM      9  C   UNL     1       8.859  66.239   7.561  1.00  0.00     0.053 C 
BRANCH   9  10
ATOM     10  C   UNL     1       9.800  65.253   8.187  1.00  0.00     0.041 C 
ATOM     11  O   UNL     1      10.902  65.638   8.658  1.00  0.00    -0.550 OA
ATOM     12  O   UNL     1       9.443  63.914   8.288  1.00  0.00    -0.550 OA
ENDBRANCH   9  10
ENDBRANCH   8   9
ENDBRANCH   7   8
ENDBRANCH   6   7
ENDBRANCH   5   6
ENDBRANCH   4   5
ENDBRANCH   3   4
ENDBRANCH   1   3
BRANCH   2  13
ATOM     13  C   UNL     1       9.921  75.199   5.354  1.00  0.00     0.027 C 
BRANCH  13  14
ATOM     14  C   UNL     1       8.986  76.108   4.546  1.00  0.00     0.004 C 
BRANCH  14  15
ATOM     15  C   UNL     1       9.776  77.226   3.849  1.00  0.00     0.000 C 
BRANCH  15  16
ATOM     16  C   UNL     1      11.296  77.068   4.013  1.00  0.00     0.000 C 
BRANCH  16  17
ATOM     17  C   UNL     1      12.036  76.997   2.664  1.00  0.00    -0.000 C 
BRANCH  17  18
ATOM     18  C   UNL     1      11.587  75.787   1.818  1.00  0.00    -0.000 C 
BRANCH  18  19
ATOM     19  C   UNL     1      12.334  75.661   0.479  1.00  0.00    -0.003 C 
ATOM     20  C   UNL     1      11.930  74.422  -0.316  1.00  0.00     0.004 C 
ENDBRANCH  18  19
ENDBRANCH  17  18
ENDBRANCH  16  17
ENDBRANCH  15  16
ENDBRANCH  14  15
ENDBRANCH  13  14
ENDBRANCH   2  13
TORSDOF 15
ENDMDL
MODEL 7
REMARK VINA RESULT:    14.413      3.306      5.647
REMARK INTER + INTRA:          26.431
REMARK INTER:                  25.767
REMARK INTRA:                   0.664
REMARK UNBOUND:                -0.620
REMARK SMILES CCCCCCCCC=CCCCCCCCC(=O)[O-]
REMARK SMILES IDX 10 1 9 2 11 3 12 4 13 5 14 6 15 7 16 8 17 9 18 10 19 11
REMARK SMILES IDX 20 12 8 13 7 14 6 15 5 16 4 17 3 18 2 19 1 20
REMARK H PARENT
REMARK Flexibility Score: inf
ROOT
ATOM      1  C   UNL     1      10.688  71.041   5.401  1.00  0.00    -0.031 C 
ATOM      2  C   UNL     1       9.792  71.924   4.938  1.00  0.00    -0.031 C 
ENDROOT
BRANCH   1   3
ATOM      3  C   UNL     1      11.182  69.902   4.554  1.00  0.00     0.027 C 
BRANCH   3   4
ATOM      4  C   UNL     1      10.073  69.369   3.638  1.00  0.00     0.004 C 
BRANCH   4   5
ATOM      5  C   UNL     1       8.688  69.763   4.165  1.00  0.00     0.000 C 
BRANCH   5   6
ATOM      6  C   UNL     1       8.085  68.638   5.018  1.00  0.00     0.000 C 
BRANCH   6   7
ATOM      7  C   UNL     1       9.127  67.933   5.904  1.00  0.00     0.000 C 
BRANCH   7   8
ATOM      8  C   UNL     1       8.640  66.642   6.592  1.00  0.00     0.006 C 
BRANCH   8   9
ATOM      9  C   UNL     1       9.161  66.462   8.029  1.00  0.00     0.053 C 
BRANCH   9  10
ATOM     10  C   UNL     1      10.004  65.232   8.182  1.00  0.00     0.041 C 
ATOM     11  O   UNL     1       9.464  64.114   8.391  1.00  0.00    -0.550 OA
ATOM     12  O   UNL     1      11.386  65.311   8.055  1.00  0.00    -0.550 OA
ENDBRANCH   9  10
ENDBRANCH   8   9
ENDBRANCH   7   8
ENDBRANCH   6   7
ENDBRANCH   5   6
ENDBRANCH   4   5
ENDBRANCH   3   4
ENDBRANCH   1   3
BRANCH   2  13
ATOM     13  C   UNL     1       9.299  73.065   5.784  1.00  0.00     0.027 C 
BRANCH  13  14
ATOM     14  C   UNL     1       9.948  74.389   5.363  1.00  0.00     0.004 C 
BRANCH  14  15
ATOM     15  C   UNL     1       8.882  75.419   4.958  1.00  0.00     0.000 C 
BRANCH  15  16
ATOM     16  C   UNL     1       9.472  76.816   4.709  1.00  0.00     0.000 C 
BRANCH  16  17
ATOM     17  C   UNL     1      10.141  76.941   3.328  1.00  0.00    -0.000 C 
BRANCH  17  18
ATOM     18  C   UNL     1      11.678  77.026   3.432  1.00  0.00    -0.000 C 
BRANCH  18  19
ATOM     19  C   UNL     1      12.202  76.964   4.877  1.00  0.00    -0.003 C 
ATOM     20  C   UNL     1      12.890  78.253   5.319  1.00  0.00     0.004 C 
ENDBRANCH  18  19
ENDBRANCH  17  18
ENDBRANCH  16  17
ENDBRANCH  15  16
ENDBRANCH  14  15
ENDBRANCH  13  14
ENDBRANCH   2  13
TORSDOF 15
ENDMDL
MODEL 8
REMARK VINA RESULT:    14.612      2.605      7.069
REMARK INTER + INTRA:          26.805
REMARK INTER:                  27.969
REMARK INTRA:                  -1.164
REMARK UNBOUND:                -0.620
REMARK SMILES CCCCCCCCC=CCCCCCCCC(=O)[O-]
REMARK SMILES IDX 10 1 9 2 11 3 12 4 13 5 14 6 15 7 16 8 17 9 18 10 19 11
REMARK SMILES IDX 20 12 8 13 7 14 6 15 5 16 4 17 3 18 2 19 1 20
REMARK H PARENT
REMARK Flexibility Score: inf
ROOT
ATOM      1  C   UNL     1       9.013  73.581  -0.053  1.00  0.00    -0.031 C 
ATOM      2  C   UNL     1       9.485  72.326  -0.025  1.00  0.00    -0.031 C 
ENDROOT
BRANCH   1   3
ATOM      3  C   UNL     1       9.933  74.770  -0.021  1.00  0.00     0.027 C 
BRANCH   3   4
ATOM      4  C   UNL     1      11.357  74.381  -0.437  1.00  0.00     0.004 C 
BRANCH   4   5
ATOM      5  C   UNL     1      12.391  75.313   0.205  1.00  0.00     0.000 C 
BRANCH   5   6
ATOM      6  C   UNL     1      11.721  76.277   1.196  1.00  0.00     0.000 C 
BRANCH   6   7
ATOM      7  C   UNL     1      12.120  76.007   2.657  1.00  0.00     0.000 C 
BRANCH   7   8
ATOM      8  C   UNL     1      11.815  77.151   3.644  1.00  0.00     0.006 C 
BRANCH   8   9
ATOM      9  C   UNL     1      11.292  76.677   5.012  1.00  0.00     0.053 C 
BRANCH   9  10
ATOM     10  C   UNL     1       9.808  76.465   5.016  1.00  0.00     0.041 C 
ATOM     11  O   UNL     1       9.044  77.309   4.477  1.00  0.00    -0.550 OA
ATOM     12  O   UNL     1       9.268  75.314   5.578  1.00  0.00    -0.550 OA
ENDBRANCH   9  10
ENDBRANCH   8   9
ENDBRANCH   7   8
ENDBRANCH   6   7
ENDBRANCH   5   6
ENDBRANCH   4   5
ENDBRANCH   3   4
ENDBRANCH   1   3
BRANCH   2  13
ATOM     13  C   UNL     1       8.566  71.137  -0.058  1.00  0.00     0.027 C 
BRANCH  13  14
ATOM     14  C   UNL     1       9.199  69.927   0.640  1.00  0.00     0.004 C 
BRANCH  14  15
ATOM     15  C   UNL     1       9.273  70.146   2.158  1.00  0.00     0.000 C 
BRANCH  15  16
ATOM     16  C   UNL     1      10.305  69.233   2.839  1.00  0.00     0.000 C 
BRANCH  16  17
ATOM     17  C   UNL     1      10.284  69.355   4.374  1.00  0.00    -0.000 C 
BRANCH  17  18
ATOM     18  C   UNL     1       9.109  70.222   4.873  1.00  0.00    -0.000 C 
BRANCH  18  19
ATOM     19  C   UNL     1       9.544  71.378   5.789  1.00  0.00    -0.003 C 
ATOM     20  C   UNL     1       9.613  70.980   7.262  1.00  0.00     0.004 C 
ENDBRANCH  18  19
ENDBRANCH  17  18
ENDBRANCH  16  17
ENDBRANCH  15  16
ENDBRANCH  14  15
ENDBRANCH  13  14
ENDBRANCH   2  13
TORSDOF 15
ENDMDL
MODEL 9
REMARK VINA RESULT:    14.670      2.878      7.419
REMARK INTER + INTRA:          26.914
REMARK INTER:                  27.613
REMARK INTRA:                  -0.699
REMARK UNBOUND:                -0.620
REMARK SMILES CCCCCCCCC=CCCCCCCCC(=O)[O-]
REMARK SMILES IDX 10 1 9 2 11 3 12 4 13 5 14 6 15 7 16 8 17 9 18 10 19 11
REMARK SMILES IDX 20 12 8 13 7 14 6 15 5 16 4 17 3 18 2 19 1 20
REMARK H PARENT
REMARK Flexibility Score: inf
ROOT
ATOM      1  C   UNL     1       9.791  73.587   5.247  1.00  0.00    -0.031 C 
ATOM      2  C   UNL     1       9.517  72.455   5.911  1.00  0.00    -0.031 C 
ENDROOT
BRANCH   1   3
ATOM      3  C   UNL     1       9.166  74.899   5.634  1.00  0.00     0.027 C 
BRANCH   3   4
ATOM      4  C   UNL     1       9.809  76.065   4.872  1.00  0.00     0.004 C 
BRANCH   4   5
ATOM      5  C   UNL     1      11.272  76.255   5.289  1.00  0.00     0.000 C 
BRANCH   5   6
ATOM      6  C   UNL     1      12.066  76.977   4.191  1.00  0.00     0.000 C 
BRANCH   6   7
ATOM      7  C   UNL     1      11.226  77.266   2.935  1.00  0.00     0.000 C 
BRANCH   7   8
ATOM      8  C   UNL     1      11.350  76.223   1.806  1.00  0.00     0.006 C 
BRANCH   8   9
ATOM      9  C   UNL     1      10.027  75.519   1.454  1.00  0.00     0.053 C 
BRANCH   9  10
ATOM     10  C   UNL     1      10.077  74.839   0.119  1.00  0.00     0.041 C 
ATOM     11  O   UNL     1       9.026  74.692  -0.558  1.00  0.00    -0.550 OA
ATOM     12  O   UNL     1      11.291  74.404  -0.398  1.00  0.00    -0.550 OA
ENDBRANCH   9  10
ENDBRANCH   8   9
ENDBRANCH   7   8
ENDBRANCH   6   7
ENDBRANCH   5   6
ENDBRANCH   4   5
ENDBRANCH   3   4
ENDBRANCH   1   3
BRANCH   2  13
ATOM     13  C   UNL     1      10.143  71.143   5.526  1.00  0.00     0.027 C 
BRANCH  13  14
ATOM     14  C   UNL     1       9.520  70.588   4.239  1.00  0.00     0.004 C 
BRANCH  14  15
ATOM     15  C   UNL     1       9.612  69.055   4.203  1.00  0.00     0.000 C 
BRANCH  15  16
ATOM     16  C   UNL     1       8.628  68.379   5.171  1.00  0.00     0.000 C 
BRANCH  16  17
ATOM     17  C   UNL     1       9.251  68.095   6.550  1.00  0.00    -0.000 C 
BRANCH  17  18
ATOM     18  C   UNL     1       8.912  66.679   7.061  1.00  0.00    -0.000 C 
BRANCH  18  19
ATOM     19  C   UNL     1       9.995  66.078   7.974  1.00  0.00    -0.003 C 
ATOM     20  C   UNL     1       9.706  64.632   8.370  1.00  0.00     0.004 C 
ENDBRANCH  18  19
ENDBRANCH  17  18
ENDBRANCH  16  17
ENDBRANCH  15  16
ENDBRANCH  14  15
ENDBRANCH  13  14
ENDBRANCH   2  13
TORSDOF 15
ENDMDL
