MODEL 1
REMARK VINA RESULT:    -4.094      0.000      0.000
REMARK INTER + INTRA:          -4.214
REMARK INTER:                  -4.214
REMARK INTRA:                   0.000
REMARK UNBOUND:                 0.000
REMARK SMILES Nc1ncnc2nc[nH]c12
REMARK SMILES IDX 8 1 7 2 6 3 5 4 4 5 3 6 2 7 10 8 9 9 1 11
REMARK H PARENT 9 10 1 12 1 13
REMARK Flexibility Score: inf
ROOT
ATOM      1  C   UNL     1      28.241  28.267  73.904  1.00  0.00     0.199 A 
ATOM      2  N   UNL     1      27.217  29.163  73.918  1.00  0.00    -0.217 NA
ATOM      3  C   UNL     1      27.804  30.275  73.448  1.00  0.00     0.182 A 
ATOM      4  N   UNL     1      27.218  31.482  73.259  1.00  0.00    -0.215 NA
ATOM      5  C   UNL     1      27.984  32.503  72.767  1.00  0.00     0.226 A 
ATOM      6  N   UNL     1      29.309  32.301  72.477  1.00  0.00    -0.217 NA
ATOM      7  C   UNL     1      29.902  31.085  72.666  1.00  0.00     0.152 A 
ATOM      8  C   UNL     1      29.109  30.056  73.167  1.00  0.00     0.127 A 
ATOM      9  N   UNL     1      29.412  28.782  73.449  1.00  0.00    -0.340 N 
ATOM     10  H   UNL     1      30.326  28.291  73.348  1.00  0.00     0.168 HD
ENDROOT
BRANCH   7  11
ATOM     11  N   UNL     1      31.284  30.898  72.356  1.00  0.00    -0.382 N 
ATOM     12  H   UNL     1      31.774  30.002  72.573  1.00  0.00     0.158 HD
ATOM     13  H   UNL     1      31.826  31.667  71.903  1.00  0.00     0.158 HD
ENDBRANCH   7  11
TORSDOF 1
ENDMDL
MODEL 2
REMARK VINA RESULT:    -3.872      4.765      6.293
REMARK INTER + INTRA:          -3.985
REMARK INTER:                  -3.985
REMARK INTRA:                   0.000
REMARK UNBOUND:                 0.000
REMARK SMILES Nc1ncnc2nc[nH]c12
REMARK SMILES IDX 8 1 7 2 6 3 5 4 4 5 3 6 2 7 10 8 9 9 1 11
REMARK H PARENT 9 10 1 12 1 13
REMARK Flexibility Score: inf
ROOT
ATOM      1  C   UNL     1      29.947  34.506  71.357  1.00  0.00     0.199 A 
ATOM      2  N   UNL     1      30.452  35.769  71.297  1.00  0.00    -0.217 NA
ATOM      3  C   UNL     1      31.768  35.544  71.154  1.00  0.00     0.182 A 
ATOM      4  N   UNL     1      32.741  36.480  71.045  1.00  0.00    -0.215 NA
ATOM      5  C   UNL     1      34.033  36.054  70.904  1.00  0.00     0.226 A 
ATOM      6  N   UNL     1      34.326  34.714  70.876  1.00  0.00    -0.217 NA
ATOM      7  C   UNL     1      33.345  33.769  70.986  1.00  0.00     0.152 A 
ATOM      8  C   UNL     1      32.036  34.218  71.128  1.00  0.00     0.127 A 
ATOM      9  N   UNL     1      30.891  33.535  71.256  1.00  0.00    -0.340 N 
ATOM     10  H   UNL     1      30.744  32.503  71.275  1.00  0.00     0.168 HD
ENDROOT
BRANCH   7  11
ATOM     11  N   UNL     1      33.675  32.379  70.954  1.00  0.00    -0.382 N 
ATOM     12  H   UNL     1      33.702  31.848  70.055  1.00  0.00     0.158 HD
ATOM     13  H   UNL     1      33.893  31.873  71.840  1.00  0.00     0.158 HD
ENDBRANCH   7  11
TORSDOF 1
ENDMDL
MODEL 3
REMARK VINA RESULT:    -3.817     19.220     20.309
REMARK INTER + INTRA:          -3.928
REMARK INTER:                  -3.928
REMARK INTRA:                   0.000
REMARK UNBOUND:                 0.000
REMARK SMILES Nc1ncnc2nc[nH]c12
REMARK SMILES IDX 8 1 7 2 6 3 5 4 4 5 3 6 2 7 10 8 9 9 1 11
REMARK H PARENT 9 10 1 12 1 13
REMARK Flexibility Score: inf
ROOT
ATOM      1  C   UNL     1      29.797  44.019  85.005  1.00  0.00     0.199 A 
ATOM      2  N   UNL     1      29.600  45.271  84.508  1.00  0.00    -0.217 NA
ATOM      3  C   UNL     1      29.006  45.896  85.537  1.00  0.00     0.182 A 
ATOM      4  N   UNL     1      28.591  47.186  85.569  1.00  0.00    -0.215 NA
ATOM      5  C   UNL     1      28.004  47.647  86.714  1.00  0.00     0.226 A 
ATOM      6  N   UNL     1      27.842  46.818  87.796  1.00  0.00    -0.217 NA
ATOM      7  C   UNL     1      28.260  45.518  87.765  1.00  0.00     0.152 A 
ATOM      8  C   UNL     1      28.856  45.064  86.592  1.00  0.00     0.127 A 
ATOM      9  N   UNL     1      29.353  43.861  86.278  1.00  0.00    -0.340 N 
ATOM     10  H   UNL     1      29.395  42.998  86.863  1.00  0.00     0.168 HD
ENDROOT
BRANCH   7  11
ATOM     11  N   UNL     1      28.081  44.674  88.904  1.00  0.00    -0.382 N 
ATOM     12  H   UNL     1      28.667  44.788  89.761  1.00  0.00     0.158 HD
ATOM     13  H   UNL     1      27.354  43.925  88.891  1.00  0.00     0.158 HD
ENDBRANCH   7  11
TORSDOF 1
ENDMDL
MODEL 4
REMARK VINA RESULT:    -3.814      1.203      2.604
REMARK INTER + INTRA:          -3.925
REMARK INTER:                  -3.925
REMARK INTRA:                   0.000
REMARK UNBOUND:                 0.000
REMARK SMILES Nc1ncnc2nc[nH]c12
REMARK SMILES IDX 8 1 7 2 6 3 5 4 4 5 3 6 2 7 10 8 9 9 1 11
REMARK H PARENT 9 10 1 12 1 13
REMARK Flexibility Score: inf
ROOT
ATOM      1  C   UNL     1      26.587  29.356  73.813  1.00  0.00     0.199 A 
ATOM      2  N   UNL     1      27.910  29.056  73.701  1.00  0.00    -0.217 NA
ATOM      3  C   UNL     1      28.441  30.237  73.345  1.00  0.00     0.182 A 
ATOM      4  N   UNL     1      29.748  30.496  73.102  1.00  0.00    -0.215 NA
ATOM      5  C   UNL     1      30.100  31.769  72.750  1.00  0.00     0.226 A 
ATOM      6  N   UNL     1      29.148  32.751  72.647  1.00  0.00    -0.217 NA
ATOM      7  C   UNL     1      27.828  32.493  72.892  1.00  0.00     0.152 A 
ATOM      8  C   UNL     1      27.487  31.191  73.250  1.00  0.00     0.127 A 
ATOM      9  N   UNL     1      26.296  30.654  73.544  1.00  0.00    -0.340 N 
ATOM     10  H   UNL     1      25.359  31.113  73.564  1.00  0.00     0.168 HD
ENDROOT
BRANCH   7  11
ATOM     11  N   UNL     1      26.855  33.532  72.779  1.00  0.00    -0.382 N 
ATOM     12  H   UNL     1      25.989  33.531  73.362  1.00  0.00     0.158 HD
ATOM     13  H   UNL     1      27.001  34.313  72.102  1.00  0.00     0.158 HD
ENDBRANCH   7  11
TORSDOF 1
ENDMDL
MODEL 5
REMARK VINA RESULT:    -3.810      1.806      3.801
REMARK INTER + INTRA:          -3.921
REMARK INTER:                  -3.921
REMARK INTRA:                   0.000
REMARK UNBOUND:                 0.000
REMARK SMILES Nc1ncnc2nc[nH]c12
REMARK SMILES IDX 8 1 7 2 6 3 5 4 4 5 3 6 2 7 10 8 9 9 1 11
REMARK H PARENT 9 10 1 12 1 13
REMARK Flexibility Score: inf
ROOT
ATOM      1  C   UNL     1      29.867  34.836  71.463  1.00  0.00     0.199 A 
ATOM      2  N   UNL     1      28.567  34.660  71.827  1.00  0.00    -0.217 NA
ATOM      3  C   UNL     1      28.564  33.393  72.272  1.00  0.00     0.182 A 
ATOM      4  N   UNL     1      27.501  32.709  72.759  1.00  0.00    -0.215 NA
ATOM      5  C   UNL     1      27.695  31.418  73.167  1.00  0.00     0.226 A 
ATOM      6  N   UNL     1      28.937  30.840  73.081  1.00  0.00    -0.217 NA
ATOM      7  C   UNL     1      30.010  31.529  72.590  1.00  0.00     0.152 A 
ATOM      8  C   UNL     1      29.796  32.841  72.179  1.00  0.00     0.127 A 
ATOM      9  N   UNL     1      30.644  33.742  71.667  1.00  0.00    -0.340 N 
ATOM     10  H   UNL     1      31.663  33.640  71.466  1.00  0.00     0.168 HD
ENDROOT
BRANCH   7  11
ATOM     11  N   UNL     1      31.293  30.906  72.511  1.00  0.00    -0.382 N 
ATOM     12  H   UNL     1      31.588  30.178  73.200  1.00  0.00     0.158 HD
ATOM     13  H   UNL     1      31.960  31.176  71.754  1.00  0.00     0.158 HD
ENDBRANCH   7  11
TORSDOF 1
ENDMDL
MODEL 6
REMARK VINA RESULT:    -3.768      1.497      1.985
REMARK INTER + INTRA:          -3.878
REMARK INTER:                  -3.878
REMARK INTRA:                   0.000
REMARK UNBOUND:                 0.000
REMARK SMILES Nc1ncnc2nc[nH]c12
REMARK SMILES IDX 8 1 7 2 6 3 5 4 4 5 3 6 2 7 10 8 9 9 1 11
REMARK H PARENT 9 10 1 12 1 13
REMARK Flexibility Score: inf
ROOT
ATOM      1  C   UNL     1      30.878  28.440  74.955  1.00  0.00     0.199 A 
ATOM      2  N   UNL     1      29.575  28.098  74.764  1.00  0.00    -0.217 NA
ATOM      3  C   UNL     1      29.153  29.044  73.909  1.00  0.00     0.182 A 
ATOM      4  N   UNL     1      27.908  29.167  73.389  1.00  0.00    -0.215 NA
ATOM      5  C   UNL     1      27.668  30.202  72.528  1.00  0.00     0.226 A 
ATOM      6  N   UNL     1      28.666  31.087  72.207  1.00  0.00    -0.217 NA
ATOM      7  C   UNL     1      29.922  30.964  72.731  1.00  0.00     0.152 A 
ATOM      8  C   UNL     1      30.151  29.905  73.605  1.00  0.00     0.127 A 
ATOM      9  N   UNL     1      31.261  29.541  74.260  1.00  0.00    -0.340 N 
ATOM     10  H   UNL     1      32.203  29.989  74.247  1.00  0.00     0.168 HD
ENDROOT
BRANCH   7  11
ATOM     11  N   UNL     1      30.946  31.897  72.382  1.00  0.00    -0.382 N 
ATOM     12  H   UNL     1      31.397  31.882  71.440  1.00  0.00     0.158 HD
ATOM     13  H   UNL     1      31.258  32.614  73.074  1.00  0.00     0.158 HD
ENDBRANCH   7  11
TORSDOF 1
ENDMDL
MODEL 7
REMARK VINA RESULT:    -3.740      5.873      7.242
REMARK INTER + INTRA:          -3.849
REMARK INTER:                  -3.849
REMARK INTRA:                   0.000
REMARK UNBOUND:                 0.000
REMARK SMILES Nc1ncnc2nc[nH]c12
REMARK SMILES IDX 8 1 7 2 6 3 5 4 4 5 3 6 2 7 10 8 9 9 1 11
REMARK H PARENT 9 10 1 12 1 13
REMARK Flexibility Score: inf
ROOT
ATOM      1  C   UNL     1      34.526  34.757  71.058  1.00  0.00     0.199 A 
ATOM      2  N   UNL     1      33.417  33.989  70.876  1.00  0.00    -0.217 NA
ATOM      3  C   UNL     1      32.426  34.888  70.980  1.00  0.00     0.182 A 
ATOM      4  N   UNL     1      31.097  34.644  70.875  1.00  0.00    -0.215 NA
ATOM      5  C   UNL     1      30.234  35.696  71.009  1.00  0.00     0.226 A 
ATOM      6  N   UNL     1      30.711  36.961  71.244  1.00  0.00    -0.217 NA
ATOM      7  C   UNL     1      32.050  37.210  71.350  1.00  0.00     0.152 A 
ATOM      8  C   UNL     1      32.915  36.128  71.210  1.00  0.00     0.127 A 
ATOM      9  N   UNL     1      34.252  36.071  71.265  1.00  0.00    -0.340 N 
ATOM     10  H   UNL     1      34.933  36.844  71.426  1.00  0.00     0.168 HD
ENDROOT
BRANCH   7  11
ATOM     11  N   UNL     1      32.522  38.536  71.594  1.00  0.00    -0.382 N 
ATOM     12  H   UNL     1      33.478  38.835  71.301  1.00  0.00     0.158 HD
ATOM     13  H   UNL     1      31.908  39.229  72.077  1.00  0.00     0.158 HD
ENDBRANCH   7  11
TORSDOF 1
ENDMDL
MODEL 8
REMARK VINA RESULT:    -3.695      0.857      2.970
REMARK INTER + INTRA:          -3.803
REMARK INTER:                  -3.803
REMARK INTRA:                   0.000
REMARK UNBOUND:                 0.000
REMARK SMILES Nc1ncnc2nc[nH]c12
REMARK SMILES IDX 8 1 7 2 6 3 5 4 4 5 3 6 2 7 10 8 9 9 1 11
REMARK H PARENT 9 10 1 12 1 13
REMARK Flexibility Score: inf
ROOT
ATOM      1  C   UNL     1      30.469  31.866  72.618  1.00  0.00     0.199 A 
ATOM      2  N   UNL     1      29.218  32.401  72.608  1.00  0.00    -0.217 NA
ATOM      3  C   UNL     1      28.458  31.357  72.975  1.00  0.00     0.182 A 
ATOM      4  N   UNL     1      27.111  31.349  73.124  1.00  0.00    -0.215 NA
ATOM      5  C   UNL     1      26.510  30.182  73.508  1.00  0.00     0.226 A 
ATOM      6  N   UNL     1      27.260  29.055  73.733  1.00  0.00    -0.217 NA
ATOM      7  C   UNL     1      28.618  29.061  73.584  1.00  0.00     0.152 A 
ATOM      8  C   UNL     1      29.214  30.257  73.193  1.00  0.00     0.127 A 
ATOM      9  N   UNL     1      30.500  30.556  72.972  1.00  0.00    -0.340 N 
ATOM     10  H   UNL     1      31.337  29.939  73.050  1.00  0.00     0.168 HD
ENDROOT
BRANCH   7  11
ATOM     11  N   UNL     1      29.377  27.875  73.825  1.00  0.00    -0.382 N 
ATOM     12  H   UNL     1      29.223  27.296  74.681  1.00  0.00     0.158 HD
ATOM     13  H   UNL     1      30.103  27.571  73.140  1.00  0.00     0.158 HD
ENDBRANCH   7  11
TORSDOF 1
ENDMDL
MODEL 9
REMARK VINA RESULT:    -3.659      1.389      4.145
REMARK INTER + INTRA:          -3.766
REMARK INTER:                  -3.766
REMARK INTRA:                   0.000
REMARK UNBOUND:                 0.000
REMARK SMILES Nc1ncnc2nc[nH]c12
REMARK SMILES IDX 8 1 7 2 6 3 5 4 4 5 3 6 2 7 10 8 9 9 1 11
REMARK H PARENT 9 10 1 12 1 13
REMARK Flexibility Score: inf
ROOT
ATOM      1  C   UNL     1      28.179  31.912  72.571  1.00  0.00     0.199 A 
ATOM      2  N   UNL     1      28.965  30.801  72.616  1.00  0.00    -0.217 NA
ATOM      3  C   UNL     1      28.171  29.914  73.238  1.00  0.00     0.182 A 
ATOM      4  N   UNL     1      28.475  28.629  73.540  1.00  0.00    -0.215 NA
ATOM      5  C   UNL     1      27.529  27.875  74.179  1.00  0.00     0.226 A 
ATOM      6  N   UNL     1      26.310  28.415  74.502  1.00  0.00    -0.217 NA
ATOM      7  C   UNL     1      26.002  29.711  74.198  1.00  0.00     0.152 A 
ATOM      8  C   UNL     1      26.974  30.465  73.547  1.00  0.00     0.127 A 
ATOM      9  N   UNL     1      26.955  31.738  73.132  1.00  0.00    -0.340 N 
ATOM     10  H   UNL     1      26.188  32.440  73.214  1.00  0.00     0.168 HD
ENDROOT
BRANCH   7  11
ATOM     11  N   UNL     1      24.725  30.250  74.544  1.00  0.00    -0.382 N 
ATOM     12  H   UNL     1      24.584  30.789  75.427  1.00  0.00     0.158 HD
ATOM     13  H   UNL     1      23.909  30.109  73.909  1.00  0.00     0.158 HD
ENDBRANCH   7  11
TORSDOF 1
ENDMDL
