MODEL 1
REMARK VINA RESULT:    -5.737      0.000      0.000
REMARK INTER + INTRA:          -6.267
REMARK INTER:                  -6.240
REMARK INTRA:                  -0.027
REMARK UNBOUND:                -0.027
REMARK SMILES O=C([O-])c1ccc(O)cc1
REMARK SMILES IDX 7 1 6 2 9 3 5 4 10 5 4 6 8 7 2 9 1 10 3 11
REMARK H PARENT 8 8
REMARK Flexibility Score: inf
ROOT
ATOM      1  C   UNL     1     128.371 123.246 130.705  1.00  0.00     0.115 A 
ATOM      2  C   UNL     1     128.135 122.459 129.574  1.00  0.00     0.047 A 
ATOM      3  C   UNL     1     128.941 124.518 130.560  1.00  0.00     0.047 A 
ATOM      4  C   UNL     1     128.465 122.938 128.302  1.00  0.00     0.014 A 
ATOM      5  C   UNL     1     129.272 125.000 129.290  1.00  0.00     0.014 A 
ATOM      6  C   UNL     1     129.038 124.214 128.147  1.00  0.00    -0.003 A 
ENDROOT
BRANCH   1   7
ATOM      7  O   UNL     1     128.038 122.755 131.966  1.00  0.00    -0.508 OA
ATOM      8  H   UNL     1     128.716 122.724 132.717  1.00  0.00     0.293 HD
ENDBRANCH   1   7
BRANCH   6   9
ATOM      9  C   UNL     1     129.389 124.726 126.804  1.00  0.00     0.071 C 
ATOM     10  O   UNL     1     130.583 124.707 126.403  1.00  0.00    -0.545 OA
ATOM     11  O   UNL     1     128.404 125.234 125.965  1.00  0.00    -0.545 OA
ENDBRANCH   6   9
TORSDOF 2
ENDMDL
MODEL 2
REMARK VINA RESULT:    -5.734      2.205      3.071
REMARK INTER + INTRA:          -6.264
REMARK INTER:                  -6.229
REMARK INTRA:                  -0.035
REMARK UNBOUND:                -0.027
REMARK SMILES O=C([O-])c1ccc(O)cc1
REMARK SMILES IDX 7 1 6 2 9 3 5 4 10 5 4 6 8 7 2 9 1 10 3 11
REMARK H PARENT 8 8
REMARK Flexibility Score: inf
ROOT
ATOM      1  C   UNL     1     128.590 123.428 127.929  1.00  0.00     0.115 A 
ATOM      2  C   UNL     1     128.735 124.554 128.744  1.00  0.00     0.047 A 
ATOM      3  C   UNL     1     129.309 123.339 126.730  1.00  0.00     0.047 A 
ATOM      4  C   UNL     1     129.595 125.590 128.365  1.00  0.00     0.014 A 
ATOM      5  C   UNL     1     130.170 124.373 126.348  1.00  0.00     0.014 A 
ATOM      6  C   UNL     1     130.321 125.510 127.162  1.00  0.00    -0.003 A 
ENDROOT
BRANCH   1   7
ATOM      7  O   UNL     1     127.729 122.404 128.319  1.00  0.00    -0.508 OA
ATOM      8  H   UNL     1     127.464 121.664 127.680  1.00  0.00     0.293 HD
ENDBRANCH   1   7
BRANCH   6   9
ATOM      9  C   UNL     1     131.232 126.603 126.757  1.00  0.00     0.071 C 
ATOM     10  O   UNL     1     132.073 126.429 125.835  1.00  0.00    -0.545 OA
ATOM     11  O   UNL     1     131.173 127.840 127.389  1.00  0.00    -0.545 OA
ENDBRANCH   6   9
TORSDOF 2
ENDMDL
MODEL 3
REMARK VINA RESULT:    -5.568      2.515      4.838
REMARK INTER + INTRA:          -6.084
REMARK INTER:                  -6.053
REMARK INTRA:                  -0.031
REMARK UNBOUND:                -0.027
REMARK SMILES O=C([O-])c1ccc(O)cc1
REMARK SMILES IDX 7 1 6 2 9 3 5 4 10 5 4 6 8 7 2 9 1 10 3 11
REMARK H PARENT 8 8
REMARK Flexibility Score: inf
ROOT
ATOM      1  C   UNL     1     131.611 127.098 126.586  1.00  0.00     0.115 A 
ATOM      2  C   UNL     1     130.721 127.108 127.664  1.00  0.00     0.047 A 
ATOM      3  C   UNL     1     131.643 125.997 125.720  1.00  0.00     0.047 A 
ATOM      4  C   UNL     1     129.863 126.024 127.878  1.00  0.00     0.014 A 
ATOM      5  C   UNL     1     130.786 124.912 125.932  1.00  0.00     0.014 A 
ATOM      6  C   UNL     1     129.888 124.914 127.014  1.00  0.00    -0.003 A 
ENDROOT
BRANCH   1   7
ATOM      7  O   UNL     1     132.460 128.185 126.385  1.00  0.00    -0.508 OA
ATOM      8  H   UNL     1     133.353 128.254 126.860  1.00  0.00     0.293 HD
ENDBRANCH   1   7
BRANCH   6   9
ATOM      9  C   UNL     1     128.983 123.765 127.236  1.00  0.00     0.071 C 
ATOM     10  O   UNL     1     128.357 123.246 126.274  1.00  0.00    -0.545 OA
ATOM     11  O   UNL     1     128.811 123.241 128.512  1.00  0.00    -0.545 OA
ENDBRANCH   6   9
TORSDOF 2
ENDMDL
MODEL 4
REMARK VINA RESULT:    -5.557      1.575      4.496
REMARK INTER + INTRA:          -6.072
REMARK INTER:                  -6.042
REMARK INTRA:                  -0.030
REMARK UNBOUND:                -0.027
REMARK SMILES O=C([O-])c1ccc(O)cc1
REMARK SMILES IDX 7 1 6 2 9 3 5 4 10 5 4 6 8 7 2 9 1 10 3 11
REMARK H PARENT 8 8
REMARK Flexibility Score: inf
ROOT
ATOM      1  C   UNL     1     130.229 124.764 125.992  1.00  0.00     0.115 A 
ATOM      2  C   UNL     1     130.266 125.796 126.934  1.00  0.00     0.047 A 
ATOM      3  C   UNL     1     129.603 123.552 126.313  1.00  0.00     0.047 A 
ATOM      4  C   UNL     1     129.681 125.622 128.192  1.00  0.00     0.014 A 
ATOM      5  C   UNL     1     129.017 123.375 127.570  1.00  0.00     0.014 A 
ATOM      6  C   UNL     1     129.050 124.408 128.523  1.00  0.00    -0.003 A 
ENDROOT
BRANCH   1   7
ATOM      7  O   UNL     1     130.816 124.952 124.742  1.00  0.00    -0.508 OA
ATOM      8  H   UNL     1     131.750 124.616 124.541  1.00  0.00     0.293 HD
ENDBRANCH   1   7
BRANCH   6   9
ATOM      9  C   UNL     1     128.430 124.218 129.853  1.00  0.00     0.071 C 
ATOM     10  O   UNL     1     129.073 124.482 130.904  1.00  0.00    -0.545 OA
ATOM     11  O   UNL     1     127.127 123.747 129.961  1.00  0.00    -0.545 OA
ENDBRANCH   6   9
TORSDOF 2
ENDMDL
MODEL 5
REMARK VINA RESULT:    -5.537      1.580      4.233
REMARK INTER + INTRA:          -6.050
REMARK INTER:                  -6.020
REMARK INTRA:                  -0.030
REMARK UNBOUND:                -0.027
REMARK SMILES O=C([O-])c1ccc(O)cc1
REMARK SMILES IDX 7 1 6 2 9 3 5 4 10 5 4 6 8 7 2 9 1 10 3 11
REMARK H PARENT 8 8
REMARK Flexibility Score: inf
ROOT
ATOM      1  C   UNL     1     130.268 124.808 125.993  1.00  0.00     0.115 A 
ATOM      2  C   UNL     1     129.646 123.589 126.278  1.00  0.00     0.047 A 
ATOM      3  C   UNL     1     130.271 125.829 126.953  1.00  0.00     0.047 A 
ATOM      4  C   UNL     1     129.028 123.387 127.517  1.00  0.00     0.014 A 
ATOM      5  C   UNL     1     129.654 125.630 128.193  1.00  0.00     0.014 A 
ATOM      6  C   UNL     1     129.025 124.406 128.487  1.00  0.00    -0.003 A 
ENDROOT
BRANCH   1   7
ATOM      7  O   UNL     1     130.879 124.995 124.755  1.00  0.00    -0.508 OA
ATOM      8  H   UNL     1     131.426 124.262 124.319  1.00  0.00     0.293 HD
ENDBRANCH   1   7
BRANCH   6   9
ATOM      9  C   UNL     1     128.373 124.198 129.799  1.00  0.00     0.071 C 
ATOM     10  O   UNL     1     129.015 124.373 130.868  1.00  0.00    -0.545 OA
ATOM     11  O   UNL     1     127.041 123.807 129.868  1.00  0.00    -0.545 OA
ENDBRANCH   6   9
TORSDOF 2
ENDMDL
MODEL 6
REMARK VINA RESULT:    -5.352      1.791      2.289
REMARK INTER + INTRA:          -5.849
REMARK INTER:                  -5.819
REMARK INTRA:                  -0.030
REMARK UNBOUND:                -0.027
REMARK SMILES O=C([O-])c1ccc(O)cc1
REMARK SMILES IDX 7 1 6 2 9 3 5 4 10 5 4 6 8 7 2 9 1 10 3 11
REMARK H PARENT 8 8
REMARK Flexibility Score: inf
ROOT
ATOM      1  C   UNL     1     126.975 123.982 128.938  1.00  0.00     0.115 A 
ATOM      2  C   UNL     1     126.944 125.292 128.452  1.00  0.00     0.047 A 
ATOM      3  C   UNL     1     128.030 123.132 128.580  1.00  0.00     0.047 A 
ATOM      4  C   UNL     1     127.961 125.755 127.611  1.00  0.00     0.014 A 
ATOM      5  C   UNL     1     129.049 123.592 127.740  1.00  0.00     0.014 A 
ATOM      6  C   UNL     1     129.025 124.909 127.246  1.00  0.00    -0.003 A 
ENDROOT
BRANCH   1   7
ATOM      7  O   UNL     1     125.954 123.534 129.775  1.00  0.00    -0.508 OA
ATOM      8  H   UNL     1     125.659 124.070 130.582  1.00  0.00     0.293 HD
ENDBRANCH   1   7
BRANCH   6   9
ATOM      9  C   UNL     1     130.104 125.393 126.357  1.00  0.00     0.071 C 
ATOM     10  O   UNL     1     131.313 125.246 126.678  1.00  0.00    -0.545 OA
ATOM     11  O   UNL     1     129.797 126.018 125.154  1.00  0.00    -0.545 OA
ENDBRANCH   6   9
TORSDOF 2
ENDMDL
MODEL 7
REMARK VINA RESULT:    -5.203      2.820      5.584
REMARK INTER + INTRA:          -5.686
REMARK INTER:                  -5.657
REMARK INTRA:                  -0.029
REMARK UNBOUND:                -0.027
REMARK SMILES O=C([O-])c1ccc(O)cc1
REMARK SMILES IDX 7 1 6 2 9 3 5 4 10 5 4 6 8 7 2 9 1 10 3 11
REMARK H PARENT 8 8
REMARK Flexibility Score: inf
ROOT
ATOM      1  C   UNL     1     130.778 127.606 124.825  1.00  0.00     0.115 A 
ATOM      2  C   UNL     1     131.605 127.134 125.848  1.00  0.00     0.047 A 
ATOM      3  C   UNL     1     129.493 127.068 124.665  1.00  0.00     0.047 A 
ATOM      4  C   UNL     1     131.153 126.130 126.711  1.00  0.00     0.014 A 
ATOM      5  C   UNL     1     129.040 126.064 125.526  1.00  0.00     0.014 A 
ATOM      6  C   UNL     1     129.866 125.584 126.559  1.00  0.00    -0.003 A 
ENDROOT
BRANCH   1   7
ATOM      7  O   UNL     1     131.240 128.606 123.973  1.00  0.00    -0.508 OA
ATOM      8  H   UNL     1     132.230 128.746 123.810  1.00  0.00     0.293 HD
ENDBRANCH   1   7
BRANCH   6   9
ATOM      9  C   UNL     1     129.384 124.521 127.468  1.00  0.00     0.071 C 
ATOM     10  O   UNL     1     129.027 123.402 127.014  1.00  0.00    -0.545 OA
ATOM     11  O   UNL     1     129.319 124.744 128.839  1.00  0.00    -0.545 OA
ENDBRANCH   6   9
TORSDOF 2
ENDMDL
MODEL 8
REMARK VINA RESULT:    -4.931      2.796      3.977
REMARK INTER + INTRA:          -5.391
REMARK INTER:                  -5.358
REMARK INTRA:                  -0.032
REMARK UNBOUND:                -0.027
REMARK SMILES O=C([O-])c1ccc(O)cc1
REMARK SMILES IDX 7 1 6 2 9 3 5 4 10 5 4 6 8 7 2 9 1 10 3 11
REMARK H PARENT 8 8
REMARK Flexibility Score: inf
ROOT
ATOM      1  C   UNL     1     129.732 125.569 128.308  1.00  0.00     0.115 A 
ATOM      2  C   UNL     1     130.405 126.777 128.108  1.00  0.00     0.047 A 
ATOM      3  C   UNL     1     129.508 124.710 127.224  1.00  0.00     0.047 A 
ATOM      4  C   UNL     1     130.854 127.130 126.831  1.00  0.00     0.014 A 
ATOM      5  C   UNL     1     129.956 125.060 125.946  1.00  0.00     0.014 A 
ATOM      6  C   UNL     1     130.634 126.274 125.736  1.00  0.00    -0.003 A 
ENDROOT
BRANCH   1   7
ATOM      7  O   UNL     1     129.290 125.231 129.585  1.00  0.00    -0.508 OA
ATOM      8  H   UNL     1     129.896 125.313 130.393  1.00  0.00     0.293 HD
ENDBRANCH   1   7
BRANCH   6   9
ATOM      9  C   UNL     1     131.107 126.642 124.384  1.00  0.00     0.071 C 
ATOM     10  O   UNL     1     131.070 127.840 123.996  1.00  0.00    -0.545 OA
ATOM     11  O   UNL     1     131.599 125.669 123.521  1.00  0.00    -0.545 OA
ENDBRANCH   6   9
TORSDOF 2
ENDMDL
MODEL 9
REMARK VINA RESULT:    -4.731      4.362      5.905
REMARK INTER + INTRA:          -5.173
REMARK INTER:                  -5.137
REMARK INTRA:                  -0.035
REMARK UNBOUND:                -0.027
REMARK SMILES O=C([O-])c1ccc(O)cc1
REMARK SMILES IDX 7 1 6 2 9 3 5 4 10 5 4 6 8 7 2 9 1 10 3 11
REMARK H PARENT 8 8
REMARK Flexibility Score: inf
ROOT
ATOM      1  C   UNL     1     130.750 126.599 125.928  1.00  0.00     0.115 A 
ATOM      2  C   UNL     1     131.020 127.586 124.976  1.00  0.00     0.047 A 
ATOM      3  C   UNL     1     129.519 125.931 125.907  1.00  0.00     0.047 A 
ATOM      4  C   UNL     1     130.066 127.907 124.005  1.00  0.00     0.014 A 
ATOM      5  C   UNL     1     128.563 126.250 124.937  1.00  0.00     0.014 A 
ATOM      6  C   UNL     1     128.827 127.242 123.976  1.00  0.00    -0.003 A 
ENDROOT
BRANCH   1   7
ATOM      7  O   UNL     1     131.710 126.290 126.890  1.00  0.00    -0.508 OA
ATOM      8  H   UNL     1     131.528 126.417 127.878  1.00  0.00     0.293 HD
ENDBRANCH   1   7
BRANCH   6   9
ATOM      9  C   UNL     1     127.814 127.577 122.951  1.00  0.00     0.071 C 
ATOM     10  O   UNL     1     126.816 126.832 122.768  1.00  0.00    -0.545 OA
ATOM     11  O   UNL     1     127.950 128.723 122.175  1.00  0.00    -0.545 OA
ENDBRANCH   6   9
TORSDOF 2
ENDMDL
