MODEL 1
REMARK VINA RESULT:    -4.632      0.000      0.000
REMARK INTER + INTRA:         -12.270
REMARK INTER:                 -10.049
REMARK INTRA:                  -2.221
REMARK UNBOUND:                -2.221
REMARK SMILES CCCCCCCCCCCCCCCCCCCCCC(=O)[O-]
REMARK SMILES IDX 12 1 11 2 10 3 9 4 8 5 7 6 6 7 5 8 4 9 3 10 2 11 1 12 13 13
REMARK SMILES IDX 14 14 15 15 16 16 17 17 18 18 19 19 20 20 21 21 22 22 23 23
REMARK SMILES IDX 24 24
REMARK H PARENT
REMARK Flexibility Score: inf
ROOT
ATOM      1  C   UNL     1     173.891 179.320 181.121  1.00  0.00     0.000 C 
ENDROOT
BRANCH   1   2
ATOM      2  C   UNL     1     172.491 179.936 181.303  1.00  0.00     0.000 C 
BRANCH   2   3
ATOM      3  C   UNL     1     171.321 179.062 180.803  1.00  0.00     0.000 C 
BRANCH   3   4
ATOM      4  C   UNL     1     170.310 178.637 181.887  1.00  0.00    -0.000 C 
BRANCH   4   5
ATOM      5  C   UNL     1     168.844 178.572 181.418  1.00  0.00    -0.000 C 
BRANCH   5   6
ATOM      6  C   UNL     1     168.634 177.914 180.041  1.00  0.00    -0.000 C 
BRANCH   6   7
ATOM      7  C   UNL     1     167.332 178.352 179.336  1.00  0.00    -0.000 C 
BRANCH   7   8
ATOM      8  C   UNL     1     166.455 179.247 180.226  1.00  0.00    -0.000 C 
BRANCH   8   9
ATOM      9  C   UNL     1     165.008 178.741 180.255  1.00  0.00    -0.000 C 
BRANCH   9  10
ATOM     10  C   UNL     1     164.261 179.280 181.485  1.00  0.00    -0.000 C 
BRANCH  10  11
ATOM     11  C   UNL     1     162.742 179.345 181.268  1.00  0.00    -0.003 C 
ATOM     12  C   UNL     1     162.361 179.980 179.931  1.00  0.00     0.004 C 
ENDBRANCH  10  11
ENDBRANCH   9  10
ENDBRANCH   8   9
ENDBRANCH   7   8
ENDBRANCH   6   7
ENDBRANCH   5   6
ENDBRANCH   4   5
ENDBRANCH   3   4
ENDBRANCH   2   3
ENDBRANCH   1   2
BRANCH   1  13
ATOM     13  C   UNL     1     173.848 177.794 180.921  1.00  0.00     0.000 C 
BRANCH  13  14
ATOM     14  C   UNL     1     175.142 177.103 181.381  1.00  0.00     0.000 C 
BRANCH  14  15
ATOM     15  C   UNL     1     176.200 178.102 181.885  1.00  0.00     0.000 C 
BRANCH  15  16
ATOM     16  C   UNL     1     177.447 178.139 180.987  1.00  0.00     0.000 C 
BRANCH  16  17
ATOM     17  C   UNL     1     177.348 177.168 179.796  1.00  0.00     0.000 C 
BRANCH  17  18
ATOM     18  C   UNL     1     177.113 177.893 178.461  1.00  0.00     0.000 C 
BRANCH  18  19
ATOM     19  C   UNL     1     177.049 179.419 178.624  1.00  0.00     0.000 C 
BRANCH  19  20
ATOM     20  C   UNL     1     175.679 179.959 178.186  1.00  0.00     0.006 C 
BRANCH  20  21
ATOM     21  C   UNL     1     174.845 178.901 177.450  1.00  0.00     0.053 C 
BRANCH  21  22
ATOM     22  C   UNL     1     173.592 179.484 176.871  1.00  0.00     0.041 C 
ATOM     23  O   UNL     1     172.641 179.819 177.625  1.00  0.00    -0.550 OA
ATOM     24  O   UNL     1     173.466 179.635 175.494  1.00  0.00    -0.550 OA
ENDBRANCH  21  22
ENDBRANCH  20  21
ENDBRANCH  19  20
ENDBRANCH  18  19
ENDBRANCH  17  18
ENDBRANCH  16  17
ENDBRANCH  15  16
ENDBRANCH  14  15
ENDBRANCH  13  14
ENDBRANCH   1  13
TORSDOF 20
ENDMDL
MODEL 2
REMARK VINA RESULT:    -4.584      9.093     11.726
REMARK INTER + INTRA:         -12.164
REMARK INTER:                  -9.030
REMARK INTRA:                  -3.134
REMARK UNBOUND:                -2.221
REMARK SMILES CCCCCCCCCCCCCCCCCCCCCC(=O)[O-]
REMARK SMILES IDX 12 1 11 2 10 3 9 4 8 5 7 6 6 7 5 8 4 9 3 10 2 11 1 12 13 13
REMARK SMILES IDX 14 14 15 15 16 16 17 17 18 18 19 19 20 20 21 21 22 22 23 23
REMARK SMILES IDX 24 24
REMARK H PARENT
REMARK Flexibility Score: inf
ROOT
ATOM      1  C   UNL     1     164.303 177.874 181.105  1.00  0.00     0.000 C 
ENDROOT
BRANCH   1   2
ATOM      2  C   UNL     1     163.565 178.980 181.882  1.00  0.00     0.000 C 
BRANCH   2   3
ATOM      3  C   UNL     1     162.499 179.749 181.074  1.00  0.00     0.000 C 
BRANCH   3   4
ATOM      4  C   UNL     1     162.804 179.911 179.571  1.00  0.00    -0.000 C 
BRANCH   4   5
ATOM      5  C   UNL     1     161.810 179.207 178.628  1.00  0.00    -0.000 C 
BRANCH   5   6
ATOM      6  C   UNL     1     162.405 178.046 177.809  1.00  0.00    -0.000 C 
BRANCH   6   7
ATOM      7  C   UNL     1     161.352 177.027 177.322  1.00  0.00    -0.000 C 
BRANCH   7   8
ATOM      8  C   UNL     1     161.957 175.641 177.051  1.00  0.00    -0.000 C 
BRANCH   8   9
ATOM      9  C   UNL     1     161.689 175.199 175.607  1.00  0.00    -0.000 C 
BRANCH   9  10
ATOM     10  C   UNL     1     160.194 175.300 175.269  1.00  0.00    -0.000 C 
BRANCH  10  11
ATOM     11  C   UNL     1     159.940 176.029 173.941  1.00  0.00    -0.003 C 
ATOM     12  C   UNL     1     161.188 176.727 173.400  1.00  0.00     0.004 C 
ENDBRANCH  10  11
ENDBRANCH   9  10
ENDBRANCH   8   9
ENDBRANCH   7   8
ENDBRANCH   6   7
ENDBRANCH   5   6
ENDBRANCH   4   5
ENDBRANCH   3   4
ENDBRANCH   2   3
ENDBRANCH   1   2
BRANCH   1  13
ATOM     13  C   UNL     1     163.889 176.459 181.546  1.00  0.00     0.000 C 
BRANCH  13  14
ATOM     14  C   UNL     1     162.775 175.868 180.667  1.00  0.00     0.000 C 
BRANCH  14  15
ATOM     15  C   UNL     1     161.377 176.373 181.067  1.00  0.00     0.000 C 
BRANCH  15  16
ATOM     16  C   UNL     1     160.335 175.243 181.114  1.00  0.00     0.000 C 
BRANCH  16  17
ATOM     17  C   UNL     1     160.662 174.096 180.140  1.00  0.00     0.000 C 
BRANCH  17  18
ATOM     18  C   UNL     1     160.927 172.766 180.863  1.00  0.00     0.000 C 
BRANCH  18  19
ATOM     19  C   UNL     1     161.016 172.933 182.388  1.00  0.00     0.000 C 
BRANCH  19  20
ATOM     20  C   UNL     1     162.421 172.577 182.896  1.00  0.00     0.006 C 
BRANCH  20  21
ATOM     21  C   UNL     1     163.259 171.854 181.832  1.00  0.00     0.053 C 
BRANCH  21  22
ATOM     22  C   UNL     1     164.593 172.509 181.634  1.00  0.00     0.041 C 
ATOM     23  O   UNL     1     165.407 172.592 182.590  1.00  0.00    -0.550 OA
ATOM     24  O   UNL     1     164.925 173.049 180.397  1.00  0.00    -0.550 OA
ENDBRANCH  21  22
ENDBRANCH  20  21
ENDBRANCH  19  20
ENDBRANCH  18  19
ENDBRANCH  17  18
ENDBRANCH  16  17
ENDBRANCH  15  16
ENDBRANCH  14  15
ENDBRANCH  13  14
ENDBRANCH   1  13
TORSDOF 20
ENDMDL
MODEL 3
REMARK VINA RESULT:    -4.579      3.755      6.096
REMARK INTER + INTRA:         -12.154
REMARK INTER:                  -8.812
REMARK INTRA:                  -3.342
REMARK UNBOUND:                -2.221
REMARK SMILES CCCCCCCCCCCCCCCCCCCCCC(=O)[O-]
REMARK SMILES IDX 12 1 11 2 10 3 9 4 8 5 7 6 6 7 5 8 4 9 3 10 2 11 1 12 13 13
REMARK SMILES IDX 14 14 15 15 16 16 17 17 18 18 19 19 20 20 21 21 22 22 23 23
REMARK SMILES IDX 24 24
REMARK H PARENT
REMARK Flexibility Score: inf
ROOT
ATOM      1  C   UNL     1     176.750 178.761 178.054  1.00  0.00     0.000 C 
ENDROOT
BRANCH   1   2
ATOM      2  C   UNL     1     177.391 178.576 179.441  1.00  0.00     0.000 C 
BRANCH   2   3
ATOM      3  C   UNL     1     177.086 179.696 180.458  1.00  0.00     0.000 C 
BRANCH   3   4
ATOM      4  C   UNL     1     176.268 179.260 181.690  1.00  0.00    -0.000 C 
BRANCH   4   5
ATOM      5  C   UNL     1     175.500 177.935 181.522  1.00  0.00    -0.000 C 
BRANCH   5   6
ATOM      6  C   UNL     1     174.007 178.091 181.177  1.00  0.00    -0.000 C 
BRANCH   6   7
ATOM      7  C   UNL     1     173.553 179.560 181.035  1.00  0.00    -0.000 C 
BRANCH   7   8
ATOM      8  C   UNL     1     172.079 179.759 181.415  1.00  0.00    -0.000 C 
BRANCH   8   9
ATOM      9  C   UNL     1     171.168 178.858 180.572  1.00  0.00    -0.000 C 
BRANCH   9  10
ATOM     10  C   UNL     1     169.862 178.543 181.318  1.00  0.00    -0.000 C 
BRANCH  10  11
ATOM     11  C   UNL     1     169.756 177.062 181.716  1.00  0.00    -0.003 C 
ATOM     12  C   UNL     1     170.485 176.747 183.022  1.00  0.00     0.004 C 
ENDBRANCH  10  11
ENDBRANCH   9  10
ENDBRANCH   8   9
ENDBRANCH   7   8
ENDBRANCH   6   7
ENDBRANCH   5   6
ENDBRANCH   4   5
ENDBRANCH   3   4
ENDBRANCH   2   3
ENDBRANCH   1   2
BRANCH   1  13
ATOM     13  C   UNL     1     175.570 179.749 178.069  1.00  0.00     0.000 C 
BRANCH  13  14
ATOM     14  C   UNL     1     174.455 179.353 177.087  1.00  0.00     0.000 C 
BRANCH  14  15
ATOM     15  C   UNL     1     173.638 178.144 177.577  1.00  0.00     0.000 C 
BRANCH  15  16
ATOM     16  C   UNL     1     173.432 177.088 176.478  1.00  0.00     0.000 C 
BRANCH  16  17
ATOM     17  C   UNL     1     174.737 176.360 176.107  1.00  0.00     0.000 C 
BRANCH  17  18
ATOM     18  C   UNL     1     174.921 175.047 176.883  1.00  0.00     0.000 C 
BRANCH  18  19
ATOM     19  C   UNL     1     176.120 175.093 177.843  1.00  0.00     0.000 C 
BRANCH  19  20
ATOM     20  C   UNL     1     175.654 175.310 179.290  1.00  0.00     0.006 C 
BRANCH  20  21
ATOM     21  C   UNL     1     176.369 174.377 180.278  1.00  0.00     0.053 C 
BRANCH  21  22
ATOM     22  C   UNL     1     177.856 174.409 180.096  1.00  0.00     0.041 C 
ATOM     23  O   UNL     1     178.450 173.435 179.565  1.00  0.00    -0.550 OA
ATOM     24  O   UNL     1     178.589 175.505 180.537  1.00  0.00    -0.550 OA
ENDBRANCH  21  22
ENDBRANCH  20  21
ENDBRANCH  19  20
ENDBRANCH  18  19
ENDBRANCH  17  18
ENDBRANCH  16  17
ENDBRANCH  15  16
ENDBRANCH  14  15
ENDBRANCH  13  14
ENDBRANCH   1  13
TORSDOF 20
ENDMDL
MODEL 4
REMARK VINA RESULT:    -4.560      8.146     11.150
REMARK INTER + INTRA:         -12.112
REMARK INTER:                  -8.734
REMARK INTRA:                  -3.378
REMARK UNBOUND:                -2.221
REMARK SMILES CCCCCCCCCCCCCCCCCCCCCC(=O)[O-]
REMARK SMILES IDX 12 1 11 2 10 3 9 4 8 5 7 6 6 7 5 8 4 9 3 10 2 11 1 12 13 13
REMARK SMILES IDX 14 14 15 15 16 16 17 17 18 18 19 19 20 20 21 21 22 22 23 23
REMARK SMILES IDX 24 24
REMARK H PARENT
REMARK Flexibility Score: inf
ROOT
ATOM      1  C   UNL     1     164.683 175.968 179.593  1.00  0.00     0.000 C 
ENDROOT
BRANCH   1   2
ATOM      2  C   UNL     1     165.932 176.645 178.998  1.00  0.00     0.000 C 
BRANCH   2   3
ATOM      3  C   UNL     1     165.816 178.170 178.794  1.00  0.00     0.000 C 
BRANCH   3   4
ATOM      4  C   UNL     1     166.067 179.022 180.054  1.00  0.00    -0.000 C 
BRANCH   4   5
ATOM      5  C   UNL     1     164.819 179.730 180.617  1.00  0.00    -0.000 C 
BRANCH   5   6
ATOM      6  C   UNL     1     164.043 178.926 181.678  1.00  0.00    -0.000 C 
BRANCH   6   7
ATOM      7  C   UNL     1     162.542 179.284 181.751  1.00  0.00    -0.000 C 
BRANCH   7   8
ATOM      8  C   UNL     1     161.891 179.367 180.362  1.00  0.00    -0.000 C 
BRANCH   8   9
ATOM      9  C   UNL     1     161.774 177.976 179.727  1.00  0.00    -0.000 C 
BRANCH   9  10
ATOM     10  C   UNL     1     161.758 178.071 178.193  1.00  0.00    -0.000 C 
BRANCH  10  11
ATOM     11  C   UNL     1     162.420 179.358 177.677  1.00  0.00    -0.003 C 
ATOM     12  C   UNL     1     163.255 179.131 176.418  1.00  0.00     0.004 C 
ENDBRANCH  10  11
ENDBRANCH   9  10
ENDBRANCH   8   9
ENDBRANCH   7   8
ENDBRANCH   6   7
ENDBRANCH   5   6
ENDBRANCH   4   5
ENDBRANCH   3   4
ENDBRANCH   2   3
ENDBRANCH   1   2
BRANCH   1  13
ATOM     13  C   UNL     1     164.938 175.369 180.987  1.00  0.00     0.000 C 
BRANCH  13  14
ATOM     14  C   UNL     1     163.674 174.746 181.603  1.00  0.00     0.000 C 
BRANCH  14  15
ATOM     15  C   UNL     1     163.904 173.306 182.095  1.00  0.00     0.000 C 
BRANCH  15  16
ATOM     16  C   UNL     1     162.751 172.794 182.975  1.00  0.00     0.000 C 
BRANCH  16  17
ATOM     17  C   UNL     1     161.462 172.539 182.171  1.00  0.00     0.000 C 
BRANCH  17  18
ATOM     18  C   UNL     1     161.623 171.411 181.141  1.00  0.00     0.000 C 
BRANCH  18  19
ATOM     19  C   UNL     1     160.677 171.570 179.941  1.00  0.00     0.000 C 
BRANCH  19  20
ATOM     20  C   UNL     1     161.452 172.006 178.688  1.00  0.00     0.006 C 
BRANCH  20  21
ATOM     21  C   UNL     1     161.801 173.500 178.709  1.00  0.00     0.053 C 
BRANCH  21  22
ATOM     22  C   UNL     1     160.575 174.358 178.785  1.00  0.00     0.041 C 
ATOM     23  O   UNL     1     159.878 174.558 177.756  1.00  0.00    -0.550 OA
ATOM     24  O   UNL     1     160.215 174.955 179.988  1.00  0.00    -0.550 OA
ENDBRANCH  21  22
ENDBRANCH  20  21
ENDBRANCH  19  20
ENDBRANCH  18  19
ENDBRANCH  17  18
ENDBRANCH  16  17
ENDBRANCH  15  16
ENDBRANCH  14  15
ENDBRANCH  13  14
ENDBRANCH   1  13
TORSDOF 20
ENDMDL
MODEL 5
REMARK VINA RESULT:    -4.541      3.769     10.264
REMARK INTER + INTRA:         -12.071
REMARK INTER:                  -9.919
REMARK INTRA:                  -2.152
REMARK UNBOUND:                -2.221
REMARK SMILES CCCCCCCCCCCCCCCCCCCCCC(=O)[O-]
REMARK SMILES IDX 12 1 11 2 10 3 9 4 8 5 7 6 6 7 5 8 4 9 3 10 2 11 1 12 13 13
REMARK SMILES IDX 14 14 15 15 16 16 17 17 18 18 19 19 20 20 21 21 22 22 23 23
REMARK SMILES IDX 24 24
REMARK H PARENT
REMARK Flexibility Score: inf
ROOT
ATOM      1  C   UNL     1     171.417 177.812 181.497  1.00  0.00     0.000 C 
ENDROOT
BRANCH   1   2
ATOM      2  C   UNL     1     171.758 177.907 179.998  1.00  0.00     0.000 C 
BRANCH   2   3
ATOM      3  C   UNL     1     172.715 179.056 179.616  1.00  0.00     0.000 C 
BRANCH   3   4
ATOM      4  C   UNL     1     173.777 178.702 178.556  1.00  0.00    -0.000 C 
BRANCH   4   5
ATOM      5  C   UNL     1     174.989 179.652 178.509  1.00  0.00    -0.000 C 
BRANCH   5   6
ATOM      6  C   UNL     1     176.335 178.970 178.198  1.00  0.00    -0.000 C 
BRANCH   6   7
ATOM      7  C   UNL     1     177.306 178.940 179.398  1.00  0.00    -0.000 C 
BRANCH   7   8
ATOM      8  C   UNL     1     176.845 179.846 180.550  1.00  0.00    -0.000 C 
BRANCH   8   9
ATOM      9  C   UNL     1     176.729 179.054 181.858  1.00  0.00    -0.000 C 
BRANCH   9  10
ATOM     10  C   UNL     1     176.562 177.552 181.579  1.00  0.00    -0.000 C 
BRANCH  10  11
ATOM     11  C   UNL     1     175.092 177.108 181.611  1.00  0.00    -0.003 C 
ATOM     12  C   UNL     1     174.820 175.895 180.721  1.00  0.00     0.004 C 
ENDBRANCH  10  11
ENDBRANCH   9  10
ENDBRANCH   8   9
ENDBRANCH   7   8
ENDBRANCH   6   7
ENDBRANCH   5   6
ENDBRANCH   4   5
ENDBRANCH   3   4
ENDBRANCH   2   3
ENDBRANCH   1   2
BRANCH   1  13
ATOM     13  C   UNL     1     170.048 178.428 181.835  1.00  0.00     0.000 C 
BRANCH  13  14
ATOM     14  C   UNL     1     168.884 177.700 181.142  1.00  0.00     0.000 C 
BRANCH  14  15
ATOM     15  C   UNL     1     168.047 178.637 180.253  1.00  0.00     0.000 C 
BRANCH  15  16
ATOM     16  C   UNL     1     166.535 178.453 180.465  1.00  0.00     0.000 C 
BRANCH  16  17
ATOM     17  C   UNL     1     165.772 179.791 180.477  1.00  0.00     0.000 C 
BRANCH  17  18
ATOM     18  C   UNL     1     164.298 179.626 180.878  1.00  0.00     0.000 C 
BRANCH  18  19
ATOM     19  C   UNL     1     164.056 178.367 181.724  1.00  0.00     0.000 C 
BRANCH  19  20
ATOM     20  C   UNL     1     162.884 177.547 181.162  1.00  0.00     0.006 C 
BRANCH  20  21
ATOM     21  C   UNL     1     162.955 177.402 179.636  1.00  0.00     0.053 C 
BRANCH  21  22
ATOM     22  C   UNL     1     161.634 177.002 179.053  1.00  0.00     0.041 C 
ATOM     23  O   UNL     1     161.105 177.697 178.147  1.00  0.00    -0.550 OA
ATOM     24  O   UNL     1     160.977 175.872 179.528  1.00  0.00    -0.550 OA
ENDBRANCH  21  22
ENDBRANCH  20  21
ENDBRANCH  19  20
ENDBRANCH  18  19
ENDBRANCH  17  18
ENDBRANCH  16  17
ENDBRANCH  15  16
ENDBRANCH  14  15
ENDBRANCH  13  14
ENDBRANCH   1  13
TORSDOF 20
ENDMDL
MODEL 6
REMARK VINA RESULT:    -4.484      2.975      3.792
REMARK INTER + INTRA:         -11.947
REMARK INTER:                  -9.715
REMARK INTRA:                  -2.232
REMARK UNBOUND:                -2.221
REMARK SMILES CCCCCCCCCCCCCCCCCCCCCC(=O)[O-]
REMARK SMILES IDX 12 1 11 2 10 3 9 4 8 5 7 6 6 7 5 8 4 9 3 10 2 11 1 12 13 13
REMARK SMILES IDX 14 14 15 15 16 16 17 17 18 18 19 19 20 20 21 21 22 22 23 23
REMARK SMILES IDX 24 24
REMARK H PARENT
REMARK Flexibility Score: inf
ROOT
ATOM      1  C   UNL     1     172.794 176.650 181.504  1.00  0.00     0.000 C 
ENDROOT
BRANCH   1   2
ATOM      2  C   UNL     1     171.273 176.418 181.530  1.00  0.00     0.000 C 
BRANCH   2   3
ATOM      3  C   UNL     1     170.522 177.131 182.675  1.00  0.00     0.000 C 
BRANCH   3   4
ATOM      4  C   UNL     1     169.967 178.527 182.327  1.00  0.00    -0.000 C 
BRANCH   4   5
ATOM      5  C   UNL     1     169.297 178.633 180.944  1.00  0.00    -0.000 C 
BRANCH   5   6
ATOM      6  C   UNL     1     167.793 178.299 180.926  1.00  0.00    -0.000 C 
BRANCH   6   7
ATOM      7  C   UNL     1     167.006 179.040 179.822  1.00  0.00    -0.000 C 
BRANCH   7   8
ATOM      8  C   UNL     1     165.932 179.976 180.395  1.00  0.00    -0.000 C 
BRANCH   8   9
ATOM      9  C   UNL     1     164.525 179.429 180.122  1.00  0.00    -0.000 C 
BRANCH   9  10
ATOM     10  C   UNL     1     164.074 178.484 181.246  1.00  0.00    -0.000 C 
BRANCH  10  11
ATOM     11  C   UNL     1     162.773 178.949 181.918  1.00  0.00    -0.003 C 
ATOM     12  C   UNL     1     162.120 180.125 181.191  1.00  0.00     0.004 C 
ENDBRANCH  10  11
ENDBRANCH   9  10
ENDBRANCH   8   9
ENDBRANCH   7   8
ENDBRANCH   6   7
ENDBRANCH   5   6
ENDBRANCH   4   5
ENDBRANCH   3   4
ENDBRANCH   2   3
ENDBRANCH   1   2
BRANCH   1  13
ATOM     13  C   UNL     1     173.305 177.094 180.122  1.00  0.00     0.000 C 
BRANCH  13  14
ATOM     14  C   UNL     1     173.351 178.623 179.972  1.00  0.00     0.000 C 
BRANCH  14  15
ATOM     15  C   UNL     1     174.113 179.307 181.121  1.00  0.00     0.000 C 
BRANCH  15  16
ATOM     16  C   UNL     1     175.610 179.479 180.813  1.00  0.00     0.000 C 
BRANCH  16  17
ATOM     17  C   UNL     1     176.512 178.816 181.870  1.00  0.00     0.000 C 
BRANCH  17  18
ATOM     18  C   UNL     1     177.120 177.492 181.380  1.00  0.00     0.000 C 
BRANCH  18  19
ATOM     19  C   UNL     1     177.207 177.416 179.848  1.00  0.00     0.000 C 
BRANCH  19  20
ATOM     20  C   UNL     1     176.907 175.993 179.353  1.00  0.00     0.006 C 
BRANCH  20  21
ATOM     21  C   UNL     1     176.373 175.088 180.472  1.00  0.00     0.053 C 
BRANCH  21  22
ATOM     22  C   UNL     1     177.063 173.758 180.489  1.00  0.00     0.041 C 
ATOM     23  O   UNL     1     178.286 173.674 180.202  1.00  0.00    -0.550 OA
ATOM     24  O   UNL     1     176.348 172.607 180.801  1.00  0.00    -0.550 OA
ENDBRANCH  21  22
ENDBRANCH  20  21
ENDBRANCH  19  20
ENDBRANCH  18  19
ENDBRANCH  17  18
ENDBRANCH  16  17
ENDBRANCH  15  16
ENDBRANCH  14  15
ENDBRANCH  13  14
ENDBRANCH   1  13
TORSDOF 20
ENDMDL
MODEL 7
REMARK VINA RESULT:    -4.484      5.355     10.155
REMARK INTER + INTRA:         -11.947
REMARK INTER:                  -7.977
REMARK INTRA:                  -3.970
REMARK UNBOUND:                -2.221
REMARK SMILES CCCCCCCCCCCCCCCCCCCCCC(=O)[O-]
REMARK SMILES IDX 12 1 11 2 10 3 9 4 8 5 7 6 6 7 5 8 4 9 3 10 2 11 1 12 13 13
REMARK SMILES IDX 14 14 15 15 16 16 17 17 18 18 19 19 20 20 21 21 22 22 23 23
REMARK SMILES IDX 24 24
REMARK H PARENT
REMARK Flexibility Score: inf
ROOT
ATOM      1  C   UNL     1     163.177 175.418 179.779  1.00  0.00     0.000 C 
ENDROOT
BRANCH   1   2
ATOM      2  C   UNL     1     164.645 175.487 179.321  1.00  0.00     0.000 C 
BRANCH   2   3
ATOM      3  C   UNL     1     165.686 175.131 180.403  1.00  0.00     0.000 C 
BRANCH   3   4
ATOM      4  C   UNL     1     166.703 176.245 180.728  1.00  0.00    -0.000 C 
BRANCH   4   5
ATOM      5  C   UNL     1     167.643 176.624 179.567  1.00  0.00    -0.000 C 
BRANCH   5   6
ATOM      6  C   UNL     1     168.090 178.098 179.553  1.00  0.00    -0.000 C 
BRANCH   6   7
ATOM      7  C   UNL     1     168.309 178.694 180.960  1.00  0.00    -0.000 C 
BRANCH   7   8
ATOM      8  C   UNL     1     169.789 178.695 181.374  1.00  0.00    -0.000 C 
BRANCH   8   9
ATOM      9  C   UNL     1     170.029 177.746 182.554  1.00  0.00    -0.000 C 
BRANCH   9  10
ATOM     10  C   UNL     1     170.617 176.410 182.074  1.00  0.00    -0.000 C 
BRANCH  10  11
ATOM     11  C   UNL     1     169.998 175.203 182.796  1.00  0.00    -0.003 C 
ATOM     12  C   UNL     1     169.578 174.091 181.835  1.00  0.00     0.004 C 
ENDBRANCH  10  11
ENDBRANCH   9  10
ENDBRANCH   8   9
ENDBRANCH   7   8
ENDBRANCH   6   7
ENDBRANCH   5   6
ENDBRANCH   4   5
ENDBRANCH   3   4
ENDBRANCH   2   3
ENDBRANCH   1   2
BRANCH   1  13
ATOM     13  C   UNL     1     162.949 176.076 181.151  1.00  0.00     0.000 C 
BRANCH  13  14
ATOM     14  C   UNL     1     161.838 177.139 181.119  1.00  0.00     0.000 C 
BRANCH  14  15
ATOM     15  C   UNL     1     162.359 178.550 181.444  1.00  0.00     0.000 C 
BRANCH  15  16
ATOM     16  C   UNL     1     163.844 178.550 181.844  1.00  0.00     0.000 C 
BRANCH  16  17
ATOM     17  C   UNL     1     164.715 179.384 180.886  1.00  0.00     0.000 C 
BRANCH  17  18
ATOM     18  C   UNL     1     163.972 179.768 179.597  1.00  0.00     0.000 C 
BRANCH  18  19
ATOM     19  C   UNL     1     164.456 178.969 178.377  1.00  0.00     0.000 C 
BRANCH  19  20
ATOM     20  C   UNL     1     163.418 179.014 177.246  1.00  0.00     0.006 C 
BRANCH  20  21
ATOM     21  C   UNL     1     162.059 178.446 177.680  1.00  0.00     0.053 C 
BRANCH  21  22
ATOM     22  C   UNL     1     161.745 177.158 176.982  1.00  0.00     0.041 C 
ATOM     23  O   UNL     1     160.576 176.693 177.006  1.00  0.00    -0.550 OA
ATOM     24  O   UNL     1     162.752 176.460 176.324  1.00  0.00    -0.550 OA
ENDBRANCH  21  22
ENDBRANCH  20  21
ENDBRANCH  19  20
ENDBRANCH  18  19
ENDBRANCH  17  18
ENDBRANCH  16  17
ENDBRANCH  15  16
ENDBRANCH  14  15
ENDBRANCH  13  14
ENDBRANCH   1  13
TORSDOF 20
ENDMDL
MODEL 8
REMARK VINA RESULT:    -4.483      8.177     11.396
REMARK INTER + INTRA:         -11.946
REMARK INTER:                  -8.315
REMARK INTRA:                  -3.631
REMARK UNBOUND:                -2.221
REMARK SMILES CCCCCCCCCCCCCCCCCCCCCC(=O)[O-]
REMARK SMILES IDX 12 1 11 2 10 3 9 4 8 5 7 6 6 7 5 8 4 9 3 10 2 11 1 12 13 13
REMARK SMILES IDX 14 14 15 15 16 16 17 17 18 18 19 19 20 20 21 21 22 22 23 23
REMARK SMILES IDX 24 24
REMARK H PARENT
REMARK Flexibility Score: inf
ROOT
ATOM      1  C   UNL     1     165.639 176.848 178.689  1.00  0.00     0.000 C 
ENDROOT
BRANCH   1   2
ATOM      2  C   UNL     1     165.766 178.326 179.101  1.00  0.00     0.000 C 
BRANCH   2   3
ATOM      3  C   UNL     1     165.537 178.610 180.600  1.00  0.00     0.000 C 
BRANCH   3   4
ATOM      4  C   UNL     1     164.483 179.693 180.910  1.00  0.00    -0.000 C 
BRANCH   4   5
ATOM      5  C   UNL     1     163.316 179.226 181.801  1.00  0.00    -0.000 C 
BRANCH   5   6
ATOM      6  C   UNL     1     161.914 179.463 181.208  1.00  0.00    -0.000 C 
BRANCH   6   7
ATOM      7  C   UNL     1     161.936 180.059 179.783  1.00  0.00    -0.000 C 
BRANCH   7   8
ATOM      8  C   UNL     1     161.519 179.039 178.713  1.00  0.00    -0.000 C 
BRANCH   8   9
ATOM      9  C   UNL     1     162.590 178.919 177.623  1.00  0.00    -0.000 C 
BRANCH   9  10
ATOM     10  C   UNL     1     162.434 177.606 176.840  1.00  0.00    -0.000 C 
BRANCH  10  11
ATOM     11  C   UNL     1     163.425 177.496 175.672  1.00  0.00    -0.003 C 
ATOM     12  C   UNL     1     162.815 177.920 174.336  1.00  0.00     0.004 C 
ENDBRANCH  10  11
ENDBRANCH   9  10
ENDBRANCH   8   9
ENDBRANCH   7   8
ENDBRANCH   6   7
ENDBRANCH   5   6
ENDBRANCH   4   5
ENDBRANCH   3   4
ENDBRANCH   2   3
ENDBRANCH   1   2
BRANCH   1  13
ATOM     13  C   UNL     1     165.112 175.956 179.827  1.00  0.00     0.000 C 
BRANCH  13  14
ATOM     14  C   UNL     1     163.637 175.566 179.636  1.00  0.00     0.000 C 
BRANCH  14  15
ATOM     15  C   UNL     1     162.787 175.833 180.891  1.00  0.00     0.000 C 
BRANCH  15  16
ATOM     16  C   UNL     1     161.281 175.880 180.583  1.00  0.00     0.000 C 
BRANCH  16  17
ATOM     17  C   UNL     1     160.478 174.851 181.400  1.00  0.00     0.000 C 
BRANCH  17  18
ATOM     18  C   UNL     1     161.346 173.681 181.891  1.00  0.00     0.000 C 
BRANCH  18  19
ATOM     19  C   UNL     1     160.647 172.322 181.733  1.00  0.00     0.000 C 
BRANCH  19  20
ATOM     20  C   UNL     1     161.296 171.502 180.608  1.00  0.00     0.006 C 
BRANCH  20  21
ATOM     21  C   UNL     1     160.619 171.738 179.251  1.00  0.00     0.053 C 
BRANCH  21  22
ATOM     22  C   UNL     1     161.412 172.673 178.389  1.00  0.00     0.041 C 
ATOM     23  O   UNL     1     162.633 172.455 178.173  1.00  0.00    -0.550 OA
ATOM     24  O   UNL     1     160.806 173.799 177.843  1.00  0.00    -0.550 OA
ENDBRANCH  21  22
ENDBRANCH  20  21
ENDBRANCH  19  20
ENDBRANCH  18  19
ENDBRANCH  17  18
ENDBRANCH  16  17
ENDBRANCH  15  16
ENDBRANCH  14  15
ENDBRANCH  13  14
ENDBRANCH   1  13
TORSDOF 20
ENDMDL
