MODEL 1
REMARK VINA RESULT:    -5.216      0.000      0.000
REMARK INTER + INTRA:          -5.610
REMARK INTER:                  -5.521
REMARK INTRA:                  -0.089
REMARK UNBOUND:                -0.089
REMARK SMILES C=C(C)[C@H]1CC=C(C)C(=O)C1
REMARK SMILES IDX 8 1 7 2 6 3 5 4 4 5 11 6 9 7 10 8 2 9 1 10 3 11
REMARK H PARENT
REMARK Flexibility Score: inf
ROOT
ATOM      1  C   UNL     1      81.007   7.561  26.778  1.00  0.00     0.048 C 
ATOM      2  C   UNL     1      81.825   6.458  27.393  1.00  0.00    -0.012 C 
ATOM      3  C   UNL     1      81.844   6.304  28.727  1.00  0.00    -0.019 C 
ATOM      4  C   UNL     1      82.659   5.229  29.395  1.00  0.00     0.036 C 
ATOM      5  C   UNL     1      82.750   3.970  28.509  1.00  0.00     0.025 C 
ATOM      6  C   UNL     1      83.296   4.337  27.117  1.00  0.00     0.089 C 
ATOM      7  C   UNL     1      82.506   5.470  26.520  1.00  0.00     0.158 C 
ATOM      8  O   UNL     1      82.459   5.591  25.266  1.00  0.00    -0.295 OA
ENDROOT
BRANCH   5   9
ATOM      9  C   UNL     1      83.580   2.877  29.169  1.00  0.00    -0.077 C 
ATOM     10  C   UNL     1      83.000   1.879  29.858  1.00  0.00     0.008 C 
ATOM     11  C   UNL     1      85.082   2.898  29.057  1.00  0.00     0.039 C 
ENDBRANCH   5   9
TORSDOF 1
ENDMDL
MODEL 2
REMARK VINA RESULT:    -5.144      1.892      2.795
REMARK INTER + INTRA:          -5.533
REMARK INTER:                  -5.439
REMARK INTRA:                  -0.094
REMARK UNBOUND:                -0.089
REMARK SMILES C=C(C)[C@H]1CC=C(C)C(=O)C1
REMARK SMILES IDX 8 1 7 2 6 3 5 4 4 5 11 6 9 7 10 8 2 9 1 10 3 11
REMARK H PARENT
REMARK Flexibility Score: inf
ROOT
ATOM      1  C   UNL     1      81.704   6.602  26.724  1.00  0.00     0.048 C 
ATOM      2  C   UNL     1      82.748   5.625  27.188  1.00  0.00    -0.012 C 
ATOM      3  C   UNL     1      83.558   5.035  26.293  1.00  0.00    -0.019 C 
ATOM      4  C   UNL     1      84.608   4.036  26.700  1.00  0.00     0.036 C 
ATOM      5  C   UNL     1      85.173   4.365  28.097  1.00  0.00     0.025 C 
ATOM      6  C   UNL     1      84.030   4.464  29.125  1.00  0.00     0.089 C 
ATOM      7  C   UNL     1      82.964   5.408  28.641  1.00  0.00     0.158 C 
ATOM      8  O   UNL     1      82.229   5.989  29.485  1.00  0.00    -0.295 OA
ENDROOT
BRANCH   5   9
ATOM      9  C   UNL     1      86.230   3.356  28.527  1.00  0.00    -0.077 C 
ATOM     10  C   UNL     1      86.106   2.049  28.241  1.00  0.00     0.008 C 
ATOM     11  C   UNL     1      87.446   3.815  29.289  1.00  0.00     0.039 C 
ENDBRANCH   5   9
TORSDOF 1
ENDMDL
MODEL 3
REMARK VINA RESULT:    -5.142      1.454      2.862
REMARK INTER + INTRA:          -5.532
REMARK INTER:                  -5.439
REMARK INTRA:                  -0.093
REMARK UNBOUND:                -0.089
REMARK SMILES C=C(C)[C@H]1CC=C(C)C(=O)C1
REMARK SMILES IDX 8 1 7 2 6 3 5 4 4 5 11 6 9 7 10 8 2 9 1 10 3 11
REMARK H PARENT
REMARK Flexibility Score: inf
ROOT
ATOM      1  C   UNL     1      84.746   4.873  24.912  1.00  0.00     0.048 C 
ATOM      2  C   UNL     1      84.073   4.538  26.215  1.00  0.00    -0.012 C 
ATOM      3  C   UNL     1      84.566   3.557  26.990  1.00  0.00    -0.019 C 
ATOM      4  C   UNL     1      83.923   3.169  28.294  1.00  0.00     0.036 C 
ATOM      5  C   UNL     1      83.276   4.390  28.978  1.00  0.00     0.025 C 
ATOM      6  C   UNL     1      82.286   5.077  28.019  1.00  0.00     0.089 C 
ATOM      7  C   UNL     1      82.945   5.372  26.699  1.00  0.00     0.158 C 
ATOM      8  O   UNL     1      82.504   6.317  25.990  1.00  0.00    -0.295 OA
ENDROOT
BRANCH   5   9
ATOM      9  C   UNL     1      82.612   4.011  30.295  1.00  0.00    -0.077 C 
ATOM     10  C   UNL     1      82.438   4.914  31.276  1.00  0.00     0.008 C 
ATOM     11  C   UNL     1      82.134   2.601  30.521  1.00  0.00     0.039 C 
ENDBRANCH   5   9
TORSDOF 1
ENDMDL
MODEL 4
REMARK VINA RESULT:    -5.008      2.089      4.599
REMARK INTER + INTRA:          -5.390
REMARK INTER:                  -5.301
REMARK INTRA:                  -0.088
REMARK UNBOUND:                -0.089
REMARK SMILES C=C(C)[C@H]1CC=C(C)C(=O)C1
REMARK SMILES IDX 8 1 7 2 6 3 5 4 4 5 11 6 9 7 10 8 2 9 1 10 3 11
REMARK H PARENT
REMARK Flexibility Score: inf
ROOT
ATOM      1  C   UNL     1      86.242   2.622  28.927  1.00  0.00     0.048 C 
ATOM      2  C   UNL     1      85.111   3.578  28.666  1.00  0.00    -0.012 C 
ATOM      3  C   UNL     1      85.307   4.646  27.874  1.00  0.00    -0.019 C 
ATOM      4  C   UNL     1      84.215   5.644  27.594  1.00  0.00     0.036 C 
ATOM      5  C   UNL     1      82.832   4.962  27.578  1.00  0.00     0.025 C 
ATOM      6  C   UNL     1      82.600   4.196  28.894  1.00  0.00     0.089 C 
ATOM      7  C   UNL     1      83.752   3.273  29.179  1.00  0.00     0.158 C 
ATOM      8  O   UNL     1      83.558   2.251  29.891  1.00  0.00    -0.295 OA
ENDROOT
BRANCH   5   9
ATOM      9  C   UNL     1      81.716   5.962  27.305  1.00  0.00    -0.077 C 
ATOM     10  C   UNL     1      80.986   5.904  26.177  1.00  0.00     0.008 C 
ATOM     11  C   UNL     1      81.408   7.043  28.307  1.00  0.00     0.039 C 
ENDBRANCH   5   9
TORSDOF 1
ENDMDL
MODEL 5
REMARK VINA RESULT:    -4.984      2.346      4.014
REMARK INTER + INTRA:          -5.364
REMARK INTER:                  -5.271
REMARK INTRA:                  -0.093
REMARK UNBOUND:                -0.089
REMARK SMILES C=C(C)[C@H]1CC=C(C)C(=O)C1
REMARK SMILES IDX 8 1 7 2 6 3 5 4 4 5 11 6 9 7 10 8 2 9 1 10 3 11
REMARK H PARENT
REMARK Flexibility Score: inf
ROOT
ATOM      1  C   UNL     1      82.252   4.139  31.990  1.00  0.00     0.048 C 
ATOM      2  C   UNL     1      82.500   4.326  30.519  1.00  0.00    -0.012 C 
ATOM      3  C   UNL     1      82.653   5.563  30.018  1.00  0.00    -0.019 C 
ATOM      4  C   UNL     1      82.885   5.808  28.551  1.00  0.00     0.036 C 
ATOM      5  C   UNL     1      83.687   4.655  27.916  1.00  0.00     0.025 C 
ATOM      6  C   UNL     1      82.986   3.309  28.180  1.00  0.00     0.089 C 
ATOM      7  C   UNL     1      82.698   3.141  29.647  1.00  0.00     0.158 C 
ATOM      8  O   UNL     1      82.592   1.978  30.123  1.00  0.00    -0.295 OA
ENDROOT
BRANCH   5   9
ATOM      9  C   UNL     1      83.922   4.884  26.429  1.00  0.00    -0.077 C 
ATOM     10  C   UNL     1      84.948   4.303  25.785  1.00  0.00     0.008 C 
ATOM     11  C   UNL     1      82.994   5.777  25.647  1.00  0.00     0.039 C 
ENDBRANCH   5   9
TORSDOF 1
ENDMDL
MODEL 6
REMARK VINA RESULT:    -4.942      2.279      4.701
REMARK INTER + INTRA:          -5.320
REMARK INTER:                  -5.226
REMARK INTRA:                  -0.094
REMARK UNBOUND:                -0.089
REMARK SMILES C=C(C)[C@H]1CC=C(C)C(=O)C1
REMARK SMILES IDX 8 1 7 2 6 3 5 4 4 5 11 6 9 7 10 8 2 9 1 10 3 11
REMARK H PARENT
REMARK Flexibility Score: inf
ROOT
ATOM      1  C   UNL     1      82.194   1.097  30.486  1.00  0.00     0.048 C 
ATOM      2  C   UNL     1      82.578   2.273  29.630  1.00  0.00    -0.012 C 
ATOM      3  C   UNL     1      82.885   2.086  28.335  1.00  0.00    -0.019 C 
ATOM      4  C   UNL     1      83.293   3.224  27.439  1.00  0.00     0.036 C 
ATOM      5  C   UNL     1      82.583   4.531  27.844  1.00  0.00     0.025 C 
ATOM      6  C   UNL     1      82.839   4.838  29.331  1.00  0.00     0.089 C 
ATOM      7  C   UNL     1      82.497   3.647  30.184  1.00  0.00     0.158 C 
ATOM      8  O   UNL     1      82.173   3.828  31.389  1.00  0.00    -0.295 OA
ENDROOT
BRANCH   5   9
ATOM      9  C   UNL     1      82.993   5.695  26.951  1.00  0.00    -0.077 C 
ATOM     10  C   UNL     1      84.258   5.830  26.516  1.00  0.00     0.008 C 
ATOM     11  C   UNL     1      81.975   6.724  26.536  1.00  0.00     0.039 C 
ENDBRANCH   5   9
TORSDOF 1
ENDMDL
MODEL 7
REMARK VINA RESULT:    -4.899      1.568      4.202
REMARK INTER + INTRA:          -5.274
REMARK INTER:                  -5.179
REMARK INTRA:                  -0.095
REMARK UNBOUND:                -0.089
REMARK SMILES C=C(C)[C@H]1CC=C(C)C(=O)C1
REMARK SMILES IDX 8 1 7 2 6 3 5 4 4 5 11 6 9 7 10 8 2 9 1 10 3 11
REMARK H PARENT
REMARK Flexibility Score: inf
ROOT
ATOM      1  C   UNL     1      85.735   3.038  28.866  1.00  0.00     0.048 C 
ATOM      2  C   UNL     1      84.511   3.780  28.406  1.00  0.00    -0.012 C 
ATOM      3  C   UNL     1      83.628   4.239  29.310  1.00  0.00    -0.019 C 
ATOM      4  C   UNL     1      82.378   4.973  28.904  1.00  0.00     0.036 C 
ATOM      5  C   UNL     1      82.608   5.794  27.620  1.00  0.00     0.025 C 
ATOM      6  C   UNL     1      83.145   4.887  26.496  1.00  0.00     0.089 C 
ATOM      7  C   UNL     1      84.343   4.111  26.969  1.00  0.00     0.158 C 
ATOM      8  O   UNL     1      85.189   3.712  26.124  1.00  0.00    -0.295 OA
ENDROOT
BRANCH   5   9
ATOM      9  C   UNL     1      81.348   6.533  27.191  1.00  0.00    -0.077 C 
ATOM     10  C   UNL     1      80.535   6.038  26.243  1.00  0.00     0.008 C 
ATOM     11  C   UNL     1      80.989   7.848  27.833  1.00  0.00     0.039 C 
ENDBRANCH   5   9
TORSDOF 1
ENDMDL
MODEL 8
REMARK VINA RESULT:    -4.697      1.991      3.086
REMARK INTER + INTRA:          -5.061
REMARK INTER:                  -4.967
REMARK INTRA:                  -0.094
REMARK UNBOUND:                -0.089
REMARK SMILES C=C(C)[C@H]1CC=C(C)C(=O)C1
REMARK SMILES IDX 8 1 7 2 6 3 5 4 4 5 11 6 9 7 10 8 2 9 1 10 3 11
REMARK H PARENT
REMARK Flexibility Score: inf
ROOT
ATOM      1  C   UNL     1      84.579   4.836  25.167  1.00  0.00     0.048 C 
ATOM      2  C   UNL     1      84.098   4.742  26.588  1.00  0.00    -0.012 C 
ATOM      3  C   UNL     1      82.977   5.383  26.959  1.00  0.00    -0.019 C 
ATOM      4  C   UNL     1      82.460   5.337  28.372  1.00  0.00     0.036 C 
ATOM      5  C   UNL     1      82.787   3.985  29.038  1.00  0.00     0.025 C 
ATOM      6  C   UNL     1      84.299   3.704  28.959  1.00  0.00     0.089 C 
ATOM      7  C   UNL     1      84.790   3.842  27.544  1.00  0.00     0.158 C 
ATOM      8  O   UNL     1      85.822   3.210  27.188  1.00  0.00    -0.295 OA
ENDROOT
BRANCH   5   9
ATOM      9  C   UNL     1      82.278   3.928  30.472  1.00  0.00    -0.077 C 
ATOM     10  C   UNL     1      82.365   4.992  31.288  1.00  0.00     0.008 C 
ATOM     11  C   UNL     1      81.662   2.661  31.005  1.00  0.00     0.039 C 
ENDBRANCH   5   9
TORSDOF 1
ENDMDL
MODEL 9
REMARK VINA RESULT:    -2.854     17.594     18.427
REMARK INTER + INTRA:          -3.110
REMARK INTER:                  -3.016
REMARK INTRA:                  -0.094
REMARK UNBOUND:                -0.089
REMARK SMILES C=C(C)[C@H]1CC=C(C)C(=O)C1
REMARK SMILES IDX 8 1 7 2 6 3 5 4 4 5 11 6 9 7 10 8 2 9 1 10 3 11
REMARK H PARENT
REMARK Flexibility Score: inf
ROOT
ATOM      1  C   UNL     1      78.808  -6.434  12.875  1.00  0.00     0.048 C 
ATOM      2  C   UNL     1      79.341  -7.281  13.997  1.00  0.00    -0.012 C 
ATOM      3  C   UNL     1      80.371  -6.840  14.738  1.00  0.00    -0.019 C 
ATOM      4  C   UNL     1      80.955  -7.655  15.861  1.00  0.00     0.036 C 
ATOM      5  C   UNL     1      79.872  -8.511  16.546  1.00  0.00     0.025 C 
ATOM      6  C   UNL     1      79.146  -9.385  15.505  1.00  0.00     0.089 C 
ATOM      7  C   UNL     1      78.651  -8.544  14.361  1.00  0.00     0.158 C 
ATOM      8  O   UNL     1      77.661  -8.942  13.690  1.00  0.00    -0.295 OA
ENDROOT
BRANCH   5   9
ATOM      9  C   UNL     1      80.450  -9.350  17.678  1.00  0.00    -0.077 C 
ATOM     10  C   UNL     1      81.621  -9.996  17.542  1.00  0.00     0.008 C 
ATOM     11  C   UNL     1      79.710  -9.468  18.984  1.00  0.00     0.039 C 
ENDBRANCH   5   9
TORSDOF 1
ENDMDL
