MODEL 1
REMARK VINA RESULT:    -3.748      0.000      0.000
REMARK INTER + INTRA:          -4.993
REMARK INTER:                  -4.843
REMARK INTRA:                  -0.149
REMARK UNBOUND:                -0.149
REMARK SMILES CCCCCCC(=O)[O-]
REMARK SMILES IDX 5 1 6 2 7 3 8 4 9 5 4 6 3 7 2 8 1 9
REMARK H PARENT
REMARK Flexibility Score: inf
ROOT
ATOM      1  C   UNL     1     -31.027 -21.226 -33.427  1.00  0.00     0.006 C 
ENDROOT
BRANCH   1   2
ATOM      2  C   UNL     1     -29.862 -21.304 -32.431  1.00  0.00     0.053 C 
BRANCH   2   3
ATOM      3  C   UNL     1     -30.371 -21.600 -31.055  1.00  0.00     0.041 C 
ATOM      4  O   UNL     1     -30.880 -20.684 -30.357  1.00  0.00    -0.550 OA
ATOM      5  O   UNL     1     -30.329 -22.899 -30.563  1.00  0.00    -0.550 OA
ENDBRANCH   2   3
ENDBRANCH   1   2
BRANCH   1   6
ATOM      6  C   UNL     1     -31.466 -22.608 -33.944  1.00  0.00     0.000 C 
BRANCH   6   7
ATOM      7  C   UNL     1     -32.509 -22.578 -35.080  1.00  0.00    -0.000 C 
BRANCH   7   8
ATOM      8  C   UNL     1     -32.433 -23.758 -36.064  1.00  0.00    -0.003 C 
ATOM      9  C   UNL     1     -31.174 -23.730 -36.930  1.00  0.00     0.004 C 
ENDBRANCH   7   8
ENDBRANCH   6   7
ENDBRANCH   1   6
TORSDOF 5
ENDMDL
MODEL 2
REMARK VINA RESULT:    -3.712      1.146      1.784
REMARK INTER + INTRA:          -4.947
REMARK INTER:                  -4.831
REMARK INTRA:                  -0.116
REMARK UNBOUND:                -0.149
REMARK SMILES CCCCCCC(=O)[O-]
REMARK SMILES IDX 5 1 6 2 7 3 8 4 9 5 4 6 3 7 2 8 1 9
REMARK H PARENT
REMARK Flexibility Score: inf
ROOT
ATOM      1  C   UNL     1     -31.464 -22.654 -33.897  1.00  0.00     0.006 C 
ENDROOT
BRANCH   1   2
ATOM      2  C   UNL     1     -31.071 -21.277 -33.347  1.00  0.00     0.053 C 
BRANCH   2   3
ATOM      3  C   UNL     1     -30.075 -21.422 -32.239  1.00  0.00     0.041 C 
ATOM      4  O   UNL     1     -30.341 -22.139 -31.238  1.00  0.00    -0.550 OA
ATOM      5  O   UNL     1     -28.834 -20.806 -32.336  1.00  0.00    -0.550 OA
ENDBRANCH   2   3
ENDBRANCH   1   2
BRANCH   1   6
ATOM      6  C   UNL     1     -32.476 -22.569 -35.054  1.00  0.00     0.000 C 
BRANCH   6   7
ATOM      7  C   UNL     1     -32.437 -23.752 -36.043  1.00  0.00    -0.000 C 
BRANCH   7   8
ATOM      8  C   UNL     1     -31.193 -23.804 -36.947  1.00  0.00    -0.003 C 
ATOM      9  C   UNL     1     -31.212 -24.981 -37.920  1.00  0.00     0.004 C 
ENDBRANCH   7   8
ENDBRANCH   6   7
ENDBRANCH   1   6
TORSDOF 5
ENDMDL
MODEL 3
REMARK VINA RESULT:    -3.603      3.381      4.884
REMARK INTER + INTRA:          -4.806
REMARK INTER:                  -4.684
REMARK INTRA:                  -0.122
REMARK UNBOUND:                -0.149
REMARK SMILES CCCCCCC(=O)[O-]
REMARK SMILES IDX 5 1 6 2 7 3 8 4 9 5 4 6 3 7 2 8 1 9
REMARK H PARENT
REMARK Flexibility Score: inf
ROOT
ATOM      1  C   UNL     1     -31.237 -23.878 -37.075  1.00  0.00     0.006 C 
ENDROOT
BRANCH   1   2
ATOM      2  C   UNL     1     -32.441 -23.937 -36.125  1.00  0.00     0.053 C 
BRANCH   2   3
ATOM      3  C   UNL     1     -32.411 -22.785 -35.172  1.00  0.00     0.041 C 
ATOM      4  O   UNL     1     -31.658 -22.816 -34.163  1.00  0.00    -0.550 OA
ATOM      5  O   UNL     1     -33.177 -21.654 -35.424  1.00  0.00    -0.550 OA
ENDBRANCH   2   3
ENDBRANCH   1   2
BRANCH   1   6
ATOM      6  C   UNL     1     -31.119 -25.126 -37.969  1.00  0.00     0.000 C 
BRANCH   6   7
ATOM      7  C   UNL     1     -32.366 -26.034 -37.991  1.00  0.00    -0.000 C 
BRANCH   7   8
ATOM      8  C   UNL     1     -32.155 -27.413 -38.638  1.00  0.00    -0.003 C 
ATOM      9  C   UNL     1     -33.386 -28.313 -38.537  1.00  0.00     0.004 C 
ENDBRANCH   7   8
ENDBRANCH   6   7
ENDBRANCH   1   6
TORSDOF 5
ENDMDL
MODEL 4
REMARK VINA RESULT:    -3.559      5.581      7.514
REMARK INTER + INTRA:          -4.748
REMARK INTER:                  -4.596
REMARK INTRA:                  -0.153
REMARK UNBOUND:                -0.149
REMARK SMILES CCCCCCC(=O)[O-]
REMARK SMILES IDX 5 1 6 2 7 3 8 4 9 5 4 6 3 7 2 8 1 9
REMARK H PARENT
REMARK Flexibility Score: inf
ROOT
ATOM      1  C   UNL     1     -31.462 -26.016 -38.078  1.00  0.00     0.006 C 
ENDROOT
BRANCH   1   2
ATOM      2  C   UNL     1     -32.824 -26.722 -38.048  1.00  0.00     0.053 C 
BRANCH   2   3
ATOM      3  C   UNL     1     -32.722 -28.080 -38.669  1.00  0.00     0.041 C 
ATOM      4  O   UNL     1     -31.619 -28.491 -39.117  1.00  0.00    -0.550 OA
ATOM      5  O   UNL     1     -33.834 -28.912 -38.709  1.00  0.00    -0.550 OA
ENDBRANCH   2   3
ENDBRANCH   1   2
BRANCH   1   6
ATOM      6  C   UNL     1     -31.583 -24.493 -38.270  1.00  0.00     0.000 C 
BRANCH   6   7
ATOM      7  C   UNL     1     -31.268 -23.651 -37.016  1.00  0.00    -0.000 C 
BRANCH   7   8
ATOM      8  C   UNL     1     -32.339 -23.702 -35.913  1.00  0.00    -0.003 C 
ATOM      9  C   UNL     1     -31.984 -22.845 -34.698  1.00  0.00     0.004 C 
ENDBRANCH   7   8
ENDBRANCH   6   7
ENDBRANCH   1   6
TORSDOF 5
ENDMDL
MODEL 5
REMARK VINA RESULT:    -3.435      3.269      5.201
REMARK INTER + INTRA:          -4.589
REMARK INTER:                  -4.449
REMARK INTRA:                  -0.140
REMARK UNBOUND:                -0.149
REMARK SMILES CCCCCCC(=O)[O-]
REMARK SMILES IDX 5 1 6 2 7 3 8 4 9 5 4 6 3 7 2 8 1 9
REMARK H PARENT
REMARK Flexibility Score: inf
ROOT
ATOM      1  C   UNL     1     -31.552 -22.783 -34.152  1.00  0.00     0.006 C 
ENDROOT
BRANCH   1   2
ATOM      2  C   UNL     1     -32.564 -22.724 -35.303  1.00  0.00     0.053 C 
BRANCH   2   3
ATOM      3  C   UNL     1     -32.148 -23.641 -36.410  1.00  0.00     0.041 C 
ATOM      4  O   UNL     1     -32.993 -24.398 -36.958  1.00  0.00    -0.550 OA
ATOM      5  O   UNL     1     -30.838 -23.624 -36.871  1.00  0.00    -0.550 OA
ENDBRANCH   2   3
ENDBRANCH   1   2
BRANCH   1   6
ATOM      6  C   UNL     1     -31.283 -21.404 -33.521  1.00  0.00     0.000 C 
BRANCH   6   7
ATOM      7  C   UNL     1     -30.640 -21.442 -32.119  1.00  0.00    -0.000 C 
BRANCH   7   8
ATOM      8  C   UNL     1     -29.189 -20.935 -32.056  1.00  0.00    -0.003 C 
ATOM      9  C   UNL     1     -28.877 -19.888 -33.125  1.00  0.00     0.004 C 
ENDBRANCH   7   8
ENDBRANCH   6   7
ENDBRANCH   1   6
TORSDOF 5
ENDMDL
MODEL 6
REMARK VINA RESULT:    -3.339      0.999      1.641
REMARK INTER + INTRA:          -4.464
REMARK INTER:                  -4.295
REMARK INTRA:                  -0.169
REMARK UNBOUND:                -0.149
REMARK SMILES CCCCCCC(=O)[O-]
REMARK SMILES IDX 5 1 6 2 7 3 8 4 9 5 4 6 3 7 2 8 1 9
REMARK H PARENT
REMARK Flexibility Score: inf
ROOT
ATOM      1  C   UNL     1     -31.486 -21.563 -33.979  1.00  0.00     0.006 C 
ENDROOT
BRANCH   1   2
ATOM      2  C   UNL     1     -30.242 -21.520 -33.082  1.00  0.00     0.053 C 
BRANCH   2   3
ATOM      3  C   UNL     1     -30.639 -21.540 -31.639  1.00  0.00     0.041 C 
ATOM      4  O   UNL     1     -30.483 -22.585 -30.954  1.00  0.00    -0.550 OA
ATOM      5  O   UNL     1     -31.133 -20.389 -31.039  1.00  0.00    -0.550 OA
ENDBRANCH   2   3
ENDBRANCH   1   2
BRANCH   1   6
ATOM      6  C   UNL     1     -31.910 -22.997 -34.346  1.00  0.00     0.000 C 
BRANCH   6   7
ATOM      7  C   UNL     1     -31.704 -23.380 -35.826  1.00  0.00    -0.000 C 
BRANCH   7   8
ATOM      8  C   UNL     1     -32.997 -23.642 -36.616  1.00  0.00    -0.003 C 
ATOM      9  C   UNL     1     -33.702 -22.357 -37.049  1.00  0.00     0.004 C 
ENDBRANCH   7   8
ENDBRANCH   6   7
ENDBRANCH   1   6
TORSDOF 5
ENDMDL
MODEL 7
REMARK VINA RESULT:    -3.256      1.676      2.526
REMARK INTER + INTRA:          -4.357
REMARK INTER:                  -4.260
REMARK INTRA:                  -0.097
REMARK UNBOUND:                -0.149
REMARK SMILES CCCCCCC(=O)[O-]
REMARK SMILES IDX 5 1 6 2 7 3 8 4 9 5 4 6 3 7 2 8 1 9
REMARK H PARENT
REMARK Flexibility Score: inf
ROOT
ATOM      1  C   UNL     1     -32.208 -22.308 -34.661  1.00  0.00     0.006 C 
ENDROOT
BRANCH   1   2
ATOM      2  C   UNL     1     -31.243 -22.505 -33.484  1.00  0.00     0.053 C 
BRANCH   2   3
ATOM      3  C   UNL     1     -30.588 -21.208 -33.123  1.00  0.00     0.041 C 
ATOM      4  O   UNL     1     -29.388 -21.189 -32.745  1.00  0.00    -0.550 OA
ATOM      5  O   UNL     1     -31.290 -20.016 -33.253  1.00  0.00    -0.550 OA
ENDBRANCH   2   3
ENDBRANCH   1   2
BRANCH   1   6
ATOM      6  C   UNL     1     -32.252 -23.521 -35.607  1.00  0.00     0.000 C 
BRANCH   6   7
ATOM      7  C   UNL     1     -31.173 -23.528 -36.710  1.00  0.00    -0.000 C 
BRANCH   7   8
ATOM      8  C   UNL     1     -31.260 -24.705 -37.697  1.00  0.00    -0.003 C 
ATOM      9  C   UNL     1     -31.577 -24.262 -39.125  1.00  0.00     0.004 C 
ENDBRANCH   7   8
ENDBRANCH   6   7
ENDBRANCH   1   6
TORSDOF 5
ENDMDL
MODEL 8
REMARK VINA RESULT:    -3.131      5.008      6.474
REMARK INTER + INTRA:          -4.195
REMARK INTER:                  -4.075
REMARK INTRA:                  -0.120
REMARK UNBOUND:                -0.149
REMARK SMILES CCCCCCC(=O)[O-]
REMARK SMILES IDX 5 1 6 2 7 3 8 4 9 5 4 6 3 7 2 8 1 9
REMARK H PARENT
REMARK Flexibility Score: inf
ROOT
ATOM      1  C   UNL     1     -32.374 -25.255 -37.172  1.00  0.00     0.006 C 
ENDROOT
BRANCH   1   2
ATOM      2  C   UNL     1     -31.674 -23.924 -36.867  1.00  0.00     0.053 C 
BRANCH   2   3
ATOM      3  C   UNL     1     -32.129 -22.864 -37.819  1.00  0.00     0.041 C 
ATOM      4  O   UNL     1     -33.185 -22.217 -37.590  1.00  0.00    -0.550 OA
ATOM      5  O   UNL     1     -31.361 -22.556 -38.935  1.00  0.00    -0.550 OA
ENDBRANCH   2   3
ENDBRANCH   1   2
BRANCH   1   6
ATOM      6  C   UNL     1     -31.858 -25.919 -38.462  1.00  0.00     0.000 C 
BRANCH   6   7
ATOM      7  C   UNL     1     -32.149 -27.430 -38.579  1.00  0.00    -0.000 C 
BRANCH   7   8
ATOM      8  C   UNL     1     -33.639 -27.810 -38.544  1.00  0.00    -0.003 C 
ATOM      9  C   UNL     1     -33.901 -29.236 -39.026  1.00  0.00     0.004 C 
ENDBRANCH   7   8
ENDBRANCH   6   7
ENDBRANCH   1   6
TORSDOF 5
ENDMDL
MODEL 9
REMARK VINA RESULT:    -3.100      4.122      5.841
REMARK INTER + INTRA:          -4.155
REMARK INTER:                  -4.041
REMARK INTRA:                  -0.115
REMARK UNBOUND:                -0.149
REMARK SMILES CCCCCCC(=O)[O-]
REMARK SMILES IDX 5 1 6 2 7 3 8 4 9 5 4 6 3 7 2 8 1 9
REMARK H PARENT
REMARK Flexibility Score: inf
ROOT
ATOM      1  C   UNL     1     -31.423 -23.306 -35.707  1.00  0.00     0.006 C 
ENDROOT
BRANCH   1   2
ATOM      2  C   UNL     1     -32.353 -24.096 -36.638  1.00  0.00     0.053 C 
BRANCH   2   3
ATOM      3  C   UNL     1     -31.730 -24.251 -37.989  1.00  0.00     0.041 C 
ATOM      4  O   UNL     1     -31.455 -25.397 -38.433  1.00  0.00    -0.550 OA
ATOM      5  O   UNL     1     -31.499 -23.132 -38.780  1.00  0.00    -0.550 OA
ENDBRANCH   2   3
ENDBRANCH   1   2
BRANCH   1   6
ATOM      6  C   UNL     1     -32.151 -22.740 -34.475  1.00  0.00     0.000 C 
BRANCH   6   7
ATOM      7  C   UNL     1     -31.465 -21.527 -33.812  1.00  0.00    -0.000 C 
BRANCH   7   8
ATOM      8  C   UNL     1     -30.625 -21.855 -32.566  1.00  0.00    -0.003 C 
ATOM      9  C   UNL     1     -29.209 -21.285 -32.636  1.00  0.00     0.004 C 
ENDBRANCH   7   8
ENDBRANCH   6   7
ENDBRANCH   1   6
TORSDOF 5
ENDMDL
