MODEL 1
REMARK VINA RESULT:    -5.205      0.000      0.000
REMARK INTER + INTRA:          -7.115
REMARK INTER:                  -6.422
REMARK INTRA:                  -0.693
REMARK UNBOUND:                -0.693
REMARK SMILES C=C(CCC=C(C)C)[C@H]1CC=C(C)CC1
REMARK SMILES IDX 3 1 2 2 1 3 9 4 13 5 12 6 11 7 14 8 10 9 15 10 4 11 5 12
REMARK SMILES IDX 6 13 7 14 8 15
REMARK H PARENT
REMARK Flexibility Score: inf
ROOT
ATOM      1  C   UNL     1      31.911   7.210  32.896  1.00  0.00     0.035 C 
ENDROOT
BRANCH   1   2
ATOM      2  C   UNL     1      31.649   8.553  33.558  1.00  0.00    -0.074 C 
ATOM      3  C   UNL     1      31.960   9.684  32.902  1.00  0.00     0.008 C 
BRANCH   2   4
ATOM      4  C   UNL     1      31.143   8.637  34.994  1.00  0.00     0.018 C 
ATOM      5  C   UNL     1      30.687   8.647  39.344  1.00  0.00     0.039 C 
ATOM      6  C   UNL     1      31.000   8.625  37.873  1.00  0.00    -0.077 C 
ATOM      7  C   UNL     1      30.984   7.445  37.217  1.00  0.00    -0.027 C 
ATOM      8  C   UNL     1      31.192   9.944  37.146  1.00  0.00     0.031 C 
ATOM      9  C   UNL     1      31.339   7.314  35.757  1.00  0.00     0.035 C 
ATOM     10  C   UNL     1      31.826   9.781  35.759  1.00  0.00     0.013 C 
ENDBRANCH   2   4
ENDBRANCH   1   2
BRANCH   1  11
ATOM     11  C   UNL     1      30.800   6.824  31.904  1.00  0.00     0.032 C 
BRANCH  11  12
ATOM     12  C   UNL     1      31.332   6.484  30.531  1.00  0.00    -0.028 C 
ATOM     13  C   UNL     1      31.110   7.257  29.446  1.00  0.00    -0.080 C 
ATOM     14  C   UNL     1      30.310   8.532  29.532  1.00  0.00     0.039 C 
ATOM     15  C   UNL     1      31.653   6.845  28.101  1.00  0.00     0.039 C 
ENDBRANCH  11  12
ENDBRANCH   1  11
TORSDOF 4
ENDMDL
MODEL 2
REMARK VINA RESULT:    -5.112      1.141      6.258
REMARK INTER + INTRA:          -7.000
REMARK INTER:                  -6.258
REMARK INTRA:                  -0.742
REMARK UNBOUND:                -0.693
REMARK SMILES C=C(CCC=C(C)C)[C@H]1CC=C(C)CC1
REMARK SMILES IDX 3 1 2 2 1 3 9 4 13 5 12 6 11 7 14 8 10 9 15 10 4 11 5 12
REMARK SMILES IDX 6 13 7 14 8 15
REMARK H PARENT
REMARK Flexibility Score: inf
ROOT
ATOM      1  C   UNL     1      31.043   9.900  34.832  1.00  0.00     0.035 C 
ENDROOT
BRANCH   1   2
ATOM      2  C   UNL     1      32.027   9.926  33.673  1.00  0.00    -0.074 C 
ATOM      3  C   UNL     1      33.084  10.754  33.724  1.00  0.00     0.008 C 
BRANCH   2   4
ATOM      4  C   UNL     1      31.775   9.113  32.408  1.00  0.00     0.018 C 
ATOM      5  C   UNL     1      30.152   6.551  29.257  1.00  0.00     0.039 C 
ATOM      6  C   UNL     1      30.569   7.417  30.413  1.00  0.00    -0.077 C 
ATOM      7  C   UNL     1      31.161   6.843  31.482  1.00  0.00    -0.027 C 
ATOM      8  C   UNL     1      30.433   8.924  30.285  1.00  0.00     0.031 C 
ATOM      9  C   UNL     1      31.563   7.619  32.712  1.00  0.00     0.035 C 
ATOM     10  C   UNL     1      30.571   9.657  31.626  1.00  0.00     0.013 C 
ENDBRANCH   2   4
ENDBRANCH   1   2
BRANCH   1  11
ATOM     11  C   UNL     1      31.728   9.564  36.168  1.00  0.00     0.032 C 
BRANCH  11  12
ATOM     12  C   UNL     1      30.837   8.777  37.101  1.00  0.00    -0.028 C 
ATOM     13  C   UNL     1      30.849   7.427  37.163  1.00  0.00    -0.080 C 
ATOM     14  C   UNL     1      31.767   6.603  36.296  1.00  0.00     0.039 C 
ATOM     15  C   UNL     1      29.916   6.706  38.102  1.00  0.00     0.039 C 
ENDBRANCH  11  12
ENDBRANCH   1  11
TORSDOF 4
ENDMDL
MODEL 3
REMARK VINA RESULT:    -5.015      1.641      2.767
REMARK INTER + INTRA:          -6.881
REMARK INTER:                  -6.033
REMARK INTRA:                  -0.849
REMARK UNBOUND:                -0.693
REMARK SMILES C=C(CCC=C(C)C)[C@H]1CC=C(C)CC1
REMARK SMILES IDX 3 1 2 2 1 3 9 4 13 5 12 6 11 7 14 8 10 9 15 10 4 11 5 12
REMARK SMILES IDX 6 13 7 14 8 15
REMARK H PARENT
REMARK Flexibility Score: inf
ROOT
ATOM      1  C   UNL     1      31.104  11.068  31.607  1.00  0.00     0.035 C 
ENDROOT
BRANCH   1   2
ATOM      2  C   UNL     1      31.877  10.477  32.774  1.00  0.00    -0.074 C 
ATOM      3  C   UNL     1      33.125  10.910  33.026  1.00  0.00     0.008 C 
BRANCH   2   4
ATOM      4  C   UNL     1      31.307   9.326  33.596  1.00  0.00     0.018 C 
ATOM      5  C   UNL     1      30.669   5.901  36.240  1.00  0.00     0.039 C 
ATOM      6  C   UNL     1      31.039   7.079  35.382  1.00  0.00    -0.077 C 
ATOM      7  C   UNL     1      31.483   6.861  34.126  1.00  0.00    -0.027 C 
ATOM      8  C   UNL     1      30.776   8.479  35.907  1.00  0.00     0.031 C 
ATOM      9  C   UNL     1      31.932   7.973  33.210  1.00  0.00     0.035 C 
ATOM     10  C   UNL     1      31.492   9.570  35.101  1.00  0.00     0.013 C 
ENDBRANCH   2   4
ENDBRANCH   1   2
BRANCH   1  11
ATOM     11  C   UNL     1      29.868  10.227  31.244  1.00  0.00     0.032 C 
BRANCH  11  12
ATOM     12  C   UNL     1      29.729  10.001  29.756  1.00  0.00    -0.028 C 
ATOM     13  C   UNL     1      29.925   8.797  29.175  1.00  0.00    -0.080 C 
ATOM     14  C   UNL     1      30.296   7.579  29.983  1.00  0.00     0.039 C 
ATOM     15  C   UNL     1      29.791   8.649  27.681  1.00  0.00     0.039 C 
ENDBRANCH  11  12
ENDBRANCH   1  11
TORSDOF 4
ENDMDL
MODEL 4
REMARK VINA RESULT:    -4.964      2.109      3.388
REMARK INTER + INTRA:          -6.818
REMARK INTER:                  -5.722
REMARK INTRA:                  -1.096
REMARK UNBOUND:                -0.693
REMARK SMILES C=C(CCC=C(C)C)[C@H]1CC=C(C)CC1
REMARK SMILES IDX 3 1 2 2 1 3 9 4 13 5 12 6 11 7 14 8 10 9 15 10 4 11 5 12
REMARK SMILES IDX 6 13 7 14 8 15
REMARK H PARENT
REMARK Flexibility Score: inf
ROOT
ATOM      1  C   UNL     1      30.910   7.051  34.077  1.00  0.00     0.035 C 
ENDROOT
BRANCH   1   2
ATOM      2  C   UNL     1      31.253   7.378  35.521  1.00  0.00    -0.074 C 
ATOM      3  C   UNL     1      31.631   6.390  36.350  1.00  0.00     0.008 C 
BRANCH   2   4
ATOM      4  C   UNL     1      31.071   8.788  36.075  1.00  0.00     0.018 C 
ATOM      5  C   UNL     1      29.746  12.390  38.170  1.00  0.00     0.039 C 
ATOM      6  C   UNL     1      30.094  11.073  37.536  1.00  0.00    -0.077 C 
ATOM      7  C   UNL     1      29.450  10.698  36.409  1.00  0.00    -0.027 C 
ATOM      8  C   UNL     1      31.249  10.268  38.104  1.00  0.00     0.031 C 
ATOM      9  C   UNL     1      29.688   9.370  35.732  1.00  0.00     0.035 C 
ATOM     10  C   UNL     1      31.284   8.821  37.595  1.00  0.00     0.013 C 
ENDBRANCH   2   4
ENDBRANCH   1   2
BRANCH   1  11
ATOM     11  C   UNL     1      31.895   7.692  33.085  1.00  0.00     0.032 C 
BRANCH  11  12
ATOM     12  C   UNL     1      31.325   8.910  32.398  1.00  0.00    -0.028 C 
ATOM     13  C   UNL     1      31.864  10.143  32.522  1.00  0.00    -0.080 C 
ATOM     14  C   UNL     1      33.091  10.390  33.363  1.00  0.00     0.039 C 
ATOM     15  C   UNL     1      31.229  11.319  31.825  1.00  0.00     0.039 C 
ENDBRANCH  11  12
ENDBRANCH   1  11
TORSDOF 4
ENDMDL
MODEL 5
REMARK VINA RESULT:    -4.896      1.318      7.001
REMARK INTER + INTRA:          -6.734
REMARK INTER:                  -5.982
REMARK INTRA:                  -0.752
REMARK UNBOUND:                -0.693
REMARK SMILES C=C(CCC=C(C)C)[C@H]1CC=C(C)CC1
REMARK SMILES IDX 3 1 2 2 1 3 9 4 13 5 12 6 11 7 14 8 10 9 15 10 4 11 5 12
REMARK SMILES IDX 6 13 7 14 8 15
REMARK H PARENT
REMARK Flexibility Score: inf
ROOT
ATOM      1  C   UNL     1      32.053   9.169  32.752  1.00  0.00     0.035 C 
ENDROOT
BRANCH   1   2
ATOM      2  C   UNL     1      31.478   7.782  32.516  1.00  0.00    -0.074 C 
ATOM      3  C   UNL     1      31.675   6.820  33.433  1.00  0.00     0.008 C 
BRANCH   2   4
ATOM      4  C   UNL     1      30.776   7.433  31.208  1.00  0.00     0.018 C 
ATOM      5  C   UNL     1      29.634   6.827  27.030  1.00  0.00     0.039 C 
ATOM      6  C   UNL     1      30.169   7.081  28.412  1.00  0.00    -0.077 C 
ATOM      7  C   UNL     1      30.008   8.303  28.962  1.00  0.00    -0.027 C 
ATOM      8  C   UNL     1      30.752   5.919  29.196  1.00  0.00     0.031 C 
ATOM      9  C   UNL     1      30.560   8.671  30.318  1.00  0.00     0.035 C 
ATOM     10  C   UNL     1      31.553   6.364  30.426  1.00  0.00     0.013 C 
ENDBRANCH   2   4
ENDBRANCH   1   2
BRANCH   1  11
ATOM     11  C   UNL     1      31.166  10.017  33.680  1.00  0.00     0.032 C 
BRANCH  11  12
ATOM     12  C   UNL     1      31.688  10.078  35.096  1.00  0.00    -0.028 C 
ATOM     13  C   UNL     1      31.071   9.471  36.134  1.00  0.00    -0.080 C 
ATOM     14  C   UNL     1      29.804   8.676  35.945  1.00  0.00     0.039 C 
ATOM     15  C   UNL     1      31.637   9.594  37.526  1.00  0.00     0.039 C 
ENDBRANCH  11  12
ENDBRANCH   1  11
TORSDOF 4
ENDMDL
MODEL 6
REMARK VINA RESULT:    -4.840      2.767      4.910
REMARK INTER + INTRA:          -6.665
REMARK INTER:                  -5.589
REMARK INTRA:                  -1.076
REMARK UNBOUND:                -0.693
REMARK SMILES C=C(CCC=C(C)C)[C@H]1CC=C(C)CC1
REMARK SMILES IDX 3 1 2 2 1 3 9 4 13 5 12 6 11 7 14 8 10 9 15 10 4 11 5 12
REMARK SMILES IDX 6 13 7 14 8 15
REMARK H PARENT
REMARK Flexibility Score: inf
ROOT
ATOM      1  C   UNL     1      31.560   6.318  28.258  1.00  0.00     0.035 C 
ENDROOT
BRANCH   1   2
ATOM      2  C   UNL     1      30.730   6.648  29.487  1.00  0.00    -0.074 C 
ATOM      3  C   UNL     1      29.521   6.081  29.639  1.00  0.00     0.008 C 
BRANCH   2   4
ATOM      4  C   UNL     1      31.194   7.695  30.495  1.00  0.00     0.018 C 
ATOM      5  C   UNL     1      31.530  10.650  33.700  1.00  0.00     0.039 C 
ATOM      6  C   UNL     1      31.267   9.607  32.651  1.00  0.00    -0.077 C 
ATOM      7  C   UNL     1      30.761   9.991  31.459  1.00  0.00    -0.027 C 
ATOM      8  C   UNL     1      31.702   8.177  32.914  1.00  0.00     0.031 C 
ATOM      9  C   UNL     1      30.410   9.013  30.364  1.00  0.00     0.035 C 
ATOM     10  C   UNL     1      31.086   7.170  31.934  1.00  0.00     0.013 C 
ENDBRANCH   2   4
ENDBRANCH   1   2
BRANCH   1  11
ATOM     11  C   UNL     1      30.822   6.653  26.951  1.00  0.00     0.032 C 
BRANCH  11  12
ATOM     12  C   UNL     1      30.980   8.099  26.542  1.00  0.00    -0.028 C 
ATOM     13  C   UNL     1      29.936   8.950  26.434  1.00  0.00    -0.080 C 
ATOM     14  C   UNL     1      28.523   8.509  26.723  1.00  0.00     0.039 C 
ATOM     15  C   UNL     1      30.165  10.375  25.999  1.00  0.00     0.039 C 
ENDBRANCH  11  12
ENDBRANCH   1  11
TORSDOF 4
ENDMDL
MODEL 7
REMARK VINA RESULT:    -4.830      2.862      8.862
REMARK INTER + INTRA:          -6.652
REMARK INTER:                  -6.096
REMARK INTRA:                  -0.557
REMARK UNBOUND:                -0.693
REMARK SMILES C=C(CCC=C(C)C)[C@H]1CC=C(C)CC1
REMARK SMILES IDX 3 1 2 2 1 3 9 4 13 5 12 6 11 7 14 8 10 9 15 10 4 11 5 12
REMARK SMILES IDX 6 13 7 14 8 15
REMARK H PARENT
REMARK Flexibility Score: inf
ROOT
ATOM      1  C   UNL     1      30.184   8.212  29.251  1.00  0.00     0.035 C 
ENDROOT
BRANCH   1   2
ATOM      2  C   UNL     1      30.924   7.141  28.466  1.00  0.00    -0.074 C 
ATOM      3  C   UNL     1      31.696   6.258  29.121  1.00  0.00     0.008 C 
BRANCH   2   4
ATOM      4  C   UNL     1      30.895   7.120  26.942  1.00  0.00     0.018 C 
ATOM      5  C   UNL     1      29.789   7.248  22.712  1.00  0.00     0.039 C 
ATOM      6  C   UNL     1      30.020   7.250  24.198  1.00  0.00    -0.077 C 
ATOM      7  C   UNL     1      29.803   6.114  24.896  1.00  0.00    -0.027 C 
ATOM      8  C   UNL     1      30.617   8.486  24.844  1.00  0.00     0.031 C 
ATOM      9  C   UNL     1      29.952   6.033  26.395  1.00  0.00     0.035 C 
ATOM     10  C   UNL     1      30.489   8.488  26.373  1.00  0.00     0.013 C 
ENDBRANCH   2   4
ENDBRANCH   1   2
BRANCH   1  11
ATOM     11  C   UNL     1      30.239   7.963  30.768  1.00  0.00     0.032 C 
BRANCH  11  12
ATOM     12  C   UNL     1      30.984   9.045  31.514  1.00  0.00    -0.028 C 
ATOM     13  C   UNL     1      31.698   8.806  32.635  1.00  0.00    -0.080 C 
ATOM     14  C   UNL     1      31.806   7.422  33.225  1.00  0.00     0.039 C 
ATOM     15  C   UNL     1      32.399   9.939  33.341  1.00  0.00     0.039 C 
ENDBRANCH  11  12
ENDBRANCH   1  11
TORSDOF 4
ENDMDL
MODEL 8
REMARK VINA RESULT:    -4.805      3.917      8.558
REMARK INTER + INTRA:          -6.622
REMARK INTER:                  -5.665
REMARK INTRA:                  -0.957
REMARK UNBOUND:                -0.693
REMARK SMILES C=C(CCC=C(C)C)[C@H]1CC=C(C)CC1
REMARK SMILES IDX 3 1 2 2 1 3 9 4 13 5 12 6 11 7 14 8 10 9 15 10 4 11 5 12
REMARK SMILES IDX 6 13 7 14 8 15
REMARK H PARENT
REMARK Flexibility Score: inf
ROOT
ATOM      1  C   UNL     1      30.653   5.919  27.331  1.00  0.00     0.035 C 
ENDROOT
BRANCH   1   2
ATOM      2  C   UNL     1      30.185   6.830  26.209  1.00  0.00    -0.074 C 
ATOM      3  C   UNL     1      29.839   6.296  25.025  1.00  0.00     0.008 C 
BRANCH   2   4
ATOM      4  C   UNL     1      30.207   8.347  26.365  1.00  0.00     0.018 C 
ATOM      5  C   UNL     1      29.682  12.669  25.945  1.00  0.00     0.039 C 
ATOM      6  C   UNL     1      29.759  11.168  25.969  1.00  0.00    -0.077 C 
ATOM      7  C   UNL     1      30.702  10.549  25.226  1.00  0.00    -0.027 C 
ATOM      8  C   UNL     1      28.866  10.403  26.928  1.00  0.00     0.031 C 
ATOM      9  C   UNL     1      30.823   9.047  25.139  1.00  0.00     0.035 C 
ATOM     10  C   UNL     1      28.798   8.901  26.621  1.00  0.00     0.013 C 
ENDBRANCH   2   4
ENDBRANCH   1   2
BRANCH   1  11
ATOM     11  C   UNL     1      31.751   6.570  28.190  1.00  0.00     0.032 C 
BRANCH  11  12
ATOM     12  C   UNL     1      31.560   6.326  29.669  1.00  0.00    -0.028 C 
ATOM     13  C   UNL     1      30.966   7.219  30.490  1.00  0.00    -0.080 C 
ATOM     14  C   UNL     1      30.441   8.537  29.980  1.00  0.00     0.039 C 
ATOM     15  C   UNL     1      30.830   6.918  31.961  1.00  0.00     0.039 C 
ENDBRANCH  11  12
ENDBRANCH   1  11
TORSDOF 4
ENDMDL
MODEL 9
REMARK VINA RESULT:    -4.754      1.725      6.917
REMARK INTER + INTRA:          -6.558
REMARK INTER:                  -5.592
REMARK INTRA:                  -0.967
REMARK UNBOUND:                -0.693
REMARK SMILES C=C(CCC=C(C)C)[C@H]1CC=C(C)CC1
REMARK SMILES IDX 3 1 2 2 1 3 9 4 13 5 12 6 11 7 14 8 10 9 15 10 4 11 5 12
REMARK SMILES IDX 6 13 7 14 8 15
REMARK H PARENT
REMARK Flexibility Score: inf
ROOT
ATOM      1  C   UNL     1      31.770  11.475  32.276  1.00  0.00     0.035 C 
ENDROOT
BRANCH   1   2
ATOM      2  C   UNL     1      30.476  10.925  31.699  1.00  0.00    -0.074 C 
ATOM      3  C   UNL     1      29.334  11.060  32.395  1.00  0.00     0.008 C 
BRANCH   2   4
ATOM      4  C   UNL     1      30.469  10.128  30.399  1.00  0.00     0.018 C 
ATOM      5  C   UNL     1      29.579   7.423  27.080  1.00  0.00     0.039 C 
ATOM      6  C   UNL     1      29.745   8.308  28.283  1.00  0.00    -0.077 C 
ATOM      7  C   UNL     1      30.370   7.819  29.375  1.00  0.00    -0.027 C 
ATOM      8  C   UNL     1      29.325   9.764  28.185  1.00  0.00     0.031 C 
ATOM      9  C   UNL     1      30.535   8.610  30.650  1.00  0.00     0.035 C 
ATOM     10  C   UNL     1      29.232  10.458  29.550  1.00  0.00     0.013 C 
ENDBRANCH   2   4
ENDBRANCH   1   2
BRANCH   1  11
ATOM     11  C   UNL     1      32.583  10.396  33.013  1.00  0.00     0.032 C 
BRANCH  11  12
ATOM     12  C   UNL     1      32.323  10.383  34.501  1.00  0.00    -0.028 C 
ATOM     13  C   UNL     1      31.585   9.428  35.109  1.00  0.00    -0.080 C 
ATOM     14  C   UNL     1      30.964   8.293  34.334  1.00  0.00     0.039 C 
ATOM     15  C   UNL     1      31.347   9.489  36.597  1.00  0.00     0.039 C 
ENDBRANCH  11  12
ENDBRANCH   1  11
TORSDOF 4
ENDMDL
