MODEL 1
REMARK VINA RESULT:     1.605      0.000      0.000
REMARK INTER + INTRA:           3.306
REMARK INTER:                   1.980
REMARK INTRA:                   1.325
REMARK UNBOUND:                 1.325
REMARK SMILES C=C1CC[C@@H]2[C@H]([C@@H]3[C@H](C)CC[C@@H]13)C2(C)C
REMARK SMILES IDX 3 1 2 2 1 3 12 4 9 5 8 6 10 7 7 8 11 9 4 11 5 12 6 13 13 14
REMARK SMILES IDX 14 16 15 17
REMARK H PARENT
REMARK Flexibility Score: 80.00
ROOT
ATOM      1  C   UNL     1       6.998   9.017  15.109  1.00  0.00     0.031 C 
ENDROOT
BRANCH   1   2
ATOM      2  C   UNL     1       7.580   7.882  14.282  1.00  0.00    -0.074 C 
ATOM      3  C   UNL     1       8.912   7.861  14.072  1.00  0.00     0.008 C 
BRANCH   2   4
ATOM      4  C   UNL     1       6.666   6.723  13.868  1.00  0.00     0.018 C 
ATOM      5  C   UNL     1       3.684   5.440  12.204  1.00  0.00     0.008 C 
ATOM      6  C   UNL     1       5.122   5.970  12.090  1.00  0.00    -0.010 C 
ATOM      7  C   UNL     1       6.146   4.878  12.412  1.00  0.00     0.004 C 
ATOM      8  C   UNL     1       5.486   7.183  12.995  1.00  0.00     0.003 CG0
ATOM      9  C   UNL     1       7.313   5.603  13.051  1.00  0.00     0.008 C 
ATOM     10  G   UNL     1       4.325   7.698  13.885  1.00  0.00     0.000 G0
ENDBRANCH   2   4
ENDBRANCH   1   2
BRANCH   1  11
ATOM     11  C   UNL     1       5.882   9.776  14.375  1.00  0.00     0.009 C 
BRANCH  11  12
ATOM     12  C   UNL     1       4.522   9.075  14.568  1.00  0.00    -0.001 C 
ATOM     13  C   UNL     1       4.322   7.717  13.874  1.00  0.00     0.002 CG0
ATOM     14  C   UNL     1       3.496   8.936  13.428  1.00  0.00    -0.029 C 
ATOM     15  G   UNL     1       5.485   7.193  12.991  1.00  0.00     0.000 G0
ATOM     16  C   UNL     1       2.030   8.880  13.873  1.00  0.00     0.011 C 
ATOM     17  C   UNL     1       3.733   9.537  12.028  1.00  0.00     0.011 C 
ENDBRANCH  11  12
ENDBRANCH   1  11
TORSDOF 0
ENDMDL
MODEL 2
REMARK VINA RESULT:     3.395      1.266      4.530
REMARK INTER + INTRA:           5.515
REMARK INTER:                   4.328
REMARK INTRA:                   1.187
REMARK UNBOUND:                 1.325
REMARK SMILES C=C1CC[C@@H]2[C@H]([C@@H]3[C@H](C)CC[C@@H]13)C2(C)C
REMARK SMILES IDX 3 1 2 2 1 3 12 4 9 5 8 6 10 7 7 8 11 9 4 11 5 12 6 13 13 14
REMARK SMILES IDX 14 16 15 17
REMARK H PARENT
REMARK Flexibility Score: 80.00
ROOT
ATOM      1  C   UNL     1       4.454   8.251  10.889  1.00  0.00     0.031 C 
ENDROOT
BRANCH   1   2
ATOM      2  C   UNL     1       3.891   9.422  11.679  1.00  0.00    -0.074 C 
ATOM      3  C   UNL     1       3.669  10.584  11.032  1.00  0.00     0.008 C 
BRANCH   2   4
ATOM      4  C   UNL     1       3.438   9.190  13.126  1.00  0.00     0.018 C 
ATOM      5  C   UNL     1       4.117   8.180  16.565  1.00  0.00     0.008 C 
ATOM      6  C   UNL     1       4.223   9.252  15.469  1.00  0.00    -0.010 C 
ATOM      7  C   UNL     1       2.912  10.028  15.320  1.00  0.00     0.004 C 
ATOM      8  C   UNL     1       4.593   8.751  14.043  1.00  0.00     0.003 CG0
ATOM      9  C   UNL     1       2.831  10.392  13.851  1.00  0.00     0.008 C 
ATOM     10  G   UNL     1       4.815   7.219  13.934  1.00  0.00     0.000 G0
ENDBRANCH   2   4
ENDBRANCH   1   2
BRANCH   1  11
ATOM     11  C   UNL     1       5.761   7.706  11.485  1.00  0.00     0.009 C 
BRANCH  11  12
ATOM     12  C   UNL     1       5.471   6.671  12.591  1.00  0.00    -0.001 C 
ATOM     13  C   UNL     1       4.844   7.189  13.897  1.00  0.00     0.002 CG0
ATOM     14  C   UNL     1       6.274   6.619  13.904  1.00  0.00    -0.029 C 
ATOM     15  G   UNL     1       4.609   8.718  14.013  1.00  0.00     0.000 G0
ATOM     16  C   UNL     1       6.379   5.233  14.551  1.00  0.00     0.011 C 
ATOM     17  C   UNL     1       7.460   7.564  14.183  1.00  0.00     0.011 C 
ENDBRANCH  11  12
ENDBRANCH   1  11
TORSDOF 0
ENDMDL
MODEL 3
REMARK VINA RESULT:     4.134      1.984      3.990
REMARK INTER + INTRA:           6.427
REMARK INTER:                   4.965
REMARK INTRA:                   1.461
REMARK UNBOUND:                 1.325
REMARK SMILES C=C1CC[C@@H]2[C@H]([C@@H]3[C@H](C)CC[C@@H]13)C2(C)C
REMARK SMILES IDX 3 1 2 2 1 3 12 4 9 5 8 6 10 7 7 8 11 9 4 11 5 12 6 13 13 14
REMARK SMILES IDX 14 16 15 17
REMARK H PARENT
REMARK Flexibility Score: 80.00
ROOT
ATOM      1  C   UNL     1       5.442   7.516  11.598  1.00  0.00     0.031 C 
ENDROOT
BRANCH   1   2
ATOM      2  C   UNL     1       5.095   7.188  13.042  1.00  0.00    -0.074 C 
ATOM      3  C   UNL     1       5.196   5.907  13.450  1.00  0.00     0.008 C 
BRANCH   2   4
ATOM      4  C   UNL     1       4.813   8.339  14.016  1.00  0.00     0.018 C 
ATOM      5  C   UNL     1       2.969  11.338  14.972  1.00  0.00     0.008 C 
ATOM      6  C   UNL     1       3.012   9.805  14.863  1.00  0.00    -0.010 C 
ATOM      7  C   UNL     1       3.793   9.185  16.025  1.00  0.00     0.004 C 
ATOM      8  C   UNL     1       3.637   9.221  13.563  1.00  0.00     0.003 CG0
ATOM      9  C   UNL     1       4.447   7.946  15.448  1.00  0.00     0.008 C 
ATOM     10  G   UNL     1       4.123  10.286  12.544  1.00  0.00     0.000 G0
ENDBRANCH   2   4
ENDBRANCH   1   2
BRANCH   1  11
ATOM     11  C   UNL     1       4.320   8.275  10.875  1.00  0.00     0.009 C 
BRANCH  11  12
ATOM     12  C   UNL     1       4.428   9.792  11.134  1.00  0.00    -0.001 C 
ATOM     13  C   UNL     1       4.107  10.291  12.554  1.00  0.00     0.002 CG0
ATOM     14  C   UNL     1       3.192  10.678  11.378  1.00  0.00    -0.029 C 
ATOM     15  G   UNL     1       3.646   9.234  13.591  1.00  0.00     0.000 G0
ATOM     16  C   UNL     1       3.341  12.140  10.940  1.00  0.00     0.011 C 
ATOM     17  C   UNL     1       1.755  10.121  11.326  1.00  0.00     0.011 C 
ENDBRANCH  11  12
ENDBRANCH   1  11
TORSDOF 0
ENDMDL
