MODEL 1
REMARK VINA RESULT:    -2.651      0.000      0.000
REMARK INTER + INTRA:          -7.938
REMARK INTER:                  -5.750
REMARK INTRA:                  -2.188
REMARK UNBOUND:                -2.188
REMARK SMILES CCCCCCCCCCCCCCCCCCCCCC(=O)[O-]
REMARK SMILES IDX 12 1 11 2 10 3 9 4 8 5 7 6 6 7 5 8 4 9 3 10 2 11 1 12 13 13
REMARK SMILES IDX 14 14 15 15 16 16 17 17 18 18 19 19 20 20 21 21 22 22 23 23
REMARK SMILES IDX 24 24
REMARK H PARENT
REMARK Flexibility Score: inf
ROOT
ATOM      1  C   UNL     1      23.503  26.738  21.898  1.00  0.00     0.000 C 
ENDROOT
BRANCH   1   2
ATOM      2  C   UNL     1      24.062  28.020  22.540  1.00  0.00     0.000 C 
BRANCH   2   3
ATOM      3  C   UNL     1      25.594  28.015  22.648  1.00  0.00     0.000 C 
BRANCH   3   4
ATOM      4  C   UNL     1      26.065  28.740  23.913  1.00  0.00    -0.000 C 
BRANCH   4   5
ATOM      5  C   UNL     1      27.309  28.056  24.503  1.00  0.00    -0.000 C 
BRANCH   5   6
ATOM      6  C   UNL     1      27.843  26.919  23.616  1.00  0.00    -0.000 C 
BRANCH   6   7
ATOM      7  C   UNL     1      27.840  25.560  24.338  1.00  0.00    -0.000 C 
BRANCH   7   8
ATOM      8  C   UNL     1      27.873  25.693  25.873  1.00  0.00    -0.000 C 
BRANCH   8   9
ATOM      9  C   UNL     1      27.473  24.426  26.654  1.00  0.00    -0.000 C 
BRANCH   9  10
ATOM     10  C   UNL     1      26.911  23.314  25.750  1.00  0.00    -0.000 C 
BRANCH  10  11
ATOM     11  C   UNL     1      26.854  21.952  26.459  1.00  0.00    -0.003 C 
ATOM     12  C   UNL     1      26.195  22.028  27.837  1.00  0.00     0.004 C 
ENDBRANCH  10  11
ENDBRANCH   9  10
ENDBRANCH   8   9
ENDBRANCH   7   8
ENDBRANCH   6   7
ENDBRANCH   5   6
ENDBRANCH   4   5
ENDBRANCH   3   4
ENDBRANCH   2   3
ENDBRANCH   1   2
BRANCH   1  13
ATOM     13  C   UNL     1      24.381  25.482  22.068  1.00  0.00     0.000 C 
BRANCH  13  14
ATOM     14  C   UNL     1      23.789  24.188  21.479  1.00  0.00     0.000 C 
BRANCH  14  15
ATOM     15  C   UNL     1      23.132  23.299  22.544  1.00  0.00     0.000 C 
BRANCH  15  16
ATOM     16  C   UNL     1      24.109  22.233  23.052  1.00  0.00     0.000 C 
BRANCH  16  17
ATOM     17  C   UNL     1      25.153  21.886  21.981  1.00  0.00     0.000 C 
BRANCH  17  18
ATOM     18  C   UNL     1      26.588  21.876  22.531  1.00  0.00     0.000 C 
BRANCH  18  19
ATOM     19  C   UNL     1      27.242  23.269  22.516  1.00  0.00     0.000 C 
BRANCH  19  20
ATOM     20  C   UNL     1      28.125  23.496  21.279  1.00  0.00     0.006 C 
BRANCH  20  21
ATOM     21  C   UNL     1      27.305  23.721  20.000  1.00  0.00     0.053 C 
BRANCH  21  22
ATOM     22  C   UNL     1      27.683  25.017  19.354  1.00  0.00     0.041 C 
ATOM     23  O   UNL     1      27.610  25.147  18.101  1.00  0.00    -0.550 OA
ATOM     24  O   UNL     1      28.082  26.096  20.135  1.00  0.00    -0.550 OA
ENDBRANCH  21  22
ENDBRANCH  20  21
ENDBRANCH  19  20
ENDBRANCH  18  19
ENDBRANCH  17  18
ENDBRANCH  16  17
ENDBRANCH  15  16
ENDBRANCH  14  15
ENDBRANCH  13  14
ENDBRANCH   1  13
TORSDOF 20
ENDMDL
MODEL 2
REMARK VINA RESULT:    -2.089      6.172      9.511
REMARK INTER + INTRA:          -6.719
REMARK INTER:                  -6.111
REMARK INTRA:                  -0.608
REMARK UNBOUND:                -2.188
REMARK SMILES CCCCCCCCCCCCCCCCCCCCCC(=O)[O-]
REMARK SMILES IDX 12 1 11 2 10 3 9 4 8 5 7 6 6 7 5 8 4 9 3 10 2 11 1 12 13 13
REMARK SMILES IDX 14 14 15 15 16 16 17 17 18 18 19 19 20 20 21 21 22 22 23 23
REMARK SMILES IDX 24 24
REMARK H PARENT
REMARK Flexibility Score: inf
ROOT
ATOM      1  C   UNL     1      27.754  28.625  24.668  1.00  0.00     0.000 C 
ENDROOT
BRANCH   1   2
ATOM      2  C   UNL     1      26.640  28.234  23.680  1.00  0.00     0.000 C 
BRANCH   2   3
ATOM      3  C   UNL     1      27.028  27.049  22.783  1.00  0.00     0.000 C 
BRANCH   3   4
ATOM      4  C   UNL     1      25.790  26.396  22.160  1.00  0.00    -0.000 C 
BRANCH   4   5
ATOM      5  C   UNL     1      25.373  25.148  22.955  1.00  0.00    -0.000 C 
BRANCH   5   6
ATOM      6  C   UNL     1      24.570  24.143  22.115  1.00  0.00    -0.000 C 
BRANCH   6   7
ATOM      7  C   UNL     1      25.264  23.803  20.783  1.00  0.00    -0.000 C 
BRANCH   7   8
ATOM      8  C   UNL     1      26.770  23.522  20.944  1.00  0.00    -0.000 C 
BRANCH   8   9
ATOM      9  C   UNL     1      27.124  22.200  21.650  1.00  0.00    -0.000 C 
BRANCH   9  10
ATOM     10  C   UNL     1      26.853  22.236  23.165  1.00  0.00    -0.000 C 
BRANCH  10  11
ATOM     11  C   UNL     1      28.017  22.856  23.955  1.00  0.00    -0.003 C 
ATOM     12  C   UNL     1      27.598  23.348  25.342  1.00  0.00     0.004 C 
ENDBRANCH  10  11
ENDBRANCH   9  10
ENDBRANCH   8   9
ENDBRANCH   7   8
ENDBRANCH   6   7
ENDBRANCH   5   6
ENDBRANCH   4   5
ENDBRANCH   3   4
ENDBRANCH   2   3
ENDBRANCH   1   2
BRANCH   1  13
ATOM     13  C   UNL     1      27.884  30.137  24.946  1.00  0.00     0.000 C 
BRANCH  13  14
ATOM     14  C   UNL     1      26.571  30.843  25.330  1.00  0.00     0.000 C 
BRANCH  14  15
ATOM     15  C   UNL     1      26.793  32.279  25.825  1.00  0.00     0.000 C 
BRANCH  15  16
ATOM     16  C   UNL     1      28.044  32.895  25.189  1.00  0.00     0.000 C 
BRANCH  16  17
ATOM     17  C   UNL     1      27.680  33.734  23.956  1.00  0.00     0.000 C 
BRANCH  17  18
ATOM     18  C   UNL     1      28.098  35.207  24.094  1.00  0.00     0.000 C 
BRANCH  18  19
ATOM     19  C   UNL     1      27.779  36.036  22.838  1.00  0.00     0.000 C 
BRANCH  19  20
ATOM     20  C   UNL     1      27.985  37.544  23.054  1.00  0.00     0.006 C 
BRANCH  20  21
ATOM     21  C   UNL     1      26.727  38.242  23.592  1.00  0.00     0.053 C 
BRANCH  21  22
ATOM     22  C   UNL     1      27.100  39.347  24.531  1.00  0.00     0.041 C 
ATOM     23  O   UNL     1      27.918  40.236  24.172  1.00  0.00    -0.550 OA
ATOM     24  O   UNL     1      26.516  39.417  25.791  1.00  0.00    -0.550 OA
ENDBRANCH  21  22
ENDBRANCH  20  21
ENDBRANCH  19  20
ENDBRANCH  18  19
ENDBRANCH  17  18
ENDBRANCH  16  17
ENDBRANCH  15  16
ENDBRANCH  14  15
ENDBRANCH  13  14
ENDBRANCH   1  13
TORSDOF 20
ENDMDL
MODEL 3
REMARK VINA RESULT:    -1.973      5.016      8.716
REMARK INTER + INTRA:          -6.468
REMARK INTER:                  -5.192
REMARK INTRA:                  -1.276
REMARK UNBOUND:                -2.188
REMARK SMILES CCCCCCCCCCCCCCCCCCCCCC(=O)[O-]
REMARK SMILES IDX 12 1 11 2 10 3 9 4 8 5 7 6 6 7 5 8 4 9 3 10 2 11 1 12 13 13
REMARK SMILES IDX 14 14 15 15 16 16 17 17 18 18 19 19 20 20 21 21 22 22 23 23
REMARK SMILES IDX 24 24
REMARK H PARENT
REMARK Flexibility Score: inf
ROOT
ATOM      1  C   UNL     1      27.909  27.517  24.247  1.00  0.00     0.000 C 
ENDROOT
BRANCH   1   2
ATOM      2  C   UNL     1      27.202  26.359  24.976  1.00  0.00     0.000 C 
BRANCH   2   3
ATOM      3  C   UNL     1      27.136  25.076  24.135  1.00  0.00     0.000 C 
BRANCH   3   4
ATOM      4  C   UNL     1      27.131  23.828  25.024  1.00  0.00    -0.000 C 
BRANCH   4   5
ATOM      5  C   UNL     1      27.716  22.621  24.273  1.00  0.00    -0.000 C 
BRANCH   5   6
ATOM      6  C   UNL     1      26.980  22.322  22.957  1.00  0.00    -0.000 C 
BRANCH   6   7
ATOM      7  C   UNL     1      27.734  22.860  21.727  1.00  0.00    -0.000 C 
BRANCH   7   8
ATOM      8  C   UNL     1      27.153  22.351  20.394  1.00  0.00    -0.000 C 
BRANCH   8   9
ATOM      9  C   UNL     1      26.351  23.388  19.585  1.00  0.00    -0.000 C 
BRANCH   9  10
ATOM     10  C   UNL     1      26.084  24.687  20.368  1.00  0.00    -0.000 C 
BRANCH  10  11
ATOM     11  C   UNL     1      24.732  24.666  21.098  1.00  0.00    -0.003 C 
ATOM     12  C   UNL     1      24.276  26.056  21.543  1.00  0.00     0.004 C 
ENDBRANCH  10  11
ENDBRANCH   9  10
ENDBRANCH   8   9
ENDBRANCH   7   8
ENDBRANCH   6   7
ENDBRANCH   5   6
ENDBRANCH   4   5
ENDBRANCH   3   4
ENDBRANCH   2   3
ENDBRANCH   1   2
BRANCH   1  13
ATOM     13  C   UNL     1      27.049  28.778  24.031  1.00  0.00     0.000 C 
BRANCH  13  14
ATOM     14  C   UNL     1      27.163  29.842  25.139  1.00  0.00     0.000 C 
BRANCH  14  15
ATOM     15  C   UNL     1      25.839  30.577  25.394  1.00  0.00     0.000 C 
BRANCH  15  16
ATOM     16  C   UNL     1      25.973  32.074  25.095  1.00  0.00     0.000 C 
BRANCH  16  17
ATOM     17  C   UNL     1      26.976  32.739  26.049  1.00  0.00     0.000 C 
BRANCH  17  18
ATOM     18  C   UNL     1      28.117  33.455  25.308  1.00  0.00     0.000 C 
BRANCH  18  19
ATOM     19  C   UNL     1      27.717  33.902  23.891  1.00  0.00     0.000 C 
BRANCH  19  20
ATOM     20  C   UNL     1      28.121  35.355  23.591  1.00  0.00     0.006 C 
BRANCH  20  21
ATOM     21  C   UNL     1      27.382  35.935  22.377  1.00  0.00     0.053 C 
BRANCH  21  22
ATOM     22  C   UNL     1      27.422  37.432  22.403  1.00  0.00     0.041 C 
ATOM     23  O   UNL     1      27.334  38.088  21.329  1.00  0.00    -0.550 OA
ATOM     24  O   UNL     1      27.520  38.106  23.615  1.00  0.00    -0.550 OA
ENDBRANCH  21  22
ENDBRANCH  20  21
ENDBRANCH  19  20
ENDBRANCH  18  19
ENDBRANCH  17  18
ENDBRANCH  16  17
ENDBRANCH  15  16
ENDBRANCH  14  15
ENDBRANCH  13  14
ENDBRANCH   1  13
TORSDOF 20
ENDMDL
MODEL 4
REMARK VINA RESULT:    -1.762      2.976      5.928
REMARK INTER + INTRA:          -6.009
REMARK INTER:                  -7.046
REMARK INTRA:                   1.036
REMARK UNBOUND:                -2.188
REMARK SMILES CCCCCCCCCCCCCCCCCCCCCC(=O)[O-]
REMARK SMILES IDX 12 1 11 2 10 3 9 4 8 5 7 6 6 7 5 8 4 9 3 10 2 11 1 12 13 13
REMARK SMILES IDX 14 14 15 15 16 16 17 17 18 18 19 19 20 20 21 21 22 22 23 23
REMARK SMILES IDX 24 24
REMARK H PARENT
REMARK Flexibility Score: inf
ROOT
ATOM      1  C   UNL     1      22.981  26.334  20.833  1.00  0.00     0.000 C 
ENDROOT
BRANCH   1   2
ATOM      2  C   UNL     1      23.056  24.813  20.602  1.00  0.00     0.000 C 
BRANCH   2   3
ATOM      3  C   UNL     1      23.941  24.097  21.633  1.00  0.00     0.000 C 
BRANCH   3   4
ATOM      4  C   UNL     1      25.094  23.350  20.953  1.00  0.00    -0.000 C 
BRANCH   4   5
ATOM      5  C   UNL     1      25.898  24.298  20.049  1.00  0.00    -0.000 C 
BRANCH   5   6
ATOM      6  C   UNL     1      27.264  23.721  19.642  1.00  0.00    -0.000 C 
BRANCH   6   7
ATOM      7  C   UNL     1      27.895  22.865  20.755  1.00  0.00    -0.000 C 
BRANCH   7   8
ATOM      8  C   UNL     1      26.906  22.519  21.884  1.00  0.00    -0.000 C 
BRANCH   8   9
ATOM      9  C   UNL     1      27.536  22.315  23.275  1.00  0.00    -0.000 C 
BRANCH   9  10
ATOM     10  C   UNL     1      27.030  23.327  24.319  1.00  0.00    -0.000 C 
BRANCH  10  11
ATOM     11  C   UNL     1      27.962  23.432  25.536  1.00  0.00    -0.003 C 
ATOM     12  C   UNL     1      27.645  24.635  26.425  1.00  0.00     0.004 C 
ENDBRANCH  10  11
ENDBRANCH   9  10
ENDBRANCH   8   9
ENDBRANCH   7   8
ENDBRANCH   6   7
ENDBRANCH   5   6
ENDBRANCH   4   5
ENDBRANCH   3   4
ENDBRANCH   2   3
ENDBRANCH   1   2
BRANCH   1  13
ATOM     13  C   UNL     1      23.383  26.804  22.246  1.00  0.00     0.000 C 
BRANCH  13  14
ATOM     14  C   UNL     1      24.688  27.618  22.314  1.00  0.00     0.000 C 
BRANCH  14  15
ATOM     15  C   UNL     1      25.929  26.735  22.500  1.00  0.00     0.000 C 
BRANCH  15  16
ATOM     16  C   UNL     1      27.082  27.527  23.128  1.00  0.00     0.000 C 
BRANCH  16  17
ATOM     17  C   UNL     1      27.241  27.183  24.616  1.00  0.00     0.000 C 
BRANCH  17  18
ATOM     18  C   UNL     1      28.122  28.193  25.368  1.00  0.00     0.000 C 
BRANCH  18  19
ATOM     19  C   UNL     1      28.039  29.611  24.778  1.00  0.00     0.000 C 
BRANCH  19  20
ATOM     20  C   UNL     1      26.598  30.036  24.456  1.00  0.00     0.006 C 
BRANCH  20  21
ATOM     21  C   UNL     1      26.133  31.235  25.295  1.00  0.00     0.053 C 
BRANCH  21  22
ATOM     22  C   UNL     1      27.294  32.110  25.651  1.00  0.00     0.041 C 
ATOM     23  O   UNL     1      27.899  32.758  24.754  1.00  0.00    -0.550 OA
ATOM     24  O   UNL     1      27.687  32.241  26.978  1.00  0.00    -0.550 OA
ENDBRANCH  21  22
ENDBRANCH  20  21
ENDBRANCH  19  20
ENDBRANCH  18  19
ENDBRANCH  17  18
ENDBRANCH  16  17
ENDBRANCH  15  16
ENDBRANCH  14  15
ENDBRANCH  13  14
ENDBRANCH   1  13
TORSDOF 20
ENDMDL
MODEL 5
REMARK VINA RESULT:    -1.500      5.763      9.393
REMARK INTER + INTRA:          -5.442
REMARK INTER:                  -4.307
REMARK INTRA:                  -1.135
REMARK UNBOUND:                -2.188
REMARK SMILES CCCCCCCCCCCCCCCCCCCCCC(=O)[O-]
REMARK SMILES IDX 12 1 11 2 10 3 9 4 8 5 7 6 6 7 5 8 4 9 3 10 2 11 1 12 13 13
REMARK SMILES IDX 14 14 15 15 16 16 17 17 18 18 19 19 20 20 21 21 22 22 23 23
REMARK SMILES IDX 24 24
REMARK H PARENT
REMARK Flexibility Score: inf
ROOT
ATOM      1  C   UNL     1      26.631  29.821  23.866  1.00  0.00     0.000 C 
ENDROOT
BRANCH   1   2
ATOM      2  C   UNL     1      25.836  28.516  24.058  1.00  0.00     0.000 C 
BRANCH   2   3
ATOM      3  C   UNL     1      26.312  27.386  23.134  1.00  0.00     0.000 C 
BRANCH   3   4
ATOM      4  C   UNL     1      25.205  26.351  22.905  1.00  0.00    -0.000 C 
BRANCH   4   5
ATOM      5  C   UNL     1      24.112  26.917  21.984  1.00  0.00    -0.000 C 
BRANCH   5   6
ATOM      6  C   UNL     1      23.188  25.829  21.414  1.00  0.00    -0.000 C 
BRANCH   6   7
ATOM      7  C   UNL     1      23.792  24.419  21.540  1.00  0.00    -0.000 C 
BRANCH   7   8
ATOM      8  C   UNL     1      24.382  23.896  20.216  1.00  0.00    -0.000 C 
BRANCH   8   9
ATOM      9  C   UNL     1      25.844  24.296  19.940  1.00  0.00    -0.000 C 
BRANCH   9  10
ATOM     10  C   UNL     1      26.736  23.097  19.569  1.00  0.00    -0.000 C 
BRANCH  10  11
ATOM     11  C   UNL     1      27.829  22.833  20.617  1.00  0.00    -0.003 C 
ATOM     12  C   UNL     1      28.125  24.054  21.488  1.00  0.00     0.004 C 
ENDBRANCH  10  11
ENDBRANCH   9  10
ENDBRANCH   8   9
ENDBRANCH   7   8
ENDBRANCH   6   7
ENDBRANCH   5   6
ENDBRANCH   4   5
ENDBRANCH   3   4
ENDBRANCH   2   3
ENDBRANCH   1   2
BRANCH   1  13
ATOM     13  C   UNL     1      28.009  29.857  24.557  1.00  0.00     0.000 C 
BRANCH  13  14
ATOM     14  C   UNL     1      28.000  30.390  26.001  1.00  0.00     0.000 C 
BRANCH  14  15
ATOM     15  C   UNL     1      27.300  31.751  26.126  1.00  0.00     0.000 C 
BRANCH  15  16
ATOM     16  C   UNL     1      27.713  32.690  24.986  1.00  0.00     0.000 C 
BRANCH  16  17
ATOM     17  C   UNL     1      27.329  34.143  25.302  1.00  0.00     0.000 C 
BRANCH  17  18
ATOM     18  C   UNL     1      28.068  35.159  24.418  1.00  0.00     0.000 C 
BRANCH  18  19
ATOM     19  C   UNL     1      27.583  35.142  22.958  1.00  0.00     0.000 C 
BRANCH  19  20
ATOM     20  C   UNL     1      28.002  36.398  22.178  1.00  0.00     0.006 C 
BRANCH  20  21
ATOM     21  C   UNL     1      27.762  37.692  22.969  1.00  0.00     0.053 C 
BRANCH  21  22
ATOM     22  C   UNL     1      27.321  38.793  22.055  1.00  0.00     0.041 C 
ATOM     23  O   UNL     1      26.710  38.524  20.985  1.00  0.00    -0.550 OA
ATOM     24  O   UNL     1      27.552  40.120  22.400  1.00  0.00    -0.550 OA
ENDBRANCH  21  22
ENDBRANCH  20  21
ENDBRANCH  19  20
ENDBRANCH  18  19
ENDBRANCH  17  18
ENDBRANCH  16  17
ENDBRANCH  15  16
ENDBRANCH  14  15
ENDBRANCH  13  14
ENDBRANCH   1  13
TORSDOF 20
ENDMDL
MODEL 6
REMARK VINA RESULT:    -1.386      6.148      9.614
REMARK INTER + INTRA:          -5.194
REMARK INTER:                  -4.207
REMARK INTRA:                  -0.987
REMARK UNBOUND:                -2.188
REMARK SMILES CCCCCCCCCCCCCCCCCCCCCC(=O)[O-]
REMARK SMILES IDX 12 1 11 2 10 3 9 4 8 5 7 6 6 7 5 8 4 9 3 10 2 11 1 12 13 13
REMARK SMILES IDX 14 14 15 15 16 16 17 17 18 18 19 19 20 20 21 21 22 22 23 23
REMARK SMILES IDX 24 24
REMARK H PARENT
REMARK Flexibility Score: inf
ROOT
ATOM      1  C   UNL     1      27.991  28.862  25.026  1.00  0.00     0.000 C 
ENDROOT
BRANCH   1   2
ATOM      2  C   UNL     1      26.825  28.359  24.156  1.00  0.00     0.000 C 
BRANCH   2   3
ATOM      3  C   UNL     1      26.871  26.843  23.914  1.00  0.00     0.000 C 
BRANCH   3   4
ATOM      4  C   UNL     1      26.548  26.503  22.455  1.00  0.00    -0.000 C 
BRANCH   4   5
ATOM      5  C   UNL     1      25.053  26.192  22.285  1.00  0.00    -0.000 C 
BRANCH   5   6
ATOM      6  C   UNL     1      24.779  25.147  21.192  1.00  0.00    -0.000 C 
BRANCH   6   7
ATOM      7  C   UNL     1      25.796  23.991  21.216  1.00  0.00    -0.000 C 
BRANCH   7   8
ATOM      8  C   UNL     1      25.175  22.652  21.656  1.00  0.00    -0.000 C 
BRANCH   8   9
ATOM      9  C   UNL     1      23.650  22.670  21.874  1.00  0.00    -0.000 C 
BRANCH   9  10
ATOM     10  C   UNL     1      23.254  22.594  23.360  1.00  0.00    -0.000 C 
BRANCH  10  11
ATOM     11  C   UNL     1      21.912  21.876  23.575  1.00  0.00    -0.003 C 
ATOM     12  C   UNL     1      21.022  22.574  24.603  1.00  0.00     0.004 C 
ENDBRANCH  10  11
ENDBRANCH   9  10
ENDBRANCH   8   9
ENDBRANCH   7   8
ENDBRANCH   6   7
ENDBRANCH   5   6
ENDBRANCH   4   5
ENDBRANCH   3   4
ENDBRANCH   2   3
ENDBRANCH   1   2
BRANCH   1  13
ATOM     13  C   UNL     1      28.013  30.383  25.281  1.00  0.00     0.000 C 
BRANCH  13  14
ATOM     14  C   UNL     1      26.629  31.056  25.318  1.00  0.00     0.000 C 
BRANCH  14  15
ATOM     15  C   UNL     1      26.686  32.501  25.832  1.00  0.00     0.000 C 
BRANCH  15  16
ATOM     16  C   UNL     1      28.043  33.144  25.522  1.00  0.00     0.000 C 
BRANCH  16  17
ATOM     17  C   UNL     1      27.976  33.982  24.237  1.00  0.00     0.000 C 
BRANCH  17  18
ATOM     18  C   UNL     1      27.788  35.482  24.516  1.00  0.00     0.000 C 
BRANCH  18  19
ATOM     19  C   UNL     1      27.209  36.243  23.310  1.00  0.00     0.000 C 
BRANCH  19  20
ATOM     20  C   UNL     1      28.118  37.389  22.840  1.00  0.00     0.006 C 
BRANCH  20  21
ATOM     21  C   UNL     1      27.508  38.774  23.103  1.00  0.00     0.053 C 
BRANCH  21  22
ATOM     22  C   UNL     1      27.193  39.464  21.812  1.00  0.00     0.041 C 
ATOM     23  O   UNL     1      27.341  40.712  21.706  1.00  0.00    -0.550 OA
ATOM     24  O   UNL     1      26.769  38.726  20.712  1.00  0.00    -0.550 OA
ENDBRANCH  21  22
ENDBRANCH  20  21
ENDBRANCH  19  20
ENDBRANCH  18  19
ENDBRANCH  17  18
ENDBRANCH  16  17
ENDBRANCH  15  16
ENDBRANCH  14  15
ENDBRANCH  13  14
ENDBRANCH   1  13
TORSDOF 20
ENDMDL
MODEL 7
REMARK VINA RESULT:    -1.231      2.700      5.052
REMARK INTER + INTRA:          -4.859
REMARK INTER:                  -6.027
REMARK INTRA:                   1.168
REMARK UNBOUND:                -2.188
REMARK SMILES CCCCCCCCCCCCCCCCCCCCCC(=O)[O-]
REMARK SMILES IDX 12 1 11 2 10 3 9 4 8 5 7 6 6 7 5 8 4 9 3 10 2 11 1 12 13 13
REMARK SMILES IDX 14 14 15 15 16 16 17 17 18 18 19 19 20 20 21 21 22 22 23 23
REMARK SMILES IDX 24 24
REMARK H PARENT
REMARK Flexibility Score: inf
ROOT
ATOM      1  C   UNL     1      24.922  25.226  21.772  1.00  0.00     0.000 C 
ENDROOT
BRANCH   1   2
ATOM      2  C   UNL     1      23.891  26.366  21.681  1.00  0.00     0.000 C 
BRANCH   2   3
ATOM      3  C   UNL     1      24.409  27.688  22.267  1.00  0.00     0.000 C 
BRANCH   3   4
ATOM      4  C   UNL     1      25.928  27.647  22.472  1.00  0.00    -0.000 C 
BRANCH   4   5
ATOM      5  C   UNL     1      26.283  26.907  23.771  1.00  0.00    -0.000 C 
BRANCH   5   6
ATOM      6  C   UNL     1      27.632  27.348  24.361  1.00  0.00    -0.000 C 
BRANCH   6   7
ATOM      7  C   UNL     1      28.125  28.680  23.769  1.00  0.00    -0.000 C 
BRANCH   7   8
ATOM      8  C   UNL     1      27.482  29.911  24.436  1.00  0.00    -0.000 C 
BRANCH   8   9
ATOM      9  C   UNL     1      28.035  30.274  25.828  1.00  0.00    -0.000 C 
BRANCH   9  10
ATOM     10  C   UNL     1      27.981  31.784  26.122  1.00  0.00    -0.000 C 
BRANCH  10  11
ATOM     11  C   UNL     1      26.666  32.427  25.655  1.00  0.00    -0.003 C 
ATOM     12  C   UNL     1      25.564  31.400  25.391  1.00  0.00     0.004 C 
ENDBRANCH  10  11
ENDBRANCH   9  10
ENDBRANCH   8   9
ENDBRANCH   7   8
ENDBRANCH   6   7
ENDBRANCH   5   6
ENDBRANCH   4   5
ENDBRANCH   3   4
ENDBRANCH   2   3
ENDBRANCH   1   2
BRANCH   1  13
ATOM     13  C   UNL     1      24.917  24.242  20.585  1.00  0.00     0.000 C 
BRANCH  13  14
ATOM     14  C   UNL     1      26.130  24.351  19.643  1.00  0.00     0.000 C 
BRANCH  14  15
ATOM     15  C   UNL     1      27.405  24.805  20.369  1.00  0.00     0.000 C 
BRANCH  15  16
ATOM     16  C   UNL     1      27.359  24.427  21.854  1.00  0.00     0.000 C 
BRANCH  16  17
ATOM     17  C   UNL     1      28.018  23.062  22.096  1.00  0.00     0.000 C 
BRANCH  17  18
ATOM     18  C   UNL     1      28.073  22.684  23.585  1.00  0.00     0.000 C 
BRANCH  18  19
ATOM     19  C   UNL     1      26.680  22.612  24.233  1.00  0.00     0.000 C 
BRANCH  19  20
ATOM     20  C   UNL     1      25.634  21.954  23.319  1.00  0.00     0.006 C 
BRANCH  20  21
ATOM     21  C   UNL     1      24.245  21.877  23.970  1.00  0.00     0.053 C 
BRANCH  21  22
ATOM     22  C   UNL     1      23.187  22.318  23.006  1.00  0.00     0.041 C 
ATOM     23  O   UNL     1      23.293  22.045  21.779  1.00  0.00    -0.550 OA
ATOM     24  O   UNL     1      22.066  22.999  23.465  1.00  0.00    -0.550 OA
ENDBRANCH  21  22
ENDBRANCH  20  21
ENDBRANCH  19  20
ENDBRANCH  18  19
ENDBRANCH  17  18
ENDBRANCH  16  17
ENDBRANCH  15  16
ENDBRANCH  14  15
ENDBRANCH  13  14
ENDBRANCH   1  13
TORSDOF 20
ENDMDL
MODEL 8
REMARK VINA RESULT:     0.323      1.806      3.905
REMARK INTER + INTRA:          -1.487
REMARK INTER:                  -0.172
REMARK INTRA:                  -1.315
REMARK UNBOUND:                -2.188
REMARK SMILES CCCCCCCCCCCCCCCCCCCCCC(=O)[O-]
REMARK SMILES IDX 12 1 11 2 10 3 9 4 8 5 7 6 6 7 5 8 4 9 3 10 2 11 1 12 13 13
REMARK SMILES IDX 14 14 15 15 16 16 17 17 18 18 19 19 20 20 21 21 22 22 23 23
REMARK SMILES IDX 24 24
REMARK H PARENT
REMARK Flexibility Score: inf
ROOT
ATOM      1  C   UNL     1      23.318  26.399  21.946  1.00  0.00     0.000 C 
ENDROOT
BRANCH   1   2
ATOM      2  C   UNL     1      23.661  27.900  21.988  1.00  0.00     0.000 C 
BRANCH   2   3
ATOM      3  C   UNL     1      24.826  28.219  22.935  1.00  0.00     0.000 C 
BRANCH   3   4
ATOM      4  C   UNL     1      26.042  27.334  22.639  1.00  0.00    -0.000 C 
BRANCH   4   5
ATOM      5  C   UNL     1      26.180  26.226  23.695  1.00  0.00    -0.000 C 
BRANCH   5   6
ATOM      6  C   UNL     1      27.606  26.108  24.257  1.00  0.00    -0.000 C 
BRANCH   6   7
ATOM      7  C   UNL     1      27.939  27.231  25.255  1.00  0.00    -0.000 C 
BRANCH   7   8
ATOM      8  C   UNL     1      28.125  28.603  24.578  1.00  0.00    -0.000 C 
BRANCH   8   9
ATOM      9  C   UNL     1      27.958  29.824  25.503  1.00  0.00    -0.000 C 
BRANCH   9  10
ATOM     10  C   UNL     1      27.819  31.149  24.731  1.00  0.00    -0.000 C 
BRANCH  10  11
ATOM     11  C   UNL     1      27.905  32.377  25.651  1.00  0.00    -0.003 C 
ATOM     12  C   UNL     1      26.624  32.609  26.453  1.00  0.00     0.004 C 
ENDBRANCH  10  11
ENDBRANCH   9  10
ENDBRANCH   8   9
ENDBRANCH   7   8
ENDBRANCH   6   7
ENDBRANCH   5   6
ENDBRANCH   4   5
ENDBRANCH   3   4
ENDBRANCH   2   3
ENDBRANCH   1   2
BRANCH   1  13
ATOM     13  C   UNL     1      24.157  25.562  20.960  1.00  0.00     0.000 C 
BRANCH  13  14
ATOM     14  C   UNL     1      23.656  24.123  20.738  1.00  0.00     0.000 C 
BRANCH  14  15
ATOM     15  C   UNL     1      23.383  23.380  22.053  1.00  0.00     0.000 C 
BRANCH  15  16
ATOM     16  C   UNL     1      24.447  22.308  22.313  1.00  0.00     0.000 C 
BRANCH  16  17
ATOM     17  C   UNL     1      25.586  22.861  23.182  1.00  0.00     0.000 C 
BRANCH  17  18
ATOM     18  C   UNL     1      26.766  21.884  23.309  1.00  0.00     0.000 C 
BRANCH  18  19
ATOM     19  C   UNL     1      28.110  22.521  22.916  1.00  0.00     0.000 C 
BRANCH  19  20
ATOM     20  C   UNL     1      27.958  23.620  21.853  1.00  0.00     0.006 C 
BRANCH  20  21
ATOM     21  C   UNL     1      28.091  23.080  20.421  1.00  0.00     0.053 C 
BRANCH  21  22
ATOM     22  C   UNL     1      27.500  24.043  19.439  1.00  0.00     0.041 C 
ATOM     23  O   UNL     1      28.038  25.168  19.251  1.00  0.00    -0.550 OA
ATOM     24  O   UNL     1      26.376  23.686  18.703  1.00  0.00    -0.550 OA
ENDBRANCH  21  22
ENDBRANCH  20  21
ENDBRANCH  19  20
ENDBRANCH  18  19
ENDBRANCH  17  18
ENDBRANCH  16  17
ENDBRANCH  15  16
ENDBRANCH  14  15
ENDBRANCH  13  14
ENDBRANCH   1  13
TORSDOF 20
ENDMDL
