MODEL 1
REMARK VINA RESULT:    -6.501      0.000      0.000
REMARK INTER + INTRA:          -9.470
REMARK INTER:                  -8.781
REMARK INTRA:                  -0.689
REMARK UNBOUND:                -0.689
REMARK SMILES COc1ccc(-c2cc(=O)c3c(OC)c(OC)c(OC)c(OC)c3o2)cc1
REMARK SMILES IDX 7 1 8 2 9 3 10 4 11 5 24 6 25 7 21 8 18 9 15 10 12 11 6 12
REMARK SMILES IDX 3 13 4 14 27 15 5 16 26 17 2 18 1 19 22 20 23 21 13 22 14 23
REMARK SMILES IDX 19 24 20 25 16 26 17 27
REMARK H PARENT
REMARK Flexibility Score: inf
ROOT
ATOM      1  C   UNL     1       3.168  11.888  19.931  1.00  0.00     0.138 A 
ATOM      2  C   UNL     1       2.716  11.425  18.692  1.00  0.00     0.100 A 
ATOM      3  C   UNL     1       2.968  12.180  17.552  1.00  0.00     0.197 A 
ATOM      4  O   UNL     1       2.549  11.744  16.444  1.00  0.00    -0.289 OA
ATOM      5  C   UNL     1       3.672  13.404  17.653  1.00  0.00     0.115 A 
ATOM      6  C   UNL     1       4.081  13.818  18.944  1.00  0.00     0.188 A 
ATOM      7  O   UNL     1       3.811  13.050  19.998  1.00  0.00    -0.452 OA
ATOM      8  C   UNL     1       4.787  15.029  19.116  1.00  0.00     0.209 A 
ATOM      9  C   UNL     1       5.076  15.840  17.989  1.00  0.00     0.211 A 
ATOM     10  C   UNL     1       4.663  15.429  16.693  1.00  0.00     0.208 A 
ATOM     11  C   UNL     1       3.982  14.197  16.524  1.00  0.00     0.179 A 
ENDROOT
BRANCH   1  12
ATOM     12  C   UNL     1       2.940  11.115  21.178  1.00  0.00     0.018 A 
ATOM     13  C   UNL     1       2.551   9.668  23.572  1.00  0.00     0.118 A 
ATOM     14  C   UNL     1       2.505   9.016  22.336  1.00  0.00     0.047 A 
ATOM     15  C   UNL     1       2.796  11.053  23.608  1.00  0.00     0.047 A 
ATOM     16  C   UNL     1       2.702   9.727  21.149  1.00  0.00     0.016 A 
ATOM     17  C   UNL     1       2.989  11.765  22.421  1.00  0.00     0.016 A 
BRANCH  13  18
ATOM     18  O   UNL     1       2.352   8.908  24.735  1.00  0.00    -0.497 OA
ATOM     19  C   UNL     1       2.978   9.175  25.987  1.00  0.00     0.278 C 
ENDBRANCH  13  18
ENDBRANCH   1  12
BRANCH   8  20
ATOM     20  O   UNL     1       5.235  15.458  20.380  1.00  0.00    -0.490 OA
ATOM     21  C   UNL     1       6.455  15.112  21.027  1.00  0.00     0.278 C 
ENDBRANCH   8  20
BRANCH  11  22
ATOM     22  O   UNL     1       3.590  13.712  15.256  1.00  0.00    -0.492 OA
ATOM     23  C   UNL     1       4.422  13.426  14.135  1.00  0.00     0.278 C 
ENDBRANCH  11  22
BRANCH   9  24
ATOM     24  O   UNL     1       5.770  17.063  18.101  1.00  0.00    -0.490 OA
ATOM     25  C   UNL     1       7.174  17.287  18.027  1.00  0.00     0.279 C 
ENDBRANCH   9  24
BRANCH  10  26
ATOM     26  O   UNL     1       4.893  16.213  15.544  1.00  0.00    -0.490 OA
ATOM     27  C   UNL     1       4.053  17.211  14.975  1.00  0.00     0.278 C 
ENDBRANCH  10  26
TORSDOF 6
ENDMDL
MODEL 2
REMARK VINA RESULT:    -6.323      2.077      8.646
REMARK INTER + INTRA:          -9.231
REMARK INTER:                  -8.541
REMARK INTRA:                  -0.690
REMARK UNBOUND:                -0.689
REMARK SMILES COc1ccc(-c2cc(=O)c3c(OC)c(OC)c(OC)c(OC)c3o2)cc1
REMARK SMILES IDX 7 1 8 2 9 3 10 4 11 5 24 6 25 7 21 8 18 9 15 10 12 11 6 12
REMARK SMILES IDX 3 13 4 14 27 15 5 16 26 17 2 18 1 19 22 20 23 21 13 22 14 23
REMARK SMILES IDX 19 24 20 25 16 26 17 27
REMARK H PARENT
REMARK Flexibility Score: inf
ROOT
ATOM      1  C   UNL     1       3.985  16.230  16.720  1.00  0.00     0.138 A 
ATOM      2  C   UNL     1       4.290  16.959  17.872  1.00  0.00     0.100 A 
ATOM      3  C   UNL     1       4.315  16.309  19.101  1.00  0.00     0.197 A 
ATOM      4  O   UNL     1       4.591  16.986  20.129  1.00  0.00    -0.289 OA
ATOM      5  C   UNL     1       4.031  14.924  19.175  1.00  0.00     0.115 A 
ATOM      6  C   UNL     1       3.710  14.257  17.969  1.00  0.00     0.188 A 
ATOM      7  O   UNL     1       3.704  14.934  16.823  1.00  0.00    -0.452 OA
ATOM      8  C   UNL     1       3.415  12.875  17.972  1.00  0.00     0.209 A 
ATOM      9  C   UNL     1       3.428  12.157  19.195  1.00  0.00     0.211 A 
ATOM     10  C   UNL     1       3.745  12.825  20.409  1.00  0.00     0.208 A 
ATOM     11  C   UNL     1       4.071  14.204  20.393  1.00  0.00     0.179 A 
ENDROOT
BRANCH   1  12
ATOM     12  C   UNL     1       3.960  16.871  15.381  1.00  0.00     0.018 A 
ATOM     13  C   UNL     1       3.873  18.126  12.852  1.00  0.00     0.118 A 
ATOM     14  C   UNL     1       3.830  16.732  12.953  1.00  0.00     0.047 A 
ATOM     15  C   UNL     1       3.959  18.896  14.027  1.00  0.00     0.047 A 
ATOM     16  C   UNL     1       3.867  16.107  14.202  1.00  0.00     0.016 A 
ATOM     17  C   UNL     1       4.000  18.271  15.277  1.00  0.00     0.016 A 
BRANCH  13  18
ATOM     18  O   UNL     1       3.828  18.705  11.575  1.00  0.00    -0.497 OA
ATOM     19  C   UNL     1       4.601  18.262  10.464  1.00  0.00     0.278 C 
ENDBRANCH  13  18
ENDBRANCH   1  12
BRANCH   8  20
ATOM     20  O   UNL     1       3.122  12.172  16.788  1.00  0.00    -0.490 OA
ATOM     21  C   UNL     1       1.875  12.112  16.104  1.00  0.00     0.278 C 
ENDBRANCH   8  20
BRANCH  11  22
ATOM     22  O   UNL     1       4.441  14.912  21.559  1.00  0.00    -0.492 OA
ATOM     23  C   UNL     1       5.674  14.839  22.269  1.00  0.00     0.278 C 
ENDBRANCH  11  22
BRANCH   9  24
ATOM     24  O   UNL     1       3.134  10.779  19.261  1.00  0.00    -0.490 OA
ATOM     25  C   UNL     1       1.878  10.159  19.520  1.00  0.00     0.279 C 
ENDBRANCH   9  24
BRANCH  10  26
ATOM     26  O   UNL     1       3.739  12.168  21.656  1.00  0.00    -0.490 OA
ATOM     27  C   UNL     1       2.676  12.076  22.598  1.00  0.00     0.278 C 
ENDBRANCH  10  26
TORSDOF 6
ENDMDL
MODEL 3
REMARK VINA RESULT:    -6.193      2.005      7.955
REMARK INTER + INTRA:          -9.054
REMARK INTER:                  -8.442
REMARK INTRA:                  -0.612
REMARK UNBOUND:                -0.689
REMARK SMILES COc1ccc(-c2cc(=O)c3c(OC)c(OC)c(OC)c(OC)c3o2)cc1
REMARK SMILES IDX 7 1 8 2 9 3 10 4 11 5 24 6 25 7 21 8 18 9 15 10 12 11 6 12
REMARK SMILES IDX 3 13 4 14 27 15 5 16 26 17 2 18 1 19 22 20 23 21 13 22 14 23
REMARK SMILES IDX 19 24 20 25 16 26 17 27
REMARK H PARENT
REMARK Flexibility Score: inf
ROOT
ATOM      1  C   UNL     1       3.670  15.249  16.019  1.00  0.00     0.138 A 
ATOM      2  C   UNL     1       3.162  13.966  15.802  1.00  0.00     0.100 A 
ATOM      3  C   UNL     1       3.046  13.089  16.875  1.00  0.00     0.197 A 
ATOM      4  O   UNL     1       2.587  11.935  16.656  1.00  0.00    -0.289 OA
ATOM      5  C   UNL     1       3.442  13.500  18.171  1.00  0.00     0.115 A 
ATOM      6  C   UNL     1       3.966  14.807  18.311  1.00  0.00     0.188 A 
ATOM      7  O   UNL     1       4.051  15.600  17.244  1.00  0.00    -0.452 OA
ATOM      8  C   UNL     1       4.382  15.280  19.575  1.00  0.00     0.209 A 
ATOM      9  C   UNL     1       4.284  14.433  20.709  1.00  0.00     0.211 A 
ATOM     10  C   UNL     1       3.763  13.118  20.570  1.00  0.00     0.208 A 
ATOM     11  C   UNL     1       3.319  12.662  19.304  1.00  0.00     0.179 A 
ENDROOT
BRANCH   1  12
ATOM     12  C   UNL     1       3.801  16.229  14.912  1.00  0.00     0.018 A 
ATOM     13  C   UNL     1       4.013  18.128  12.832  1.00  0.00     0.118 A 
ATOM     14  C   UNL     1       3.835  16.772  12.538  1.00  0.00     0.047 A 
ATOM     15  C   UNL     1       4.084  18.533  14.177  1.00  0.00     0.047 A 
ATOM     16  C   UNL     1       3.724  15.830  13.564  1.00  0.00     0.016 A 
ATOM     17  C   UNL     1       3.976  17.591  15.204  1.00  0.00     0.016 A 
BRANCH  13  18
ATOM     18  O   UNL     1       4.114  19.034  11.765  1.00  0.00    -0.497 OA
ATOM     19  C   UNL     1       4.614  18.703  10.474  1.00  0.00     0.278 C 
ENDBRANCH  13  18
ENDBRANCH   1  12
BRANCH   8  20
ATOM     20  O   UNL     1       4.879  16.585  19.758  1.00  0.00    -0.490 OA
ATOM     21  C   UNL     1       6.218  17.032  19.576  1.00  0.00     0.278 C 
ENDBRANCH   8  20
BRANCH  11  22
ATOM     22  O   UNL     1       2.747  11.384  19.113  1.00  0.00    -0.492 OA
ATOM     23  C   UNL     1       3.381  10.115  19.244  1.00  0.00     0.278 C 
ENDBRANCH  11  22
BRANCH   9  24
ATOM     24  O   UNL     1       4.690  14.847  21.994  1.00  0.00    -0.490 OA
ATOM     25  C   UNL     1       6.007  14.868  22.536  1.00  0.00     0.279 C 
ENDBRANCH   9  24
BRANCH  10  26
ATOM     26  O   UNL     1       3.676  12.223  21.656  1.00  0.00    -0.490 OA
ATOM     27  C   UNL     1       2.568  11.989  22.519  1.00  0.00     0.278 C 
ENDBRANCH  10  26
TORSDOF 6
ENDMDL
MODEL 4
REMARK VINA RESULT:    -5.772      1.374      1.603
REMARK INTER + INTRA:          -8.486
REMARK INTER:                  -8.382
REMARK INTRA:                  -0.104
REMARK UNBOUND:                -0.689
REMARK SMILES COc1ccc(-c2cc(=O)c3c(OC)c(OC)c(OC)c(OC)c3o2)cc1
REMARK SMILES IDX 7 1 8 2 9 3 10 4 11 5 24 6 25 7 21 8 18 9 15 10 12 11 6 12
REMARK SMILES IDX 3 13 4 14 27 15 5 16 26 17 2 18 1 19 22 20 23 21 13 22 14 23
REMARK SMILES IDX 19 24 20 25 16 26 17 27
REMARK H PARENT
REMARK Flexibility Score: inf
ROOT
ATOM      1  C   UNL     1       3.547  11.941  19.820  1.00  0.00     0.138 A 
ATOM      2  C   UNL     1       4.023  11.315  18.665  1.00  0.00     0.100 A 
ATOM      3  C   UNL     1       4.371  12.091  17.565  1.00  0.00     0.197 A 
ATOM      4  O   UNL     1       4.796  11.506  16.532  1.00  0.00    -0.289 OA
ATOM      5  C   UNL     1       4.240  13.500  17.623  1.00  0.00     0.115 A 
ATOM      6  C   UNL     1       3.732  14.061  18.819  1.00  0.00     0.188 A 
ATOM      7  O   UNL     1       3.418  13.265  19.839  1.00  0.00    -0.452 OA
ATOM      8  C   UNL     1       3.575  15.460  18.943  1.00  0.00     0.209 A 
ATOM      9  C   UNL     1       3.917  16.304  17.855  1.00  0.00     0.211 A 
ATOM     10  C   UNL     1       4.422  15.743  16.651  1.00  0.00     0.208 A 
ATOM     11  C   UNL     1       4.607  14.341  16.546  1.00  0.00     0.179 A 
ENDROOT
BRANCH   1  12
ATOM     12  C   UNL     1       3.176  11.162  21.028  1.00  0.00     0.018 A 
ATOM     13  C   UNL     1       2.511   9.704  23.354  1.00  0.00     0.118 A 
ATOM     14  C   UNL     1       2.630   9.054  22.121  1.00  0.00     0.047 A 
ATOM     15  C   UNL     1       2.728  11.092  23.420  1.00  0.00     0.047 A 
ATOM     16  C   UNL     1       2.965   9.770  20.969  1.00  0.00     0.016 A 
ATOM     17  C   UNL     1       3.059  11.810  22.268  1.00  0.00     0.016 A 
BRANCH  13  18
ATOM     18  O   UNL     1       2.178   8.938  24.482  1.00  0.00    -0.497 OA
ATOM     19  C   UNL     1       2.549   9.270  25.816  1.00  0.00     0.278 C 
ENDBRANCH  13  18
ENDBRANCH   1  12
BRANCH   8  20
ATOM     20  O   UNL     1       3.102  16.056  20.128  1.00  0.00    -0.490 OA
ATOM     21  C   UNL     1       1.877  15.787  20.801  1.00  0.00     0.278 C 
ENDBRANCH   8  20
BRANCH  11  22
ATOM     22  O   UNL     1       5.151  13.730  15.394  1.00  0.00    -0.492 OA
ATOM     23  C   UNL     1       4.531  13.555  14.123  1.00  0.00     0.278 C 
ENDBRANCH  11  22
BRANCH   9  24
ATOM     24  O   UNL     1       3.774  17.705  17.918  1.00  0.00    -0.490 OA
ATOM     25  C   UNL     1       2.788  18.518  17.288  1.00  0.00     0.279 C 
ENDBRANCH   9  24
BRANCH  10  26
ATOM     26  O   UNL     1       4.745  16.532  15.529  1.00  0.00    -0.490 OA
ATOM     27  C   UNL     1       3.902  16.909  14.445  1.00  0.00     0.278 C 
ENDBRANCH  10  26
TORSDOF 6
ENDMDL
MODEL 5
REMARK VINA RESULT:    -5.611      1.626      3.274
REMARK INTER + INTRA:          -8.268
REMARK INTER:                  -7.625
REMARK INTRA:                  -0.643
REMARK UNBOUND:                -0.689
REMARK SMILES COc1ccc(-c2cc(=O)c3c(OC)c(OC)c(OC)c(OC)c3o2)cc1
REMARK SMILES IDX 7 1 8 2 9 3 10 4 11 5 24 6 25 7 21 8 18 9 15 10 12 11 6 12
REMARK SMILES IDX 3 13 4 14 27 15 5 16 26 17 2 18 1 19 22 20 23 21 13 22 14 23
REMARK SMILES IDX 19 24 20 25 16 26 17 27
REMARK H PARENT
REMARK Flexibility Score: inf
ROOT
ATOM      1  C   UNL     1       3.084  12.962  20.624  1.00  0.00     0.138 A 
ATOM      2  C   UNL     1       2.676  14.271  20.890  1.00  0.00     0.100 A 
ATOM      3  C   UNL     1       2.829  15.244  19.909  1.00  0.00     0.197 A 
ATOM      4  O   UNL     1       2.455  16.420  20.171  1.00  0.00    -0.289 OA
ATOM      5  C   UNL     1       3.395  14.904  18.657  1.00  0.00     0.115 A 
ATOM      6  C   UNL     1       3.804  13.562  18.467  1.00  0.00     0.188 A 
ATOM      7  O   UNL     1       3.629  12.676  19.445  1.00  0.00    -0.452 OA
ATOM      8  C   UNL     1       4.378  13.156  17.241  1.00  0.00     0.209 A 
ATOM      9  C   UNL     1       4.556  14.103  16.201  1.00  0.00     0.211 A 
ATOM     10  C   UNL     1       4.151  15.452  16.390  1.00  0.00     0.208 A 
ATOM     11  C   UNL     1       3.547  15.845  17.611  1.00  0.00     0.179 A 
ENDROOT
BRANCH   1  12
ATOM     12  C   UNL     1       2.929  11.881  21.630  1.00  0.00     0.018 A 
ATOM     13  C   UNL     1       2.590   9.807  23.517  1.00  0.00     0.118 A 
ATOM     14  C   UNL     1       2.840  11.116  23.941  1.00  0.00     0.047 A 
ATOM     15  C   UNL     1       2.508   9.537  22.138  1.00  0.00     0.047 A 
ATOM     16  C   UNL     1       3.002  12.147  23.011  1.00  0.00     0.016 A 
ATOM     17  C   UNL     1       2.675  10.566  21.208  1.00  0.00     0.016 A 
BRANCH  13  18
ATOM     18  O   UNL     1       2.428   8.810  24.491  1.00  0.00    -0.497 OA
ATOM     19  C   UNL     1       2.918   8.902  25.825  1.00  0.00     0.278 C 
ENDBRANCH  13  18
ENDBRANCH   1  12
BRANCH   8  20
ATOM     20  O   UNL     1       4.768  11.823  17.005  1.00  0.00    -0.490 OA
ATOM     21  C   UNL     1       6.067  11.264  17.159  1.00  0.00     0.278 C 
ENDBRANCH   8  20
BRANCH  11  22
ATOM     22  O   UNL     1       3.080  17.159  17.840  1.00  0.00    -0.492 OA
ATOM     23  C   UNL     1       3.851  18.350  17.963  1.00  0.00     0.278 C 
ENDBRANCH  11  22
BRANCH   9  24
ATOM     24  O   UNL     1       5.130  13.758  14.960  1.00  0.00    -0.490 OA
ATOM     25  C   UNL     1       4.479  13.248  13.801  1.00  0.00     0.279 C 
ENDBRANCH   9  24
BRANCH  10  26
ATOM     26  O   UNL     1       4.337  16.441  15.404  1.00  0.00    -0.490 OA
ATOM     27  C   UNL     1       3.454  16.811  14.350  1.00  0.00     0.278 C 
ENDBRANCH  10  26
TORSDOF 6
ENDMDL
MODEL 6
REMARK VINA RESULT:    -5.576      1.014      3.563
REMARK INTER + INTRA:          -8.220
REMARK INTER:                  -7.837
REMARK INTRA:                  -0.384
REMARK UNBOUND:                -0.689
REMARK SMILES COc1ccc(-c2cc(=O)c3c(OC)c(OC)c(OC)c(OC)c3o2)cc1
REMARK SMILES IDX 7 1 8 2 9 3 10 4 11 5 24 6 25 7 21 8 18 9 15 10 12 11 6 12
REMARK SMILES IDX 3 13 4 14 27 15 5 16 26 17 2 18 1 19 22 20 23 21 13 22 14 23
REMARK SMILES IDX 19 24 20 25 16 26 17 27
REMARK H PARENT
REMARK Flexibility Score: inf
ROOT
ATOM      1  C   UNL     1       3.819  12.997  20.461  1.00  0.00     0.138 A 
ATOM      2  C   UNL     1       4.651  14.045  20.865  1.00  0.00     0.100 A 
ATOM      3  C   UNL     1       5.023  15.013  19.940  1.00  0.00     0.197 A 
ATOM      4  O   UNL     1       5.776  15.949  20.325  1.00  0.00    -0.289 OA
ATOM      5  C   UNL     1       4.563  14.930  18.603  1.00  0.00     0.115 A 
ATOM      6  C   UNL     1       3.741  13.830  18.263  1.00  0.00     0.188 A 
ATOM      7  O   UNL     1       3.418  12.935  19.195  1.00  0.00    -0.452 OA
ATOM      8  C   UNL     1       3.248  13.685  16.946  1.00  0.00     0.209 A 
ATOM      9  C   UNL     1       3.591  14.644  15.959  1.00  0.00     0.211 A 
ATOM     10  C   UNL     1       4.420  15.747  16.297  1.00  0.00     0.208 A 
ATOM     11  C   UNL     1       4.885  15.902  17.627  1.00  0.00     0.179 A 
ENDROOT
BRANCH   1  12
ATOM     12  C   UNL     1       3.379  11.946  21.412  1.00  0.00     0.018 A 
ATOM     13  C   UNL     1       2.497   9.935  23.188  1.00  0.00     0.118 A 
ATOM     14  C   UNL     1       2.911  11.178  23.676  1.00  0.00     0.047 A 
ATOM     15  C   UNL     1       2.523   9.699  21.801  1.00  0.00     0.047 A 
ATOM     16  C   UNL     1       3.343  12.178  22.800  1.00  0.00     0.016 A 
ATOM     17  C   UNL     1       2.959  10.697  20.926  1.00  0.00     0.016 A 
BRANCH  13  18
ATOM     18  O   UNL     1       2.067   8.967  24.109  1.00  0.00    -0.497 OA
ATOM     19  C   UNL     1       2.486   8.908  25.469  1.00  0.00     0.278 C 
ENDBRANCH  13  18
ENDBRANCH   1  12
BRANCH   8  20
ATOM     20  O   UNL     1       2.403  12.620  16.578  1.00  0.00    -0.490 OA
ATOM     21  C   UNL     1       2.627  11.230  16.780  1.00  0.00     0.278 C 
ENDBRANCH   8  20
BRANCH  11  22
ATOM     22  O   UNL     1       5.671  17.003  18.035  1.00  0.00    -0.492 OA
ATOM     23  C   UNL     1       7.012  17.304  17.661  1.00  0.00     0.278 C 
ENDBRANCH  11  22
BRANCH   9  24
ATOM     24  O   UNL     1       3.136  14.548  14.628  1.00  0.00    -0.490 OA
ATOM     25  C   UNL     1       1.876  14.948  14.098  1.00  0.00     0.279 C 
ENDBRANCH   9  24
BRANCH  10  26
ATOM     26  O   UNL     1       4.820  16.709  15.348  1.00  0.00    -0.490 OA
ATOM     27  C   UNL     1       4.157  17.915  14.983  1.00  0.00     0.278 C 
ENDBRANCH  10  26
TORSDOF 6
ENDMDL
MODEL 7
REMARK VINA RESULT:    -5.532      2.016      4.130
REMARK INTER + INTRA:          -8.161
REMARK INTER:                  -7.575
REMARK INTRA:                  -0.586
REMARK UNBOUND:                -0.689
REMARK SMILES COc1ccc(-c2cc(=O)c3c(OC)c(OC)c(OC)c(OC)c3o2)cc1
REMARK SMILES IDX 7 1 8 2 9 3 10 4 11 5 24 6 25 7 21 8 18 9 15 10 12 11 6 12
REMARK SMILES IDX 3 13 4 14 27 15 5 16 26 17 2 18 1 19 22 20 23 21 13 22 14 23
REMARK SMILES IDX 19 24 20 25 16 26 17 27
REMARK H PARENT
REMARK Flexibility Score: inf
ROOT
ATOM      1  C   UNL     1       3.954  12.241  19.067  1.00  0.00     0.138 A 
ATOM      2  C   UNL     1       4.505  13.041  20.071  1.00  0.00     0.100 A 
ATOM      3  C   UNL     1       4.960  14.315  19.752  1.00  0.00     0.197 A 
ATOM      4  O   UNL     1       5.455  15.020  20.674  1.00  0.00    -0.289 OA
ATOM      5  C   UNL     1       4.864  14.789  18.422  1.00  0.00     0.115 A 
ATOM      6  C   UNL     1       4.313  13.915  17.455  1.00  0.00     0.188 A 
ATOM      7  O   UNL     1       3.894  12.706  17.822  1.00  0.00    -0.452 OA
ATOM      8  C   UNL     1       4.190  14.324  16.108  1.00  0.00     0.209 A 
ATOM      9  C   UNL     1       4.633  15.615  15.723  1.00  0.00     0.211 A 
ATOM     10  C   UNL     1       5.191  16.493  16.691  1.00  0.00     0.208 A 
ATOM     11  C   UNL     1       5.283  16.088  18.046  1.00  0.00     0.179 A 
ENDROOT
BRANCH   1  12
ATOM     12  C   UNL     1       3.439  10.878  19.355  1.00  0.00     0.018 A 
ATOM     13  C   UNL     1       2.487   8.287  19.952  1.00  0.00     0.118 A 
ATOM     14  C   UNL     1       3.006   8.577  18.686  1.00  0.00     0.047 A 
ATOM     15  C   UNL     1       2.446   9.303  20.924  1.00  0.00     0.047 A 
ATOM     16  C   UNL     1       3.484   9.856  18.388  1.00  0.00     0.016 A 
ATOM     17  C   UNL     1       2.920  10.583  20.626  1.00  0.00     0.016 A 
BRANCH  13  18
ATOM     18  O   UNL     1       2.026   6.985  20.202  1.00  0.00    -0.497 OA
ATOM     19  C   UNL     1       2.335   5.854  19.394  1.00  0.00     0.278 C 
ENDBRANCH  13  18
ENDBRANCH   1  12
BRANCH   8  20
ATOM     20  O   UNL     1       3.619  13.494  15.124  1.00  0.00    -0.490 OA
ATOM     21  C   UNL     1       2.239  13.360  14.801  1.00  0.00     0.278 C 
ENDBRANCH   8  20
BRANCH  11  22
ATOM     22  O   UNL     1       5.782  16.933  19.062  1.00  0.00    -0.492 OA
ATOM     23  C   UNL     1       7.143  17.226  19.363  1.00  0.00     0.278 C 
ENDBRANCH  11  22
BRANCH   9  24
ATOM     24  O   UNL     1       4.543  16.076  14.393  1.00  0.00    -0.490 OA
ATOM     25  C   UNL     1       3.450  16.737  13.763  1.00  0.00     0.279 C 
ENDBRANCH   9  24
BRANCH  10  26
ATOM     26  O   UNL     1       5.679  17.773  16.357  1.00  0.00    -0.490 OA
ATOM     27  C   UNL     1       4.964  19.002  16.303  1.00  0.00     0.278 C 
ENDBRANCH  10  26
TORSDOF 6
ENDMDL
MODEL 8
REMARK VINA RESULT:    -5.429      2.710      7.686
REMARK INTER + INTRA:          -8.022
REMARK INTER:                  -7.487
REMARK INTRA:                  -0.535
REMARK UNBOUND:                -0.689
REMARK SMILES COc1ccc(-c2cc(=O)c3c(OC)c(OC)c(OC)c(OC)c3o2)cc1
REMARK SMILES IDX 7 1 8 2 9 3 10 4 11 5 24 6 25 7 21 8 18 9 15 10 12 11 6 12
REMARK SMILES IDX 3 13 4 14 27 15 5 16 26 17 2 18 1 19 22 20 23 21 13 22 14 23
REMARK SMILES IDX 19 24 20 25 16 26 17 27
REMARK H PARENT
REMARK Flexibility Score: inf
ROOT
ATOM      1  C   UNL     1       3.876  16.022  17.253  1.00  0.00     0.138 A 
ATOM      2  C   UNL     1       4.656  15.289  16.355  1.00  0.00     0.100 A 
ATOM      3  C   UNL     1       4.799  13.919  16.539  1.00  0.00     0.197 A 
ATOM      4  O   UNL     1       5.509  13.277  15.717  1.00  0.00    -0.289 OA
ATOM      5  C   UNL     1       4.161  13.280  17.630  1.00  0.00     0.115 A 
ATOM      6  C   UNL     1       3.404  14.090  18.509  1.00  0.00     0.188 A 
ATOM      7  O   UNL     1       3.303  15.398  18.279  1.00  0.00    -0.452 OA
ATOM      8  C   UNL     1       2.742  13.517  19.619  1.00  0.00     0.209 A 
ATOM      9  C   UNL     1       2.848  12.123  19.856  1.00  0.00     0.211 A 
ATOM     10  C   UNL     1       3.611  11.308  18.977  1.00  0.00     0.208 A 
ATOM     11  C   UNL     1       4.246  11.885  17.849  1.00  0.00     0.179 A 
ENDROOT
BRANCH   1  12
ATOM     12  C   UNL     1       3.677  17.484  17.094  1.00  0.00     0.018 A 
ATOM     13  C   UNL     1       3.353  20.275  16.804  1.00  0.00     0.118 A 
ATOM     14  C   UNL     1       2.431  19.528  17.544  1.00  0.00     0.047 A 
ATOM     15  C   UNL     1       4.445  19.618  16.207  1.00  0.00     0.047 A 
ATOM     16  C   UNL     1       2.590  18.148  17.695  1.00  0.00     0.016 A 
ATOM     17  C   UNL     1       4.603  18.238  16.355  1.00  0.00     0.016 A 
BRANCH  13  18
ATOM     18  O   UNL     1       3.150  21.659  16.687  1.00  0.00    -0.497 OA
ATOM     19  C   UNL     1       4.006  22.647  17.252  1.00  0.00     0.278 C 
ENDBRANCH  13  18
ENDBRANCH   1  12
BRANCH   8  20
ATOM     20  O   UNL     1       1.955  14.287  20.497  1.00  0.00    -0.490 OA
ATOM     21  C   UNL     1       2.359  14.873  21.730  1.00  0.00     0.278 C 
ENDBRANCH   8  20
BRANCH  11  22
ATOM     22  O   UNL     1       4.977  11.119  16.913  1.00  0.00    -0.492 OA
ATOM     23  C   UNL     1       6.310  10.633  17.035  1.00  0.00     0.278 C 
ENDBRANCH  11  22
BRANCH   9  24
ATOM     24  O   UNL     1       2.216  11.497  20.951  1.00  0.00    -0.490 OA
ATOM     25  C   UNL     1       2.754  11.229  22.242  1.00  0.00     0.279 C 
ENDBRANCH   9  24
BRANCH  10  26
ATOM     26  O   UNL     1       3.778   9.924  19.186  1.00  0.00    -0.490 OA
ATOM     27  C   UNL     1       2.937   8.860  18.755  1.00  0.00     0.278 C 
ENDBRANCH  10  26
TORSDOF 6
ENDMDL
MODEL 9
REMARK VINA RESULT:    -5.295      3.291      5.616
REMARK INTER + INTRA:          -7.842
REMARK INTER:                  -7.256
REMARK INTRA:                  -0.585
REMARK UNBOUND:                -0.689
REMARK SMILES COc1ccc(-c2cc(=O)c3c(OC)c(OC)c(OC)c(OC)c3o2)cc1
REMARK SMILES IDX 7 1 8 2 9 3 10 4 11 5 24 6 25 7 21 8 18 9 15 10 12 11 6 12
REMARK SMILES IDX 3 13 4 14 27 15 5 16 26 17 2 18 1 19 22 20 23 21 13 22 14 23
REMARK SMILES IDX 19 24 20 25 16 26 17 27
REMARK H PARENT
REMARK Flexibility Score: inf
ROOT
ATOM      1  C   UNL     1       3.050   9.738  18.927  1.00  0.00     0.138 A 
ATOM      2  C   UNL     1       2.437  10.003  20.154  1.00  0.00     0.100 A 
ATOM      3  C   UNL     1       2.761  11.169  20.838  1.00  0.00     0.197 A 
ATOM      4  O   UNL     1       2.197  11.388  21.945  1.00  0.00    -0.289 OA
ATOM      5  C   UNL     1       3.704  12.072  20.291  1.00  0.00     0.115 A 
ATOM      6  C   UNL     1       4.299  11.727  19.054  1.00  0.00     0.188 A 
ATOM      7  O   UNL     1       3.946  10.596  18.447  1.00  0.00    -0.452 OA
ATOM      8  C   UNL     1       5.249  12.583  18.453  1.00  0.00     0.209 A 
ATOM      9  C   UNL     1       5.617  13.789  19.102  1.00  0.00     0.211 A 
ATOM     10  C   UNL     1       5.025  14.136  20.347  1.00  0.00     0.208 A 
ATOM     11  C   UNL     1       4.050  13.288  20.928  1.00  0.00     0.179 A 
ENDROOT
BRANCH   1  12
ATOM     12  C   UNL     1       2.729   8.516  18.148  1.00  0.00     0.018 A 
ATOM     13  C   UNL     1       2.159   6.163  16.692  1.00  0.00     0.118 A 
ATOM     14  C   UNL     1       2.288   7.390  16.033  1.00  0.00     0.047 A 
ATOM     15  C   UNL     1       2.318   6.116  18.090  1.00  0.00     0.047 A 
ATOM     16  C   UNL     1       2.576   8.555  16.748  1.00  0.00     0.016 A 
ATOM     17  C   UNL     1       2.602   7.282  18.806  1.00  0.00     0.016 A 
BRANCH  13  18
ATOM     18  O   UNL     1       1.875   5.021  15.928  1.00  0.00    -0.497 OA
ATOM     19  C   UNL     1       2.859   4.233  15.264  1.00  0.00     0.278 C 
ENDBRANCH  13  18
ENDBRANCH   1  12
BRANCH   8  20
ATOM     20  O   UNL     1       5.838  12.287  17.209  1.00  0.00    -0.490 OA
ATOM     21  C   UNL     1       5.384  12.689  15.921  1.00  0.00     0.278 C 
ENDBRANCH   8  20
BRANCH  11  22
ATOM     22  O   UNL     1       3.391  13.603  22.138  1.00  0.00    -0.492 OA
ATOM     23  C   UNL     1       2.473  14.664  22.381  1.00  0.00     0.278 C 
ENDBRANCH  11  22
BRANCH   9  24
ATOM     24  O   UNL     1       6.565  14.678  18.554  1.00  0.00    -0.490 OA
ATOM     25  C   UNL     1       6.333  15.941  17.938  1.00  0.00     0.279 C 
ENDBRANCH   9  24
BRANCH  10  26
ATOM     26  O   UNL     1       5.380  15.304  21.051  1.00  0.00    -0.490 OA
ATOM     27  C   UNL     1       6.561  15.555  21.804  1.00  0.00     0.278 C 
ENDBRANCH  10  26
TORSDOF 6
ENDMDL
