MODEL 1
REMARK VINA RESULT:    -3.186      0.000      0.000
REMARK INTER + INTRA:          -3.560
REMARK INTER:                  -3.558
REMARK INTRA:                  -0.001
REMARK UNBOUND:                -0.001
REMARK SMILES CC=C(C)C=CC=C(C)C
REMARK SMILES IDX 5 1 6 2 3 3 1 4 2 5 4 6 7 7 8 8 9 9 10 10
REMARK H PARENT
REMARK Flexibility Score: inf
ROOT
ATOM      1  C   UNL     1     134.875 138.847 162.138  1.00  0.00     0.003 C 
ATOM      2  C   UNL     1     135.392 137.829 161.437  1.00  0.00     0.000 C 
ENDROOT
BRANCH   1   3
ATOM      3  C   UNL     1     135.550 139.524 163.270  1.00  0.00    -0.055 C 
ATOM      4  C   UNL     1     136.671 139.339 165.501  1.00  0.00     0.036 C 
ATOM      5  C   UNL     1     136.006 138.769 164.285  1.00  0.00    -0.027 C 
ATOM      6  C   UNL     1     135.611 141.030 163.323  1.00  0.00     0.044 C 
ENDBRANCH   1   3
BRANCH   2   7
ATOM      7  C   UNL     1     136.659 137.144 161.787  1.00  0.00    -0.001 C 
ATOM      8  C   UNL     1     136.795 135.807 161.836  1.00  0.00    -0.076 C 
ATOM      9  C   UNL     1     138.133 135.233 162.217  1.00  0.00     0.039 C 
ATOM     10  C   UNL     1     135.656 134.875 161.504  1.00  0.00     0.039 C 
ENDBRANCH   2   7
TORSDOF 2
ENDMDL
MODEL 2
REMARK VINA RESULT:    -2.851      0.701      4.563
REMARK INTER + INTRA:          -3.186
REMARK INTER:                  -3.077
REMARK INTRA:                  -0.108
REMARK UNBOUND:                -0.001
REMARK SMILES CC=C(C)C=CC=C(C)C
REMARK SMILES IDX 5 1 6 2 3 3 1 4 2 5 4 6 7 7 8 8 9 9 10 10
REMARK H PARENT
REMARK Flexibility Score: inf
ROOT
ATOM      1  C   UNL     1     135.565 137.412 161.190  1.00  0.00     0.003 C 
ATOM      2  C   UNL     1     135.417 138.500 161.959  1.00  0.00     0.000 C 
ENDROOT
BRANCH   1   3
ATOM      3  C   UNL     1     136.175 136.138 161.635  1.00  0.00    -0.055 C 
ATOM      4  C   UNL     1     138.229 134.885 162.326  1.00  0.00     0.036 C 
ATOM      5  C   UNL     1     137.491 136.120 161.906  1.00  0.00    -0.027 C 
ATOM      6  C   UNL     1     135.350 134.875 161.664  1.00  0.00     0.044 C 
ENDBRANCH   1   3
BRANCH   2   7
ATOM      7  C   UNL     1     135.971 138.625 163.329  1.00  0.00    -0.001 C 
ATOM      8  C   UNL     1     135.907 139.752 164.059  1.00  0.00    -0.076 C 
ATOM      9  C   UNL     1     136.519 139.755 165.434  1.00  0.00     0.039 C 
ATOM     10  C   UNL     1     135.226 140.997 163.548  1.00  0.00     0.039 C 
ENDBRANCH   2   7
TORSDOF 2
ENDMDL
MODEL 3
REMARK VINA RESULT:    -2.067      0.823      4.446
REMARK INTER + INTRA:          -2.310
REMARK INTER:                  -1.999
REMARK INTRA:                  -0.310
REMARK UNBOUND:                -0.001
REMARK SMILES CC=C(C)C=CC=C(C)C
REMARK SMILES IDX 5 1 6 2 3 3 1 4 2 5 4 6 7 7 8 8 9 9 10 10
REMARK H PARENT
REMARK Flexibility Score: inf
ROOT
ATOM      1  C   UNL     1     135.299 138.228 161.210  1.00  0.00     0.003 C 
ATOM      2  C   UNL     1     134.875 138.977 162.236  1.00  0.00     0.000 C 
ENDROOT
BRANCH   1   3
ATOM      3  C   UNL     1     136.327 137.166 161.305  1.00  0.00    -0.055 C 
ATOM      4  C   UNL     1     136.961 134.878 162.101  1.00  0.00     0.036 C 
ATOM      5  C   UNL     1     135.999 136.011 161.909  1.00  0.00    -0.027 C 
ATOM      6  C   UNL     1     137.737 137.436 160.840  1.00  0.00     0.044 C 
ENDBRANCH   1   3
BRANCH   2   7
ATOM      7  C   UNL     1     135.480 138.943 163.590  1.00  0.00    -0.001 C 
ATOM      8  C   UNL     1     135.902 140.038 164.247  1.00  0.00    -0.076 C 
ATOM      9  C   UNL     1     136.511 139.868 165.613  1.00  0.00     0.039 C 
ATOM     10  C   UNL     1     135.764 141.422 163.663  1.00  0.00     0.039 C 
ENDBRANCH   2   7
TORSDOF 2
ENDMDL
