MODEL 1
REMARK VINA RESULT:    -6.594      0.000      0.000
REMARK INTER + INTRA:          -6.594
REMARK INTER:                  -6.594
REMARK INTRA:                   0.000
REMARK UNBOUND:                 0.000
REMARK SMILES C=C1CCC[C@@]2(C)CC(=O)C(=C(C)C)C[C@@H]12
REMARK SMILES IDX 13 1 12 2 11 3 15 4 16 5 2 6 1 7 3 8 4 9 5 10 6 11 8 12 9 13
REMARK SMILES IDX 10 14 7 15 14 16
REMARK H PARENT
REMARK Flexibility Score: inf
ROOT
ATOM      1  C   UNL     1      57.376  34.671  32.441  1.00  0.00     0.039 C 
ATOM      2  C   UNL     1      55.872  34.806  32.365  1.00  0.00    -0.070 C 
ATOM      3  C   UNL     1      55.064  33.733  32.119  1.00  0.00    -0.006 C 
ATOM      4  C   UNL     1      53.562  33.880  31.936  1.00  0.00     0.047 C 
ATOM      5  C   UNL     1      52.801  32.643  32.474  1.00  0.00     0.025 C 
ATOM      6  C   UNL     1      51.305  32.867  32.283  1.00  0.00    -0.073 C 
ATOM      7  C   UNL     1      50.594  33.510  33.224  1.00  0.00     0.008 C 
ATOM      8  C   UNL     1      50.612  32.458  31.002  1.00  0.00     0.031 C 
ATOM      9  C   UNL     1      51.528  31.645  30.087  1.00  0.00     0.005 C 
ATOM     10  C   UNL     1      52.289  30.601  30.904  1.00  0.00     0.008 C 
ATOM     11  C   UNL     1      53.312  31.252  31.888  1.00  0.00    -0.018 C 
ATOM     12  C   UNL     1      54.674  31.405  31.145  1.00  0.00     0.088 C 
ATOM     13  C   UNL     1      55.577  32.362  31.859  1.00  0.00     0.159 C 
ATOM     14  O   UNL     1      56.710  31.976  32.251  1.00  0.00    -0.295 OA
ATOM     15  C   UNL     1      53.521  30.263  33.062  1.00  0.00     0.012 C 
ATOM     16  C   UNL     1      55.295  36.193  32.535  1.00  0.00     0.039 C 
ENDROOT
TORSDOF 0
ENDMDL
MODEL 2
REMARK VINA RESULT:    -6.363      1.574      3.446
REMARK INTER + INTRA:          -6.363
REMARK INTER:                  -6.363
REMARK INTRA:                   0.000
REMARK UNBOUND:                 0.000
REMARK SMILES C=C1CCC[C@@]2(C)CC(=O)C(=C(C)C)C[C@@H]12
REMARK SMILES IDX 13 1 12 2 11 3 15 4 16 5 2 6 1 7 3 8 4 9 5 10 6 11 8 12 9 13
REMARK SMILES IDX 10 14 7 15 14 16
REMARK H PARENT
REMARK Flexibility Score: inf
ROOT
ATOM      1  C   UNL     1      57.472  32.886  32.277  1.00  0.00     0.039 C 
ATOM      2  C   UNL     1      56.097  32.328  31.991  1.00  0.00    -0.070 C 
ATOM      3  C   UNL     1      54.976  33.106  32.054  1.00  0.00    -0.006 C 
ATOM      4  C   UNL     1      53.582  32.529  31.872  1.00  0.00     0.047 C 
ATOM      5  C   UNL     1      52.633  33.543  31.187  1.00  0.00     0.025 C 
ATOM      6  C   UNL     1      51.264  32.893  31.013  1.00  0.00    -0.073 C 
ATOM      7  C   UNL     1      51.002  32.157  29.921  1.00  0.00     0.008 C 
ATOM      8  C   UNL     1      50.215  32.983  32.098  1.00  0.00     0.031 C 
ATOM      9  C   UNL     1      50.624  33.941  33.217  1.00  0.00     0.005 C 
ATOM     10  C   UNL     1      51.208  35.221  32.620  1.00  0.00     0.008 C 
ATOM     11  C   UNL     1      52.570  34.968  31.898  1.00  0.00    -0.018 C 
ATOM     12  C   UNL     1      53.715  35.142  32.941  1.00  0.00     0.088 C 
ATOM     13  C   UNL     1      54.994  34.540  32.449  1.00  0.00     0.159 C 
ATOM     14  O   UNL     1      56.023  35.260  32.343  1.00  0.00    -0.295 OA
ATOM     15  C   UNL     1      52.737  36.069  30.823  1.00  0.00     0.012 C 
ATOM     16  C   UNL     1      56.004  30.854  31.669  1.00  0.00     0.039 C 
ENDROOT
TORSDOF 0
ENDMDL
MODEL 3
REMARK VINA RESULT:    -6.184      2.107      4.694
REMARK INTER + INTRA:          -6.184
REMARK INTER:                  -6.184
REMARK INTRA:                   0.000
REMARK UNBOUND:                 0.000
REMARK SMILES C=C1CCC[C@@]2(C)CC(=O)C(=C(C)C)C[C@@H]12
REMARK SMILES IDX 13 1 12 2 11 3 15 4 16 5 2 6 1 7 3 8 4 9 5 10 6 11 8 12 9 13
REMARK SMILES IDX 10 14 7 15 14 16
REMARK H PARENT
REMARK Flexibility Score: inf
ROOT
ATOM      1  C   UNL     1      49.743  35.430  30.905  1.00  0.00     0.039 C 
ATOM      2  C   UNL     1      50.433  34.090  31.006  1.00  0.00    -0.070 C 
ATOM      3  C   UNL     1      51.749  33.981  31.354  1.00  0.00    -0.006 C 
ATOM      4  C   UNL     1      52.477  32.646  31.355  1.00  0.00     0.047 C 
ATOM      5  C   UNL     1      53.552  32.586  32.468  1.00  0.00     0.025 C 
ATOM      6  C   UNL     1      54.222  31.216  32.428  1.00  0.00    -0.073 C 
ATOM      7  C   UNL     1      53.692  30.187  33.109  1.00  0.00     0.008 C 
ATOM      8  C   UNL     1      55.431  30.965  31.555  1.00  0.00     0.031 C 
ATOM      9  C   UNL     1      55.972  32.254  30.937  1.00  0.00     0.005 C 
ATOM     10  C   UNL     1      56.015  33.361  31.991  1.00  0.00     0.008 C 
ATOM     11  C   UNL     1      54.587  33.797  32.447  1.00  0.00    -0.018 C 
ATOM     12  C   UNL     1      54.107  34.949  31.513  1.00  0.00     0.088 C 
ATOM     13  C   UNL     1      52.627  35.152  31.616  1.00  0.00     0.159 C 
ATOM     14  O   UNL     1      52.175  36.277  31.959  1.00  0.00    -0.295 OA
ATOM     15  C   UNL     1      54.712  34.371  33.880  1.00  0.00     0.012 C 
ATOM     16  C   UNL     1      49.615  32.865  30.665  1.00  0.00     0.039 C 
ENDROOT
TORSDOF 0
ENDMDL
MODEL 4
REMARK VINA RESULT:    -6.126      4.137      6.483
REMARK INTER + INTRA:          -6.126
REMARK INTER:                  -6.126
REMARK INTRA:                   0.000
REMARK UNBOUND:                 0.000
REMARK SMILES C=C1CCC[C@@]2(C)CC(=O)C(=C(C)C)C[C@@H]12
REMARK SMILES IDX 13 1 12 2 11 3 15 4 16 5 2 6 1 7 3 8 4 9 5 10 6 11 8 12 9 13
REMARK SMILES IDX 10 14 7 15 14 16
REMARK H PARENT
REMARK Flexibility Score: inf
ROOT
ATOM      1  C   UNL     1      52.696  34.256  30.878  1.00  0.00     0.039 C 
ATOM      2  C   UNL     1      51.375  33.532  30.749  1.00  0.00    -0.070 C 
ATOM      3  C   UNL     1      50.182  34.190  30.829  1.00  0.00    -0.006 C 
ATOM      4  C   UNL     1      48.852  33.454  30.806  1.00  0.00     0.047 C 
ATOM      5  C   UNL     1      47.751  34.292  30.108  1.00  0.00     0.025 C 
ATOM      6  C   UNL     1      46.456  33.487  30.098  1.00  0.00    -0.073 C 
ATOM      7  C   UNL     1      46.205  32.627  29.098  1.00  0.00     0.008 C 
ATOM      8  C   UNL     1      45.477  33.570  31.248  1.00  0.00     0.031 C 
ATOM      9  C   UNL     1      45.850  34.668  32.244  1.00  0.00     0.005 C 
ATOM     10  C   UNL     1      46.247  35.940  31.494  1.00  0.00     0.008 C 
ATOM     11  C   UNL     1      47.577  35.764  30.695  1.00  0.00    -0.018 C 
ATOM     12  C   UNL     1      48.763  36.156  31.628  1.00  0.00     0.088 C 
ATOM     13  C   UNL     1      50.065  35.648  31.094  1.00  0.00     0.159 C 
ATOM     14  O   UNL     1      50.997  36.459  30.847  1.00  0.00    -0.295 OA
ATOM     15  C   UNL     1      47.548  36.769  29.517  1.00  0.00     0.012 C 
ATOM     16  C   UNL     1      51.427  32.031  30.565  1.00  0.00     0.039 C 
ENDROOT
TORSDOF 0
ENDMDL
MODEL 5
REMARK VINA RESULT:    -6.056      2.408      5.088
REMARK INTER + INTRA:          -6.056
REMARK INTER:                  -6.056
REMARK INTRA:                   0.000
REMARK UNBOUND:                 0.000
REMARK SMILES C=C1CCC[C@@]2(C)CC(=O)C(=C(C)C)C[C@@H]12
REMARK SMILES IDX 13 1 12 2 11 3 15 4 16 5 2 6 1 7 3 8 4 9 5 10 6 11 8 12 9 13
REMARK SMILES IDX 10 14 7 15 14 16
REMARK H PARENT
REMARK Flexibility Score: inf
ROOT
ATOM      1  C   UNL     1      52.178  30.502  30.771  1.00  0.00     0.039 C 
ATOM      2  C   UNL     1      53.129  31.560  31.282  1.00  0.00    -0.070 C 
ATOM      3  C   UNL     1      52.758  32.869  31.394  1.00  0.00    -0.006 C 
ATOM      4  C   UNL     1      53.740  33.954  31.806  1.00  0.00     0.047 C 
ATOM      5  C   UNL     1      53.045  35.068  32.627  1.00  0.00     0.025 C 
ATOM      6  C   UNL     1      54.088  36.105  33.027  1.00  0.00    -0.073 C 
ATOM      7  C   UNL     1      54.801  35.945  34.154  1.00  0.00     0.008 C 
ATOM      8  C   UNL     1      54.408  37.277  32.127  1.00  0.00     0.031 C 
ATOM      9  C   UNL     1      53.441  37.377  30.947  1.00  0.00     0.005 C 
ATOM     10  C   UNL     1      52.006  37.161  31.429  1.00  0.00     0.008 C 
ATOM     11  C   UNL     1      51.763  35.699  31.922  1.00  0.00    -0.018 C 
ATOM     12  C   UNL     1      51.295  34.845  30.705  1.00  0.00     0.088 C 
ATOM     13  C   UNL     1      51.423  33.381  30.988  1.00  0.00     0.159 C 
ATOM     14  O   UNL     1      50.405  32.641  30.919  1.00  0.00    -0.295 OA
ATOM     15  C   UNL     1      50.601  35.741  32.945  1.00  0.00     0.012 C 
ATOM     16  C   UNL     1      54.532  31.116  31.629  1.00  0.00     0.039 C 
ENDROOT
TORSDOF 0
ENDMDL
MODEL 6
REMARK VINA RESULT:    -5.834      8.025     10.597
REMARK INTER + INTRA:          -5.834
REMARK INTER:                  -5.834
REMARK INTRA:                   0.000
REMARK UNBOUND:                 0.000
REMARK SMILES C=C1CCC[C@@]2(C)CC(=O)C(=C(C)C)C[C@@H]12
REMARK SMILES IDX 13 1 12 2 11 3 15 4 16 5 2 6 1 7 3 8 4 9 5 10 6 11 8 12 9 13
REMARK SMILES IDX 10 14 7 15 14 16
REMARK H PARENT
REMARK Flexibility Score: inf
ROOT
ATOM      1  C   UNL     1      44.572  33.721  25.187  1.00  0.00     0.039 C 
ATOM      2  C   UNL     1      45.175  34.216  26.481  1.00  0.00    -0.070 C 
ATOM      3  C   UNL     1      44.599  33.955  27.691  1.00  0.00    -0.006 C 
ATOM      4  C   UNL     1      45.141  34.538  28.986  1.00  0.00     0.047 C 
ATOM      5  C   UNL     1      44.940  33.566  30.175  1.00  0.00     0.025 C 
ATOM      6  C   UNL     1      45.527  34.201  31.431  1.00  0.00    -0.073 C 
ATOM      7  C   UNL     1      46.826  34.034  31.727  1.00  0.00     0.008 C 
ATOM      8  C   UNL     1      44.690  35.100  32.314  1.00  0.00     0.031 C 
ATOM      9  C   UNL     1      43.217  35.098  31.907  1.00  0.00     0.005 C 
ATOM     10  C   UNL     1      42.755  33.668  31.629  1.00  0.00     0.008 C 
ATOM     11  C   UNL     1      43.440  33.062  30.363  1.00  0.00    -0.018 C 
ATOM     12  C   UNL     1      42.559  33.399  29.122  1.00  0.00     0.088 C 
ATOM     13  C   UNL     1      43.321  33.212  27.848  1.00  0.00     0.159 C 
ATOM     14  O   UNL     1      42.889  32.412  26.975  1.00  0.00    -0.295 OA
ATOM     15  C   UNL     1      43.449  31.522  30.532  1.00  0.00     0.012 C 
ATOM     16  C   UNL     1      46.431  35.053  26.381  1.00  0.00     0.039 C 
ENDROOT
TORSDOF 0
ENDMDL
MODEL 7
REMARK VINA RESULT:    -5.722     10.138     12.018
REMARK INTER + INTRA:          -5.722
REMARK INTER:                  -5.722
REMARK INTRA:                   0.000
REMARK UNBOUND:                 0.000
REMARK SMILES C=C1CCC[C@@]2(C)CC(=O)C(=C(C)C)C[C@@H]12
REMARK SMILES IDX 13 1 12 2 11 3 15 4 16 5 2 6 1 7 3 8 4 9 5 10 6 11 8 12 9 13
REMARK SMILES IDX 10 14 7 15 14 16
REMARK H PARENT
REMARK Flexibility Score: inf
ROOT
ATOM      1  C   UNL     1      42.778  34.222  31.981  1.00  0.00     0.039 C 
ATOM      2  C   UNL     1      42.163  33.184  31.071  1.00  0.00    -0.070 C 
ATOM      3  C   UNL     1      42.594  33.003  29.788  1.00  0.00    -0.006 C 
ATOM      4  C   UNL     1      41.910  32.036  28.835  1.00  0.00     0.047 C 
ATOM      5  C   UNL     1      42.923  31.392  27.856  1.00  0.00     0.025 C 
ATOM      6  C   UNL     1      42.177  30.418  26.950  1.00  0.00    -0.073 C 
ATOM      7  C   UNL     1      41.991  29.146  27.338  1.00  0.00     0.008 C 
ATOM      8  C   UNL     1      41.556  30.881  25.652  1.00  0.00     0.031 C 
ATOM      9  C   UNL     1      41.949  32.316  25.304  1.00  0.00     0.005 C 
ATOM     10  C   UNL     1      43.446  32.518  25.542  1.00  0.00     0.008 C 
ATOM     11  C   UNL     1      43.819  32.440  27.057  1.00  0.00    -0.018 C 
ATOM     12  C   UNL     1      43.709  33.872  27.662  1.00  0.00     0.088 C 
ATOM     13  C   UNL     1      43.658  33.827  29.157  1.00  0.00     0.159 C 
ATOM     14  O   UNL     1      44.528  34.443  29.829  1.00  0.00    -0.295 OA
ATOM     15  C   UNL     1      45.301  31.999  27.147  1.00  0.00     0.012 C 
ATOM     16  C   UNL     1      41.015  32.372  31.628  1.00  0.00     0.039 C 
ENDROOT
TORSDOF 0
ENDMDL
MODEL 8
REMARK VINA RESULT:    -5.662      2.367      4.363
REMARK INTER + INTRA:          -5.662
REMARK INTER:                  -5.662
REMARK INTRA:                   0.000
REMARK UNBOUND:                 0.000
REMARK SMILES C=C1CCC[C@@]2(C)CC(=O)C(=C(C)C)C[C@@H]12
REMARK SMILES IDX 13 1 12 2 11 3 15 4 16 5 2 6 1 7 3 8 4 9 5 10 6 11 8 12 9 13
REMARK SMILES IDX 10 14 7 15 14 16
REMARK H PARENT
REMARK Flexibility Score: inf
ROOT
ATOM      1  C   UNL     1      52.387  37.712  31.753  1.00  0.00     0.039 C 
ATOM      2  C   UNL     1      52.495  36.219  31.544  1.00  0.00    -0.070 C 
ATOM      3  C   UNL     1      53.609  35.519  31.908  1.00  0.00    -0.006 C 
ATOM      4  C   UNL     1      53.766  34.037  31.605  1.00  0.00     0.047 C 
ATOM      5  C   UNL     1      54.573  33.314  32.712  1.00  0.00     0.025 C 
ATOM      6  C   UNL     1      54.670  31.834  32.358  1.00  0.00    -0.073 C 
ATOM      7  C   UNL     1      53.700  30.985  32.737  1.00  0.00     0.008 C 
ATOM      8  C   UNL     1      55.800  31.309  31.501  1.00  0.00     0.031 C 
ATOM      9  C   UNL     1      56.871  32.370  31.248  1.00  0.00     0.005 C 
ATOM     10  C   UNL     1      57.186  33.114  32.546  1.00  0.00     0.008 C 
ATOM     11  C   UNL     1      55.983  33.980  33.037  1.00  0.00    -0.018 C 
ATOM     12  C   UNL     1      56.111  35.398  32.402  1.00  0.00     0.088 C 
ATOM     13  C   UNL     1      54.821  36.152  32.491  1.00  0.00     0.159 C 
ATOM     14  O   UNL     1      54.788  37.262  33.086  1.00  0.00    -0.295 OA
ATOM     15  C   UNL     1      56.119  34.135  34.572  1.00  0.00     0.012 C 
ATOM     16  C   UNL     1      51.327  35.531  30.874  1.00  0.00     0.039 C 
ENDROOT
TORSDOF 0
ENDMDL
MODEL 9
REMARK VINA RESULT:    -5.520      2.239      3.701
REMARK INTER + INTRA:          -5.520
REMARK INTER:                  -5.520
REMARK INTRA:                   0.000
REMARK UNBOUND:                 0.000
REMARK SMILES C=C1CCC[C@@]2(C)CC(=O)C(=C(C)C)C[C@@H]12
REMARK SMILES IDX 13 1 12 2 11 3 15 4 16 5 2 6 1 7 3 8 4 9 5 10 6 11 8 12 9 13
REMARK SMILES IDX 10 14 7 15 14 16
REMARK H PARENT
REMARK Flexibility Score: inf
ROOT
ATOM      1  C   UNL     1      55.741  37.078  34.898  1.00  0.00     0.039 C 
ATOM      2  C   UNL     1      55.589  35.626  34.507  1.00  0.00    -0.070 C 
ATOM      3  C   UNL     1      54.579  35.201  33.692  1.00  0.00    -0.006 C 
ATOM      4  C   UNL     1      54.359  33.729  33.381  1.00  0.00     0.047 C 
ATOM      5  C   UNL     1      53.810  33.528  31.946  1.00  0.00     0.025 C 
ATOM      6  C   UNL     1      53.637  32.034  31.694  1.00  0.00    -0.073 C 
ATOM      7  C   UNL     1      54.664  31.306  31.228  1.00  0.00     0.008 C 
ATOM      8  C   UNL     1      52.346  31.328  32.046  1.00  0.00     0.031 C 
ATOM      9  C   UNL     1      51.248  32.307  32.458  1.00  0.00     0.005 C 
ATOM     10  C   UNL     1      51.222  33.496  31.497  1.00  0.00     0.008 C 
ATOM     11  C   UNL     1      52.504  34.380  31.618  1.00  0.00    -0.018 C 
ATOM     12  C   UNL     1      52.243  35.474  32.698  1.00  0.00     0.088 C 
ATOM     13  C   UNL     1      53.523  36.100  33.157  1.00  0.00     0.159 C 
ATOM     14  O   UNL     1      53.686  37.344  33.041  1.00  0.00    -0.295 OA
ATOM     15  C   UNL     1      52.705  35.095  30.259  1.00  0.00     0.012 C 
ATOM     16  C   UNL     1      56.583  34.647  35.091  1.00  0.00     0.039 C 
ENDROOT
TORSDOF 0
ENDMDL
