MODEL 1
REMARK VINA RESULT:    -4.613      0.000      0.000
REMARK INTER + INTRA:          -4.613
REMARK INTER:                  -4.613
REMARK INTRA:                   0.000
REMARK UNBOUND:                 0.000
REMARK SMILES C[C@H]1C(=O)CC[C@H]2[C@]3(C)CC[C@@]4(C)[C@@H]5CC(C)(C)CC[C@@]5(C)CC[C@@]4(C)[C@H]3CC[C@]21C
REMARK SMILES IDX 1 1 2 2 3 3 4 4 5 5 6 6 7 7 30 8 29 9 28 10 27 11 8 12 10 13
REMARK SMILES IDX 11 14 12 15 25 16 24 17 23 18 21 19 14 20 15 21 16 22 19 23
REMARK SMILES IDX 20 24 17 25 18 26 22 27 26 28 13 29 9 30 31 31
REMARK H PARENT
REMARK Flexibility Score: inf
ROOT
ATOM      1  C   UNL     1     129.460 147.058 141.366  1.00  0.00     0.016 C 
ATOM      2  C   UNL     1     130.578 146.828 140.324  1.00  0.00     0.059 C 
ATOM      3  C   UNL     1     131.844 147.526 140.717  1.00  0.00     0.136 C 
ATOM      4  O   UNL     1     131.964 148.125 141.776  1.00  0.00    -0.299 OA
ATOM      5  C   UNL     1     132.972 147.451 139.759  1.00  0.00     0.076 C 
ATOM      6  C   UNL     1     133.355 145.991 139.661  1.00  0.00     0.012 C 
ATOM      7  C   UNL     1     132.201 145.057 139.163  1.00  0.00     0.002 C 
ATOM      8  C   UNL     1     130.797 145.306 139.906  1.00  0.00    -0.020 C 
ATOM      9  C   UNL     1     130.768 144.365 141.143  1.00  0.00     0.008 C 
ATOM     10  C   UNL     1     130.867 142.855 140.803  1.00  0.00     0.005 C 
ATOM     11  C   UNL     1     131.502 142.539 139.414  1.00  0.00     0.002 C 
ATOM     12  C   UNL     1     132.694 143.508 139.103  1.00  0.00    -0.026 C 
ATOM     13  C   UNL     1     133.176 143.216 137.661  1.00  0.00     0.008 C 
ATOM     14  C   UNL     1     133.506 141.739 137.420  1.00  0.00     0.008 C 
ATOM     15  C   UNL     1     132.318 140.732 137.641  1.00  0.00    -0.024 C 
ATOM     16  C   UNL     1     131.661 140.974 139.097  1.00  0.00    -0.024 C 
ATOM     17  C   UNL     1     132.445 140.249 140.270  1.00  0.00     0.008 C 
ATOM     18  C   UNL     1     133.487 139.189 139.874  1.00  0.00     0.007 C 
ATOM     19  C   UNL     1     133.034 138.312 138.698  1.00  0.00    -0.029 C 
ATOM     20  C   UNL     1     132.922 139.242 137.439  1.00  0.00     0.002 C 
ATOM     21  C   UNL     1     132.499 138.431 136.180  1.00  0.00     0.011 C 
ATOM     22  C   UNL     1     133.441 137.214 135.881  1.00  0.00    -0.035 C 
ATOM     23  C   UNL     1     133.770 136.392 137.164  1.00  0.00     0.007 C 
ATOM     24  C   UNL     1     134.142 137.261 138.384  1.00  0.00     0.007 C 
ATOM     25  C   UNL     1     134.758 137.692 135.218  1.00  0.00     0.011 C 
ATOM     26  C   UNL     1     132.727 136.286 134.875  1.00  0.00     0.011 C 
ATOM     27  C   UNL     1     131.751 137.507 139.102  1.00  0.00     0.011 C 
ATOM     28  C   UNL     1     130.198 140.394 139.079  1.00  0.00     0.012 C 
ATOM     29  C   UNL     1     131.281 141.049 136.504  1.00  0.00     0.012 C 
ATOM     30  C   UNL     1     133.889 143.239 140.079  1.00  0.00     0.012 C 
ATOM     31  C   UNL     1     129.583 144.968 138.953  1.00  0.00     0.012 C 
ENDROOT
TORSDOF 0
ENDMDL
MODEL 2
REMARK VINA RESULT:    -4.533      1.355      3.320
REMARK INTER + INTRA:          -4.533
REMARK INTER:                  -4.533
REMARK INTRA:                   0.000
REMARK UNBOUND:                 0.000
REMARK SMILES C[C@H]1C(=O)CC[C@H]2[C@]3(C)CC[C@@]4(C)[C@@H]5CC(C)(C)CC[C@@]5(C)CC[C@@]4(C)[C@H]3CC[C@]21C
REMARK SMILES IDX 1 1 2 2 3 3 4 4 5 5 6 6 7 7 30 8 29 9 28 10 27 11 8 12 10 13
REMARK SMILES IDX 11 14 12 15 25 16 24 17 23 18 21 19 14 20 15 21 16 22 19 23
REMARK SMILES IDX 20 24 17 25 18 26 22 27 26 28 13 29 9 30 31 31
REMARK H PARENT
REMARK Flexibility Score: inf
ROOT
ATOM      1  C   UNL     1     131.624 148.125 141.447  1.00  0.00     0.016 C 
ATOM      2  C   UNL     1     130.934 146.773 141.736  1.00  0.00     0.059 C 
ATOM      3  C   UNL     1     129.442 146.912 141.751  1.00  0.00     0.136 C 
ATOM      4  O   UNL     1     128.877 147.962 141.483  1.00  0.00    -0.299 OA
ATOM      5  C   UNL     1     128.663 145.700 142.098  1.00  0.00     0.076 C 
ATOM      6  C   UNL     1     128.941 144.686 141.010  1.00  0.00     0.012 C 
ATOM      7  C   UNL     1     130.451 144.296 140.868  1.00  0.00     0.002 C 
ATOM      8  C   UNL     1     131.448 145.557 140.843  1.00  0.00    -0.020 C 
ATOM      9  C   UNL     1     131.611 145.973 139.354  1.00  0.00     0.008 C 
ATOM     10  C   UNL     1     132.211 144.872 138.441  1.00  0.00     0.005 C 
ATOM     11  C   UNL     1     132.056 143.418 138.985  1.00  0.00     0.002 C 
ATOM     12  C   UNL     1     130.661 143.216 139.670  1.00  0.00    -0.026 C 
ATOM     13  C   UNL     1     130.643 141.800 140.295  1.00  0.00     0.008 C 
ATOM     14  C   UNL     1     131.004 140.693 139.299  1.00  0.00     0.008 C 
ATOM     15  C   UNL     1     132.429 140.807 138.644  1.00  0.00    -0.024 C 
ATOM     16  C   UNL     1     132.621 142.279 138.006  1.00  0.00    -0.024 C 
ATOM     17  C   UNL     1     131.985 142.427 136.560  1.00  0.00     0.008 C 
ATOM     18  C   UNL     1     131.573 141.135 135.834  1.00  0.00     0.007 C 
ATOM     19  C   UNL     1     132.572 139.988 136.037  1.00  0.00    -0.029 C 
ATOM     20  C   UNL     1     132.544 139.608 137.560  1.00  0.00     0.002 C 
ATOM     21  C   UNL     1     133.507 138.422 137.859  1.00  0.00     0.011 C 
ATOM     22  C   UNL     1     133.228 137.159 136.973  1.00  0.00    -0.035 C 
ATOM     23  C   UNL     1     133.015 137.525 135.473  1.00  0.00     0.007 C 
ATOM     24  C   UNL     1     132.082 138.734 135.251  1.00  0.00     0.007 C 
ATOM     25  C   UNL     1     131.994 136.383 137.499  1.00  0.00     0.011 C 
ATOM     26  C   UNL     1     134.447 136.217 137.079  1.00  0.00     0.011 C 
ATOM     27  C   UNL     1     133.963 140.384 135.431  1.00  0.00     0.011 C 
ATOM     28  C   UNL     1     134.164 142.560 137.874  1.00  0.00     0.012 C 
ATOM     29  C   UNL     1     133.450 140.571 139.814  1.00  0.00     0.012 C 
ATOM     30  C   UNL     1     129.512 143.294 138.608  1.00  0.00     0.012 C 
ATOM     31  C   UNL     1     132.858 145.178 141.446  1.00  0.00     0.012 C 
ENDROOT
TORSDOF 0
ENDMDL
MODEL 3
REMARK VINA RESULT:    -4.504      9.507     11.923
REMARK INTER + INTRA:          -4.504
REMARK INTER:                  -4.504
REMARK INTRA:                   0.000
REMARK UNBOUND:                 0.000
REMARK SMILES C[C@H]1C(=O)CC[C@H]2[C@]3(C)CC[C@@]4(C)[C@@H]5CC(C)(C)CC[C@@]5(C)CC[C@@]4(C)[C@H]3CC[C@]21C
REMARK SMILES IDX 1 1 2 2 3 3 4 4 5 5 6 6 7 7 30 8 29 9 28 10 27 11 8 12 10 13
REMARK SMILES IDX 11 14 12 15 25 16 24 17 23 18 21 19 14 20 15 21 16 22 19 23
REMARK SMILES IDX 20 24 17 25 18 26 22 27 26 28 13 29 9 30 31 31
REMARK H PARENT
REMARK Flexibility Score: inf
ROOT
ATOM      1  C   UNL     1     139.524 142.095 135.006  1.00  0.00     0.016 C 
ATOM      2  C   UNL     1     140.781 142.209 135.897  1.00  0.00     0.059 C 
ATOM      3  C   UNL     1     140.604 143.245 136.965  1.00  0.00     0.136 C 
ATOM      4  O   UNL     1     139.552 143.847 137.129  1.00  0.00    -0.299 OA
ATOM      5  C   UNL     1     141.771 143.508 137.839  1.00  0.00     0.076 C 
ATOM      6  C   UNL     1     142.040 142.225 138.594  1.00  0.00     0.012 C 
ATOM      7  C   UNL     1     142.359 140.996 137.676  1.00  0.00     0.002 C 
ATOM      8  C   UNL     1     141.335 140.819 136.448  1.00  0.00    -0.020 C 
ATOM      9  C   UNL     1     140.182 139.905 136.950  1.00  0.00     0.008 C 
ATOM     10  C   UNL     1     140.635 138.492 137.402  1.00  0.00     0.005 C 
ATOM     11  C   UNL     1     142.140 138.383 137.794  1.00  0.00     0.002 C 
ATOM     12  C   UNL     1     142.619 139.660 138.566  1.00  0.00    -0.026 C 
ATOM     13  C   UNL     1     144.144 139.529 138.796  1.00  0.00     0.008 C 
ATOM     14  C   UNL     1     144.544 138.215 139.475  1.00  0.00     0.008 C 
ATOM     15  C   UNL     1     144.157 136.903 138.698  1.00  0.00    -0.024 C 
ATOM     16  C   UNL     1     142.586 136.934 138.322  1.00  0.00    -0.024 C 
ATOM     17  C   UNL     1     141.645 136.465 139.509  1.00  0.00     0.008 C 
ATOM     18  C   UNL     1     142.311 135.758 140.702  1.00  0.00     0.007 C 
ATOM     19  C   UNL     1     143.428 134.793 140.281  1.00  0.00    -0.029 C 
ATOM     20  C   UNL     1     144.574 135.656 139.645  1.00  0.00     0.002 C 
ATOM     21  C   UNL     1     145.775 134.763 139.216  1.00  0.00     0.011 C 
ATOM     22  C   UNL     1     146.336 133.877 140.381  1.00  0.00    -0.035 C 
ATOM     23  C   UNL     1     145.203 133.181 141.193  1.00  0.00     0.007 C 
ATOM     24  C   UNL     1     144.026 134.115 141.550  1.00  0.00     0.007 C 
ATOM     25  C   UNL     1     147.215 134.723 141.337  1.00  0.00     0.011 C 
ATOM     26  C   UNL     1     147.239 132.786 139.767  1.00  0.00     0.011 C 
ATOM     27  C   UNL     1     142.830 133.646 139.396  1.00  0.00     0.011 C 
ATOM     28  C   UNL     1     142.350 135.951 137.115  1.00  0.00     0.012 C 
ATOM     29  C   UNL     1     145.040 136.908 137.399  1.00  0.00     0.012 C 
ATOM     30  C   UNL     1     141.922 139.747 139.965  1.00  0.00     0.012 C 
ATOM     31  C   UNL     1     142.047 140.146 135.209  1.00  0.00     0.012 C 
ENDROOT
TORSDOF 0
ENDMDL
MODEL 4
REMARK VINA RESULT:    -4.486      3.082      8.324
REMARK INTER + INTRA:          -4.486
REMARK INTER:                  -4.486
REMARK INTRA:                   0.000
REMARK UNBOUND:                 0.000
REMARK SMILES C[C@H]1C(=O)CC[C@H]2[C@]3(C)CC[C@@]4(C)[C@@H]5CC(C)(C)CC[C@@]5(C)CC[C@@]4(C)[C@H]3CC[C@]21C
REMARK SMILES IDX 1 1 2 2 3 3 4 4 5 5 6 6 7 7 30 8 29 9 28 10 27 11 8 12 10 13
REMARK SMILES IDX 11 14 12 15 25 16 24 17 23 18 21 19 14 20 15 21 16 22 19 23
REMARK SMILES IDX 20 24 17 25 18 26 22 27 26 28 13 29 9 30 31 31
REMARK H PARENT
REMARK Flexibility Score: inf
ROOT
ATOM      1  C   UNL     1     133.683 135.080 135.038  1.00  0.00     0.016 C 
ATOM      2  C   UNL     1     132.597 135.746 135.913  1.00  0.00     0.059 C 
ATOM      3  C   UNL     1     132.128 134.827 136.999  1.00  0.00     0.136 C 
ATOM      4  O   UNL     1     132.624 133.725 137.188  1.00  0.00    -0.299 OA
ATOM      5  C   UNL     1     131.028 135.319 137.860  1.00  0.00     0.076 C 
ATOM      6  C   UNL     1     131.563 136.531 138.591  1.00  0.00     0.012 C 
ATOM      7  C   UNL     1     132.030 137.692 137.650  1.00  0.00     0.002 C 
ATOM      8  C   UNL     1     132.965 137.207 136.434  1.00  0.00    -0.020 C 
ATOM      9  C   UNL     1     134.434 137.279 136.938  1.00  0.00     0.008 C 
ATOM     10  C   UNL     1     134.898 138.697 137.361  1.00  0.00     0.005 C 
ATOM     11  C   UNL     1     133.743 139.679 137.729  1.00  0.00     0.002 C 
ATOM     12  C   UNL     1     132.603 138.944 138.515  1.00  0.00    -0.026 C 
ATOM     13  C   UNL     1     131.446 139.952 138.720  1.00  0.00     0.008 C 
ATOM     14  C   UNL     1     131.894 141.264 139.374  1.00  0.00     0.008 C 
ATOM     15  C   UNL     1     132.981 142.080 138.581  1.00  0.00    -0.024 C 
ATOM     16  C   UNL     1     134.233 141.124 138.228  1.00  0.00    -0.024 C 
ATOM     17  C   UNL     1     135.268 140.975 139.421  1.00  0.00     0.008 C 
ATOM     18  C   UNL     1     135.142 141.963 140.594  1.00  0.00     0.007 C 
ATOM     19  C   UNL     1     134.807 143.391 140.141  1.00  0.00    -0.029 C 
ATOM     20  C   UNL     1     133.374 143.354 139.503  1.00  0.00     0.002 C 
ATOM     21  C   UNL     1     132.929 144.773 139.043  1.00  0.00     0.011 C 
ATOM     22  C   UNL     1     132.994 145.844 140.185  1.00  0.00    -0.035 C 
ATOM     23  C   UNL     1     134.318 145.757 141.002  1.00  0.00     0.007 C 
ATOM     24  C   UNL     1     134.719 144.319 141.391  1.00  0.00     0.007 C 
ATOM     25  C   UNL     1     131.783 145.697 141.141  1.00  0.00     0.011 C 
ATOM     26  C   UNL     1     132.907 147.244 139.541  1.00  0.00     0.011 C 
ATOM     27  C   UNL     1     135.967 143.949 139.247  1.00  0.00     0.011 C 
ATOM     28  C   UNL     1     135.005 141.754 137.010  1.00  0.00     0.012 C 
ATOM     29  C   UNL     1     132.267 142.568 137.270  1.00  0.00     0.012 C 
ATOM     30  C   UNL     1     133.113 138.493 139.925  1.00  0.00     0.012 C 
ATOM     31  C   UNL     1     132.788 138.144 135.174  1.00  0.00     0.012 C 
ENDROOT
TORSDOF 0
ENDMDL
MODEL 5
REMARK VINA RESULT:    -4.458      6.837      9.395
REMARK INTER + INTRA:          -4.458
REMARK INTER:                  -4.458
REMARK INTRA:                   0.000
REMARK UNBOUND:                 0.000
REMARK SMILES C[C@H]1C(=O)CC[C@H]2[C@]3(C)CC[C@@]4(C)[C@@H]5CC(C)(C)CC[C@@]5(C)CC[C@@]4(C)[C@H]3CC[C@]21C
REMARK SMILES IDX 1 1 2 2 3 3 4 4 5 5 6 6 7 7 30 8 29 9 28 10 27 11 8 12 10 13
REMARK SMILES IDX 11 14 12 15 25 16 24 17 23 18 21 19 14 20 15 21 16 22 19 23
REMARK SMILES IDX 20 24 17 25 18 26 22 27 26 28 13 29 9 30 31 31
REMARK H PARENT
REMARK Flexibility Score: inf
ROOT
ATOM      1  C   UNL     1     134.252 140.884 135.154  1.00  0.00     0.016 C 
ATOM      2  C   UNL     1     134.539 142.115 136.042  1.00  0.00     0.059 C 
ATOM      3  C   UNL     1     133.517 142.256 137.129  1.00  0.00     0.136 C 
ATOM      4  O   UNL     1     132.630 141.435 137.308  1.00  0.00    -0.299 OA
ATOM      5  C   UNL     1     133.634 143.447 138.003  1.00  0.00     0.076 C 
ATOM      6  C   UNL     1     134.952 143.316 138.734  1.00  0.00     0.012 C 
ATOM      7  C   UNL     1     136.203 143.251 137.793  1.00  0.00     0.002 C 
ATOM      8  C   UNL     1     136.040 142.225 136.566  1.00  0.00    -0.020 C 
ATOM      9  C   UNL     1     136.575 140.849 137.055  1.00  0.00     0.008 C 
ATOM     10  C   UNL     1     138.066 140.854 137.480  1.00  0.00     0.005 C 
ATOM     11  C   UNL     1     138.631 142.257 137.864  1.00  0.00     0.002 C 
ATOM     12  C   UNL     1     137.571 143.096 138.658  1.00  0.00    -0.026 C 
ATOM     13  C   UNL     1     138.159 144.510 138.880  1.00  0.00     0.008 C 
ATOM     14  C   UNL     1     139.546 144.495 139.534  1.00  0.00     0.008 C 
ATOM     15  C   UNL     1     140.665 143.732 138.734  1.00  0.00    -0.024 C 
ATOM     16  C   UNL     1     140.156 142.245 138.364  1.00  0.00    -0.024 C 
ATOM     17  C   UNL     1     140.342 141.203 139.546  1.00  0.00     0.008 C 
ATOM     18  C   UNL     1     141.238 141.623 140.724  1.00  0.00     0.007 C 
ATOM     19  C   UNL     1     142.486 142.399 140.281  1.00  0.00    -0.029 C 
ATOM     20  C   UNL     1     141.997 143.753 139.657  1.00  0.00     0.002 C 
ATOM     21  C   UNL     1     143.202 144.630 139.208  1.00  0.00     0.011 C 
ATOM     22  C   UNL     1     144.237 144.897 140.354  1.00  0.00    -0.035 C 
ATOM     23  C   UNL     1     144.574 143.604 141.157  1.00  0.00     0.007 C 
ATOM     24  C   UNL     1     143.337 142.763 141.536  1.00  0.00     0.007 C 
ATOM     25  C   UNL     1     143.713 145.987 141.322  1.00  0.00     0.011 C 
ATOM     26  C   UNL     1     145.538 145.429 139.717  1.00  0.00     0.011 C 
ATOM     27  C   UNL     1     143.384 141.485 139.377  1.00  0.00     0.011 C 
ATOM     28  C   UNL     1     141.000 141.726 137.141  1.00  0.00     0.012 C 
ATOM     29  C   UNL     1     140.902 144.578 137.432  1.00  0.00     0.012 C 
ATOM     30  C   UNL     1     137.304 142.454 140.061  1.00  0.00     0.012 C 
ATOM     31  C   UNL     1     136.874 142.703 135.312  1.00  0.00     0.012 C 
ENDROOT
TORSDOF 0
ENDMDL
MODEL 6
REMARK VINA RESULT:    -4.456      7.702     10.610
REMARK INTER + INTRA:          -4.456
REMARK INTER:                  -4.456
REMARK INTRA:                   0.000
REMARK UNBOUND:                 0.000
REMARK SMILES C[C@H]1C(=O)CC[C@H]2[C@]3(C)CC[C@@]4(C)[C@@H]5CC(C)(C)CC[C@@]5(C)CC[C@@]4(C)[C@H]3CC[C@]21C
REMARK SMILES IDX 1 1 2 2 3 3 4 4 5 5 6 6 7 7 30 8 29 9 28 10 27 11 8 12 10 13
REMARK SMILES IDX 11 14 12 15 25 16 24 17 23 18 21 19 14 20 15 21 16 22 19 23
REMARK SMILES IDX 20 24 17 25 18 26 22 27 26 28 13 29 9 30 31 31
REMARK H PARENT
REMARK Flexibility Score: inf
ROOT
ATOM      1  C   UNL     1     133.823 144.316 139.317  1.00  0.00     0.016 C 
ATOM      2  C   UNL     1     134.739 144.041 140.531  1.00  0.00     0.059 C 
ATOM      3  C   UNL     1     134.606 142.627 141.008  1.00  0.00     0.136 C 
ATOM      4  O   UNL     1     133.911 141.801 140.433  1.00  0.00    -0.299 OA
ATOM      5  C   UNL     1     135.375 142.257 142.220  1.00  0.00     0.076 C 
ATOM      6  C   UNL     1     136.837 142.403 141.862  1.00  0.00     0.012 C 
ATOM      7  C   UNL     1     137.248 143.849 141.420  1.00  0.00     0.002 C 
ATOM      8  C   UNL     1     136.251 144.507 140.343  1.00  0.00    -0.020 C 
ATOM      9  C   UNL     1     136.794 144.128 138.936  1.00  0.00     0.008 C 
ATOM     10  C   UNL     1     138.226 144.645 138.641  1.00  0.00     0.005 C 
ATOM     11  C   UNL     1     139.079 144.965 139.907  1.00  0.00     0.002 C 
ATOM     12  C   UNL     1     138.828 143.912 141.040  1.00  0.00    -0.026 C 
ATOM     13  C   UNL     1     139.603 144.376 142.297  1.00  0.00     0.008 C 
ATOM     14  C   UNL     1     141.088 144.647 142.028  1.00  0.00     0.008 C 
ATOM     15  C   UNL     1     141.392 145.755 140.954  1.00  0.00    -0.024 C 
ATOM     16  C   UNL     1     140.581 145.437 139.594  1.00  0.00    -0.024 C 
ATOM     17  C   UNL     1     141.309 144.383 138.658  1.00  0.00     0.008 C 
ATOM     18  C   UNL     1     142.777 144.052 138.975  1.00  0.00     0.007 C 
ATOM     19  C   UNL     1     143.592 145.282 139.396  1.00  0.00    -0.029 C 
ATOM     20  C   UNL     1     143.001 145.789 140.759  1.00  0.00     0.002 C 
ATOM     21  C   UNL     1     143.790 147.022 141.288  1.00  0.00     0.011 C 
ATOM     22  C   UNL     1     145.330 146.762 141.421  1.00  0.00    -0.035 C 
ATOM     23  C   UNL     1     145.917 146.040 140.170  1.00  0.00     0.007 C 
ATOM     24  C   UNL     1     145.064 144.853 139.677  1.00  0.00     0.007 C 
ATOM     25  C   UNL     1     145.637 145.931 142.692  1.00  0.00     0.011 C 
ATOM     26  C   UNL     1     146.039 148.125 141.576  1.00  0.00     0.011 C 
ATOM     27  C   UNL     1     143.640 146.314 138.217  1.00  0.00     0.011 C 
ATOM     28  C   UNL     1     140.444 146.776 138.779  1.00  0.00     0.012 C 
ATOM     29  C   UNL     1     140.902 147.104 141.592  1.00  0.00     0.012 C 
ATOM     30  C   UNL     1     139.382 142.509 140.618  1.00  0.00     0.012 C 
ATOM     31  C   UNL     1     136.213 146.079 140.492  1.00  0.00     0.012 C 
ENDROOT
TORSDOF 0
ENDMDL
MODEL 7
REMARK VINA RESULT:    -4.374      6.618      9.794
REMARK INTER + INTRA:          -4.374
REMARK INTER:                  -4.374
REMARK INTRA:                   0.000
REMARK UNBOUND:                 0.000
REMARK SMILES C[C@H]1C(=O)CC[C@H]2[C@]3(C)CC[C@@]4(C)[C@@H]5CC(C)(C)CC[C@@]5(C)CC[C@@]4(C)[C@H]3CC[C@]21C
REMARK SMILES IDX 1 1 2 2 3 3 4 4 5 5 6 6 7 7 30 8 29 9 28 10 27 11 8 12 10 13
REMARK SMILES IDX 11 14 12 15 25 16 24 17 23 18 21 19 14 20 15 21 16 22 19 23
REMARK SMILES IDX 20 24 17 25 18 26 22 27 26 28 13 29 9 30 31 31
REMARK H PARENT
REMARK Flexibility Score: inf
ROOT
ATOM      1  C   UNL     1     144.708 145.074 141.872  1.00  0.00     0.016 C 
ATOM      2  C   UNL     1     143.829 146.187 141.260  1.00  0.00     0.059 C 
ATOM      3  C   UNL     1     144.332 146.604 139.911  1.00  0.00     0.136 C 
ATOM      4  O   UNL     1     145.275 146.052 139.362  1.00  0.00    -0.299 OA
ATOM      5  C   UNL     1     143.622 147.724 139.251  1.00  0.00     0.076 C 
ATOM      6  C   UNL     1     142.209 147.246 138.999  1.00  0.00     0.012 C 
ATOM      7  C   UNL     1     141.428 146.843 140.296  1.00  0.00     0.002 C 
ATOM      8  C   UNL     1     142.263 145.891 141.288  1.00  0.00    -0.020 C 
ATOM      9  C   UNL     1     141.953 144.425 140.873  1.00  0.00     0.008 C 
ATOM     10  C   UNL     1     140.457 144.031 140.980  1.00  0.00     0.005 C 
ATOM     11  C   UNL     1     139.462 145.232 140.950  1.00  0.00     0.002 C 
ATOM     12  C   UNL     1     139.928 146.329 139.933  1.00  0.00    -0.026 C 
ATOM     13  C   UNL     1     138.966 147.534 140.065  1.00  0.00     0.008 C 
ATOM     14  C   UNL     1     137.489 147.150 139.919  1.00  0.00     0.008 C 
ATOM     15  C   UNL     1     136.952 146.110 140.970  1.00  0.00    -0.024 C 
ATOM     16  C   UNL     1     137.913 144.812 140.996  1.00  0.00    -0.024 C 
ATOM     17  C   UNL     1     137.590 143.765 139.849  1.00  0.00     0.008 C 
ATOM     18  C   UNL     1     136.262 143.935 139.091  1.00  0.00     0.007 C 
ATOM     19  C   UNL     1     135.098 144.344 140.004  1.00  0.00    -0.029 C 
ATOM     20  C   UNL     1     135.420 145.777 140.558  1.00  0.00     0.002 C 
ATOM     21  C   UNL     1     134.272 146.295 141.473  1.00  0.00     0.011 C 
ATOM     22  C   UNL     1     132.868 146.279 140.776  1.00  0.00    -0.035 C 
ATOM     23  C   UNL     1     132.605 144.947 140.009  1.00  0.00     0.007 C 
ATOM     24  C   UNL     1     133.798 144.472 139.153  1.00  0.00     0.007 C 
ATOM     25  C   UNL     1     132.728 147.475 139.802  1.00  0.00     0.011 C 
ATOM     26  C   UNL     1     131.786 146.438 141.865  1.00  0.00     0.011 C 
ATOM     27  C   UNL     1     134.835 143.218 141.063  1.00  0.00     0.011 C 
ATOM     28  C   UNL     1     137.712 144.079 142.375  1.00  0.00     0.012 C 
ATOM     29  C   UNL     1     136.984 146.854 142.353  1.00  0.00     0.012 C 
ATOM     30  C   UNL     1     139.836 145.791 138.466  1.00  0.00     0.012 C 
ATOM     31  C   UNL     1     141.833 146.121 142.790  1.00  0.00     0.012 C 
ENDROOT
TORSDOF 0
ENDMDL
MODEL 8
REMARK VINA RESULT:    -4.322      2.580      8.225
REMARK INTER + INTRA:          -4.322
REMARK INTER:                  -4.322
REMARK INTRA:                   0.000
REMARK UNBOUND:                 0.000
REMARK SMILES C[C@H]1C(=O)CC[C@H]2[C@]3(C)CC[C@@]4(C)[C@@H]5CC(C)(C)CC[C@@]5(C)CC[C@@]4(C)[C@H]3CC[C@]21C
REMARK SMILES IDX 1 1 2 2 3 3 4 4 5 5 6 6 7 7 30 8 29 9 28 10 27 11 8 12 10 13
REMARK SMILES IDX 11 14 12 15 25 16 24 17 23 18 21 19 14 20 15 21 16 22 19 23
REMARK SMILES IDX 20 24 17 25 18 26 22 27 26 28 13 29 9 30 31 31
REMARK H PARENT
REMARK Flexibility Score: inf
ROOT
ATOM      1  C   UNL     1     133.603 138.096 134.918  1.00  0.00     0.016 C 
ATOM      2  C   UNL     1     132.708 138.111 136.177  1.00  0.00     0.059 C 
ATOM      3  C   UNL     1     133.173 137.109 137.191  1.00  0.00     0.136 C 
ATOM      4  O   UNL     1     134.185 136.440 137.038  1.00  0.00    -0.299 OA
ATOM      5  C   UNL     1     132.350 136.967 138.414  1.00  0.00     0.076 C 
ATOM      6  C   UNL     1     132.416 138.296 139.133  1.00  0.00     0.012 C 
ATOM      7  C   UNL     1     131.879 139.506 138.296  1.00  0.00     0.002 C 
ATOM      8  C   UNL     1     132.445 139.558 136.792  1.00  0.00    -0.020 C 
ATOM      9  C   UNL     1     133.747 140.407 136.829  1.00  0.00     0.008 C 
ATOM     10  C   UNL     1     133.547 141.866 137.315  1.00  0.00     0.005 C 
ATOM     11  C   UNL     1     132.265 142.099 138.172  1.00  0.00     0.002 C 
ATOM     12  C   UNL     1     132.001 140.893 139.137  1.00  0.00    -0.026 C 
ATOM     13  C   UNL     1     130.648 141.142 139.846  1.00  0.00     0.008 C 
ATOM     14  C   UNL     1     130.568 142.509 140.535  1.00  0.00     0.008 C 
ATOM     15  C   UNL     1     130.746 143.756 139.593  1.00  0.00    -0.024 C 
ATOM     16  C   UNL     1     132.099 143.597 138.725  1.00  0.00    -0.024 C 
ATOM     17  C   UNL     1     133.405 144.046 139.505  1.00  0.00     0.008 C 
ATOM     18  C   UNL     1     133.212 144.847 140.804  1.00  0.00     0.007 C 
ATOM     19  C   UNL     1     132.073 145.871 140.713  1.00  0.00    -0.029 C 
ATOM     20  C   UNL     1     130.735 145.068 140.545  1.00  0.00     0.002 C 
ATOM     21  C   UNL     1     129.510 146.027 140.479  1.00  0.00     0.011 C 
ATOM     22  C   UNL     1     129.416 146.998 141.706  1.00  0.00    -0.035 C 
ATOM     23  C   UNL     1     130.791 147.643 142.055  1.00  0.00     0.007 C 
ATOM     24  C   UNL     1     131.967 146.643 142.064  1.00  0.00     0.007 C 
ATOM     25  C   UNL     1     128.860 146.258 142.948  1.00  0.00     0.011 C 
ATOM     26  C   UNL     1     128.422 148.125 141.354  1.00  0.00     0.011 C 
ATOM     27  C   UNL     1     132.404 146.935 139.611  1.00  0.00     0.011 C 
ATOM     28  C   UNL     1     131.974 144.510 137.448  1.00  0.00     0.012 C 
ATOM     29  C   UNL     1     129.483 143.761 138.659  1.00  0.00     0.012 C 
ATOM     30  C   UNL     1     133.118 140.813 140.232  1.00  0.00     0.012 C 
ATOM     31  C   UNL     1     131.400 140.229 135.815  1.00  0.00     0.012 C 
ENDROOT
TORSDOF 0
ENDMDL
MODEL 9
REMARK VINA RESULT:    -4.250      1.425      3.886
REMARK INTER + INTRA:          -4.250
REMARK INTER:                  -4.250
REMARK INTRA:                   0.000
REMARK UNBOUND:                 0.000
REMARK SMILES C[C@H]1C(=O)CC[C@H]2[C@]3(C)CC[C@@]4(C)[C@@H]5CC(C)(C)CC[C@@]5(C)CC[C@@]4(C)[C@H]3CC[C@]21C
REMARK SMILES IDX 1 1 2 2 3 3 4 4 5 5 6 6 7 7 30 8 29 9 28 10 27 11 8 12 10 13
REMARK SMILES IDX 11 14 12 15 25 16 24 17 23 18 21 19 14 20 15 21 16 22 19 23
REMARK SMILES IDX 20 24 17 25 18 26 22 27 26 28 13 29 9 30 31 31
REMARK H PARENT
REMARK Flexibility Score: inf
ROOT
ATOM      1  C   UNL     1     133.559 146.016 139.750  1.00  0.00     0.016 C 
ATOM      2  C   UNL     1     132.521 144.911 140.047  1.00  0.00     0.059 C 
ATOM      3  C   UNL     1     131.127 145.375 139.749  1.00  0.00     0.136 C 
ATOM      4  O   UNL     1     130.890 146.468 139.257  1.00  0.00    -0.299 OA
ATOM      5  C   UNL     1     130.029 144.434 140.069  1.00  0.00     0.076 C 
ATOM      6  C   UNL     1     130.227 143.225 139.181  1.00  0.00     0.012 C 
ATOM      7  C   UNL     1     131.597 142.496 139.387  1.00  0.00     0.002 C 
ATOM      8  C   UNL     1     132.863 143.487 139.418  1.00  0.00    -0.020 C 
ATOM      9  C   UNL     1     133.369 143.618 137.954  1.00  0.00     0.008 C 
ATOM     10  C   UNL     1     133.824 142.283 137.310  1.00  0.00     0.005 C 
ATOM     11  C   UNL     1     133.228 141.002 137.973  1.00  0.00     0.002 C 
ATOM     12  C   UNL     1     131.732 141.221 138.385  1.00  0.00    -0.026 C 
ATOM     13  C   UNL     1     131.264 139.961 139.151  1.00  0.00     0.008 C 
ATOM     14  C   UNL     1     131.503 138.658 138.378  1.00  0.00     0.008 C 
ATOM     15  C   UNL     1     133.002 138.353 138.011  1.00  0.00    -0.024 C 
ATOM     16  C   UNL     1     133.652 139.628 137.262  1.00  0.00    -0.024 C 
ATOM     17  C   UNL     1     133.322 139.682 135.711  1.00  0.00     0.008 C 
ATOM     18  C   UNL     1     132.733 138.415 135.068  1.00  0.00     0.007 C 
ATOM     19  C   UNL     1     133.373 137.123 135.595  1.00  0.00    -0.029 C 
ATOM     20  C   UNL     1     132.999 137.003 137.115  1.00  0.00     0.002 C 
ATOM     21  C   UNL     1     133.577 135.696 137.732  1.00  0.00     0.011 C 
ATOM     22  C   UNL     1     133.150 134.402 136.958  1.00  0.00    -0.035 C 
ATOM     23  C   UNL     1     133.286 134.566 135.414  1.00  0.00     0.007 C 
ATOM     24  C   UNL     1     132.728 135.900 134.875  1.00  0.00     0.007 C 
ATOM     25  C   UNL     1     131.693 134.009 137.312  1.00  0.00     0.011 C 
ATOM     26  C   UNL     1     134.065 133.244 137.410  1.00  0.00     0.011 C 
ATOM     27  C   UNL     1     134.899 137.104 135.237  1.00  0.00     0.011 C 
ATOM     28  C   UNL     1     135.217 139.538 137.408  1.00  0.00     0.012 C 
ATOM     29  C   UNL     1     133.724 138.085 139.380  1.00  0.00     0.012 C 
ATOM     30  C   UNL     1     130.832 141.382 137.115  1.00  0.00     0.012 C 
ATOM     31  C   UNL     1     134.016 142.907 140.329  1.00  0.00     0.012 C 
ENDROOT
TORSDOF 0
ENDMDL
