MODEL 1
REMARK VINA RESULT:    -4.508      0.000      0.000
REMARK INTER + INTRA:          -9.612
REMARK INTER:                  -8.198
REMARK INTRA:                  -1.414
REMARK UNBOUND:                -1.414
REMARK SMILES CCCCCCCCCCCCCCCC(=O)[O-]
REMARK SMILES IDX 9 1 10 2 11 3 12 4 13 5 14 6 15 7 16 8 17 9 18 10 8 11 7 12
REMARK SMILES IDX 6 13 5 14 4 15 3 16 2 17 1 18
REMARK H PARENT
REMARK Flexibility Score: inf
ROOT
ATOM      1  C   UNL     1     193.076   2.017 100.996  1.00  0.00     0.000 C 
ENDROOT
BRANCH   1   2
ATOM      2  C   UNL     1     192.933   3.088  99.910  1.00  0.00     0.000 C 
BRANCH   2   3
ATOM      3  C   UNL     1     191.739   2.787  98.991  1.00  0.00     0.000 C 
BRANCH   3   4
ATOM      4  C   UNL     1     191.416   3.966  98.047  1.00  0.00     0.000 C 
BRANCH   4   5
ATOM      5  C   UNL     1     189.913   4.144  97.779  1.00  0.00     0.000 C 
BRANCH   5   6
ATOM      6  C   UNL     1     189.456   3.483  96.468  1.00  0.00     0.006 C 
BRANCH   6   7
ATOM      7  C   UNL     1     190.635   3.150  95.544  1.00  0.00     0.053 C 
BRANCH   7   8
ATOM      8  C   UNL     1     190.710   4.091  94.381  1.00  0.00     0.041 C 
ATOM      9  O   UNL     1     189.807   4.088  93.503  1.00  0.00    -0.550 OA
ATOM     10  O   UNL     1     191.761   4.995  94.284  1.00  0.00    -0.550 OA
ENDBRANCH   7   8
ENDBRANCH   6   7
ENDBRANCH   5   6
ENDBRANCH   4   5
ENDBRANCH   3   4
ENDBRANCH   2   3
ENDBRANCH   1   2
BRANCH   1  11
ATOM     11  C   UNL     1     191.817   1.140 101.073  1.00  0.00     0.000 C 
BRANCH  11  12
ATOM     12  C   UNL     1     192.143  -0.348 101.278  1.00  0.00    -0.000 C 
BRANCH  12  13
ATOM     13  C   UNL     1     191.525  -0.917 102.564  1.00  0.00    -0.000 C 
BRANCH  13  14
ATOM     14  C   UNL     1     192.577  -1.035 103.673  1.00  0.00    -0.000 C 
BRANCH  14  15
ATOM     15  C   UNL     1     192.219  -0.143 104.871  1.00  0.00    -0.000 C 
BRANCH  15  16
ATOM     16  C   UNL     1     192.989   1.195 104.854  1.00  0.00    -0.000 C 
BRANCH  16  17
ATOM     17  C   UNL     1     192.107   2.410 104.525  1.00  0.00    -0.003 C 
ATOM     18  C   UNL     1     190.614   2.099 104.586  1.00  0.00     0.004 C 
ENDBRANCH  16  17
ENDBRANCH  15  16
ENDBRANCH  14  15
ENDBRANCH  13  14
ENDBRANCH  12  13
ENDBRANCH  11  12
ENDBRANCH   1  11
TORSDOF 14
ENDMDL
MODEL 2
REMARK VINA RESULT:    -4.460      4.443      8.599
REMARK INTER + INTRA:          -9.524
REMARK INTER:                  -8.243
REMARK INTRA:                  -1.281
REMARK UNBOUND:                -1.414
REMARK SMILES CCCCCCCCCCCCCCCC(=O)[O-]
REMARK SMILES IDX 9 1 10 2 11 3 12 4 13 5 14 6 15 7 16 8 17 9 18 10 8 11 7 12
REMARK SMILES IDX 6 13 5 14 4 15 3 16 2 17 1 18
REMARK H PARENT
REMARK Flexibility Score: inf
ROOT
ATOM      1  C   UNL     1     192.135   4.294  98.612  1.00  0.00     0.000 C 
ENDROOT
BRANCH   1   2
ATOM      2  C   UNL     1     192.903   3.322  99.515  1.00  0.00     0.000 C 
BRANCH   2   3
ATOM      3  C   UNL     1     192.099   2.034  99.750  1.00  0.00     0.000 C 
BRANCH   3   4
ATOM      4  C   UNL     1     192.783   1.096 100.768  1.00  0.00     0.000 C 
BRANCH   4   5
ATOM      5  C   UNL     1     193.146   1.787 102.093  1.00  0.00     0.000 C 
BRANCH   5   6
ATOM      6  C   UNL     1     192.152   1.472 103.224  1.00  0.00     0.006 C 
BRANCH   6   7
ATOM      7  C   UNL     1     192.270   2.460 104.391  1.00  0.00     0.053 C 
BRANCH   7   8
ATOM      8  C   UNL     1     192.731   1.783 105.646  1.00  0.00     0.041 C 
ATOM      9  O   UNL     1     192.914   2.451 106.697  1.00  0.00    -0.550 OA
ATOM     10  O   UNL     1     192.925   0.407 105.662  1.00  0.00    -0.550 OA
ENDBRANCH   7   8
ENDBRANCH   6   7
ENDBRANCH   5   6
ENDBRANCH   4   5
ENDBRANCH   3   4
ENDBRANCH   2   3
ENDBRANCH   1   2
BRANCH   1  11
ATOM     11  C   UNL     1     190.781   3.702  98.195  1.00  0.00     0.000 C 
BRANCH  11  12
ATOM     12  C   UNL     1     189.657   4.752  98.177  1.00  0.00    -0.000 C 
BRANCH  12  13
ATOM     13  C   UNL     1     188.853   4.735  96.869  1.00  0.00    -0.000 C 
BRANCH  13  14
ATOM     14  C   UNL     1     189.317   3.595  95.954  1.00  0.00    -0.000 C 
BRANCH  14  15
ATOM     15  C   UNL     1     189.870   4.141  94.629  1.00  0.00    -0.000 C 
BRANCH  15  16
ATOM     16  C   UNL     1     191.005   3.260  94.063  1.00  0.00    -0.000 C 
BRANCH  16  17
ATOM     17  C   UNL     1     192.179   3.068  95.036  1.00  0.00    -0.003 C 
ATOM     18  C   UNL     1     192.415   1.606  95.408  1.00  0.00     0.004 C 
ENDBRANCH  16  17
ENDBRANCH  15  16
ENDBRANCH  14  15
ENDBRANCH  13  14
ENDBRANCH  12  13
ENDBRANCH  11  12
ENDBRANCH   1  11
TORSDOF 14
ENDMDL
MODEL 3
REMARK VINA RESULT:    -4.443      4.658      8.772
REMARK INTER + INTRA:          -9.493
REMARK INTER:                  -8.219
REMARK INTRA:                  -1.274
REMARK UNBOUND:                -1.414
REMARK SMILES CCCCCCCCCCCCCCCC(=O)[O-]
REMARK SMILES IDX 9 1 10 2 11 3 12 4 13 5 14 6 15 7 16 8 17 9 18 10 8 11 7 12
REMARK SMILES IDX 6 13 5 14 4 15 3 16 2 17 1 18
REMARK H PARENT
REMARK Flexibility Score: inf
ROOT
ATOM      1  C   UNL     1     192.770   2.555  99.796  1.00  0.00     0.000 C 
ENDROOT
BRANCH   1   2
ATOM      2  C   UNL     1     192.374   1.244 100.484  1.00  0.00     0.000 C 
BRANCH   2   3
ATOM      3  C   UNL     1     193.219   1.004 101.744  1.00  0.00     0.000 C 
BRANCH   3   4
ATOM      4  C   UNL     1     193.733   2.321 102.363  1.00  0.00     0.000 C 
BRANCH   4   5
ATOM      5  C   UNL     1     193.164   2.606 103.762  1.00  0.00     0.000 C 
BRANCH   5   6
ATOM      6  C   UNL     1     192.226   1.496 104.265  1.00  0.00     0.006 C 
BRANCH   6   7
ATOM      7  C   UNL     1     192.785   0.780 105.501  1.00  0.00     0.053 C 
BRANCH   7   8
ATOM      8  C   UNL     1     191.773   0.708 106.604  1.00  0.00     0.041 C 
ATOM      9  O   UNL     1     191.542  -0.386 107.183  1.00  0.00    -0.550 OA
ATOM     10  O   UNL     1     191.110   1.857 107.015  1.00  0.00    -0.550 OA
ENDBRANCH   7   8
ENDBRANCH   6   7
ENDBRANCH   5   6
ENDBRANCH   4   5
ENDBRANCH   3   4
ENDBRANCH   2   3
ENDBRANCH   1   2
BRANCH   1  11
ATOM     11  C   UNL     1     191.730   2.959  98.741  1.00  0.00     0.000 C 
BRANCH  11  12
ATOM     12  C   UNL     1     191.544   4.482  98.645  1.00  0.00    -0.000 C 
BRANCH  12  13
ATOM     13  C   UNL     1     190.190   4.876  98.037  1.00  0.00    -0.000 C 
BRANCH  13  14
ATOM     14  C   UNL     1     189.301   3.642  97.833  1.00  0.00    -0.000 C 
BRANCH  14  15
ATOM     15  C   UNL     1     188.735   3.599  96.406  1.00  0.00    -0.000 C 
BRANCH  15  16
ATOM     16  C   UNL     1     189.653   4.314  95.391  1.00  0.00    -0.000 C 
BRANCH  16  17
ATOM     17  C   UNL     1     190.643   3.373  94.686  1.00  0.00    -0.003 C 
ATOM     18  C   UNL     1     192.094   3.614  95.096  1.00  0.00     0.004 C 
ENDBRANCH  16  17
ENDBRANCH  15  16
ENDBRANCH  14  15
ENDBRANCH  13  14
ENDBRANCH  12  13
ENDBRANCH  11  12
ENDBRANCH   1  11
TORSDOF 14
ENDMDL
MODEL 4
REMARK VINA RESULT:    -4.399      1.435      2.814
REMARK INTER + INTRA:          -9.414
REMARK INTER:                  -8.203
REMARK INTRA:                  -1.211
REMARK UNBOUND:                -1.414
REMARK SMILES CCCCCCCCCCCCCCCC(=O)[O-]
REMARK SMILES IDX 9 1 10 2 11 3 12 4 13 5 14 6 15 7 16 8 17 9 18 10 8 11 7 12
REMARK SMILES IDX 6 13 5 14 4 15 3 16 2 17 1 18
REMARK H PARENT
REMARK Flexibility Score: inf
ROOT
ATOM      1  C   UNL     1     191.495   3.982  98.612  1.00  0.00     0.000 C 
ENDROOT
BRANCH   1   2
ATOM      2  C   UNL     1     190.054   3.873  98.101  1.00  0.00     0.000 C 
BRANCH   2   3
ATOM      3  C   UNL     1     189.594   5.190  97.458  1.00  0.00     0.000 C 
BRANCH   3   4
ATOM      4  C   UNL     1     188.494   4.970  96.398  1.00  0.00     0.000 C 
BRANCH   4   5
ATOM      5  C   UNL     1     188.811   3.836  95.409  1.00  0.00     0.000 C 
BRANCH   5   6
ATOM      6  C   UNL     1     189.803   4.257  94.313  1.00  0.00     0.006 C 
BRANCH   6   7
ATOM      7  C   UNL     1     190.802   3.143  93.975  1.00  0.00     0.053 C 
BRANCH   7   8
ATOM      8  C   UNL     1     191.920   3.082  94.971  1.00  0.00     0.041 C 
ATOM      9  O   UNL     1     192.552   4.126  95.281  1.00  0.00    -0.550 OA
ATOM     10  O   UNL     1     192.241   1.877  95.583  1.00  0.00    -0.550 OA
ENDBRANCH   7   8
ENDBRANCH   6   7
ENDBRANCH   5   6
ENDBRANCH   4   5
ENDBRANCH   3   4
ENDBRANCH   2   3
ENDBRANCH   1   2
BRANCH   1  11
ATOM     11  C   UNL     1     192.020   2.615  99.073  1.00  0.00     0.000 C 
BRANCH  11  12
ATOM     12  C   UNL     1     193.132   2.733 100.128  1.00  0.00    -0.000 C 
BRANCH  12  13
ATOM     13  C   UNL     1     193.066   1.619 101.184  1.00  0.00    -0.000 C 
BRANCH  13  14
ATOM     14  C   UNL     1     191.637   1.083 101.327  1.00  0.00    -0.000 C 
BRANCH  14  15
ATOM     15  C   UNL     1     191.381   0.566 102.751  1.00  0.00    -0.000 C 
BRANCH  15  16
ATOM     16  C   UNL     1     191.665   1.640 103.822  1.00  0.00    -0.000 C 
BRANCH  16  17
ATOM     17  C   UNL     1     190.397   2.188 104.497  1.00  0.00    -0.003 C 
ATOM     18  C   UNL     1     190.283   1.794 105.968  1.00  0.00     0.004 C 
ENDBRANCH  16  17
ENDBRANCH  15  16
ENDBRANCH  14  15
ENDBRANCH  13  14
ENDBRANCH  12  13
ENDBRANCH  11  12
ENDBRANCH   1  11
TORSDOF 14
ENDMDL
MODEL 5
REMARK VINA RESULT:    -4.386      1.714      2.403
REMARK INTER + INTRA:          -9.389
REMARK INTER:                  -8.230
REMARK INTRA:                  -1.160
REMARK UNBOUND:                -1.414
REMARK SMILES CCCCCCCCCCCCCCCC(=O)[O-]
REMARK SMILES IDX 9 1 10 2 11 3 12 4 13 5 14 6 15 7 16 8 17 9 18 10 8 11 7 12
REMARK SMILES IDX 6 13 5 14 4 15 3 16 2 17 1 18
REMARK H PARENT
REMARK Flexibility Score: inf
ROOT
ATOM      1  C   UNL     1     192.006   0.890 101.347  1.00  0.00     0.000 C 
ENDROOT
BRANCH   1   2
ATOM      2  C   UNL     1     191.482   1.936 100.356  1.00  0.00     0.000 C 
BRANCH   2   3
ATOM      3  C   UNL     1     192.335   1.962  99.078  1.00  0.00     0.000 C 
BRANCH   3   4
ATOM      4  C   UNL     1     191.659   2.758  97.941  1.00  0.00     0.000 C 
BRANCH   4   5
ATOM      5  C   UNL     1     191.467   4.249  98.265  1.00  0.00     0.000 C 
BRANCH   5   6
ATOM      6  C   UNL     1     189.997   4.694  98.184  1.00  0.00     0.006 C 
BRANCH   6   7
ATOM      7  C   UNL     1     189.605   5.146  96.771  1.00  0.00     0.053 C 
BRANCH   7   8
ATOM      8  C   UNL     1     188.716   4.146  96.097  1.00  0.00     0.041 C 
ATOM      9  O   UNL     1     188.260   3.165  96.742  1.00  0.00    -0.550 OA
ATOM     10  O   UNL     1     188.362   4.316  94.765  1.00  0.00    -0.550 OA
ENDBRANCH   7   8
ENDBRANCH   6   7
ENDBRANCH   5   6
ENDBRANCH   4   5
ENDBRANCH   3   4
ENDBRANCH   2   3
ENDBRANCH   1   2
BRANCH   1  11
ATOM     11  C   UNL     1     193.477   1.155 101.699  1.00  0.00     0.000 C 
BRANCH  11  12
ATOM     12  C   UNL     1     193.684   2.508 102.400  1.00  0.00    -0.000 C 
BRANCH  12  13
ATOM     13  C   UNL     1     193.462   2.429 103.917  1.00  0.00    -0.000 C 
BRANCH  13  14
ATOM     14  C   UNL     1     193.831   1.040 104.454  1.00  0.00    -0.000 C 
BRANCH  14  15
ATOM     15  C   UNL     1     192.893   0.622 105.595  1.00  0.00    -0.000 C 
BRANCH  15  16
ATOM     16  C   UNL     1     192.036   1.798 106.109  1.00  0.00    -0.000 C 
BRANCH  16  17
ATOM     17  C   UNL     1     190.525   1.590 105.919  1.00  0.00    -0.003 C 
ATOM     18  C   UNL     1     189.931   2.476 104.827  1.00  0.00     0.004 C 
ENDBRANCH  16  17
ENDBRANCH  15  16
ENDBRANCH  14  15
ENDBRANCH  13  14
ENDBRANCH  12  13
ENDBRANCH  11  12
ENDBRANCH   1  11
TORSDOF 14
ENDMDL
MODEL 6
REMARK VINA RESULT:    -4.336      3.799      8.596
REMARK INTER + INTRA:          -9.300
REMARK INTER:                  -8.099
REMARK INTRA:                  -1.201
REMARK UNBOUND:                -1.414
REMARK SMILES CCCCCCCCCCCCCCCC(=O)[O-]
REMARK SMILES IDX 9 1 10 2 11 3 12 4 13 5 14 6 15 7 16 8 17 9 18 10 8 11 7 12
REMARK SMILES IDX 6 13 5 14 4 15 3 16 2 17 1 18
REMARK H PARENT
REMARK Flexibility Score: inf
ROOT
ATOM      1  C   UNL     1     192.024   2.588  99.083  1.00  0.00     0.000 C 
ENDROOT
BRANCH   1   2
ATOM      2  C   UNL     1     193.132   2.894 100.098  1.00  0.00     0.000 C 
BRANCH   2   3
ATOM      3  C   UNL     1     193.065   1.933 101.295  1.00  0.00     0.000 C 
BRANCH   3   4
ATOM      4  C   UNL     1     193.653   2.558 102.579  1.00  0.00     0.000 C 
BRANCH   4   5
ATOM      5  C   UNL     1     192.794   2.313 103.830  1.00  0.00     0.000 C 
BRANCH   5   6
ATOM      6  C   UNL     1     193.479   1.397 104.857  1.00  0.00     0.006 C 
BRANCH   6   7
ATOM      7  C   UNL     1     192.710   0.087 105.070  1.00  0.00     0.053 C 
BRANCH   7   8
ATOM      8  C   UNL     1     192.746  -0.780 103.849  1.00  0.00     0.041 C 
ATOM      9  O   UNL     1     193.816  -1.344 103.501  1.00  0.00    -0.550 OA
ATOM     10  O   UNL     1     191.586  -0.993 103.114  1.00  0.00    -0.550 OA
ENDBRANCH   7   8
ENDBRANCH   6   7
ENDBRANCH   5   6
ENDBRANCH   4   5
ENDBRANCH   3   4
ENDBRANCH   2   3
ENDBRANCH   1   2
BRANCH   1  11
ATOM     11  C   UNL     1     191.583   3.863  98.350  1.00  0.00     0.000 C 
BRANCH  11  12
ATOM     12  C   UNL     1     190.058   3.947  98.173  1.00  0.00    -0.000 C 
BRANCH  12  13
ATOM     13  C   UNL     1     189.579   5.368  97.840  1.00  0.00    -0.000 C 
BRANCH  13  14
ATOM     14  C   UNL     1     188.565   5.349  96.689  1.00  0.00    -0.000 C 
BRANCH  14  15
ATOM     15  C   UNL     1     188.621   4.017  95.926  1.00  0.00    -0.000 C 
BRANCH  15  16
ATOM     16  C   UNL     1     189.260   4.169  94.529  1.00  0.00    -0.000 C 
BRANCH  16  17
ATOM     17  C   UNL     1     190.654   3.532  94.417  1.00  0.00    -0.003 C 
ATOM     18  C   UNL     1     191.788   4.520  94.678  1.00  0.00     0.004 C 
ENDBRANCH  16  17
ENDBRANCH  15  16
ENDBRANCH  14  15
ENDBRANCH  13  14
ENDBRANCH  12  13
ENDBRANCH  11  12
ENDBRANCH   1  11
TORSDOF 14
ENDMDL
MODEL 7
REMARK VINA RESULT:    -4.328      1.495      1.926
REMARK INTER + INTRA:          -9.284
REMARK INTER:                  -8.035
REMARK INTRA:                  -1.249
REMARK UNBOUND:                -1.414
REMARK SMILES CCCCCCCCCCCCCCCC(=O)[O-]
REMARK SMILES IDX 9 1 10 2 11 3 12 4 13 5 14 6 15 7 16 8 17 9 18 10 8 11 7 12
REMARK SMILES IDX 6 13 5 14 4 15 3 16 2 17 1 18
REMARK H PARENT
REMARK Flexibility Score: inf
ROOT
ATOM      1  C   UNL     1     192.030   1.627 100.175  1.00  0.00     0.000 C 
ENDROOT
BRANCH   1   2
ATOM      2  C   UNL     1     192.983   2.815  99.996  1.00  0.00     0.000 C 
BRANCH   2   3
ATOM      3  C   UNL     1     192.430   3.817  98.971  1.00  0.00     0.000 C 
BRANCH   3   4
ATOM      4  C   UNL     1     191.376   3.180  98.041  1.00  0.00     0.000 C 
BRANCH   4   5
ATOM      5  C   UNL     1     190.722   4.182  97.075  1.00  0.00     0.000 C 
BRANCH   5   6
ATOM      6  C   UNL     1     189.656   5.059  97.753  1.00  0.00     0.006 C 
BRANCH   6   7
ATOM      7  C   UNL     1     188.565   5.508  96.773  1.00  0.00     0.053 C 
BRANCH   7   8
ATOM      8  C   UNL     1     187.985   4.349  96.022  1.00  0.00     0.041 C 
ATOM      9  O   UNL     1     188.033   4.319  94.764  1.00  0.00    -0.550 OA
ATOM     10  O   UNL     1     187.421   3.284  96.713  1.00  0.00    -0.550 OA
ENDBRANCH   7   8
ENDBRANCH   6   7
ENDBRANCH   5   6
ENDBRANCH   4   5
ENDBRANCH   3   4
ENDBRANCH   2   3
ENDBRANCH   1   2
BRANCH   1  11
ATOM     11  C   UNL     1     192.630   0.580 101.124  1.00  0.00     0.000 C 
BRANCH  11  12
ATOM     12  C   UNL     1     191.603  -0.476 101.566  1.00  0.00    -0.000 C 
BRANCH  12  13
ATOM     13  C   UNL     1     191.874  -1.011 102.980  1.00  0.00    -0.000 C 
BRANCH  13  14
ATOM     14  C   UNL     1     193.121  -0.354 103.584  1.00  0.00    -0.000 C 
BRANCH  14  15
ATOM     15  C   UNL     1     192.884   0.036 105.051  1.00  0.00    -0.000 C 
BRANCH  15  16
ATOM     16  C   UNL     1     192.969   1.561 105.271  1.00  0.00    -0.000 C 
BRANCH  16  17
ATOM     17  C   UNL     1     192.033   2.369 104.357  1.00  0.00    -0.003 C 
ATOM     18  C   UNL     1     190.555   2.124 104.647  1.00  0.00     0.004 C 
ENDBRANCH  16  17
ENDBRANCH  15  16
ENDBRANCH  14  15
ENDBRANCH  13  14
ENDBRANCH  12  13
ENDBRANCH  11  12
ENDBRANCH   1  11
TORSDOF 14
ENDMDL
MODEL 8
REMARK VINA RESULT:    -4.326      1.385      2.036
REMARK INTER + INTRA:          -9.282
REMARK INTER:                  -8.298
REMARK INTRA:                  -0.983
REMARK UNBOUND:                -1.414
REMARK SMILES CCCCCCCCCCCCCCCC(=O)[O-]
REMARK SMILES IDX 9 1 10 2 11 3 12 4 13 5 14 6 15 7 16 8 17 9 18 10 8 11 7 12
REMARK SMILES IDX 6 13 5 14 4 15 3 16 2 17 1 18
REMARK H PARENT
REMARK Flexibility Score: inf
ROOT
ATOM      1  C   UNL     1     192.739   2.242  99.814  1.00  0.00     0.000 C 
ENDROOT
BRANCH   1   2
ATOM      2  C   UNL     1     191.831   2.729  98.679  1.00  0.00     0.000 C 
BRANCH   2   3
ATOM      3  C   UNL     1     191.855   4.261  98.571  1.00  0.00     0.000 C 
BRANCH   3   4
ATOM      4  C   UNL     1     190.481   4.840  98.171  1.00  0.00     0.000 C 
BRANCH   4   5
ATOM      5  C   UNL     1     189.368   3.782  98.092  1.00  0.00     0.000 C 
BRANCH   5   6
ATOM      6  C   UNL     1     188.923   3.488  96.650  1.00  0.00     0.006 C 
BRANCH   6   7
ATOM      7  C   UNL     1     189.639   4.381  95.628  1.00  0.00     0.053 C 
BRANCH   7   8
ATOM      8  C   UNL     1     190.501   3.580  94.702  1.00  0.00     0.041 C 
ATOM      9  O   UNL     1     191.346   2.767  95.163  1.00  0.00    -0.550 OA
ATOM     10  O   UNL     1     190.348   3.705  93.327  1.00  0.00    -0.550 OA
ENDBRANCH   7   8
ENDBRANCH   6   7
ENDBRANCH   5   6
ENDBRANCH   4   5
ENDBRANCH   3   4
ENDBRANCH   2   3
ENDBRANCH   1   2
BRANCH   1  11
ATOM     11  C   UNL     1     191.961   1.354 100.797  1.00  0.00     0.000 C 
BRANCH  11  12
ATOM     12  C   UNL     1     192.560   1.371 102.213  1.00  0.00    -0.000 C 
BRANCH  12  13
ATOM     13  C   UNL     1     191.998   0.255 103.106  1.00  0.00    -0.000 C 
BRANCH  13  14
ATOM     14  C   UNL     1     191.587   0.806 104.477  1.00  0.00    -0.000 C 
BRANCH  14  15
ATOM     15  C   UNL     1     190.887   2.166 104.339  1.00  0.00    -0.000 C 
BRANCH  15  16
ATOM     16  C   UNL     1     189.851   2.407 105.457  1.00  0.00    -0.000 C 
BRANCH  16  17
ATOM     17  C   UNL     1     189.993   1.445 106.647  1.00  0.00    -0.003 C 
ATOM     18  C   UNL     1     190.574   2.113 107.891  1.00  0.00     0.004 C 
ENDBRANCH  16  17
ENDBRANCH  15  16
ENDBRANCH  14  15
ENDBRANCH  13  14
ENDBRANCH  12  13
ENDBRANCH  11  12
ENDBRANCH   1  11
TORSDOF 14
ENDMDL
MODEL 9
REMARK VINA RESULT:    -4.209      3.848      8.228
REMARK INTER + INTRA:          -9.067
REMARK INTER:                  -7.700
REMARK INTRA:                  -1.367
REMARK UNBOUND:                -1.414
REMARK SMILES CCCCCCCCCCCCCCCC(=O)[O-]
REMARK SMILES IDX 9 1 10 2 11 3 12 4 13 5 14 6 15 7 16 8 17 9 18 10 8 11 7 12
REMARK SMILES IDX 6 13 5 14 4 15 3 16 2 17 1 18
REMARK H PARENT
REMARK Flexibility Score: inf
ROOT
ATOM      1  C   UNL     1     193.136   2.386 101.197  1.00  0.00     0.000 C 
ENDROOT
BRANCH   1   2
ATOM      2  C   UNL     1     193.877   1.415 102.123  1.00  0.00     0.000 C 
BRANCH   2   3
ATOM      3  C   UNL     1     193.706  -0.038 101.651  1.00  0.00     0.000 C 
BRANCH   3   4
ATOM      4  C   UNL     1     193.250  -0.972 102.791  1.00  0.00     0.000 C 
BRANCH   4   5
ATOM      5  C   UNL     1     193.639  -0.469 104.191  1.00  0.00     0.000 C 
BRANCH   5   6
ATOM      6  C   UNL     1     192.482  -0.552 105.200  1.00  0.00     0.006 C 
BRANCH   6   7
ATOM      7  C   UNL     1     192.443   0.660 106.140  1.00  0.00     0.053 C 
BRANCH   7   8
ATOM      8  C   UNL     1     192.512   1.950 105.382  1.00  0.00     0.041 C 
ATOM      9  O   UNL     1     191.549   2.313 104.657  1.00  0.00    -0.550 OA
ATOM     10  O   UNL     1     193.628   2.769 105.505  1.00  0.00    -0.550 OA
ENDBRANCH   7   8
ENDBRANCH   6   7
ENDBRANCH   5   6
ENDBRANCH   4   5
ENDBRANCH   3   4
ENDBRANCH   2   3
ENDBRANCH   1   2
BRANCH   1  11
ATOM     11  C   UNL     1     192.177   1.632 100.264  1.00  0.00     0.000 C 
BRANCH  11  12
ATOM     12  C   UNL     1     191.993   2.335  98.909  1.00  0.00    -0.000 C 
BRANCH  12  13
ATOM     13  C   UNL     1     192.211   3.853  98.996  1.00  0.00    -0.000 C 
BRANCH  13  14
ATOM     14  C   UNL     1     191.102   4.610  98.255  1.00  0.00    -0.000 C 
BRANCH  14  15
ATOM     15  C   UNL     1     189.908   3.690  97.960  1.00  0.00    -0.000 C 
BRANCH  15  16
ATOM     16  C   UNL     1     189.617   3.578  96.448  1.00  0.00    -0.000 C 
BRANCH  16  17
ATOM     17  C   UNL     1     190.778   4.052  95.560  1.00  0.00    -0.003 C 
ATOM     18  C   UNL     1     191.610   2.902  94.997  1.00  0.00     0.004 C 
ENDBRANCH  16  17
ENDBRANCH  15  16
ENDBRANCH  14  15
ENDBRANCH  13  14
ENDBRANCH  12  13
ENDBRANCH  11  12
ENDBRANCH   1  11
TORSDOF 14
ENDMDL
