MODEL 1
REMARK VINA RESULT:    13.837      0.000      0.000
REMARK INTER + INTRA:          14.401
REMARK INTER:                  14.646
REMARK INTRA:                  -0.245
REMARK UNBOUND:                -0.245
REMARK SMILES CC1=C[C@@H]2C(=C(C)CC[C@H]2C(C)C)CC1
REMARK SMILES IDX 1 1 2 2 3 3 4 4 10 5 9 6 8 7 6 8 5 9 14 10 15 11 7 12 11 13
REMARK SMILES IDX 12 14 13 15
REMARK H PARENT
REMARK Flexibility Score: inf
ROOT
ATOM      1  C   UNL     1      -3.304   6.024 -12.656  1.00  0.00     0.039 C 
ATOM      2  C   UNL     1      -1.962   5.949 -11.980  1.00  0.00    -0.076 C 
ATOM      3  C   UNL     1      -1.819   6.402 -10.723  1.00  0.00    -0.020 C 
ATOM      4  C   UNL     1      -0.489   6.324  -9.990  1.00  0.00     0.041 C 
ATOM      5  C   UNL     1      -0.725   6.386  -8.437  1.00  0.00     0.003 C 
ATOM      6  C   UNL     1       0.346   5.618  -7.604  1.00  0.00     0.009 C 
ATOM      7  C   UNL     1       1.647   5.421  -8.375  1.00  0.00     0.031 C 
ATOM      8  C   UNL     1       1.354   4.676  -9.653  1.00  0.00    -0.073 C 
ATOM      9  C   UNL     1       0.322   5.099 -10.428  1.00  0.00    -0.064 C 
ATOM     10  C   UNL     1      -0.004   4.417 -11.751  1.00  0.00     0.036 C 
ATOM     11  C   UNL     1      -0.776   5.349 -12.688  1.00  0.00     0.035 C 
ATOM     12  C   UNL     1       2.177   3.458 -10.003  1.00  0.00     0.039 C 
ENDROOT
BRANCH   5  13
ATOM     13  C   UNL     1      -0.951   7.857  -7.950  1.00  0.00    -0.013 C 
ATOM     14  C   UNL     1      -2.285   8.010  -7.203  1.00  0.00     0.007 C 
ATOM     15  C   UNL     1       0.203   8.416  -7.096  1.00  0.00     0.007 C 
ENDBRANCH   5  13
TORSDOF 1
ENDMDL
MODEL 2
REMARK VINA RESULT:    16.814      1.100      4.224
REMARK INTER + INTRA:          17.552
REMARK INTER:                  17.793
REMARK INTRA:                  -0.241
REMARK UNBOUND:                -0.245
REMARK SMILES CC1=C[C@@H]2C(=C(C)CC[C@H]2C(C)C)CC1
REMARK SMILES IDX 1 1 2 2 3 3 4 4 10 5 9 6 8 7 6 8 5 9 14 10 15 11 7 12 11 13
REMARK SMILES IDX 12 14 13 15
REMARK H PARENT
REMARK Flexibility Score: inf
ROOT
ATOM      1  C   UNL     1      -2.233   8.641  -7.030  1.00  0.00     0.039 C 
ATOM      2  C   UNL     1      -1.531   7.460  -7.642  1.00  0.00    -0.076 C 
ATOM      3  C   UNL     1      -1.768   7.130  -8.923  1.00  0.00    -0.020 C 
ATOM      4  C   UNL     1      -1.062   5.960  -9.592  1.00  0.00     0.041 C 
ATOM      5  C   UNL     1      -1.084   6.141 -11.154  1.00  0.00     0.003 C 
ATOM      6  C   UNL     1       0.138   5.502 -11.881  1.00  0.00     0.009 C 
ATOM      7  C   UNL     1       0.808   4.417 -11.044  1.00  0.00     0.031 C 
ATOM      8  C   UNL     1       1.241   5.008  -9.726  1.00  0.00    -0.073 C 
ATOM      9  C   UNL     1       0.350   5.760  -9.030  1.00  0.00    -0.064 C 
ATOM     10  C   UNL     1       0.707   6.354  -7.673  1.00  0.00     0.036 C 
ATOM     11  C   UNL     1      -0.543   6.652  -6.842  1.00  0.00     0.035 C 
ATOM     12  C   UNL     1       2.659   4.793  -9.250  1.00  0.00     0.039 C 
ENDROOT
BRANCH   5  13
ATOM     13  C   UNL     1      -2.461   5.707 -11.761  1.00  0.00    -0.013 C 
ATOM     14  C   UNL     1      -3.090   6.828 -12.602  1.00  0.00     0.007 C 
ATOM     15  C   UNL     1      -2.401   4.401 -12.578  1.00  0.00     0.007 C 
ENDBRANCH   5  13
TORSDOF 1
ENDMDL
