MODEL 1
REMARK VINA RESULT:    -7.371      0.000      0.000
REMARK INTER + INTRA:          -8.023
REMARK INTER:                  -7.802
REMARK INTRA:                  -0.221
REMARK UNBOUND:                -0.221
REMARK SMILES O=c1cc(-c2ccccc2)oc2ccccc12
REMARK SMILES IDX 4 1 3 2 2 3 1 4 17 5 16 6 15 7 14 8 13 9 12 10 11 11 5 12
REMARK SMILES IDX 8 13 7 14 9 15 6 16 10 17
REMARK H PARENT
REMARK Flexibility Score: inf
ROOT
ATOM      1  C   UNL     1     -24.272 -51.504 103.401  1.00  0.00     0.138 A 
ATOM      2  C   UNL     1     -23.959 -52.114 102.168  1.00  0.00     0.100 A 
ATOM      3  C   UNL     1     -24.674 -53.239 101.754  1.00  0.00     0.193 A 
ATOM      4  O   UNL     1     -24.393 -53.784 100.652  1.00  0.00    -0.289 OA
ATOM      5  C   UNL     1     -25.694 -53.748 102.571  1.00  0.00     0.065 A 
ATOM      6  C   UNL     1     -26.452 -54.877 102.214  1.00  0.00     0.016 A 
ATOM      7  C   UNL     1     -27.458 -55.342 103.066  1.00  0.00     0.001 A 
ATOM      8  C   UNL     1     -27.715 -54.688 104.275  1.00  0.00     0.004 A 
ATOM      9  C   UNL     1     -26.967 -53.565 104.637  1.00  0.00     0.048 A 
ATOM     10  C   UNL     1     -25.957 -53.091 103.792  1.00  0.00     0.138 A 
ATOM     11  O   UNL     1     -25.250 -52.022 104.145  1.00  0.00    -0.456 OA
ENDROOT
BRANCH   1  12
ATOM     12  C   UNL     1     -23.556 -50.297 103.918  1.00  0.00     0.017 A 
ATOM     13  C   UNL     1     -22.262 -47.964 104.839  1.00  0.00     0.000 A 
ATOM     14  C   UNL     1     -23.302 -47.868 103.915  1.00  0.00     0.001 A 
ATOM     15  C   UNL     1     -21.863 -49.215 105.308  1.00  0.00     0.001 A 
ATOM     16  C   UNL     1     -23.944 -49.021 103.457  1.00  0.00     0.012 A 
ATOM     17  C   UNL     1     -22.501 -50.374 104.855  1.00  0.00     0.012 A 
ENDBRANCH   1  12
TORSDOF 1
ENDMDL
MODEL 2
REMARK VINA RESULT:    -6.761      1.669      6.105
REMARK INTER + INTRA:          -7.377
REMARK INTER:                  -7.136
REMARK INTRA:                  -0.242
REMARK UNBOUND:                -0.221
REMARK SMILES O=c1cc(-c2ccccc2)oc2ccccc12
REMARK SMILES IDX 4 1 3 2 2 3 1 4 17 5 16 6 15 7 14 8 13 9 12 10 11 11 5 12
REMARK SMILES IDX 8 13 7 14 9 15 6 16 10 17
REMARK H PARENT
REMARK Flexibility Score: inf
ROOT
ATOM      1  C   UNL     1     -23.991 -51.213 103.510  1.00  0.00     0.138 A 
ATOM      2  C   UNL     1     -23.820 -50.228 102.516  1.00  0.00     0.100 A 
ATOM      3  C   UNL     1     -22.934 -49.172 102.737  1.00  0.00     0.193 A 
ATOM      4  O   UNL     1     -22.782 -48.290 101.848  1.00  0.00    -0.289 OA
ATOM      5  C   UNL     1     -22.225 -49.107 103.945  1.00  0.00     0.065 A 
ATOM      6  C   UNL     1     -21.317 -48.072 104.232  1.00  0.00     0.016 A 
ATOM      7  C   UNL     1     -20.637 -48.056 105.453  1.00  0.00     0.001 A 
ATOM      8  C   UNL     1     -20.855 -49.067 106.394  1.00  0.00     0.004 A 
ATOM      9  C   UNL     1     -21.755 -50.099 106.117  1.00  0.00     0.048 A 
ATOM     10  C   UNL     1     -22.441 -50.126 104.898  1.00  0.00     0.138 A 
ATOM     11  O   UNL     1     -23.296 -51.112 104.644  1.00  0.00    -0.456 OA
ENDROOT
BRANCH   1  12
ATOM     12  C   UNL     1     -24.919 -52.376 103.354  1.00  0.00     0.017 A 
ATOM     13  C   UNL     1     -26.633 -54.586 102.973  1.00  0.00     0.000 A 
ATOM     14  C   UNL     1     -25.721 -54.229 101.980  1.00  0.00     0.001 A 
ATOM     15  C   UNL     1     -26.696 -53.849 104.155  1.00  0.00     0.001 A 
ATOM     16  C   UNL     1     -24.872 -53.136 102.166  1.00  0.00     0.012 A 
ATOM     17  C   UNL     1     -25.849 -52.753 104.349  1.00  0.00     0.012 A 
ENDBRANCH   1  12
TORSDOF 1
ENDMDL
MODEL 3
REMARK VINA RESULT:    -6.674      2.154      6.814
REMARK INTER + INTRA:          -7.285
REMARK INTER:                  -7.019
REMARK INTRA:                  -0.266
REMARK UNBOUND:                -0.221
REMARK SMILES O=c1cc(-c2ccccc2)oc2ccccc12
REMARK SMILES IDX 4 1 3 2 2 3 1 4 17 5 16 6 15 7 14 8 13 9 12 10 11 11 5 12
REMARK SMILES IDX 8 13 7 14 9 15 6 16 10 17
REMARK H PARENT
REMARK Flexibility Score: inf
ROOT
ATOM      1  C   UNL     1     -23.779 -50.105 103.201  1.00  0.00     0.138 A 
ATOM      2  C   UNL     1     -23.875 -49.592 104.512  1.00  0.00     0.100 A 
ATOM      3  C   UNL     1     -23.310 -48.351 104.809  1.00  0.00     0.193 A 
ATOM      4  O   UNL     1     -23.394 -47.893 105.981  1.00  0.00    -0.289 OA
ATOM      5  C   UNL     1     -22.655 -47.631 103.799  1.00  0.00     0.065 A 
ATOM      6  C   UNL     1     -22.065 -46.375 104.031  1.00  0.00     0.016 A 
ATOM      7  C   UNL     1     -21.424 -45.701 102.987  1.00  0.00     0.001 A 
ATOM      8  C   UNL     1     -21.367 -46.268 101.711  1.00  0.00     0.004 A 
ATOM      9  C   UNL     1     -21.951 -47.515 101.473  1.00  0.00     0.048 A 
ATOM     10  C   UNL     1     -22.595 -48.200 102.509  1.00  0.00     0.138 A 
ATOM     11  O   UNL     1     -23.148 -49.386 102.272  1.00  0.00    -0.456 OA
ENDROOT
BRANCH   1  12
ATOM     12  C   UNL     1     -24.356 -51.425 102.798  1.00  0.00     0.017 A 
ATOM     13  C   UNL     1     -25.481 -53.926 102.128  1.00  0.00     0.000 A 
ATOM     14  C   UNL     1     -25.639 -53.410 103.414  1.00  0.00     0.001 A 
ATOM     15  C   UNL     1     -24.766 -53.202 101.173  1.00  0.00     0.001 A 
ATOM     16  C   UNL     1     -25.083 -52.173 103.748  1.00  0.00     0.012 A 
ATOM     17  C   UNL     1     -24.207 -51.963 101.500  1.00  0.00     0.012 A 
ENDBRANCH   1  12
TORSDOF 1
ENDMDL
MODEL 4
REMARK VINA RESULT:    -6.345      3.783      7.858
REMARK INTER + INTRA:          -6.937
REMARK INTER:                  -6.671
REMARK INTRA:                  -0.266
REMARK UNBOUND:                -0.221
REMARK SMILES O=c1cc(-c2ccccc2)oc2ccccc12
REMARK SMILES IDX 4 1 3 2 2 3 1 4 17 5 16 6 15 7 14 8 13 9 12 10 11 11 5 12
REMARK SMILES IDX 8 13 7 14 9 15 6 16 10 17
REMARK H PARENT
REMARK Flexibility Score: inf
ROOT
ATOM      1  C   UNL     1     -22.605 -48.261 102.552  1.00  0.00     0.138 A 
ATOM      2  C   UNL     1     -22.308 -47.455 103.670  1.00  0.00     0.100 A 
ATOM      3  C   UNL     1     -21.617 -46.256 103.490  1.00  0.00     0.193 A 
ATOM      4  O   UNL     1     -21.350 -45.536 104.491  1.00  0.00    -0.289 OA
ATOM      5  C   UNL     1     -21.229 -45.869 102.200  1.00  0.00     0.065 A 
ATOM      6  C   UNL     1     -20.531 -44.673 101.949  1.00  0.00     0.016 A 
ATOM      7  C   UNL     1     -20.168 -44.336 100.642  1.00  0.00     0.001 A 
ATOM      8  C   UNL     1     -20.497 -45.183  99.579  1.00  0.00     0.004 A 
ATOM      9  C   UNL     1     -21.190 -46.372  99.819  1.00  0.00     0.048 A 
ATOM     10  C   UNL     1     -21.558 -46.720 101.124  1.00  0.00     0.138 A 
ATOM     11  O   UNL     1     -22.218 -47.854 101.342  1.00  0.00    -0.456 OA
ENDROOT
BRANCH   1  12
ATOM     12  C   UNL     1     -23.341 -49.560 102.655  1.00  0.00     0.017 A 
ATOM     13  C   UNL     1     -24.726 -52.002 102.947  1.00  0.00     0.000 A 
ATOM     14  C   UNL     1     -24.336 -51.280 104.075  1.00  0.00     0.001 A 
ATOM     15  C   UNL     1     -24.432 -51.513 101.675  1.00  0.00     0.001 A 
ATOM     16  C   UNL     1     -23.650 -50.072 103.933  1.00  0.00     0.012 A 
ATOM     17  C   UNL     1     -23.746 -50.304 101.524  1.00  0.00     0.012 A 
ENDBRANCH   1  12
TORSDOF 1
ENDMDL
MODEL 5
REMARK VINA RESULT:    -6.223      3.471      5.576
REMARK INTER + INTRA:          -6.808
REMARK INTER:                  -6.542
REMARK INTRA:                  -0.266
REMARK UNBOUND:                -0.221
REMARK SMILES O=c1cc(-c2ccccc2)oc2ccccc12
REMARK SMILES IDX 4 1 3 2 2 3 1 4 17 5 16 6 15 7 14 8 13 9 12 10 11 11 5 12
REMARK SMILES IDX 8 13 7 14 9 15 6 16 10 17
REMARK H PARENT
REMARK Flexibility Score: inf
ROOT
ATOM      1  C   UNL     1     -22.191 -47.320 102.387  1.00  0.00     0.138 A 
ATOM      2  C   UNL     1     -22.432 -47.242 103.774  1.00  0.00     0.100 A 
ATOM      3  C   UNL     1     -23.106 -48.282 104.416  1.00  0.00     0.193 A 
ATOM      4  O   UNL     1     -23.322 -48.212 105.657  1.00  0.00    -0.289 OA
ATOM      5  C   UNL     1     -23.533 -49.391 103.672  1.00  0.00     0.065 A 
ATOM      6  C   UNL     1     -24.217 -50.473 104.256  1.00  0.00     0.016 A 
ATOM      7  C   UNL     1     -24.621 -51.554 103.467  1.00  0.00     0.001 A 
ATOM      8  C   UNL     1     -24.348 -51.566 102.096  1.00  0.00     0.004 A 
ATOM      9  C   UNL     1     -23.669 -50.495 101.508  1.00  0.00     0.048 A 
ATOM     10  C   UNL     1     -23.260 -49.408 102.288  1.00  0.00     0.138 A 
ATOM     11  O   UNL     1     -22.615 -48.394 101.718  1.00  0.00    -0.456 OA
ENDROOT
BRANCH   1  12
ATOM     12  C   UNL     1     -21.477 -46.251 101.622  1.00  0.00     0.017 A 
ATOM     13  C   UNL     1     -20.135 -44.289 100.100  1.00  0.00     0.000 A 
ATOM     14  C   UNL     1     -20.536 -45.483  99.503  1.00  0.00     0.001 A 
ATOM     15  C   UNL     1     -20.399 -44.065 101.451  1.00  0.00     0.001 A 
ATOM     16  C   UNL     1     -21.200 -46.456 100.254  1.00  0.00     0.012 A 
ATOM     17  C   UNL     1     -21.064 -45.034 102.210  1.00  0.00     0.012 A 
ENDBRANCH   1  12
TORSDOF 1
ENDMDL
MODEL 6
REMARK VINA RESULT:    -6.216      5.781      7.544
REMARK INTER + INTRA:          -6.800
REMARK INTER:                  -6.552
REMARK INTRA:                  -0.249
REMARK UNBOUND:                -0.221
REMARK SMILES O=c1cc(-c2ccccc2)oc2ccccc12
REMARK SMILES IDX 4 1 3 2 2 3 1 4 17 5 16 6 15 7 14 8 13 9 12 10 11 11 5 12
REMARK SMILES IDX 8 13 7 14 9 15 6 16 10 17
REMARK H PARENT
REMARK Flexibility Score: inf
ROOT
ATOM      1  C   UNL     1     -19.862 -47.400 103.219  1.00  0.00     0.138 A 
ATOM      2  C   UNL     1     -18.592 -47.385 103.830  1.00  0.00     0.100 A 
ATOM      3  C   UNL     1     -18.449 -47.865 105.133  1.00  0.00     0.193 A 
ATOM      4  O   UNL     1     -17.312 -47.851 105.680  1.00  0.00    -0.289 OA
ATOM      5  C   UNL     1     -19.571 -48.355 105.816  1.00  0.00     0.065 A 
ATOM      6  C   UNL     1     -19.497 -48.853 107.129  1.00  0.00     0.016 A 
ATOM      7  C   UNL     1     -20.648 -49.329 107.763  1.00  0.00     0.001 A 
ATOM      8  C   UNL     1     -21.877 -49.314 107.096  1.00  0.00     0.004 A 
ATOM      9  C   UNL     1     -21.959 -48.822 105.791  1.00  0.00     0.048 A 
ATOM     10  C   UNL     1     -20.814 -48.342 105.147  1.00  0.00     0.138 A 
ATOM     11  O   UNL     1     -20.903 -47.875 103.905  1.00  0.00    -0.456 OA
ENDROOT
BRANCH   1  12
ATOM     12  C   UNL     1     -20.103 -46.905 101.828  1.00  0.00     0.017 A 
ATOM     13  C   UNL     1     -20.640 -45.932  99.233  1.00  0.00     0.000 A 
ATOM     14  C   UNL     1     -21.534 -45.679 100.273  1.00  0.00     0.001 A 
ATOM     15  C   UNL     1     -19.480 -46.666  99.478  1.00  0.00     0.001 A 
ATOM     16  C   UNL     1     -21.271 -46.160 101.558  1.00  0.00     0.012 A 
ATOM     17  C   UNL     1     -19.209 -47.150 100.761  1.00  0.00     0.012 A 
ENDBRANCH   1  12
TORSDOF 1
ENDMDL
MODEL 7
REMARK VINA RESULT:    -6.152      5.162      6.947
REMARK INTER + INTRA:          -6.733
REMARK INTER:                  -6.482
REMARK INTRA:                  -0.251
REMARK UNBOUND:                -0.221
REMARK SMILES O=c1cc(-c2ccccc2)oc2ccccc12
REMARK SMILES IDX 4 1 3 2 2 3 1 4 17 5 16 6 15 7 14 8 13 9 12 10 11 11 5 12
REMARK SMILES IDX 8 13 7 14 9 15 6 16 10 17
REMARK H PARENT
REMARK Flexibility Score: inf
ROOT
ATOM      1  C   UNL     1     -21.300 -47.450 103.005  1.00  0.00     0.138 A 
ATOM      2  C   UNL     1     -22.632 -47.779 103.334  1.00  0.00     0.100 A 
ATOM      3  C   UNL     1     -22.914 -48.347 104.577  1.00  0.00     0.193 A 
ATOM      4  O   UNL     1     -24.105 -48.642 104.871  1.00  0.00    -0.289 OA
ATOM      5  C   UNL     1     -21.869 -48.583 105.482  1.00  0.00     0.065 A 
ATOM      6  C   UNL     1     -22.084 -49.152 106.750  1.00  0.00     0.016 A 
ATOM      7  C   UNL     1     -21.005 -49.366 107.613  1.00  0.00     0.001 A 
ATOM      8  C   UNL     1     -19.710 -49.015 107.222  1.00  0.00     0.004 A 
ATOM      9  C   UNL     1     -19.487 -48.448 105.964  1.00  0.00     0.048 A 
ATOM     10  C   UNL     1     -20.559 -48.230 105.091  1.00  0.00     0.138 A 
ATOM     11  O   UNL     1     -20.337 -47.691 103.897  1.00  0.00    -0.456 OA
ENDROOT
BRANCH   1  12
ATOM     12  C   UNL     1     -20.911 -46.839 101.696  1.00  0.00     0.017 A 
ATOM     13  C   UNL     1     -20.259 -45.634  99.228  1.00  0.00     0.000 A 
ATOM     14  C   UNL     1     -21.451 -45.305  99.873  1.00  0.00     0.001 A 
ATOM     15  C   UNL     1     -19.390 -46.559  99.806  1.00  0.00     0.001 A 
ATOM     16  C   UNL     1     -21.777 -45.900 101.095  1.00  0.00     0.012 A 
ATOM     17  C   UNL     1     -19.708 -47.159 101.028  1.00  0.00     0.012 A 
ENDBRANCH   1  12
TORSDOF 1
ENDMDL
MODEL 8
REMARK VINA RESULT:    -6.147      4.595      7.213
REMARK INTER + INTRA:          -6.727
REMARK INTER:                  -6.461
REMARK INTRA:                  -0.266
REMARK UNBOUND:                -0.221
REMARK SMILES O=c1cc(-c2ccccc2)oc2ccccc12
REMARK SMILES IDX 4 1 3 2 2 3 1 4 17 5 16 6 15 7 14 8 13 9 12 10 11 11 5 12
REMARK SMILES IDX 8 13 7 14 9 15 6 16 10 17
REMARK H PARENT
REMARK Flexibility Score: inf
ROOT
ATOM      1  C   UNL     1     -20.789 -45.252 103.654  1.00  0.00     0.138 A 
ATOM      2  C   UNL     1     -20.738 -45.561 102.279  1.00  0.00     0.100 A 
ATOM      3  C   UNL     1     -21.426 -46.675 101.796  1.00  0.00     0.193 A 
ATOM      4  O   UNL     1     -21.379 -46.952 100.567  1.00  0.00    -0.289 OA
ATOM      5  C   UNL     1     -22.161 -47.472 102.686  1.00  0.00     0.065 A 
ATOM      6  C   UNL     1     -22.877 -48.607 102.267  1.00  0.00     0.016 A 
ATOM      7  C   UNL     1     -23.592 -49.366 103.197  1.00  0.00     0.001 A 
ATOM      8  C   UNL     1     -23.601 -49.002 104.547  1.00  0.00     0.004 A 
ATOM      9  C   UNL     1     -22.892 -47.874 104.972  1.00  0.00     0.048 A 
ATOM     10  C   UNL     1     -22.172 -47.107 104.050  1.00  0.00     0.138 A 
ATOM     11  O   UNL     1     -21.501 -46.037 104.465  1.00  0.00    -0.456 OA
ENDROOT
BRANCH   1  12
ATOM     12  C   UNL     1     -20.082 -44.078 104.253  1.00  0.00     0.017 A 
ATOM     13  C   UNL     1     -18.785 -41.886 105.469  1.00  0.00     0.000 A 
ATOM     14  C   UNL     1     -19.602 -42.723 106.228  1.00  0.00     0.001 A 
ATOM     15  C   UNL     1     -18.609 -42.134 104.108  1.00  0.00     0.001 A 
ATOM     16  C   UNL     1     -20.245 -43.809 105.628  1.00  0.00     0.012 A 
ATOM     17  C   UNL     1     -19.249 -43.219 103.500  1.00  0.00     0.012 A 
ENDBRANCH   1  12
TORSDOF 1
ENDMDL
MODEL 9
REMARK VINA RESULT:    -6.076      5.048      9.491
REMARK INTER + INTRA:          -6.652
REMARK INTER:                  -6.387
REMARK INTRA:                  -0.265
REMARK UNBOUND:                -0.221
REMARK SMILES O=c1cc(-c2ccccc2)oc2ccccc12
REMARK SMILES IDX 4 1 3 2 2 3 1 4 17 5 16 6 15 7 14 8 13 9 12 10 11 11 5 12
REMARK SMILES IDX 8 13 7 14 9 15 6 16 10 17
REMARK H PARENT
REMARK Flexibility Score: inf
ROOT
ATOM      1  C   UNL     1     -21.309 -45.886 103.628  1.00  0.00     0.138 A 
ATOM      2  C   UNL     1     -20.786 -45.387 102.417  1.00  0.00     0.100 A 
ATOM      3  C   UNL     1     -19.979 -44.248 102.433  1.00  0.00     0.193 A 
ATOM      4  O   UNL     1     -19.513 -43.801 101.350  1.00  0.00    -0.289 OA
ATOM      5  C   UNL     1     -19.700 -43.616 103.653  1.00  0.00     0.065 A 
ATOM      6  C   UNL     1     -18.895 -42.465 103.739  1.00  0.00     0.016 A 
ATOM      7  C   UNL     1     -18.650 -41.875 104.982  1.00  0.00     0.001 A 
ATOM      8  C   UNL     1     -19.200 -42.424 106.144  1.00  0.00     0.004 A 
ATOM      9  C   UNL     1     -20.000 -43.568 106.067  1.00  0.00     0.048 A 
ATOM     10  C   UNL     1     -20.254 -44.166 104.829  1.00  0.00     0.138 A 
ATOM     11  O   UNL     1     -21.017 -45.254 104.766  1.00  0.00    -0.456 OA
ENDROOT
BRANCH   1  12
ATOM     12  C   UNL     1     -22.180 -47.100 103.701  1.00  0.00     0.017 A 
ATOM     13  C   UNL     1     -23.803 -49.409 103.746  1.00  0.00     0.000 A 
ATOM     14  C   UNL     1     -23.134 -49.048 102.577  1.00  0.00     0.001 A 
ATOM     15  C   UNL     1     -23.669 -48.627 104.893  1.00  0.00     0.001 A 
ATOM     16  C   UNL     1     -22.330 -47.905 102.552  1.00  0.00     0.012 A 
ATOM     17  C   UNL     1     -22.866 -47.482 104.876  1.00  0.00     0.012 A 
ENDBRANCH   1  12
TORSDOF 1
ENDMDL
