MODEL 1
REMARK VINA RESULT:    -4.496      0.000      0.000
REMARK INTER + INTRA:         -16.025
REMARK INTER:                 -11.330
REMARK INTRA:                  -4.695
REMARK UNBOUND:                -4.695
REMARK SMILES CCCCCCCCCCCCCCCCCCCCCCCCCCCC(=O)[O-]
REMARK SMILES IDX 15 1 16 2 17 3 18 4 19 5 20 6 21 7 22 8 23 9 24 10 25 11
REMARK SMILES IDX 26 12 27 13 28 14 29 15 30 16 14 17 13 18 12 19 11 20 10 21
REMARK SMILES IDX 9 22 8 23 7 24 6 25 5 26 4 27 3 28 2 29 1 30
REMARK H PARENT
REMARK Flexibility Score: inf
ROOT
ATOM      1  C   UNL     1      16.322  56.489 157.361  1.00  0.00     0.000 C 
ENDROOT
BRANCH   1   2
ATOM      2  C   UNL     1      15.838  55.166 156.732  1.00  0.00     0.000 C 
BRANCH   2   3
ATOM      3  C   UNL     1      14.464  55.234 156.045  1.00  0.00     0.000 C 
BRANCH   3   4
ATOM      4  C   UNL     1      13.514  54.113 156.494  1.00  0.00     0.000 C 
BRANCH   4   5
ATOM      5  C   UNL     1      14.304  52.909 157.027  1.00  0.00     0.000 C 
BRANCH   5   6
ATOM      6  C   UNL     1      14.000  52.602 158.505  1.00  0.00     0.000 C 
BRANCH   6   7
ATOM      7  C   UNL     1      15.134  51.885 159.264  1.00  0.00     0.000 C 
BRANCH   7   8
ATOM      8  C   UNL     1      16.365  52.759 159.581  1.00  0.00     0.000 C 
BRANCH   8   9
ATOM      9  C   UNL     1      17.563  52.555 158.636  1.00  0.00     0.000 C 
BRANCH   9  10
ATOM     10  C   UNL     1      18.700  53.560 158.888  1.00  0.00     0.000 C 
BRANCH  10  11
ATOM     11  C   UNL     1      19.165  53.581 160.354  1.00  0.00     0.000 C 
BRANCH  11  12
ATOM     12  C   UNL     1      20.640  53.972 160.561  1.00  0.00     0.006 C 
BRANCH  12  13
ATOM     13  C   UNL     1      20.837  55.002 161.681  1.00  0.00     0.053 C 
BRANCH  13  14
ATOM     14  C   UNL     1      22.191  55.631 161.581  1.00  0.00     0.041 C 
ATOM     15  O   UNL     1      22.723  55.813 160.454  1.00  0.00    -0.550 OA
ATOM     16  O   UNL     1      22.884  55.977 162.735  1.00  0.00    -0.550 OA
ENDBRANCH  13  14
ENDBRANCH  12  13
ENDBRANCH  11  12
ENDBRANCH  10  11
ENDBRANCH   9  10
ENDBRANCH   8   9
ENDBRANCH   7   8
ENDBRANCH   6   7
ENDBRANCH   5   6
ENDBRANCH   4   5
ENDBRANCH   3   4
ENDBRANCH   2   3
ENDBRANCH   1   2
BRANCH   1  17
ATOM     17  C   UNL     1      16.963  57.468 156.351  1.00  0.00     0.000 C 
BRANCH  17  18
ATOM     18  C   UNL     1      18.349  57.951 156.810  1.00  0.00     0.000 C 
BRANCH  18  19
ATOM     19  C   UNL     1      19.163  56.844 157.500  1.00  0.00     0.000 C 
BRANCH  19  20
ATOM     20  C   UNL     1      19.541  57.209 158.946  1.00  0.00     0.000 C 
BRANCH  20  21
ATOM     21  C   UNL     1      18.347  57.141 159.915  1.00  0.00     0.000 C 
BRANCH  21  22
ATOM     22  C   UNL     1      18.014  58.461 160.642  1.00  0.00    -0.000 C 
BRANCH  22  23
ATOM     23  C   UNL     1      17.243  59.494 159.798  1.00  0.00    -0.000 C 
BRANCH  23  24
ATOM     24  C   UNL     1      17.943  60.859 159.639  1.00  0.00    -0.000 C 
BRANCH  24  25
ATOM     25  C   UNL     1      19.291  60.817 158.894  1.00  0.00    -0.000 C 
BRANCH  25  26
ATOM     26  C   UNL     1      20.423  61.518 159.665  1.00  0.00    -0.000 C 
BRANCH  26  27
ATOM     27  C   UNL     1      21.690  60.652 159.764  1.00  0.00    -0.000 C 
BRANCH  27  28
ATOM     28  C   UNL     1      21.557  59.544 160.825  1.00  0.00    -0.000 C 
BRANCH  28  29
ATOM     29  C   UNL     1      20.983  60.066 162.153  1.00  0.00    -0.003 C 
ATOM     30  C   UNL     1      20.643  58.944 163.134  1.00  0.00     0.004 C 
ENDBRANCH  28  29
ENDBRANCH  27  28
ENDBRANCH  26  27
ENDBRANCH  25  26
ENDBRANCH  24  25
ENDBRANCH  23  24
ENDBRANCH  22  23
ENDBRANCH  21  22
ENDBRANCH  20  21
ENDBRANCH  19  20
ENDBRANCH  18  19
ENDBRANCH  17  18
ENDBRANCH   1  17
TORSDOF 26
ENDMDL
MODEL 2
REMARK VINA RESULT:    -4.477      2.017      6.086
REMARK INTER + INTRA:         -15.975
REMARK INTER:                 -11.520
REMARK INTRA:                  -4.455
REMARK UNBOUND:                -4.695
REMARK SMILES CCCCCCCCCCCCCCCCCCCCCCCCCCCC(=O)[O-]
REMARK SMILES IDX 15 1 16 2 17 3 18 4 19 5 20 6 21 7 22 8 23 9 24 10 25 11
REMARK SMILES IDX 26 12 27 13 28 14 29 15 30 16 14 17 13 18 12 19 11 20 10 21
REMARK SMILES IDX 9 22 8 23 7 24 6 25 5 26 4 27 3 28 2 29 1 30
REMARK H PARENT
REMARK Flexibility Score: inf
ROOT
ATOM      1  C   UNL     1      16.919  52.048 159.264  1.00  0.00     0.000 C 
ENDROOT
BRANCH   1   2
ATOM      2  C   UNL     1      17.170  53.352 160.047  1.00  0.00     0.000 C 
BRANCH   2   3
ATOM      3  C   UNL     1      18.646  53.767 160.167  1.00  0.00     0.000 C 
BRANCH   3   4
ATOM      4  C   UNL     1      18.997  54.341 161.549  1.00  0.00     0.000 C 
BRANCH   4   5
ATOM      5  C   UNL     1      20.503  54.230 161.820  1.00  0.00     0.000 C 
BRANCH   5   6
ATOM      6  C   UNL     1      21.333  54.081 160.531  1.00  0.00     0.000 C 
BRANCH   6   7
ATOM      7  C   UNL     1      22.530  55.046 160.418  1.00  0.00     0.000 C 
BRANCH   7   8
ATOM      8  C   UNL     1      23.376  55.196 161.699  1.00  0.00     0.000 C 
BRANCH   8   9
ATOM      9  C   UNL     1      23.421  56.620 162.280  1.00  0.00     0.000 C 
BRANCH   9  10
ATOM     10  C   UNL     1      22.294  57.519 161.745  1.00  0.00     0.000 C 
BRANCH  10  11
ATOM     11  C   UNL     1      21.205  57.801 162.795  1.00  0.00     0.000 C 
BRANCH  11  12
ATOM     12  C   UNL     1      21.324  59.163 163.504  1.00  0.00     0.006 C 
BRANCH  12  13
ATOM     13  C   UNL     1      19.977  59.698 164.007  1.00  0.00     0.053 C 
BRANCH  13  14
ATOM     14  C   UNL     1      20.146  60.388 165.323  1.00  0.00     0.041 C 
ATOM     15  O   UNL     1      19.750  61.574 165.473  1.00  0.00    -0.550 OA
ATOM     16  O   UNL     1      20.781  59.735 166.374  1.00  0.00    -0.550 OA
ENDBRANCH  13  14
ENDBRANCH  12  13
ENDBRANCH  11  12
ENDBRANCH  10  11
ENDBRANCH   9  10
ENDBRANCH   8   9
ENDBRANCH   7   8
ENDBRANCH   6   7
ENDBRANCH   5   6
ENDBRANCH   4   5
ENDBRANCH   3   4
ENDBRANCH   2   3
ENDBRANCH   1   2
BRANCH   1  17
ATOM     17  C   UNL     1      15.538  51.408 159.533  1.00  0.00     0.000 C 
BRANCH  17  18
ATOM     18  C   UNL     1      14.387  52.237 158.936  1.00  0.00     0.000 C 
BRANCH  18  19
ATOM     19  C   UNL     1      14.616  52.589 157.457  1.00  0.00     0.000 C 
BRANCH  19  20
ATOM     20  C   UNL     1      13.621  53.644 156.945  1.00  0.00     0.000 C 
BRANCH  20  21
ATOM     21  C   UNL     1      14.314  54.865 156.311  1.00  0.00     0.000 C 
BRANCH  21  22
ATOM     22  C   UNL     1      15.837  54.952 156.544  1.00  0.00    -0.000 C 
BRANCH  22  23
ATOM     23  C   UNL     1      16.275  55.959 157.624  1.00  0.00    -0.000 C 
BRANCH  23  24
ATOM     24  C   UNL     1      16.693  57.345 157.092  1.00  0.00    -0.000 C 
BRANCH  24  25
ATOM     25  C   UNL     1      18.212  57.570 156.983  1.00  0.00    -0.000 C 
BRANCH  25  26
ATOM     26  C   UNL     1      19.025  56.607 157.867  1.00  0.00    -0.000 C 
BRANCH  26  27
ATOM     27  C   UNL     1      19.660  57.313 159.076  1.00  0.00    -0.000 C 
BRANCH  27  28
ATOM     28  C   UNL     1      18.656  57.515 160.226  1.00  0.00    -0.000 C 
BRANCH  28  29
ATOM     29  C   UNL     1      18.343  58.999 160.480  1.00  0.00    -0.003 C 
ATOM     30  C   UNL     1      19.319  59.942 159.776  1.00  0.00     0.004 C 
ENDBRANCH  28  29
ENDBRANCH  27  28
ENDBRANCH  26  27
ENDBRANCH  25  26
ENDBRANCH  24  25
ENDBRANCH  23  24
ENDBRANCH  22  23
ENDBRANCH  21  22
ENDBRANCH  20  21
ENDBRANCH  19  20
ENDBRANCH  18  19
ENDBRANCH  17  18
ENDBRANCH   1  17
TORSDOF 26
ENDMDL
MODEL 3
REMARK VINA RESULT:    -4.468      1.365      5.771
REMARK INTER + INTRA:         -15.953
REMARK INTER:                 -11.476
REMARK INTRA:                  -4.477
REMARK UNBOUND:                -4.695
REMARK SMILES CCCCCCCCCCCCCCCCCCCCCCCCCCCC(=O)[O-]
REMARK SMILES IDX 15 1 16 2 17 3 18 4 19 5 20 6 21 7 22 8 23 9 24 10 25 11
REMARK SMILES IDX 26 12 27 13 28 14 29 15 30 16 14 17 13 18 12 19 11 20 10 21
REMARK SMILES IDX 9 22 8 23 7 24 6 25 5 26 4 27 3 28 2 29 1 30
REMARK H PARENT
REMARK Flexibility Score: inf
ROOT
ATOM      1  C   UNL     1      17.363  52.619 159.190  1.00  0.00     0.000 C 
ENDROOT
BRANCH   1   2
ATOM      2  C   UNL     1      18.401  52.998 158.115  1.00  0.00     0.000 C 
BRANCH   2   3
ATOM      3  C   UNL     1      19.530  53.925 158.597  1.00  0.00     0.000 C 
BRANCH   3   4
ATOM      4  C   UNL     1      19.868  53.733 160.084  1.00  0.00     0.000 C 
BRANCH   4   5
ATOM      5  C   UNL     1      20.382  55.042 160.700  1.00  0.00     0.000 C 
BRANCH   5   6
ATOM      6  C   UNL     1      19.370  55.686 161.665  1.00  0.00     0.000 C 
BRANCH   6   7
ATOM      7  C   UNL     1      18.108  56.260 160.990  1.00  0.00     0.000 C 
BRANCH   7   8
ATOM      8  C   UNL     1      17.748  57.705 161.394  1.00  0.00     0.000 C 
BRANCH   8   9
ATOM      9  C   UNL     1      18.210  58.787 160.402  1.00  0.00     0.000 C 
BRANCH   9  10
ATOM     10  C   UNL     1      19.556  59.421 160.795  1.00  0.00     0.000 C 
BRANCH  10  11
ATOM     11  C   UNL     1      19.919  59.187 162.271  1.00  0.00     0.000 C 
BRANCH  11  12
ATOM     12  C   UNL     1      21.411  58.914 162.537  1.00  0.00     0.006 C 
BRANCH  12  13
ATOM     13  C   UNL     1      21.670  58.274 163.907  1.00  0.00     0.053 C 
BRANCH  13  14
ATOM     14  C   UNL     1      22.885  57.403 163.856  1.00  0.00     0.041 C 
ATOM     15  O   UNL     1      23.005  56.536 162.950  1.00  0.00    -0.550 OA
ATOM     16  O   UNL     1      23.866  57.519 164.834  1.00  0.00    -0.550 OA
ENDBRANCH  13  14
ENDBRANCH  12  13
ENDBRANCH  11  12
ENDBRANCH  10  11
ENDBRANCH   9  10
ENDBRANCH   8   9
ENDBRANCH   7   8
ENDBRANCH   6   7
ENDBRANCH   5   6
ENDBRANCH   4   5
ENDBRANCH   3   4
ENDBRANCH   2   3
ENDBRANCH   1   2
BRANCH   1  17
ATOM     17  C   UNL     1      16.273  51.641 158.694  1.00  0.00     0.000 C 
BRANCH  17  18
ATOM     18  C   UNL     1      14.920  51.879 159.388  1.00  0.00     0.000 C 
BRANCH  18  19
ATOM     19  C   UNL     1      13.918  52.625 158.492  1.00  0.00     0.000 C 
BRANCH  19  20
ATOM     20  C   UNL     1      14.365  52.667 157.021  1.00  0.00     0.000 C 
BRANCH  20  21
ATOM     21  C   UNL     1      13.659  53.769 156.210  1.00  0.00     0.000 C 
BRANCH  21  22
ATOM     22  C   UNL     1      14.354  55.147 156.229  1.00  0.00    -0.000 C 
BRANCH  22  23
ATOM     23  C   UNL     1      15.872  55.108 156.492  1.00  0.00    -0.000 C 
BRANCH  23  24
ATOM     24  C   UNL     1      16.344  55.929 157.709  1.00  0.00    -0.000 C 
BRANCH  24  25
ATOM     25  C   UNL     1      16.525  57.436 157.447  1.00  0.00    -0.000 C 
BRANCH  25  26
ATOM     26  C   UNL     1      17.616  57.736 156.403  1.00  0.00    -0.000 C 
BRANCH  26  27
ATOM     27  C   UNL     1      18.855  56.842 156.576  1.00  0.00    -0.000 C 
BRANCH  27  28
ATOM     28  C   UNL     1      19.881  57.450 157.550  1.00  0.00    -0.000 C 
BRANCH  28  29
ATOM     29  C   UNL     1      20.273  58.888 157.172  1.00  0.00    -0.003 C 
ATOM     30  C   UNL     1      21.138  58.957 155.913  1.00  0.00     0.004 C 
ENDBRANCH  28  29
ENDBRANCH  27  28
ENDBRANCH  26  27
ENDBRANCH  25  26
ENDBRANCH  24  25
ENDBRANCH  23  24
ENDBRANCH  22  23
ENDBRANCH  21  22
ENDBRANCH  20  21
ENDBRANCH  19  20
ENDBRANCH  18  19
ENDBRANCH  17  18
ENDBRANCH   1  17
TORSDOF 26
ENDMDL
MODEL 4
REMARK VINA RESULT:    -4.404      2.537      5.308
REMARK INTER + INTRA:         -15.794
REMARK INTER:                 -11.312
REMARK INTRA:                  -4.482
REMARK UNBOUND:                -4.695
REMARK SMILES CCCCCCCCCCCCCCCCCCCCCCCCCCCC(=O)[O-]
REMARK SMILES IDX 15 1 16 2 17 3 18 4 19 5 20 6 21 7 22 8 23 9 24 10 25 11
REMARK SMILES IDX 26 12 27 13 28 14 29 15 30 16 14 17 13 18 12 19 11 20 10 21
REMARK SMILES IDX 9 22 8 23 7 24 6 25 5 26 4 27 3 28 2 29 1 30
REMARK H PARENT
REMARK Flexibility Score: inf
ROOT
ATOM      1  C   UNL     1      16.377  51.795 158.747  1.00  0.00     0.000 C 
ENDROOT
BRANCH   1   2
ATOM      2  C   UNL     1      17.434  52.889 159.002  1.00  0.00     0.000 C 
BRANCH   2   3
ATOM      3  C   UNL     1      18.295  53.260 157.783  1.00  0.00     0.000 C 
BRANCH   3   4
ATOM      4  C   UNL     1      19.346  54.337 158.098  1.00  0.00     0.000 C 
BRANCH   4   5
ATOM      5  C   UNL     1      20.387  53.809 159.095  1.00  0.00     0.000 C 
BRANCH   5   6
ATOM      6  C   UNL     1      20.604  54.755 160.290  1.00  0.00     0.000 C 
BRANCH   6   7
ATOM      7  C   UNL     1      20.189  54.177 161.657  1.00  0.00     0.000 C 
BRANCH   7   8
ATOM      8  C   UNL     1      18.880  54.747 162.241  1.00  0.00     0.000 C 
BRANCH   8   9
ATOM      9  C   UNL     1      18.153  55.755 161.332  1.00  0.00     0.000 C 
BRANCH   9  10
ATOM     10  C   UNL     1      18.033  57.151 161.966  1.00  0.00     0.000 C 
BRANCH  10  11
ATOM     11  C   UNL     1      19.095  57.409 163.049  1.00  0.00     0.000 C 
BRANCH  11  12
ATOM     12  C   UNL     1      18.566  58.084 164.328  1.00  0.00     0.006 C 
BRANCH  12  13
ATOM     13  C   UNL     1      17.720  57.144 165.197  1.00  0.00     0.053 C 
BRANCH  13  14
ATOM     14  C   UNL     1      17.606  57.680 166.589  1.00  0.00     0.041 C 
ATOM     15  O   UNL     1      18.467  57.377 167.457  1.00  0.00    -0.550 OA
ATOM     16  O   UNL     1      16.525  58.480 166.940  1.00  0.00    -0.550 OA
ENDBRANCH  13  14
ENDBRANCH  12  13
ENDBRANCH  11  12
ENDBRANCH  10  11
ENDBRANCH   9  10
ENDBRANCH   8   9
ENDBRANCH   7   8
ENDBRANCH   6   7
ENDBRANCH   5   6
ENDBRANCH   4   5
ENDBRANCH   3   4
ENDBRANCH   2   3
ENDBRANCH   1   2
BRANCH   1  17
ATOM     17  C   UNL     1      15.046  52.020 159.499  1.00  0.00     0.000 C 
BRANCH  17  18
ATOM     18  C   UNL     1      13.960  52.621 158.590  1.00  0.00     0.000 C 
BRANCH  18  19
ATOM     19  C   UNL     1      14.388  52.679 157.114  1.00  0.00     0.000 C 
BRANCH  19  20
ATOM     20  C   UNL     1      14.150  54.064 156.488  1.00  0.00     0.000 C 
BRANCH  20  21
ATOM     21  C   UNL     1      15.450  54.861 156.280  1.00  0.00     0.000 C 
BRANCH  21  22
ATOM     22  C   UNL     1      15.445  56.291 156.860  1.00  0.00    -0.000 C 
BRANCH  22  23
ATOM     23  C   UNL     1      16.573  56.592 157.866  1.00  0.00    -0.000 C 
BRANCH  23  24
ATOM     24  C   UNL     1      17.531  57.727 157.451  1.00  0.00    -0.000 C 
BRANCH  24  25
ATOM     25  C   UNL     1      18.729  57.944 158.394  1.00  0.00    -0.000 C 
BRANCH  25  26
ATOM     26  C   UNL     1      18.938  59.424 158.765  1.00  0.00    -0.000 C 
BRANCH  26  27
ATOM     27  C   UNL     1      19.859  59.599 159.983  1.00  0.00    -0.000 C 
BRANCH  27  28
ATOM     28  C   UNL     1      20.937  58.503 160.061  1.00  0.00    -0.000 C 
BRANCH  28  29
ATOM     29  C   UNL     1      22.035  58.828 161.088  1.00  0.00    -0.003 C 
ATOM     30  C   UNL     1      22.282  60.329 161.239  1.00  0.00     0.004 C 
ENDBRANCH  28  29
ENDBRANCH  27  28
ENDBRANCH  26  27
ENDBRANCH  25  26
ENDBRANCH  24  25
ENDBRANCH  23  24
ENDBRANCH  22  23
ENDBRANCH  21  22
ENDBRANCH  20  21
ENDBRANCH  19  20
ENDBRANCH  18  19
ENDBRANCH  17  18
ENDBRANCH   1  17
TORSDOF 26
ENDMDL
MODEL 5
REMARK VINA RESULT:    -4.393      1.373      6.784
REMARK INTER + INTRA:         -15.764
REMARK INTER:                 -10.587
REMARK INTRA:                  -5.177
REMARK UNBOUND:                -4.695
REMARK SMILES CCCCCCCCCCCCCCCCCCCCCCCCCCCC(=O)[O-]
REMARK SMILES IDX 15 1 16 2 17 3 18 4 19 5 20 6 21 7 22 8 23 9 24 10 25 11
REMARK SMILES IDX 26 12 27 13 28 14 29 15 30 16 14 17 13 18 12 19 11 20 10 21
REMARK SMILES IDX 9 22 8 23 7 24 6 25 5 26 4 27 3 28 2 29 1 30
REMARK H PARENT
REMARK Flexibility Score: inf
ROOT
ATOM      1  C   UNL     1      19.628  54.609 159.556  1.00  0.00     0.000 C 
ENDROOT
BRANCH   1   2
ATOM      2  C   UNL     1      19.826  56.138 159.555  1.00  0.00     0.000 C 
BRANCH   2   3
ATOM      3  C   UNL     1      19.531  56.834 160.894  1.00  0.00     0.000 C 
BRANCH   3   4
ATOM      4  C   UNL     1      18.415  57.887 160.788  1.00  0.00     0.000 C 
BRANCH   4   5
ATOM      5  C   UNL     1      18.998  59.306 160.832  1.00  0.00     0.000 C 
BRANCH   5   6
ATOM      6  C   UNL     1      18.528  60.182 159.656  1.00  0.00     0.000 C 
BRANCH   6   7
ATOM      7  C   UNL     1      19.648  60.965 158.943  1.00  0.00     0.000 C 
BRANCH   7   8
ATOM      8  C   UNL     1      20.881  61.284 159.814  1.00  0.00     0.000 C 
BRANCH   8   9
ATOM      9  C   UNL     1      22.197  60.649 159.328  1.00  0.00     0.000 C 
BRANCH   9  10
ATOM     10  C   UNL     1      22.032  59.176 158.917  1.00  0.00     0.000 C 
BRANCH  10  11
ATOM     11  C   UNL     1      22.908  58.223 159.749  1.00  0.00     0.000 C 
BRANCH  11  12
ATOM     12  C   UNL     1      23.325  58.764 161.129  1.00  0.00     0.006 C 
BRANCH  12  13
ATOM     13  C   UNL     1      22.425  58.265 162.267  1.00  0.00     0.053 C 
BRANCH  13  14
ATOM     14  C   UNL     1      23.169  57.308 163.142  1.00  0.00     0.041 C 
ATOM     15  O   UNL     1      23.059  57.377 164.395  1.00  0.00    -0.550 OA
ATOM     16  O   UNL     1      24.020  56.365 162.576  1.00  0.00    -0.550 OA
ENDBRANCH  13  14
ENDBRANCH  12  13
ENDBRANCH  11  12
ENDBRANCH  10  11
ENDBRANCH   9  10
ENDBRANCH   8   9
ENDBRANCH   7   8
ENDBRANCH   6   7
ENDBRANCH   5   6
ENDBRANCH   4   5
ENDBRANCH   3   4
ENDBRANCH   2   3
ENDBRANCH   1   2
BRANCH   1  17
ATOM     17  C   UNL     1      18.812  54.081 160.757  1.00  0.00     0.000 C 
BRANCH  17  18
ATOM     18  C   UNL     1      17.383  53.674 160.355  1.00  0.00     0.000 C 
BRANCH  18  19
ATOM     19  C   UNL     1      17.361  52.604 159.252  1.00  0.00     0.000 C 
BRANCH  19  20
ATOM     20  C   UNL     1      16.189  51.621 159.412  1.00  0.00     0.000 C 
BRANCH  20  21
ATOM     21  C   UNL     1      14.836  52.225 158.994  1.00  0.00     0.000 C 
BRANCH  21  22
ATOM     22  C   UNL     1      14.617  52.358 157.472  1.00  0.00    -0.000 C 
BRANCH  22  23
ATOM     23  C   UNL     1      13.799  53.589 157.036  1.00  0.00    -0.000 C 
BRANCH  23  24
ATOM     24  C   UNL     1      14.637  54.794 156.560  1.00  0.00    -0.000 C 
BRANCH  24  25
ATOM     25  C   UNL     1      16.051  54.446 156.059  1.00  0.00    -0.000 C 
BRANCH  25  26
ATOM     26  C   UNL     1      17.155  55.231 156.791  1.00  0.00    -0.000 C 
BRANCH  26  27
ATOM     27  C   UNL     1      16.586  56.259 157.783  1.00  0.00    -0.000 C 
BRANCH  27  28
ATOM     28  C   UNL     1      17.025  57.696 157.449  1.00  0.00    -0.000 C 
BRANCH  28  29
ATOM     29  C   UNL     1      17.913  57.764 156.195  1.00  0.00    -0.003 C 
ATOM     30  C   UNL     1      19.340  58.220 156.501  1.00  0.00     0.004 C 
ENDBRANCH  28  29
ENDBRANCH  27  28
ENDBRANCH  26  27
ENDBRANCH  25  26
ENDBRANCH  24  25
ENDBRANCH  23  24
ENDBRANCH  22  23
ENDBRANCH  21  22
ENDBRANCH  20  21
ENDBRANCH  19  20
ENDBRANCH  18  19
ENDBRANCH  17  18
ENDBRANCH   1  17
TORSDOF 26
ENDMDL
MODEL 6
REMARK VINA RESULT:    -4.378      1.300      5.837
REMARK INTER + INTRA:         -15.728
REMARK INTER:                 -10.803
REMARK INTRA:                  -4.924
REMARK UNBOUND:                -4.695
REMARK SMILES CCCCCCCCCCCCCCCCCCCCCCCCCCCC(=O)[O-]
REMARK SMILES IDX 15 1 16 2 17 3 18 4 19 5 20 6 21 7 22 8 23 9 24 10 25 11
REMARK SMILES IDX 26 12 27 13 28 14 29 15 30 16 14 17 13 18 12 19 11 20 10 21
REMARK SMILES IDX 9 22 8 23 7 24 6 25 5 26 4 27 3 28 2 29 1 30
REMARK H PARENT
REMARK Flexibility Score: inf
ROOT
ATOM      1  C   UNL     1      15.874  55.947 157.376  1.00  0.00     0.000 C 
ENDROOT
BRANCH   1   2
ATOM      2  C   UNL     1      16.436  57.353 157.087  1.00  0.00     0.000 C 
BRANCH   2   3
ATOM      3  C   UNL     1      17.711  57.381 156.227  1.00  0.00     0.000 C 
BRANCH   3   4
ATOM      4  C   UNL     1      18.990  57.567 157.060  1.00  0.00     0.000 C 
BRANCH   4   5
ATOM      5  C   UNL     1      20.076  58.278 156.240  1.00  0.00     0.000 C 
BRANCH   5   6
ATOM      6  C   UNL     1      21.223  58.821 157.112  1.00  0.00     0.000 C 
BRANCH   6   7
ATOM      7  C   UNL     1      21.302  58.217 158.528  1.00  0.00     0.000 C 
BRANCH   7   8
ATOM      8  C   UNL     1      21.133  59.227 159.682  1.00  0.00     0.000 C 
BRANCH   8   9
ATOM      9  C   UNL     1      21.914  58.881 160.962  1.00  0.00     0.000 C 
BRANCH   9  10
ATOM     10  C   UNL     1      21.040  58.929 162.227  1.00  0.00     0.000 C 
BRANCH  10  11
ATOM     11  C   UNL     1      21.463  57.898 163.287  1.00  0.00     0.000 C 
BRANCH  11  12
ATOM     12  C   UNL     1      22.797  57.183 162.999  1.00  0.00     0.006 C 
BRANCH  12  13
ATOM     13  C   UNL     1      22.613  55.732 162.537  1.00  0.00     0.053 C 
BRANCH  13  14
ATOM     14  C   UNL     1      23.559  55.414 161.423  1.00  0.00     0.041 C 
ATOM     15  O   UNL     1      23.379  54.390 160.712  1.00  0.00    -0.550 OA
ATOM     16  O   UNL     1      24.664  56.225 161.196  1.00  0.00    -0.550 OA
ENDBRANCH  13  14
ENDBRANCH  12  13
ENDBRANCH  11  12
ENDBRANCH  10  11
ENDBRANCH   9  10
ENDBRANCH   8   9
ENDBRANCH   7   8
ENDBRANCH   6   7
ENDBRANCH   5   6
ENDBRANCH   4   5
ENDBRANCH   3   4
ENDBRANCH   2   3
ENDBRANCH   1   2
BRANCH   1  17
ATOM     17  C   UNL     1      15.557  55.123 156.108  1.00  0.00     0.000 C 
BRANCH  17  18
ATOM     18  C   UNL     1      14.067  54.751 156.014  1.00  0.00     0.000 C 
BRANCH  18  19
ATOM     19  C   UNL     1      13.661  53.672 157.031  1.00  0.00     0.000 C 
BRANCH  19  20
ATOM     20  C   UNL     1      14.755  52.608 157.225  1.00  0.00     0.000 C 
BRANCH  20  21
ATOM     21  C   UNL     1      15.081  52.346 158.708  1.00  0.00     0.000 C 
BRANCH  21  22
ATOM     22  C   UNL     1      16.577  52.429 159.077  1.00  0.00    -0.000 C 
BRANCH  22  23
ATOM     23  C   UNL     1      17.533  52.619 157.884  1.00  0.00    -0.000 C 
BRANCH  23  24
ATOM     24  C   UNL     1      18.596  53.721 158.070  1.00  0.00    -0.000 C 
BRANCH  24  25
ATOM     25  C   UNL     1      19.254  53.763 159.461  1.00  0.00    -0.000 C 
BRANCH  25  26
ATOM     26  C   UNL     1      20.011  55.077 159.726  1.00  0.00    -0.000 C 
BRANCH  26  27
ATOM     27  C   UNL     1      19.366  55.911 160.847  1.00  0.00    -0.000 C 
BRANCH  27  28
ATOM     28  C   UNL     1      18.032  56.543 160.409  1.00  0.00    -0.000 C 
BRANCH  28  29
ATOM     29  C   UNL     1      17.746  57.872 161.128  1.00  0.00    -0.003 C 
ATOM     30  C   UNL     1      17.543  59.038 160.162  1.00  0.00     0.004 C 
ENDBRANCH  28  29
ENDBRANCH  27  28
ENDBRANCH  26  27
ENDBRANCH  25  26
ENDBRANCH  24  25
ENDBRANCH  23  24
ENDBRANCH  22  23
ENDBRANCH  21  22
ENDBRANCH  20  21
ENDBRANCH  19  20
ENDBRANCH  18  19
ENDBRANCH  17  18
ENDBRANCH   1  17
TORSDOF 26
ENDMDL
MODEL 7
REMARK VINA RESULT:    -4.377      1.686      6.390
REMARK INTER + INTRA:         -15.724
REMARK INTER:                 -11.034
REMARK INTRA:                  -4.690
REMARK UNBOUND:                -4.695
REMARK SMILES CCCCCCCCCCCCCCCCCCCCCCCCCCCC(=O)[O-]
REMARK SMILES IDX 15 1 16 2 17 3 18 4 19 5 20 6 21 7 22 8 23 9 24 10 25 11
REMARK SMILES IDX 26 12 27 13 28 14 29 15 30 16 14 17 13 18 12 19 11 20 10 21
REMARK SMILES IDX 9 22 8 23 7 24 6 25 5 26 4 27 3 28 2 29 1 30
REMARK H PARENT
REMARK Flexibility Score: inf
ROOT
ATOM      1  C   UNL     1      18.215  54.073 160.561  1.00  0.00     0.000 C 
ENDROOT
BRANCH   1   2
ATOM      2  C   UNL     1      19.515  53.690 159.825  1.00  0.00     0.000 C 
BRANCH   2   3
ATOM      3  C   UNL     1      20.778  53.670 160.701  1.00  0.00     0.000 C 
BRANCH   3   4
ATOM      4  C   UNL     1      21.053  55.019 161.386  1.00  0.00     0.000 C 
BRANCH   4   5
ATOM      5  C   UNL     1      21.412  56.094 160.351  1.00  0.00     0.000 C 
BRANCH   5   6
ATOM      6  C   UNL     1      20.526  57.348 160.460  1.00  0.00     0.000 C 
BRANCH   6   7
ATOM      7  C   UNL     1      21.274  58.638 160.852  1.00  0.00     0.000 C 
BRANCH   7   8
ATOM      8  C   UNL     1      20.887  59.229 162.223  1.00  0.00     0.000 C 
BRANCH   8   9
ATOM      9  C   UNL     1      20.782  58.200 163.364  1.00  0.00     0.000 C 
BRANCH   9  10
ATOM     10  C   UNL     1      22.061  58.121 164.215  1.00  0.00     0.000 C 
BRANCH  10  11
ATOM     11  C   UNL     1      23.069  57.087 163.683  1.00  0.00     0.000 C 
BRANCH  11  12
ATOM     12  C   UNL     1      24.302  57.685 162.981  1.00  0.00     0.006 C 
BRANCH  12  13
ATOM     13  C   UNL     1      24.621  57.004 161.643  1.00  0.00     0.053 C 
BRANCH  13  14
ATOM     14  C   UNL     1      25.267  55.675 161.874  1.00  0.00     0.041 C 
ATOM     15  O   UNL     1      26.470  55.611 162.242  1.00  0.00    -0.550 OA
ATOM     16  O   UNL     1      24.554  54.505 161.642  1.00  0.00    -0.550 OA
ENDBRANCH  13  14
ENDBRANCH  12  13
ENDBRANCH  11  12
ENDBRANCH  10  11
ENDBRANCH   9  10
ENDBRANCH   8   9
ENDBRANCH   7   8
ENDBRANCH   6   7
ENDBRANCH   5   6
ENDBRANCH   4   5
ENDBRANCH   3   4
ENDBRANCH   2   3
ENDBRANCH   1   2
BRANCH   1  17
ATOM     17  C   UNL     1      16.972  53.280 160.098  1.00  0.00     0.000 C 
BRANCH  17  18
ATOM     18  C   UNL     1      17.303  52.290 158.967  1.00  0.00     0.000 C 
BRANCH  18  19
ATOM     19  C   UNL     1      16.045  51.670 158.337  1.00  0.00     0.000 C 
BRANCH  19  20
ATOM     20  C   UNL     1      14.812  52.580 158.472  1.00  0.00     0.000 C 
BRANCH  20  21
ATOM     21  C   UNL     1      14.223  52.999 157.112  1.00  0.00     0.000 C 
BRANCH  21  22
ATOM     22  C   UNL     1      14.335  54.503 156.783  1.00  0.00    -0.000 C 
BRANCH  22  23
ATOM     23  C   UNL     1      15.724  55.123 157.026  1.00  0.00    -0.000 C 
BRANCH  23  24
ATOM     24  C   UNL     1      16.831  54.638 156.068  1.00  0.00    -0.000 C 
BRANCH  24  25
ATOM     25  C   UNL     1      18.267  54.983 156.505  1.00  0.00    -0.000 C 
BRANCH  25  26
ATOM     26  C   UNL     1      18.322  56.131 157.529  1.00  0.00    -0.000 C 
BRANCH  26  27
ATOM     27  C   UNL     1      18.590  57.494 156.869  1.00  0.00    -0.000 C 
BRANCH  27  28
ATOM     28  C   UNL     1      18.589  58.646 157.890  1.00  0.00    -0.000 C 
BRANCH  28  29
ATOM     29  C   UNL     1      17.254  58.765 158.644  1.00  0.00    -0.003 C 
ATOM     30  C   UNL     1      17.436  58.963 160.149  1.00  0.00     0.004 C 
ENDBRANCH  28  29
ENDBRANCH  27  28
ENDBRANCH  26  27
ENDBRANCH  25  26
ENDBRANCH  24  25
ENDBRANCH  23  24
ENDBRANCH  22  23
ENDBRANCH  21  22
ENDBRANCH  20  21
ENDBRANCH  19  20
ENDBRANCH  18  19
ENDBRANCH  17  18
ENDBRANCH   1  17
TORSDOF 26
ENDMDL
MODEL 8
REMARK VINA RESULT:    -4.360      1.262      2.422
REMARK INTER + INTRA:         -15.680
REMARK INTER:                 -10.859
REMARK INTRA:                  -4.822
REMARK UNBOUND:                -4.695
REMARK SMILES CCCCCCCCCCCCCCCCCCCCCCCCCCCC(=O)[O-]
REMARK SMILES IDX 15 1 16 2 17 3 18 4 19 5 20 6 21 7 22 8 23 9 24 10 25 11
REMARK SMILES IDX 26 12 27 13 28 14 29 15 30 16 14 17 13 18 12 19 11 20 10 21
REMARK SMILES IDX 9 22 8 23 7 24 6 25 5 26 4 27 3 28 2 29 1 30
REMARK H PARENT
REMARK Flexibility Score: inf
ROOT
ATOM      1  C   UNL     1      17.870  55.634 156.053  1.00  0.00     0.000 C 
ENDROOT
BRANCH   1   2
ATOM      2  C   UNL     1      16.612  54.752 155.919  1.00  0.00     0.000 C 
BRANCH   2   3
ATOM      3  C   UNL     1      15.496  55.052 156.934  1.00  0.00     0.000 C 
BRANCH   3   4
ATOM      4  C   UNL     1      14.181  54.323 156.610  1.00  0.00     0.000 C 
BRANCH   4   5
ATOM      5  C   UNL     1      14.270  52.840 156.996  1.00  0.00     0.000 C 
BRANCH   5   6
ATOM      6  C   UNL     1      14.104  52.606 158.509  1.00  0.00     0.000 C 
BRANCH   6   7
ATOM      7  C   UNL     1      15.290  51.893 159.188  1.00  0.00     0.000 C 
BRANCH   7   8
ATOM      8  C   UNL     1      16.532  51.691 158.295  1.00  0.00     0.000 C 
BRANCH   8   9
ATOM      9  C   UNL     1      17.715  52.623 158.615  1.00  0.00     0.000 C 
BRANCH   9  10
ATOM     10  C   UNL     1      17.444  53.540 159.820  1.00  0.00     0.000 C 
BRANCH  10  11
ATOM     11  C   UNL     1      18.694  54.313 160.276  1.00  0.00     0.000 C 
BRANCH  11  12
ATOM     12  C   UNL     1      19.965  54.034 159.452  1.00  0.00     0.006 C 
BRANCH  12  13
ATOM     13  C   UNL     1      21.128  53.506 160.303  1.00  0.00     0.053 C 
BRANCH  13  14
ATOM     14  C   UNL     1      22.231  54.515 160.363  1.00  0.00     0.041 C 
ATOM     15  O   UNL     1      23.394  54.162 160.694  1.00  0.00    -0.550 OA
ATOM     16  O   UNL     1      21.966  55.853 160.095  1.00  0.00    -0.550 OA
ENDBRANCH  13  14
ENDBRANCH  12  13
ENDBRANCH  11  12
ENDBRANCH  10  11
ENDBRANCH   9  10
ENDBRANCH   8   9
ENDBRANCH   7   8
ENDBRANCH   6   7
ENDBRANCH   5   6
ENDBRANCH   4   5
ENDBRANCH   3   4
ENDBRANCH   2   3
ENDBRANCH   1   2
BRANCH   1  17
ATOM     17  C   UNL     1      17.865  56.554 157.295  1.00  0.00     0.000 C 
BRANCH  17  18
ATOM     18  C   UNL     1      19.149  57.395 157.400  1.00  0.00     0.000 C 
BRANCH  18  19
ATOM     19  C   UNL     1      19.427  57.874 158.834  1.00  0.00     0.000 C 
BRANCH  19  20
ATOM     20  C   UNL     1      18.717  59.200 159.158  1.00  0.00     0.000 C 
BRANCH  20  21
ATOM     21  C   UNL     1      17.768  59.093 160.366  1.00  0.00     0.000 C 
BRANCH  21  22
ATOM     22  C   UNL     1      17.743  57.717 161.064  1.00  0.00    -0.000 C 
BRANCH  22  23
ATOM     23  C   UNL     1      18.392  57.681 162.460  1.00  0.00    -0.000 C 
BRANCH  23  24
ATOM     24  C   UNL     1      19.764  56.979 162.524  1.00  0.00    -0.000 C 
BRANCH  24  25
ATOM     25  C   UNL     1      20.919  57.852 163.048  1.00  0.00    -0.000 C 
BRANCH  25  26
ATOM     26  C   UNL     1      21.459  58.829 161.988  1.00  0.00    -0.000 C 
BRANCH  26  27
ATOM     27  C   UNL     1      21.003  60.276 162.236  1.00  0.00    -0.000 C 
BRANCH  27  28
ATOM     28  C   UNL     1      21.200  61.170 160.998  1.00  0.00    -0.000 C 
BRANCH  28  29
ATOM     29  C   UNL     1      22.616  61.056 160.408  1.00  0.00    -0.003 C 
ATOM     30  C   UNL     1      23.256  62.417 160.135  1.00  0.00     0.004 C 
ENDBRANCH  28  29
ENDBRANCH  27  28
ENDBRANCH  26  27
ENDBRANCH  25  26
ENDBRANCH  24  25
ENDBRANCH  23  24
ENDBRANCH  22  23
ENDBRANCH  21  22
ENDBRANCH  20  21
ENDBRANCH  19  20
ENDBRANCH  18  19
ENDBRANCH  17  18
ENDBRANCH   1  17
TORSDOF 26
ENDMDL
MODEL 9
REMARK VINA RESULT:    -4.347      1.939      6.099
REMARK INTER + INTRA:         -15.650
REMARK INTER:                 -11.107
REMARK INTRA:                  -4.542
REMARK UNBOUND:                -4.695
REMARK SMILES CCCCCCCCCCCCCCCCCCCCCCCCCCCC(=O)[O-]
REMARK SMILES IDX 15 1 16 2 17 3 18 4 19 5 20 6 21 7 22 8 23 9 24 10 25 11
REMARK SMILES IDX 26 12 27 13 28 14 29 15 30 16 14 17 13 18 12 19 11 20 10 21
REMARK SMILES IDX 9 22 8 23 7 24 6 25 5 26 4 27 3 28 2 29 1 30
REMARK H PARENT
REMARK Flexibility Score: inf
ROOT
ATOM      1  C   UNL     1      16.993  52.109 159.252  1.00  0.00     0.000 C 
ENDROOT
BRANCH   1   2
ATOM      2  C   UNL     1      17.205  53.473 159.941  1.00  0.00     0.000 C 
BRANCH   2   3
ATOM      3  C   UNL     1      18.670  53.830 160.243  1.00  0.00     0.000 C 
BRANCH   3   4
ATOM      4  C   UNL     1      18.917  54.139 161.728  1.00  0.00     0.000 C 
BRANCH   4   5
ATOM      5  C   UNL     1      20.394  54.473 161.978  1.00  0.00     0.000 C 
BRANCH   5   6
ATOM      6  C   UNL     1      21.221  54.532 160.680  1.00  0.00     0.000 C 
BRANCH   6   7
ATOM      7  C   UNL     1      22.423  55.497 160.721  1.00  0.00     0.000 C 
BRANCH   7   8
ATOM      8  C   UNL     1      23.231  55.481 162.035  1.00  0.00     0.000 C 
BRANCH   8   9
ATOM      9  C   UNL     1      23.203  56.801 162.827  1.00  0.00     0.000 C 
BRANCH   9  10
ATOM     10  C   UNL     1      22.037  57.717 162.418  1.00  0.00     0.000 C 
BRANCH  10  11
ATOM     11  C   UNL     1      22.499  59.130 162.019  1.00  0.00     0.000 C 
BRANCH  11  12
ATOM     12  C   UNL     1      23.071  59.247 160.594  1.00  0.00     0.006 C 
BRANCH  12  13
ATOM     13  C   UNL     1      22.275  60.211 159.705  1.00  0.00     0.053 C 
BRANCH  13  14
ATOM     14  C   UNL     1      22.178  61.558 160.349  1.00  0.00     0.041 C 
ATOM     15  O   UNL     1      21.201  61.835 161.094  1.00  0.00    -0.550 OA
ATOM     16  O   UNL     1      23.146  62.522 160.093  1.00  0.00    -0.550 OA
ENDBRANCH  13  14
ENDBRANCH  12  13
ENDBRANCH  11  12
ENDBRANCH  10  11
ENDBRANCH   9  10
ENDBRANCH   8   9
ENDBRANCH   7   8
ENDBRANCH   6   7
ENDBRANCH   5   6
ENDBRANCH   4   5
ENDBRANCH   3   4
ENDBRANCH   2   3
ENDBRANCH   1   2
BRANCH   1  17
ATOM     17  C   UNL     1      15.607  51.480 159.516  1.00  0.00     0.000 C 
BRANCH  17  18
ATOM     18  C   UNL     1      14.465  52.312 158.907  1.00  0.00     0.000 C 
BRANCH  18  19
ATOM     19  C   UNL     1      14.687  52.619 157.417  1.00  0.00     0.000 C 
BRANCH  19  20
ATOM     20  C   UNL     1      13.736  53.710 156.896  1.00  0.00     0.000 C 
BRANCH  20  21
ATOM     21  C   UNL     1      14.479  54.947 156.357  1.00  0.00     0.000 C 
BRANCH  21  22
ATOM     22  C   UNL     1      15.965  55.049 156.760  1.00  0.00    -0.000 C 
BRANCH  22  23
ATOM     23  C   UNL     1      16.288  56.148 157.791  1.00  0.00    -0.000 C 
BRANCH  23  24
ATOM     24  C   UNL     1      16.848  57.456 157.195  1.00  0.00    -0.000 C 
BRANCH  24  25
ATOM     25  C   UNL     1      18.346  57.421 156.842  1.00  0.00    -0.000 C 
BRANCH  25  26
ATOM     26  C   UNL     1      19.188  56.654 157.877  1.00  0.00    -0.000 C 
BRANCH  26  27
ATOM     27  C   UNL     1      19.772  57.577 158.960  1.00  0.00    -0.000 C 
BRANCH  27  28
ATOM     28  C   UNL     1      18.974  57.510 160.275  1.00  0.00    -0.000 C 
BRANCH  28  29
ATOM     29  C   UNL     1      18.182  58.800 160.549  1.00  0.00    -0.003 C 
ATOM     30  C   UNL     1      18.559  59.941 159.604  1.00  0.00     0.004 C 
ENDBRANCH  28  29
ENDBRANCH  27  28
ENDBRANCH  26  27
ENDBRANCH  25  26
ENDBRANCH  24  25
ENDBRANCH  23  24
ENDBRANCH  22  23
ENDBRANCH  21  22
ENDBRANCH  20  21
ENDBRANCH  19  20
ENDBRANCH  18  19
ENDBRANCH  17  18
ENDBRANCH   1  17
TORSDOF 26
ENDMDL
